MODEL 1
REMARK VINA RESULT:     -10.3      0.000      0.000
REMARK SMILES CCCCCCNC(=O)Oc1cccc(-c2ccc([C@H](C)C(=O)OCCOC(=O)c3ccc(-c4c5nc(c(-c6cc(S(=O)(=O)[O-])ccc6F)c6ccc([nH]6)c(-c6cc(S(=O)(=O)[O-])ccc6F)c6nc(c(-c7cc(S(=O)(=O)[O-])ccc7F)c7ccc4[nH]7)C=C6)C=C5)cc3)cc2F)c1
REMARK SMILES IDX 20 1 21 2 19 3 16 4 17 5 94 6 18 7 93 8 95 9 15 10 11 11
REMARK SMILES IDX 12 12 96 13 13 14 14 15 10 16 8 17 7 18 9 20 6 21 5 22 4 23
REMARK SMILES IDX 3 24 2 25 1 26 22 27 23 28 24 29 25 30 26 31 27 32 28 33
REMARK SMILES IDX 29 34 30 35 31 36 92 37 32 38 91 39 33 40 34 41 35 42 85 43
REMARK SMILES IDX 36 44 90 45 84 46 86 47 37 48 89 49 83 50 82 51 38 53 70 54
REMARK SMILES IDX 50 55 69 56 51 57 54 58 68 59 87 60 52 61 53 62 67 64 88 65
REMARK SMILES IDX 55 66 39 67 40 68 48 69 41 70 47 71 49 72 46 73 42 74 43 75
REMARK SMILES IDX 44 76 45 77 71 78 72 79 80 80 73 81 79 82 81 83 78 84 74 85
REMARK SMILES IDX 75 86 76 87 77 88 56 89 57 90 65 91 58 92 64 93 66 94 63 95
REMARK SMILES IDX 59 96 60 97 61 98 62 99
REMARK H PARENT 7 19 86 52 54 63
REMARK Flexibility Score: inf
ROOT
ATOM      1  C   UNL A   1      35.485  32.238  28.215  1.00  0.00     0.126 C 
ATOM      2  C   UNL A   1      36.952  31.901  28.504  1.00  0.00     0.025 C 
ENDROOT
BRANCH   1   3
ATOM      3  C   UNL A   1      34.678  31.092  27.619  1.00  0.00    -0.031 A 
ATOM      4  C   UNL A   1      33.113  28.924  26.657  1.00  0.00     0.018 A 
ATOM      5  C   UNL A   1      34.475  28.760  26.930  1.00  0.00     0.012 A 
ATOM      6  C   UNL A   1      32.548  30.184  26.886  1.00  0.00     0.131 A 
ATOM      7  C   UNL A   1      35.243  29.824  27.403  1.00  0.00     0.005 A 
ATOM      8  C   UNL A   1      33.307  31.248  27.369  1.00  0.00     0.044 A 
ATOM      9  F   UNL A   1      31.244  30.394  26.647  1.00  0.00    -0.206 F 
BRANCH   4  10
ATOM     10  C   UNL A   1      32.339  27.808  26.112  1.00  0.00    -0.012 A 
ATOM     11  C   UNL A   1      31.697  25.478  26.187  1.00  0.00     0.133 A 
ATOM     12  C   UNL A   1      30.775  25.670  25.162  1.00  0.00     0.047 A 
ATOM     13  C   UNL A   1      32.492  26.524  26.646  1.00  0.00     0.056 A 
ATOM     14  C   UNL A   1      30.625  26.939  24.610  1.00  0.00     0.004 A 
ATOM     15  C   UNL A   1      31.399  28.001  25.085  1.00  0.00     0.009 A 
BRANCH  11  16
ATOM     16  O   UNL A   1      31.882  24.172  26.657  1.00  0.00    -0.410 OA
BRANCH  16  17
ATOM     17  C   UNL A   1      30.766  23.355  26.763  1.00  0.00     0.412 C 
ATOM     18  N   UNL A   1      30.850  22.242  25.973  1.00  0.00    -0.321 N 
ATOM     19  H   UNL A   1      30.078  21.631  25.981  1.00  0.00     0.167 HD
ATOM     20  O   UNL A   1      29.781  23.554  27.462  1.00  0.00    -0.224 OA
BRANCH  18  21
ATOM     21  C   UNL A   1      31.965  21.877  25.125  1.00  0.00     0.119 C 
BRANCH  21  22
ATOM     22  C   UNL A   1      32.288  20.386  25.216  1.00  0.00     0.021 C 
BRANCH  22  23
ATOM     23  C   UNL A   1      33.096  19.831  24.039  1.00  0.00     0.002 C 
BRANCH  23  24
ATOM     24  C   UNL A   1      32.403  18.736  23.222  1.00  0.00    -0.000 C 
BRANCH  24  25
ATOM     25  C   UNL A   1      33.078  17.363  23.258  1.00  0.00    -0.003 C 
ATOM     26  C   UNL A   1      34.465  17.393  23.880  1.00  0.00     0.004 C 
ENDBRANCH  24  25
ENDBRANCH  23  24
ENDBRANCH  22  23
ENDBRANCH  21  22
ENDBRANCH  18  21
ENDBRANCH  16  17
ENDBRANCH  11  16
ENDBRANCH   4  10
ENDBRANCH   1   3
BRANCH   1  27
ATOM     27  C   UNL A   1      34.802  32.883  29.420  1.00  0.00     0.313 C 
ATOM     28  O   UNL A   1      34.599  32.279  30.469  1.00  0.00    -0.252 OA
BRANCH  27  29
ATOM     29  O   UNL A   1      34.542  34.207  29.243  1.00  0.00    -0.462 OA
BRANCH  29  30
ATOM     30  C   UNL A   1      33.152  34.557  29.106  1.00  0.00     0.274 C 
BRANCH  30  31
ATOM     31  C   UNL A   1      32.786  35.793  29.932  1.00  0.00     0.275 C 
BRANCH  31  32
ATOM     32  O   UNL A   1      33.685  35.993  31.038  1.00  0.00    -0.458 OA
BRANCH  32  33
ATOM     33  C   UNL A   1      33.440  35.218  32.122  1.00  0.00     0.338 C 
ATOM     34  O   UNL A   1      32.352  34.853  32.530  1.00  0.00    -0.246 OA
BRANCH  33  35
ATOM     35  C   UNL A   1      34.710  34.750  32.699  1.00  0.00     0.060 A 
ATOM     36  C   UNL A   1      35.908  35.274  32.202  1.00  0.00     0.016 A 
ATOM     37  C   UNL A   1      34.721  33.736  33.653  1.00  0.00     0.016 A 
ATOM     38  C   UNL A   1      37.130  34.787  32.654  1.00  0.00     0.010 A 
ATOM     39  C   UNL A   1      35.947  33.240  34.098  1.00  0.00     0.010 A 
ATOM     40  C   UNL A   1      37.156  33.753  33.592  1.00  0.00    -0.014 A 
BRANCH  40  41
ATOM     41  C   UNL A   1      38.436  33.115  33.972  1.00  0.00     0.031 A 
ATOM     42  C   UNL A   1      38.917  31.943  33.169  1.00  0.00     0.074 A 
ATOM     43  C   UNL A   1      39.141  33.566  35.025  1.00  0.00     0.049 A 
ATOM     44  N   UNL A   1      39.856  31.078  33.445  1.00  0.00    -0.248 NA
ATOM     45  C   UNL A   1      38.239  31.713  31.884  1.00  0.00     0.031 C 
ATOM     46  C   UNL A   1      38.817  34.756  35.812  1.00  0.00     0.029 A 
ATOM     47  N   UNL A   1      40.264  33.059  35.629  1.00  0.00    -0.354 N 
ATOM     48  C   UNL A   1      39.868  30.184  32.380  1.00  0.00     0.074 A 
ATOM     49  C   UNL A   1      38.831  30.606  31.462  1.00  0.00     0.031 C 
ATOM     50  C   UNL A   1      39.703  34.869  36.815  1.00  0.00     0.029 A 
ATOM     51  C   UNL A   1      40.611  33.725  36.782  1.00  0.00     0.049 A 
ATOM     52  H   UNL A   1      40.771  32.294  35.272  1.00  0.00     0.167 HD
ATOM     53  C   UNL A   1      40.670  29.107  32.198  1.00  0.00     0.034 A 
ATOM     54  C   UNL A   1      41.516  33.408  37.730  1.00  0.00     0.034 A 
ATOM     55  C   UNL A   1      41.690  28.710  33.136  1.00  0.00     0.049 A 
ATOM     56  C   UNL A   1      42.330  32.145  37.558  1.00  0.00     0.074 A 
ATOM     57  C   UNL A   1      42.534  27.614  33.085  1.00  0.00     0.029 A 
ATOM     58  N   UNL A   1      42.008  29.402  34.298  1.00  0.00    -0.354 N 
ATOM     59  N   UNL A   1      42.288  31.262  36.586  1.00  0.00    -0.248 NA
ATOM     60  C   UNL A   1      43.310  31.835  38.608  1.00  0.00     0.031 C 
ATOM     61  C   UNL A   1      43.323  27.615  34.240  1.00  0.00     0.029 A 
ATOM     62  C   UNL A   1      43.025  28.752  34.974  1.00  0.00     0.049 A 
ATOM     63  H   UNL A   1      41.572  30.233  34.597  1.00  0.00     0.167 HD
ATOM     64  C   UNL A   1      43.269  30.320  36.887  1.00  0.00     0.074 A 
ATOM     65  C   UNL A   1      43.883  30.742  38.129  1.00  0.00     0.031 C 
ATOM     66  C   UNL A   1      43.636  29.210  36.199  1.00  0.00     0.034 A 
BRANCH  53  67
ATOM     67  C   UNL A   1      40.432  28.260  30.974  1.00  0.00     0.023 A 
ATOM     68  C   UNL A   1      41.275  28.326  29.852  1.00  0.00     0.031 A 
ATOM     69  C   UNL A   1      39.331  27.387  30.923  1.00  0.00     0.131 A 
ATOM     70  C   UNL A   1      40.974  27.571  28.708  1.00  0.00     0.055 A 
ATOM     71  C   UNL A   1      39.078  26.585  29.809  1.00  0.00     0.041 A 
ATOM     72  F   UNL A   1      38.476  27.303  31.955  1.00  0.00    -0.206 F 
ATOM     73  C   UNL A   1      39.897  26.682  28.688  1.00  0.00     0.022 A 
BRANCH  70  74
ATOM     74  S   UNL A   1      41.947  27.850  27.202  1.00  0.00     0.124 S 
ATOM     75  O   UNL A   1      41.010  27.427  26.164  1.00  0.00    -0.237 OA
ATOM     76  O   UNL A   1      42.227  29.279  27.265  1.00  0.00    -0.237 OA
ATOM     77  O   UNL A   1      43.107  26.979  27.377  1.00  0.00    -0.744 OA
ENDBRANCH  70  74
ENDBRANCH  53  67
BRANCH  54  78
ATOM     78  C   UNL A   1      41.660  34.242  38.959  1.00  0.00     0.023 A 
ATOM     79  C   UNL A   1      40.841  34.031  40.079  1.00  0.00     0.031 A 
ATOM     80  C   UNL A   1      42.567  35.317  39.004  1.00  0.00     0.131 A 
ATOM     81  C   UNL A   1      40.897  34.917  41.165  1.00  0.00     0.055 A 
ATOM     82  C   UNL A   1      42.667  36.156  40.115  1.00  0.00     0.041 A 
ATOM     83  F   UNL A   1      43.373  35.572  37.960  1.00  0.00    -0.206 F 
ATOM     84  C   UNL A   1      41.814  35.969  41.198  1.00  0.00     0.022 A 
BRANCH  81  85
ATOM     85  S   UNL A   1      39.661  34.751  42.483  1.00  0.00     0.124 S 
ATOM     86  O   UNL A   1      38.912  35.995  42.345  1.00  0.00    -0.237 OA
ATOM     87  O   UNL A   1      38.962  33.534  42.089  1.00  0.00    -0.237 OA
ATOM     88  O   UNL A   1      40.470  34.642  43.695  1.00  0.00    -0.744 OA
ENDBRANCH  81  85
ENDBRANCH  54  78
BRANCH  66  89
ATOM     89  C   UNL A   1      44.816  28.432  36.722  1.00  0.00     0.023 A 
ATOM     90  C   UNL A   1      46.139  28.857  36.519  1.00  0.00     0.031 A 
ATOM     91  C   UNL A   1      44.601  27.253  37.458  1.00  0.00     0.131 A 
ATOM     92  C   UNL A   1      47.201  28.083  37.014  1.00  0.00     0.055 A 
ATOM     93  C   UNL A   1      45.657  26.516  37.990  1.00  0.00     0.041 A 
ATOM     94  F   UNL A   1      43.353  26.806  37.680  1.00  0.00    -0.206 F 
ATOM     95  C   UNL A   1      46.967  26.926  37.762  1.00  0.00     0.022 A 
BRANCH  92  96
ATOM     96  S   UNL A   1      48.900  28.578  36.620  1.00  0.00     0.124 S 
ATOM     97  O   UNL A   1      49.566  28.439  37.912  1.00  0.00    -0.237 OA
ATOM     98  O   UNL A   1      49.281  27.607  35.600  1.00  0.00    -0.237 OA
ATOM     99  O   UNL A   1      48.757  29.953  36.142  1.00  0.00    -0.744 OA
ENDBRANCH  92  96
ENDBRANCH  66  89
ENDBRANCH  40  41
ENDBRANCH  33  35
ENDBRANCH  32  33
ENDBRANCH  31  32
ENDBRANCH  30  31
ENDBRANCH  29  30
ENDBRANCH  27  29
ENDBRANCH   1  27
TORSDOF 23
ENDMDL
MODEL 2
REMARK VINA RESULT:     -10.3      1.883      2.226
REMARK SMILES CCCCCCNC(=O)Oc1cccc(-c2ccc([C@H](C)C(=O)OCCOC(=O)c3ccc(-c4c5nc(c(-c6cc(S(=O)(=O)[O-])ccc6F)c6ccc([nH]6)c(-c6cc(S(=O)(=O)[O-])ccc6F)c6nc(c(-c7cc(S(=O)(=O)[O-])ccc7F)c7ccc4[nH]7)C=C6)C=C5)cc3)cc2F)c1
REMARK SMILES IDX 20 1 21 2 19 3 16 4 17 5 94 6 18 7 93 8 95 9 15 10 11 11
REMARK SMILES IDX 12 12 96 13 13 14 14 15 10 16 8 17 7 18 9 20 6 21 5 22 4 23
REMARK SMILES IDX 3 24 2 25 1 26 22 27 23 28 24 29 25 30 26 31 27 32 28 33
REMARK SMILES IDX 29 34 30 35 31 36 92 37 32 38 91 39 33 40 34 41 35 42 85 43
REMARK SMILES IDX 36 44 90 45 84 46 86 47 37 48 89 49 83 50 82 51 38 53 70 54
REMARK SMILES IDX 50 55 69 56 51 57 54 58 68 59 87 60 52 61 53 62 67 64 88 65
REMARK SMILES IDX 55 66 39 67 40 68 48 69 41 70 47 71 49 72 46 73 42 74 43 75
REMARK SMILES IDX 44 76 45 77 71 78 72 79 80 80 73 81 79 82 81 83 78 84 74 85
REMARK SMILES IDX 75 86 76 87 77 88 56 89 57 90 65 91 58 92 64 93 66 94 63 95
REMARK SMILES IDX 59 96 60 97 61 98 62 99
REMARK H PARENT 7 19 86 52 54 63
REMARK Flexibility Score: inf
ROOT
ATOM      1  C   UNL A   1      35.384  32.393  28.256  1.00  0.00     0.126 C 
ATOM      2  C   UNL A   1      36.858  32.049  28.495  1.00  0.00     0.025 C 
ENDROOT
BRANCH   1   3
ATOM      3  C   UNL A   1      34.561  31.265  27.649  1.00  0.00    -0.031 A 
ATOM      4  C   UNL A   1      32.962  29.132  26.665  1.00  0.00     0.018 A 
ATOM      5  C   UNL A   1      34.312  28.933  26.973  1.00  0.00     0.012 A 
ATOM      6  C   UNL A   1      32.426  30.407  26.871  1.00  0.00     0.131 A 
ATOM      7  C   UNL A   1      35.096  29.981  27.457  1.00  0.00     0.005 A 
ATOM      8  C   UNL A   1      33.201  31.455  27.365  1.00  0.00     0.044 A 
ATOM      9  F   UNL A   1      31.134  30.651  26.599  1.00  0.00    -0.206 F 
BRANCH   4  10
ATOM     10  C   UNL A   1      32.172  28.032  26.110  1.00  0.00    -0.012 A 
ATOM     11  C   UNL A   1      31.438  25.730  26.207  1.00  0.00     0.133 A 
ATOM     12  C   UNL A   1      30.572  25.932  25.136  1.00  0.00     0.047 A 
ATOM     13  C   UNL A   1      32.250  26.757  26.679  1.00  0.00     0.056 A 
ATOM     14  C   UNL A   1      30.496  27.192  24.549  1.00  0.00     0.004 A 
ATOM     15  C   UNL A   1      31.288  28.235  25.035  1.00  0.00     0.009 A 
BRANCH  11  16
ATOM     16  O   UNL A   1      31.551  24.429  26.714  1.00  0.00    -0.410 OA
BRANCH  16  17
ATOM     17  C   UNL A   1      30.418  23.629  26.711  1.00  0.00     0.412 C 
ATOM     18  N   UNL A   1      30.488  22.619  25.793  1.00  0.00    -0.321 N 
ATOM     19  H   UNL A   1      29.704  22.028  25.721  1.00  0.00     0.167 HD
ATOM     20  O   UNL A   1      29.430  23.764  27.421  1.00  0.00    -0.224 OA
BRANCH  18  21
ATOM     21  C   UNL A   1      31.605  22.336  24.916  1.00  0.00     0.119 C 
BRANCH  21  22
ATOM     22  C   UNL A   1      32.460  21.181  25.437  1.00  0.00     0.021 C 
BRANCH  22  23
ATOM     23  C   UNL A   1      33.466  20.621  24.426  1.00  0.00     0.002 C 
BRANCH  23  24
ATOM     24  C   UNL A   1      34.868  20.340  24.978  1.00  0.00    -0.000 C 
BRANCH  24  25
ATOM     25  C   UNL A   1      35.716  21.578  25.275  1.00  0.00    -0.003 C 
ATOM     26  C   UNL A   1      36.962  21.674  24.409  1.00  0.00     0.004 C 
ENDBRANCH  24  25
ENDBRANCH  23  24
ENDBRANCH  22  23
ENDBRANCH  21  22
ENDBRANCH  18  21
ENDBRANCH  16  17
ENDBRANCH  11  16
ENDBRANCH   4  10
ENDBRANCH   1   3
BRANCH   1  27
ATOM     27  C   UNL A   1      34.734  33.002  29.498  1.00  0.00     0.313 C 
ATOM     28  O   UNL A   1      34.543  32.362  30.527  1.00  0.00    -0.252 OA
BRANCH  27  29
ATOM     29  O   UNL A   1      34.489  34.335  29.375  1.00  0.00    -0.462 OA
BRANCH  29  30
ATOM     30  C   UNL A   1      33.111  34.700  29.170  1.00  0.00     0.274 C 
BRANCH  30  31
ATOM     31  C   UNL A   1      32.678  35.847  30.087  1.00  0.00     0.275 C 
BRANCH  31  32
ATOM     32  O   UNL A   1      33.592  36.043  31.182  1.00  0.00    -0.458 OA
BRANCH  32  33
ATOM     33  C   UNL A   1      33.355  35.272  32.270  1.00  0.00     0.338 C 
ATOM     34  O   UNL A   1      32.269  34.922  32.696  1.00  0.00    -0.246 OA
BRANCH  33  35
ATOM     35  C   UNL A   1      34.628  34.788  32.826  1.00  0.00     0.060 A 
ATOM     36  C   UNL A   1      35.822  35.343  32.355  1.00  0.00     0.016 A 
ATOM     37  C   UNL A   1      34.645  33.729  33.731  1.00  0.00     0.016 A 
ATOM     38  C   UNL A   1      37.048  34.845  32.785  1.00  0.00     0.010 A 
ATOM     39  C   UNL A   1      35.875  33.222  34.154  1.00  0.00     0.010 A 
ATOM     40  C   UNL A   1      37.081  33.768  33.674  1.00  0.00    -0.014 A 
BRANCH  40  41
ATOM     41  C   UNL A   1      38.365  33.123  34.024  1.00  0.00     0.031 A 
ATOM     42  C   UNL A   1      38.840  31.971  33.188  1.00  0.00     0.074 A 
ATOM     43  C   UNL A   1      39.080  33.549  35.081  1.00  0.00     0.049 A 
ATOM     44  N   UNL A   1      39.782  31.101  33.433  1.00  0.00    -0.248 NA
ATOM     45  C   UNL A   1      38.149  31.773  31.904  1.00  0.00     0.031 C 
ATOM     46  C   UNL A   1      38.762  34.718  35.901  1.00  0.00     0.029 A 
ATOM     47  N   UNL A   1      40.209  33.028  35.661  1.00  0.00    -0.354 N 
ATOM     48  C   UNL A   1      39.784  30.234  32.346  1.00  0.00     0.074 A 
ATOM     49  C   UNL A   1      38.738  30.677  31.449  1.00  0.00     0.031 C 
ATOM     50  C   UNL A   1      39.658  34.807  36.898  1.00  0.00     0.029 A 
ATOM     51  C   UNL A   1      40.567  33.666  36.827  1.00  0.00     0.049 A 
ATOM     52  H   UNL A   1      40.714  32.273  35.281  1.00  0.00     0.167 HD
ATOM     53  C   UNL A   1      40.586  29.163  32.129  1.00  0.00     0.034 A 
ATOM     54  C   UNL A   1      41.482  33.327  37.758  1.00  0.00     0.034 A 
ATOM     55  C   UNL A   1      41.616  28.744  33.047  1.00  0.00     0.049 A 
ATOM     56  C   UNL A   1      42.296  32.070  37.547  1.00  0.00     0.074 A 
ATOM     57  C   UNL A   1      42.460  27.652  32.960  1.00  0.00     0.029 A 
ATOM     58  N   UNL A   1      41.944  29.408  34.223  1.00  0.00    -0.354 N 
ATOM     59  N   UNL A   1      42.245  31.211  36.554  1.00  0.00    -0.248 NA
ATOM     60  C   UNL A   1      43.287  31.735  38.578  1.00  0.00     0.031 C 
ATOM     61  C   UNL A   1      43.261  27.625  34.106  1.00  0.00     0.029 A 
ATOM     62  C   UNL A   1      42.969  28.743  34.872  1.00  0.00     0.049 A 
ATOM     63  H   UNL A   1      41.510  30.231  34.546  1.00  0.00     0.167 HD
ATOM     64  C   UNL A   1      43.230  30.263  36.821  1.00  0.00     0.074 A 
ATOM     65  C   UNL A   1      43.856  30.655  38.066  1.00  0.00     0.031 C 
ATOM     66  C   UNL A   1      43.591  29.171  36.102  1.00  0.00     0.034 A 
BRANCH  53  67
ATOM     67  C   UNL A   1      40.336  28.347  30.887  1.00  0.00     0.023 A 
ATOM     68  C   UNL A   1      41.090  28.531  29.715  1.00  0.00     0.031 A 
ATOM     69  C   UNL A   1      39.315  27.381  30.870  1.00  0.00     0.131 A 
ATOM     70  C   UNL A   1      40.776  27.798  28.561  1.00  0.00     0.055 A 
ATOM     71  C   UNL A   1      39.054  26.604  29.740  1.00  0.00     0.041 A 
ATOM     72  F   UNL A   1      38.545  27.181  31.952  1.00  0.00    -0.206 F 
ATOM     73  C   UNL A   1      39.781  26.818  28.573  1.00  0.00     0.022 A 
BRANCH  70  74
ATOM     74  S   UNL A   1      41.612  28.221  27.008  1.00  0.00     0.124 S 
ATOM     75  O   UNL A   1      42.730  29.032  27.487  1.00  0.00    -0.237 OA
ATOM     76  O   UNL A   1      41.959  26.912  26.468  1.00  0.00    -0.237 OA
ATOM     77  O   UNL A   1      40.596  28.956  26.260  1.00  0.00    -0.744 OA
ENDBRANCH  70  74
ENDBRANCH  53  67
BRANCH  54  78
ATOM     78  C   UNL A   1      41.638  34.130  39.006  1.00  0.00     0.023 A 
ATOM     79  C   UNL A   1      42.488  35.247  39.048  1.00  0.00     0.031 A 
ATOM     80  C   UNL A   1      40.999  33.747  40.200  1.00  0.00     0.131 A 
ATOM     81  C   UNL A   1      42.727  35.899  40.267  1.00  0.00     0.055 A 
ATOM     82  C   UNL A   1      41.188  34.441  41.396  1.00  0.00     0.041 A 
ATOM     83  F   UNL A   1      40.179  32.684  40.222  1.00  0.00    -0.206 F 
ATOM     84  C   UNL A   1      42.073  35.514  41.438  1.00  0.00     0.022 A 
BRANCH  81  85
ATOM     85  S   UNL A   1      44.010  37.181  40.325  1.00  0.00     0.124 S 
ATOM     86  O   UNL A   1      43.608  37.949  41.498  1.00  0.00    -0.237 OA
ATOM     87  O   UNL A   1      45.225  36.387  40.462  1.00  0.00    -0.237 OA
ATOM     88  O   UNL A   1      43.858  37.872  39.046  1.00  0.00    -0.744 OA
ENDBRANCH  81  85
ENDBRANCH  54  78
BRANCH  66  89
ATOM     89  C   UNL A   1      44.778  28.383  36.593  1.00  0.00     0.023 A 
ATOM     90  C   UNL A   1      44.657  27.379  37.568  1.00  0.00     0.031 A 
ATOM     91  C   UNL A   1      46.053  28.634  36.052  1.00  0.00     0.131 A 
ATOM     92  C   UNL A   1      45.799  26.689  38.001  1.00  0.00     0.055 A 
ATOM     93  C   UNL A   1      47.175  27.912  36.450  1.00  0.00     0.041 A 
ATOM     94  F   UNL A   1      46.220  29.584  35.116  1.00  0.00    -0.206 F 
ATOM     95  C   UNL A   1      47.054  26.938  37.437  1.00  0.00     0.022 A 
BRANCH  92  96
ATOM     96  S   UNL A   1      45.638  25.496  39.357  1.00  0.00     0.124 S 
ATOM     97  O   UNL A   1      44.548  26.069  40.141  1.00  0.00    -0.237 OA
ATOM     98  O   UNL A   1      45.331  24.257  38.650  1.00  0.00    -0.237 OA
ATOM     99  O   UNL A   1      46.950  25.530  40.003  1.00  0.00    -0.744 OA
ENDBRANCH  92  96
ENDBRANCH  66  89
ENDBRANCH  40  41
ENDBRANCH  33  35
ENDBRANCH  32  33
ENDBRANCH  31  32
ENDBRANCH  30  31
ENDBRANCH  29  30
ENDBRANCH  27  29
ENDBRANCH   1  27
TORSDOF 23
ENDMDL
MODEL 3
REMARK VINA RESULT:     -10.3     10.489     15.538
REMARK SMILES CCCCCCNC(=O)Oc1cccc(-c2ccc([C@H](C)C(=O)OCCOC(=O)c3ccc(-c4c5nc(c(-c6cc(S(=O)(=O)[O-])ccc6F)c6ccc([nH]6)c(-c6cc(S(=O)(=O)[O-])ccc6F)c6nc(c(-c7cc(S(=O)(=O)[O-])ccc7F)c7ccc4[nH]7)C=C6)C=C5)cc3)cc2F)c1
REMARK SMILES IDX 20 1 21 2 19 3 16 4 17 5 94 6 18 7 93 8 95 9 15 10 11 11
REMARK SMILES IDX 12 12 96 13 13 14 14 15 10 16 8 17 7 18 9 20 6 21 5 22 4 23
REMARK SMILES IDX 3 24 2 25 1 26 22 27 23 28 24 29 25 30 26 31 27 32 28 33
REMARK SMILES IDX 29 34 30 35 31 36 92 37 32 38 91 39 33 40 34 41 35 42 85 43
REMARK SMILES IDX 36 44 90 45 84 46 86 47 37 48 89 49 83 50 82 51 38 53 70 54
REMARK SMILES IDX 50 55 69 56 51 57 54 58 68 59 87 60 52 61 53 62 67 64 88 65
REMARK SMILES IDX 55 66 39 67 40 68 48 69 41 70 47 71 49 72 46 73 42 74 43 75
REMARK SMILES IDX 44 76 45 77 71 78 72 79 80 80 73 81 79 82 81 83 78 84 74 85
REMARK SMILES IDX 75 86 76 87 77 88 56 89 57 90 65 91 58 92 64 93 66 94 63 95
REMARK SMILES IDX 59 96 60 97 61 98 62 99
REMARK H PARENT 7 19 86 52 54 63
REMARK Flexibility Score: inf
ROOT
ATOM      1  C   UNL A   1      45.837  43.000  25.911  1.00  0.00     0.126 C 
ATOM      2  C   UNL A   1      47.289  42.526  25.782  1.00  0.00     0.025 C 
ENDROOT
BRANCH   1   3
ATOM      3  C   UNL A   1      45.109  43.179  24.585  1.00  0.00    -0.031 A 
ATOM      4  C   UNL A   1      43.869  43.616  22.066  1.00  0.00     0.018 A 
ATOM      5  C   UNL A   1      43.418  44.278  23.213  1.00  0.00     0.012 A 
ATOM      6  C   UNL A   1      44.955  42.745  22.200  1.00  0.00     0.131 A 
ATOM      7  C   UNL A   1      44.027  44.064  24.449  1.00  0.00     0.005 A 
ATOM      8  C   UNL A   1      45.577  42.535  23.430  1.00  0.00     0.044 A 
ATOM      9  F   UNL A   1      45.433  42.090  21.131  1.00  0.00    -0.206 F 
BRANCH   4  10
ATOM     10  C   UNL A   1      43.180  43.816  20.790  1.00  0.00    -0.012 A 
ATOM     11  C   UNL A   1      43.217  44.574  18.495  1.00  0.00     0.133 A 
ATOM     12  C   UNL A   1      41.923  44.106  18.290  1.00  0.00     0.047 A 
ATOM     13  C   UNL A   1      43.838  44.457  19.735  1.00  0.00     0.056 A 
ATOM     14  C   UNL A   1      41.251  43.481  19.337  1.00  0.00     0.004 A 
ATOM     15  C   UNL A   1      41.877  43.334  20.577  1.00  0.00     0.009 A 
BRANCH  11  16
ATOM     16  O   UNL A   1      43.827  45.275  17.446  1.00  0.00    -0.410 OA
BRANCH  16  17
ATOM     17  C   UNL A   1      43.159  46.371  16.921  1.00  0.00     0.412 C 
ATOM     18  N   UNL A   1      43.748  47.558  17.255  1.00  0.00    -0.321 N 
ATOM     19  H   UNL A   1      43.309  48.379  16.936  1.00  0.00     0.167 HD
ATOM     20  O   UNL A   1      42.146  46.346  16.233  1.00  0.00    -0.224 OA
BRANCH  18  21
ATOM     21  C   UNL A   1      44.957  47.723  18.035  1.00  0.00     0.119 C 
BRANCH  21  22
ATOM     22  C   UNL A   1      44.824  48.847  19.062  1.00  0.00     0.021 C 
BRANCH  22  23
ATOM     23  C   UNL A   1      45.176  48.449  20.500  1.00  0.00     0.002 C 
BRANCH  23  24
ATOM     24  C   UNL A   1      46.399  47.539  20.651  1.00  0.00    -0.000 C 
BRANCH  24  25
ATOM     25  C   UNL A   1      46.275  46.443  21.711  1.00  0.00    -0.003 C 
ATOM     26  C   UNL A   1      47.253  45.297  21.507  1.00  0.00     0.004 C 
ENDBRANCH  24  25
ENDBRANCH  23  24
ENDBRANCH  22  23
ENDBRANCH  21  22
ENDBRANCH  18  21
ENDBRANCH  16  17
ENDBRANCH  11  16
ENDBRANCH   4  10
ENDBRANCH   1   3
BRANCH   1  27
ATOM     27  C   UNL A   1      45.051  42.156  26.912  1.00  0.00     0.313 C 
ATOM     28  O   UNL A   1      45.018  42.410  28.113  1.00  0.00    -0.252 OA
BRANCH  27  29
ATOM     29  O   UNL A   1      44.321  41.169  26.324  1.00  0.00    -0.462 OA
BRANCH  29  30
ATOM     30  C   UNL A   1      44.961  39.882  26.244  1.00  0.00     0.274 C 
BRANCH  30  31
ATOM     31  C   UNL A   1      44.828  39.092  27.550  1.00  0.00     0.275 C 
BRANCH  31  32
ATOM     32  O   UNL A   1      45.418  37.783  27.455  1.00  0.00    -0.458 OA
BRANCH  32  33
ATOM     33  C   UNL A   1      45.668  37.181  28.643  1.00  0.00     0.338 C 
ATOM     34  O   UNL A   1      45.982  37.724  29.687  1.00  0.00    -0.246 OA
BRANCH  33  35
ATOM     35  C   UNL A   1      45.379  35.741  28.544  1.00  0.00     0.060 A 
ATOM     36  C   UNL A   1      44.620  35.281  27.464  1.00  0.00     0.016 A 
ATOM     37  C   UNL A   1      45.772  34.872  29.558  1.00  0.00     0.016 A 
ATOM     38  C   UNL A   1      44.246  33.943  27.386  1.00  0.00     0.010 A 
ATOM     39  C   UNL A   1      45.388  33.531  29.486  1.00  0.00     0.010 A 
ATOM     40  C   UNL A   1      44.612  33.064  28.408  1.00  0.00    -0.014 A 
BRANCH  40  41
ATOM     41  C   UNL A   1      44.098  31.677  28.426  1.00  0.00     0.031 A 
ATOM     42  C   UNL A   1      44.855  30.622  27.675  1.00  0.00     0.074 A 
ATOM     43  C   UNL A   1      42.966  31.375  29.087  1.00  0.00     0.049 A 
ATOM     44  N   UNL A   1      44.485  29.416  27.340  1.00  0.00    -0.248 NA
ATOM     45  C   UNL A   1      46.212  30.985  27.236  1.00  0.00     0.031 C 
ATOM     46  C   UNL A   1      42.206  32.299  29.929  1.00  0.00     0.029 A 
ATOM     47  N   UNL A   1      42.245  30.209  29.133  1.00  0.00    -0.354 N 
ATOM     48  C   UNL A   1      45.552  28.879  26.629  1.00  0.00     0.074 A 
ATOM     49  C   UNL A   1      46.577  29.900  26.569  1.00  0.00     0.031 C 
ATOM     50  C   UNL A   1      41.108  31.672  30.382  1.00  0.00     0.029 A 
ATOM     51  C   UNL A   1      41.052  30.331  29.807  1.00  0.00     0.049 A 
ATOM     52  H   UNL A   1      42.551  29.367  28.723  1.00  0.00     0.167 HD
ATOM     53  C   UNL A   1      45.655  27.648  26.072  1.00  0.00     0.034 A 
ATOM     54  C   UNL A   1      40.010  29.478  29.895  1.00  0.00     0.034 A 
ATOM     55  C   UNL A   1      44.612  26.655  26.144  1.00  0.00     0.049 A 
ATOM     56  C   UNL A   1      40.104  28.148  29.180  1.00  0.00     0.074 A 
ATOM     57  C   UNL A   1      44.581  25.391  25.583  1.00  0.00     0.029 A 
ATOM     58  N   UNL A   1      43.413  26.817  26.827  1.00  0.00    -0.354 N 
ATOM     59  N   UNL A   1      41.085  27.673  28.446  1.00  0.00    -0.248 NA
ATOM     60  C   UNL A   1      38.954  27.243  29.302  1.00  0.00     0.031 C 
ATOM     61  C   UNL A   1      43.344  24.810  25.881  1.00  0.00     0.029 A 
ATOM     62  C   UNL A   1      42.634  25.681  26.693  1.00  0.00     0.049 A 
ATOM     63  H   UNL A   1      43.156  27.622  27.333  1.00  0.00     0.167 HD
ATOM     64  C   UNL A   1      40.687  26.395  28.062  1.00  0.00     0.074 A 
ATOM     65  C   UNL A   1      39.378  26.176  28.642  1.00  0.00     0.031 C 
ATOM     66  C   UNL A   1      41.342  25.481  27.304  1.00  0.00     0.034 A 
BRANCH  53  67
ATOM     67  C   UNL A   1      46.909  27.337  25.295  1.00  0.00     0.023 A 
ATOM     68  C   UNL A   1      47.132  27.859  24.009  1.00  0.00     0.031 A 
ATOM     69  C   UNL A   1      47.888  26.491  25.843  1.00  0.00     0.131 A 
ATOM     70  C   UNL A   1      48.280  27.487  23.295  1.00  0.00     0.055 A 
ATOM     71  C   UNL A   1      49.063  26.181  25.155  1.00  0.00     0.041 A 
ATOM     72  F   UNL A   1      47.716  25.942  27.057  1.00  0.00    -0.206 F 
ATOM     73  C   UNL A   1      49.260  26.673  23.868  1.00  0.00     0.022 A 
BRANCH  70  74
ATOM     74  S   UNL A   1      48.425  27.992  21.559  1.00  0.00     0.124 S 
ATOM     75  O   UNL A   1      47.383  29.012  21.461  1.00  0.00    -0.237 OA
ATOM     76  O   UNL A   1      49.799  28.475  21.482  1.00  0.00    -0.237 OA
ATOM     77  O   UNL A   1      48.154  26.762  20.819  1.00  0.00    -0.744 OA
ENDBRANCH  70  74
ENDBRANCH  53  67
BRANCH  54  78
ATOM     78  C   UNL A   1      38.763  29.865  30.616  1.00  0.00     0.023 A 
ATOM     79  C   UNL A   1      37.849  30.769  30.051  1.00  0.00     0.031 A 
ATOM     80  C   UNL A   1      38.504  29.398  31.918  1.00  0.00     0.131 A 
ATOM     81  C   UNL A   1      36.759  31.226  30.807  1.00  0.00     0.055 A 
ATOM     82  C   UNL A   1      37.381  29.804  32.641  1.00  0.00     0.041 A 
ATOM     83  F   UNL A   1      39.345  28.536  32.513  1.00  0.00    -0.206 F 
ATOM     84  C   UNL A   1      36.510  30.739  32.092  1.00  0.00     0.022 A 
BRANCH  81  85
ATOM     85  S   UNL A   1      35.741  32.567  30.132  1.00  0.00     0.124 S 
ATOM     86  O   UNL A   1      36.486  33.748  30.557  1.00  0.00    -0.237 OA
ATOM     87  O   UNL A   1      35.763  32.274  28.704  1.00  0.00    -0.237 OA
ATOM     88  O   UNL A   1      34.449  32.376  30.789  1.00  0.00    -0.744 OA
ENDBRANCH  81  85
ENDBRANCH  54  78
BRANCH  66  89
ATOM     89  C   UNL A   1      40.698  24.127  27.144  1.00  0.00     0.023 A 
ATOM     90  C   UNL A   1      39.549  23.935  26.361  1.00  0.00     0.031 A 
ATOM     91  C   UNL A   1      41.268  23.007  27.777  1.00  0.00     0.131 A 
ATOM     92  C   UNL A   1      38.981  22.655  26.262  1.00  0.00     0.055 A 
ATOM     93  C   UNL A   1      40.729  21.730  27.635  1.00  0.00     0.041 A 
ATOM     94  F   UNL A   1      42.369  23.140  28.536  1.00  0.00    -0.206 F 
ATOM     95  C   UNL A   1      39.573  21.550  26.881  1.00  0.00     0.022 A 
BRANCH  92  96
ATOM     96  S   UNL A   1      37.421  22.458  25.359  1.00  0.00     0.124 S 
ATOM     97  O   UNL A   1      37.205  23.800  24.826  1.00  0.00    -0.237 OA
ATOM     98  O   UNL A   1      37.754  21.429  24.379  1.00  0.00    -0.237 OA
ATOM     99  O   UNL A   1      36.474  22.043  26.394  1.00  0.00    -0.744 OA
ENDBRANCH  92  96
ENDBRANCH  66  89
ENDBRANCH  40  41
ENDBRANCH  33  35
ENDBRANCH  32  33
ENDBRANCH  31  32
ENDBRANCH  30  31
ENDBRANCH  29  30
ENDBRANCH  27  29
ENDBRANCH   1  27
TORSDOF 23
ENDMDL
