MODEL 1
REMARK VINA RESULT:     -12.5      0.000      0.000
REMARK SMILES Cc1cc(Br)cc2c1O[C@H](C(F)(F)F)C(C(=O)OCCOC(=O)c1ccc(-c3c4nc(c(-c5cc(S(=O)(=O)[O-])ccc5F)c5ccc([nH]5)c(-c5cc(S(=O)(=O)[O-])ccc5F)c5nc(c(-c6cc(S(=O)(=O)[O-])ccc6F)c6ccc3[nH]6)C=C5)C=C4)cc1)=C2
REMARK SMILES IDX 20 1 19 2 18 3 16 4 17 5 15 6 1 7 2 8 3 9 8 10 4 11 7 12
REMARK SMILES IDX 9 13 5 14 6 15 87 16 10 17 11 18 12 19 13 20 14 21 21 22
REMARK SMILES IDX 22 23 23 24 24 25 25 26 86 27 26 28 85 29 27 30 28 31 29 32
REMARK SMILES IDX 79 33 30 34 84 35 78 36 80 37 31 38 83 39 77 40 76 41 32 43
REMARK SMILES IDX 64 44 44 45 63 46 45 47 48 48 62 49 81 50 46 51 47 52 61 54
REMARK SMILES IDX 82 55 49 56 33 57 34 58 42 59 35 60 41 61 43 62 40 63 36 64
REMARK SMILES IDX 37 65 38 66 39 67 65 68 66 69 74 70 67 71 73 72 75 73 72 74
REMARK SMILES IDX 68 75 69 76 70 77 71 78 50 79 51 80 59 81 52 82 58 83 60 84
REMARK SMILES IDX 57 85 53 86 54 87 55 88 56 89
REMARK H PARENT 80 42 48 53
REMARK Flexibility Score: inf
ROOT
ATOM      1  C   UNL A   1      36.603  20.627  25.041  1.00  0.00     0.275 C 
ENDROOT
BRANCH   1   2
ATOM      2  C   UNL A   1      35.242  21.264  24.762  1.00  0.00     0.275 C 
BRANCH   2   3
ATOM      3  O   UNL A   1      35.320  22.707  24.752  1.00  0.00    -0.459 OA
BRANCH   3   4
ATOM      4  C   UNL A   1      35.152  23.287  23.541  1.00  0.00     0.338 C 
ATOM      5  O   UNL A   1      35.737  22.992  22.510  1.00  0.00    -0.246 OA
BRANCH   4   6
ATOM      6  C   UNL A   1      34.146  24.361  23.607  1.00  0.00     0.087 C 
ATOM      7  C   UNL A   1      29.753  27.015  23.530  1.00  0.00     0.048 C 
ATOM      8  C   UNL A   1      31.065  27.121  24.250  1.00  0.00    -0.007 A 
ATOM      9  C   UNL A   1      31.256  28.137  25.203  1.00  0.00     0.023 A 
ATOM     10  C   UNL A   1      32.115  26.231  23.974  1.00  0.00     0.130 A 
ATOM     11  C   UNL A   1      32.473  28.257  25.871  1.00  0.00     0.019 A 
ATOM     12  C   UNL A   1      33.324  26.351  24.662  1.00  0.00     0.019 A 
ATOM     13  O   UNL A   1      31.900  25.277  23.015  1.00  0.00    -0.475 OA
ATOM     14  Br  UNL A   1      32.708  29.612  27.165  1.00  0.00    -0.051 Br
ATOM     15  C   UNL A   1      33.509  27.371  25.604  1.00  0.00     0.027 A 
ATOM     16  C   UNL A   1      34.376  25.383  24.437  1.00  0.00     0.027 C 
ATOM     17  C   UNL A   1      32.850  24.184  22.875  1.00  0.00     0.316 C 
BRANCH  17  18
ATOM     18  C   UNL A   1      32.155  22.872  23.272  1.00  0.00     0.430 C 
ATOM     19  F   UNL A   1      30.831  22.909  22.983  1.00  0.00    -0.167 F 
ATOM     20  F   UNL A   1      32.661  21.813  22.592  1.00  0.00    -0.167 F 
ATOM     21  F   UNL A   1      32.275  22.601  24.591  1.00  0.00    -0.167 F 
ENDBRANCH  17  18
ENDBRANCH   4   6
ENDBRANCH   3   4
ENDBRANCH   2   3
ENDBRANCH   1   2
BRANCH   1  22
ATOM     22  O   UNL A   1      37.643  21.622  25.023  1.00  0.00    -0.458 OA
BRANCH  22  23
ATOM     23  C   UNL A   1      38.745  21.301  25.738  1.00  0.00     0.338 C 
ATOM     24  O   UNL A   1      39.344  20.239  25.726  1.00  0.00    -0.246 OA
BRANCH  23  25
ATOM     25  C   UNL A   1      39.221  22.460  26.507  1.00  0.00     0.060 A 
ATOM     26  C   UNL A   1      38.733  23.715  26.173  1.00  0.00     0.016 A 
ATOM     27  C   UNL A   1      40.309  22.343  27.369  1.00  0.00     0.016 A 
ATOM     28  C   UNL A   1      39.447  24.854  26.528  1.00  0.00     0.010 A 
ATOM     29  C   UNL A   1      40.918  23.502  27.868  1.00  0.00     0.010 A 
ATOM     30  C   UNL A   1      40.537  24.775  27.404  1.00  0.00    -0.014 A 
BRANCH  30  31
ATOM     31  C   UNL A   1      41.284  26.008  27.802  1.00  0.00     0.031 A 
ATOM     32  C   UNL A   1      40.620  27.057  28.665  1.00  0.00     0.074 A 
ATOM     33  C   UNL A   1      42.568  26.184  27.424  1.00  0.00     0.049 A 
ATOM     34  N   UNL A   1      41.011  28.278  28.931  1.00  0.00    -0.248 NA
ATOM     35  C   UNL A   1      39.341  26.693  29.300  1.00  0.00     0.031 C 
ATOM     36  C   UNL A   1      43.369  25.227  26.655  1.00  0.00     0.029 A 
ATOM     37  N   UNL A   1      43.440  27.224  27.647  1.00  0.00    -0.354 N 
ATOM     38  C   UNL A   1      40.008  28.842  29.714  1.00  0.00     0.074 A 
ATOM     39  C   UNL A   1      38.981  27.836  29.869  1.00  0.00     0.031 C 
ATOM     40  C   UNL A   1      44.621  25.687  26.536  1.00  0.00     0.029 A 
ATOM     41  C   UNL A   1      44.684  27.031  27.091  1.00  0.00     0.049 A 
ATOM     42  H   UNL A   1      43.197  28.030  28.157  1.00  0.00     0.167 HD
ATOM     43  C   UNL A   1      39.953  30.085  30.254  1.00  0.00     0.034 A 
ATOM     44  C   UNL A   1      45.743  27.856  26.976  1.00  0.00     0.034 A 
ATOM     45  C   UNL A   1      41.012  31.058  30.137  1.00  0.00     0.049 A 
ATOM     46  C   UNL A   1      45.626  29.257  27.501  1.00  0.00     0.074 A 
ATOM     47  C   UNL A   1      41.055  32.347  30.641  1.00  0.00     0.029 A 
ATOM     48  N   UNL A   1      42.221  30.845  29.489  1.00  0.00    -0.354 N 
ATOM     49  N   UNL A   1      44.621  29.816  28.136  1.00  0.00    -0.248 NA
ATOM     50  C   UNL A   1      46.768  30.150  27.270  1.00  0.00     0.031 C 
ATOM     51  C   UNL A   1      42.263  32.931  30.247  1.00  0.00     0.029 A 
ATOM     52  C   UNL A   1      43.005  31.985  29.559  1.00  0.00     0.049 A 
ATOM     53  H   UNL A   1      42.484  30.006  29.045  1.00  0.00     0.167 HD
ATOM     54  C   UNL A   1      45.018  31.124  28.391  1.00  0.00     0.074 A 
ATOM     55  C   UNL A   1      46.357  31.266  27.856  1.00  0.00     0.031 C 
ATOM     56  C   UNL A   1      44.333  32.117  29.010  1.00  0.00     0.034 A 
BRANCH  43  57
ATOM     57  C   UNL A   1      38.695  30.489  30.982  1.00  0.00     0.023 A 
ATOM     58  C   UNL A   1      37.651  31.179  30.344  1.00  0.00     0.031 A 
ATOM     59  C   UNL A   1      38.527  30.141  32.336  1.00  0.00     0.131 A 
ATOM     60  C   UNL A   1      36.501  31.530  31.069  1.00  0.00     0.055 A 
ATOM     61  C   UNL A   1      37.354  30.437  33.034  1.00  0.00     0.041 A 
ATOM     62  F   UNL A   1      39.499  29.497  33.001  1.00  0.00    -0.206 F 
ATOM     63  C   UNL A   1      36.335  31.141  32.401  1.00  0.00     0.022 A 
BRANCH  60  64
ATOM     64  S   UNL A   1      35.248  32.569  30.269  1.00  0.00     0.124 S 
ATOM     65  O   UNL A   1      34.820  31.716  29.164  1.00  0.00    -0.237 OA
ATOM     66  O   UNL A   1      34.274  32.770  31.336  1.00  0.00    -0.237 OA
ATOM     67  O   UNL A   1      35.993  33.764  29.874  1.00  0.00    -0.744 OA
ENDBRANCH  60  64
ENDBRANCH  43  57
BRANCH  44  68
ATOM     68  C   UNL A   1      46.974  27.398  26.268  1.00  0.00     0.023 A 
ATOM     69  C   UNL A   1      47.181  27.700  24.915  1.00  0.00     0.031 A 
ATOM     70  C   UNL A   1      47.966  26.658  26.940  1.00  0.00     0.131 A 
ATOM     71  C   UNL A   1      48.347  27.255  24.272  1.00  0.00     0.055 A 
ATOM     72  C   UNL A   1      49.145  26.262  26.310  1.00  0.00     0.041 A 
ATOM     73  F   UNL A   1      47.816  26.341  28.236  1.00  0.00    -0.206 F 
ATOM     74  C   UNL A   1      49.338  26.556  24.964  1.00  0.00     0.022 A 
BRANCH  71  75
ATOM     75  S   UNL A   1      48.535  27.571  22.495  1.00  0.00     0.124 S 
ATOM     76  O   UNL A   1      48.582  26.216  21.957  1.00  0.00    -0.237 OA
ATOM     77  O   UNL A   1      47.332  28.341  22.194  1.00  0.00    -0.237 OA
ATOM     78  O   UNL A   1      49.787  28.320  22.415  1.00  0.00    -0.744 OA
ENDBRANCH  71  75
ENDBRANCH  44  68
BRANCH  56  79
ATOM     79  C   UNL A   1      45.032  33.440  29.168  1.00  0.00     0.023 A 
ATOM     80  C   UNL A   1      44.861  34.473  28.232  1.00  0.00     0.031 A 
ATOM     81  C   UNL A   1      45.855  33.678  30.282  1.00  0.00     0.131 A 
ATOM     82  C   UNL A   1      45.533  35.690  28.410  1.00  0.00     0.055 A 
ATOM     83  C   UNL A   1      46.479  34.908  30.481  1.00  0.00     0.041 A 
ATOM     84  F   UNL A   1      46.050  32.721  31.204  1.00  0.00    -0.206 F 
ATOM     85  C   UNL A   1      46.325  35.921  29.538  1.00  0.00     0.022 A 
BRANCH  82  86
ATOM     86  S   UNL A   1      45.397  36.955  27.120  1.00  0.00     0.124 S 
ATOM     87  O   UNL A   1      46.298  36.439  26.094  1.00  0.00    -0.237 OA
ATOM     88  O   UNL A   1      43.974  36.922  26.794  1.00  0.00    -0.237 OA
ATOM     89  O   UNL A   1      45.849  38.176  27.786  1.00  0.00    -0.744 OA
ENDBRANCH  82  86
ENDBRANCH  56  79
ENDBRANCH  30  31
ENDBRANCH  23  25
ENDBRANCH  22  23
ENDBRANCH   1  22
TORSDOF 15
ENDMDL
MODEL 2
REMARK VINA RESULT:     -12.5      1.609      1.952
REMARK SMILES Cc1cc(Br)cc2c1O[C@H](C(F)(F)F)C(C(=O)OCCOC(=O)c1ccc(-c3c4nc(c(-c5cc(S(=O)(=O)[O-])ccc5F)c5ccc([nH]5)c(-c5cc(S(=O)(=O)[O-])ccc5F)c5nc(c(-c6cc(S(=O)(=O)[O-])ccc6F)c6ccc3[nH]6)C=C5)C=C4)cc1)=C2
REMARK SMILES IDX 20 1 19 2 18 3 16 4 17 5 15 6 1 7 2 8 3 9 8 10 4 11 7 12
REMARK SMILES IDX 9 13 5 14 6 15 87 16 10 17 11 18 12 19 13 20 14 21 21 22
REMARK SMILES IDX 22 23 23 24 24 25 25 26 86 27 26 28 85 29 27 30 28 31 29 32
REMARK SMILES IDX 79 33 30 34 84 35 78 36 80 37 31 38 83 39 77 40 76 41 32 43
REMARK SMILES IDX 64 44 44 45 63 46 45 47 48 48 62 49 81 50 46 51 47 52 61 54
REMARK SMILES IDX 82 55 49 56 33 57 34 58 42 59 35 60 41 61 43 62 40 63 36 64
REMARK SMILES IDX 37 65 38 66 39 67 65 68 66 69 74 70 67 71 73 72 75 73 72 74
REMARK SMILES IDX 68 75 69 76 70 77 71 78 50 79 51 80 59 81 52 82 58 83 60 84
REMARK SMILES IDX 57 85 53 86 54 87 55 88 56 89
REMARK H PARENT 80 42 48 53
REMARK Flexibility Score: inf
ROOT
ATOM      1  C   UNL A   1      36.462  20.394  24.994  1.00  0.00     0.275 C 
ENDROOT
BRANCH   1   2
ATOM      2  C   UNL A   1      35.020  20.776  25.326  1.00  0.00     0.275 C 
BRANCH   2   3
ATOM      3  O   UNL A   1      34.926  22.135  25.808  1.00  0.00    -0.459 OA
BRANCH   3   4
ATOM      4  C   UNL A   1      33.709  22.712  25.678  1.00  0.00     0.338 C 
ATOM      5  O   UNL A   1      32.632  22.192  25.925  1.00  0.00    -0.246 OA
BRANCH   4   6
ATOM      6  C   UNL A   1      33.832  24.093  25.179  1.00  0.00     0.087 C 
ATOM      7  C   UNL A   1      33.929  28.267  22.194  1.00  0.00     0.048 C 
ATOM      8  C   UNL A   1      33.615  27.977  23.632  1.00  0.00    -0.007 A 
ATOM      9  C   UNL A   1      33.186  29.016  24.475  1.00  0.00     0.023 A 
ATOM     10  C   UNL A   1      33.758  26.682  24.155  1.00  0.00     0.130 A 
ATOM     11  C   UNL A   1      32.902  28.765  25.816  1.00  0.00     0.019 A 
ATOM     12  C   UNL A   1      33.456  26.440  25.496  1.00  0.00     0.019 A 
ATOM     13  O   UNL A   1      34.211  25.704  23.309  1.00  0.00    -0.475 OA
ATOM     14  Br  UNL A   1      32.306  30.167  26.932  1.00  0.00    -0.051 Br
ATOM     15  C   UNL A   1      33.038  27.482  26.332  1.00  0.00     0.027 A 
ATOM     16  C   UNL A   1      33.526  25.090  26.014  1.00  0.00     0.027 C 
ATOM     17  C   UNL A   1      34.135  24.312  23.727  1.00  0.00     0.316 C 
BRANCH  17  18
ATOM     18  C   UNL A   1      33.126  23.582  22.827  1.00  0.00     0.430 C 
ATOM     19  F   UNL A   1      31.859  23.731  23.286  1.00  0.00    -0.167 F 
ATOM     20  F   UNL A   1      33.132  24.079  21.565  1.00  0.00    -0.167 F 
ATOM     21  F   UNL A   1      33.372  22.256  22.741  1.00  0.00    -0.167 F 
ENDBRANCH  17  18
ENDBRANCH   4   6
ENDBRANCH   3   4
ENDBRANCH   2   3
ENDBRANCH   1   2
BRANCH   1  22
ATOM     22  O   UNL A   1      37.339  21.522  25.164  1.00  0.00    -0.458 OA
BRANCH  22  23
ATOM     23  C   UNL A   1      38.552  21.223  25.683  1.00  0.00     0.338 C 
ATOM     24  O   UNL A   1      39.197  20.204  25.500  1.00  0.00    -0.246 OA
BRANCH  23  25
ATOM     25  C   UNL A   1      39.077  22.354  26.460  1.00  0.00     0.060 A 
ATOM     26  C   UNL A   1      38.586  23.623  26.188  1.00  0.00     0.016 A 
ATOM     27  C   UNL A   1      40.206  22.202  27.263  1.00  0.00     0.016 A 
ATOM     28  C   UNL A   1      39.329  24.744  26.540  1.00  0.00     0.010 A 
ATOM     29  C   UNL A   1      40.851  23.340  27.764  1.00  0.00     0.010 A 
ATOM     30  C   UNL A   1      40.460  24.629  27.358  1.00  0.00    -0.014 A 
BRANCH  30  31
ATOM     31  C   UNL A   1      41.238  25.844  27.755  1.00  0.00     0.031 A 
ATOM     32  C   UNL A   1      40.600  26.913  28.612  1.00  0.00     0.074 A 
ATOM     33  C   UNL A   1      42.527  25.984  27.379  1.00  0.00     0.049 A 
ATOM     34  N   UNL A   1      41.023  28.123  28.876  1.00  0.00    -0.248 NA
ATOM     35  C   UNL A   1      39.311  26.585  29.245  1.00  0.00     0.031 C 
ATOM     36  C   UNL A   1      43.305  25.004  26.615  1.00  0.00     0.029 A 
ATOM     37  N   UNL A   1      43.426  27.001  27.601  1.00  0.00    -0.354 N 
ATOM     38  C   UNL A   1      40.033  28.716  29.655  1.00  0.00     0.074 A 
ATOM     39  C   UNL A   1      38.979  27.738  29.810  1.00  0.00     0.031 C 
ATOM     40  C   UNL A   1      44.569  25.430  26.497  1.00  0.00     0.029 A 
ATOM     41  C   UNL A   1      44.666  26.774  27.049  1.00  0.00     0.049 A 
ATOM     42  H   UNL A   1      43.204  27.815  28.108  1.00  0.00     0.167 HD
ATOM     43  C   UNL A   1      40.010  29.962  30.191  1.00  0.00     0.034 A 
ATOM     44  C   UNL A   1      45.747  27.570  26.934  1.00  0.00     0.034 A 
ATOM     45  C   UNL A   1      41.095  30.906  30.073  1.00  0.00     0.049 A 
ATOM     46  C   UNL A   1      45.665  28.976  27.455  1.00  0.00     0.074 A 
ATOM     47  C   UNL A   1      41.171  32.195  30.574  1.00  0.00     0.029 A 
ATOM     48  N   UNL A   1      42.300  30.659  29.430  1.00  0.00    -0.354 N 
ATOM     49  N   UNL A   1      44.675  29.562  28.085  1.00  0.00    -0.248 NA
ATOM     50  C   UNL A   1      46.832  29.837  27.224  1.00  0.00     0.031 C 
ATOM     51  C   UNL A   1      42.395  32.746  30.181  1.00  0.00     0.029 A 
ATOM     52  C   UNL A   1      43.113  31.778  29.498  1.00  0.00     0.049 A 
ATOM     53  H   UNL A   1      42.541  29.812  28.989  1.00  0.00     0.167 HD
ATOM     54  C   UNL A   1      45.105  30.860  28.337  1.00  0.00     0.074 A 
ATOM     55  C   UNL A   1      46.449  30.966  27.806  1.00  0.00     0.031 C 
ATOM     56  C   UNL A   1      44.445  31.873  28.952  1.00  0.00     0.034 A 
BRANCH  43  57
ATOM     57  C   UNL A   1      38.762  30.402  30.915  1.00  0.00     0.023 A 
ATOM     58  C   UNL A   1      37.716  31.073  30.261  1.00  0.00     0.031 A 
ATOM     59  C   UNL A   1      38.604  30.106  32.282  1.00  0.00     0.131 A 
ATOM     60  C   UNL A   1      36.574  31.458  30.982  1.00  0.00     0.055 A 
ATOM     61  C   UNL A   1      37.440  30.436  32.979  1.00  0.00     0.041 A 
ATOM     62  F   UNL A   1      39.578  29.481  32.962  1.00  0.00    -0.206 F 
ATOM     63  C   UNL A   1      36.419  31.122  32.330  1.00  0.00     0.022 A 
BRANCH  60  64
ATOM     64  S   UNL A   1      35.320  32.475  30.155  1.00  0.00     0.124 S 
ATOM     65  O   UNL A   1      36.091  33.666  29.809  1.00  0.00    -0.237 OA
ATOM     66  O   UNL A   1      34.913  31.630  29.038  1.00  0.00    -0.237 OA
ATOM     67  O   UNL A   1      34.304  32.675  31.187  1.00  0.00    -0.744 OA
ENDBRANCH  60  64
ENDBRANCH  43  57
BRANCH  44  68
ATOM     68  C   UNL A   1      46.967  27.077  26.231  1.00  0.00     0.023 A 
ATOM     69  C   UNL A   1      48.006  26.461  26.941  1.00  0.00     0.031 A 
ATOM     70  C   UNL A   1      47.104  27.207  24.836  1.00  0.00     0.131 A 
ATOM     71  C   UNL A   1      49.145  26.007  26.255  1.00  0.00     0.055 A 
ATOM     72  C   UNL A   1      48.215  26.710  24.154  1.00  0.00     0.041 A 
ATOM     73  F   UNL A   1      46.138  27.791  24.109  1.00  0.00    -0.206 F 
ATOM     74  C   UNL A   1      49.248  26.110  24.866  1.00  0.00     0.022 A 
BRANCH  71  75
ATOM     75  S   UNL A   1      50.518  25.311  27.215  1.00  0.00     0.124 S 
ATOM     76  O   UNL A   1      49.868  24.196  27.895  1.00  0.00    -0.237 OA
ATOM     77  O   UNL A   1      51.473  24.959  26.170  1.00  0.00    -0.237 OA
ATOM     78  O   UNL A   1      50.924  26.418  28.079  1.00  0.00    -0.744 OA
ENDBRANCH  71  75
ENDBRANCH  44  68
BRANCH  56  79
ATOM     79  C   UNL A   1      45.178  33.177  29.108  1.00  0.00     0.023 A 
ATOM     80  C   UNL A   1      45.195  34.134  28.080  1.00  0.00     0.031 A 
ATOM     81  C   UNL A   1      45.845  33.477  30.309  1.00  0.00     0.131 A 
ATOM     82  C   UNL A   1      45.894  35.336  28.260  1.00  0.00     0.055 A 
ATOM     83  C   UNL A   1      46.493  34.696  30.502  1.00  0.00     0.041 A 
ATOM     84  F   UNL A   1      45.858  32.594  31.321  1.00  0.00    -0.206 F 
ATOM     85  C   UNL A   1      46.527  35.631  29.471  1.00  0.00     0.022 A 
BRANCH  82  86
ATOM     86  S   UNL A   1      46.006  36.493  26.869  1.00  0.00     0.124 S 
ATOM     87  O   UNL A   1      47.308  37.113  27.097  1.00  0.00    -0.237 OA
ATOM     88  O   UNL A   1      45.916  35.607  25.713  1.00  0.00    -0.237 OA
ATOM     89  O   UNL A   1      44.856  37.375  27.062  1.00  0.00    -0.744 OA
ENDBRANCH  82  86
ENDBRANCH  56  79
ENDBRANCH  30  31
ENDBRANCH  23  25
ENDBRANCH  22  23
ENDBRANCH   1  22
TORSDOF 15
ENDMDL
MODEL 3
REMARK VINA RESULT:     -12.4      4.305      9.973
REMARK SMILES Cc1cc(Br)cc2c1O[C@H](C(F)(F)F)C(C(=O)OCCOC(=O)c1ccc(-c3c4nc(c(-c5cc(S(=O)(=O)[O-])ccc5F)c5ccc([nH]5)c(-c5cc(S(=O)(=O)[O-])ccc5F)c5nc(c(-c6cc(S(=O)(=O)[O-])ccc6F)c6ccc3[nH]6)C=C5)C=C4)cc1)=C2
REMARK SMILES IDX 20 1 19 2 18 3 16 4 17 5 15 6 1 7 2 8 3 9 8 10 4 11 7 12
REMARK SMILES IDX 9 13 5 14 6 15 87 16 10 17 11 18 12 19 13 20 14 21 21 22
REMARK SMILES IDX 22 23 23 24 24 25 25 26 86 27 26 28 85 29 27 30 28 31 29 32
REMARK SMILES IDX 79 33 30 34 84 35 78 36 80 37 31 38 83 39 77 40 76 41 32 43
REMARK SMILES IDX 64 44 44 45 63 46 45 47 48 48 62 49 81 50 46 51 47 52 61 54
REMARK SMILES IDX 82 55 49 56 33 57 34 58 42 59 35 60 41 61 43 62 40 63 36 64
REMARK SMILES IDX 37 65 38 66 39 67 65 68 66 69 74 70 67 71 73 72 75 73 72 74
REMARK SMILES IDX 68 75 69 76 70 77 71 78 50 79 51 80 59 81 52 82 58 83 60 84
REMARK SMILES IDX 57 85 53 86 54 87 55 88 56 89
REMARK H PARENT 80 42 48 53
REMARK Flexibility Score: inf
ROOT
ATOM      1  C   UNL A   1      41.004  19.893  26.370  1.00  0.00     0.275 C 
ENDROOT
BRANCH   1   2
ATOM      2  C   UNL A   1      42.481  19.955  26.760  1.00  0.00     0.275 C 
BRANCH   2   3
ATOM      3  O   UNL A   1      43.289  20.514  25.700  1.00  0.00    -0.459 OA
BRANCH   3   4
ATOM      4  C   UNL A   1      43.251  21.863  25.595  1.00  0.00     0.338 C 
ATOM      5  O   UNL A   1      42.415  22.518  24.992  1.00  0.00    -0.246 OA
BRANCH   4   6
ATOM      6  C   UNL A   1      44.380  22.478  26.315  1.00  0.00     0.087 C 
ATOM      7  C   UNL A   1      48.804  24.802  27.484  1.00  0.00     0.048 C 
ATOM      8  C   UNL A   1      47.434  24.722  28.091  1.00  0.00    -0.007 A 
ATOM      9  C   UNL A   1      47.144  25.455  29.254  1.00  0.00     0.023 A 
ATOM     10  C   UNL A   1      46.439  23.911  27.524  1.00  0.00     0.130 A 
ATOM     11  C   UNL A   1      45.881  25.382  29.837  1.00  0.00     0.019 A 
ATOM     12  C   UNL A   1      45.172  23.859  28.108  1.00  0.00     0.019 A 
ATOM     13  O   UNL A   1      46.772  23.186  26.410  1.00  0.00    -0.475 OA
ATOM     14  Br  UNL A   1      45.499  26.391  31.388  1.00  0.00    -0.051 Br
ATOM     15  C   UNL A   1      44.894  24.585  29.272  1.00  0.00     0.027 A 
ATOM     16  C   UNL A   1      44.123  23.087  27.477  1.00  0.00     0.027 C 
ATOM     17  C   UNL A   1      45.719  22.537  25.644  1.00  0.00     0.316 C 
BRANCH  17  18
ATOM     18  C   UNL A   1      45.627  23.208  24.265  1.00  0.00     0.430 C 
ATOM     19  F   UNL A   1      46.858  23.497  23.775  1.00  0.00    -0.167 F 
ATOM     20  F   UNL A   1      45.039  22.394  23.352  1.00  0.00    -0.167 F 
ATOM     21  F   UNL A   1      44.922  24.360  24.295  1.00  0.00    -0.167 F 
ENDBRANCH  17  18
ENDBRANCH   4   6
ENDBRANCH   3   4
ENDBRANCH   2   3
ENDBRANCH   1   2
BRANCH   1  22
ATOM     22  O   UNL A   1      40.224  20.781  27.191  1.00  0.00    -0.458 OA
BRANCH  22  23
ATOM     23  C   UNL A   1      39.547  21.732  26.509  1.00  0.00     0.338 C 
ATOM     24  O   UNL A   1      38.802  21.564  25.558  1.00  0.00    -0.246 OA
BRANCH  23  25
ATOM     25  C   UNL A   1      39.744  23.052  27.125  1.00  0.00     0.060 A 
ATOM     26  C   UNL A   1      39.134  24.150  26.535  1.00  0.00     0.016 A 
ATOM     27  C   UNL A   1      40.709  23.239  28.112  1.00  0.00     0.016 A 
ATOM     28  C   UNL A   1      39.625  25.428  26.776  1.00  0.00     0.010 A 
ATOM     29  C   UNL A   1      41.074  24.541  28.478  1.00  0.00     0.010 A 
ATOM     30  C   UNL A   1      40.584  25.654  27.770  1.00  0.00    -0.014 A 
BRANCH  30  31
ATOM     31  C   UNL A   1      41.087  27.037  28.042  1.00  0.00     0.031 A 
ATOM     32  C   UNL A   1      42.493  27.429  27.649  1.00  0.00     0.074 A 
ATOM     33  C   UNL A   1      40.282  27.959  28.611  1.00  0.00     0.049 A 
ATOM     34  N   UNL A   1      43.183  28.488  27.989  1.00  0.00    -0.248 NA
ATOM     35  C   UNL A   1      43.227  26.502  26.769  1.00  0.00     0.031 C 
ATOM     36  C   UNL A   1      38.877  27.756  28.977  1.00  0.00     0.029 A 
ATOM     37  N   UNL A   1      40.520  29.266  28.969  1.00  0.00    -0.354 N 
ATOM     38  C   UNL A   1      44.441  28.329  27.415  1.00  0.00     0.074 A 
ATOM     39  C   UNL A   1      44.427  27.064  26.715  1.00  0.00     0.031 C 
ATOM     40  C   UNL A   1      38.364  28.905  29.435  1.00  0.00     0.029 A 
ATOM     41  C   UNL A   1      39.431  29.891  29.532  1.00  0.00     0.049 A 
ATOM     42  H   UNL A   1      41.387  29.711  28.836  1.00  0.00     0.167 HD
ATOM     43  C   UNL A   1      45.507  29.166  27.468  1.00  0.00     0.034 A 
ATOM     44  C   UNL A   1      39.305  31.096  30.122  1.00  0.00     0.034 A 
ATOM     45  C   UNL A   1      45.487  30.451  28.124  1.00  0.00     0.049 A 
ATOM     46  C   UNL A   1      40.521  31.967  30.249  1.00  0.00     0.074 A 
ATOM     47  C   UNL A   1      46.513  31.374  28.240  1.00  0.00     0.029 A 
ATOM     48  N   UNL A   1      44.382  31.006  28.755  1.00  0.00    -0.354 N 
ATOM     49  N   UNL A   1      41.737  31.751  29.804  1.00  0.00    -0.248 NA
ATOM     50  C   UNL A   1      40.359  33.229  30.981  1.00  0.00     0.031 C 
ATOM     51  C   UNL A   1      46.046  32.456  28.992  1.00  0.00     0.029 A 
ATOM     52  C   UNL A   1      44.708  32.244  29.284  1.00  0.00     0.049 A 
ATOM     53  H   UNL A   1      43.496  30.582  28.817  1.00  0.00     0.167 HD
ATOM     54  C   UNL A   1      42.483  32.857  30.194  1.00  0.00     0.074 A 
ATOM     55  C   UNL A   1      41.578  33.746  30.895  1.00  0.00     0.031 C 
ATOM     56  C   UNL A   1      43.799  33.113  29.991  1.00  0.00     0.034 A 
BRANCH  43  57
ATOM     57  C   UNL A   1      46.802  28.709  26.842  1.00  0.00     0.023 A 
ATOM     58  C   UNL A   1      46.928  28.489  25.461  1.00  0.00     0.031 A 
ATOM     59  C   UNL A   1      47.943  28.527  27.647  1.00  0.00     0.131 A 
ATOM     60  C   UNL A   1      48.157  28.066  24.931  1.00  0.00     0.055 A 
ATOM     61  C   UNL A   1      49.178  28.168  27.105  1.00  0.00     0.041 A 
ATOM     62  F   UNL A   1      47.876  28.707  28.976  1.00  0.00    -0.206 F 
ATOM     63  C   UNL A   1      49.289  27.929  25.740  1.00  0.00     0.022 A 
BRANCH  60  64
ATOM     64  S   UNL A   1      48.244  27.622  23.174  1.00  0.00     0.124 S 
ATOM     65  O   UNL A   1      48.185  26.164  23.237  1.00  0.00    -0.237 OA
ATOM     66  O   UNL A   1      47.071  28.287  22.621  1.00  0.00    -0.237 OA
ATOM     67  O   UNL A   1      49.530  28.169  22.745  1.00  0.00    -0.744 OA
ENDBRANCH  60  64
ENDBRANCH  43  57
BRANCH  44  68
ATOM     68  C   UNL A   1      37.995  31.511  30.702  1.00  0.00     0.023 A 
ATOM     69  C   UNL A   1      37.048  32.195  29.927  1.00  0.00     0.031 A 
ATOM     70  C   UNL A   1      37.667  31.220  32.040  1.00  0.00     0.131 A 
ATOM     71  C   UNL A   1      35.823  32.576  30.497  1.00  0.00     0.055 A 
ATOM     72  C   UNL A   1      36.429  31.556  32.588  1.00  0.00     0.041 A 
ATOM     73  F   UNL A   1      38.539  30.567  32.826  1.00  0.00    -0.206 F 
ATOM     74  C   UNL A   1      35.500  32.245  31.816  1.00  0.00     0.022 A 
BRANCH  71  75
ATOM     75  S   UNL A   1      34.665  33.553  29.500  1.00  0.00     0.124 S 
ATOM     76  O   UNL A   1      34.278  32.593  28.472  1.00  0.00    -0.237 OA
ATOM     77  O   UNL A   1      33.638  33.898  30.476  1.00  0.00    -0.237 OA
ATOM     78  O   UNL A   1      35.480  34.673  29.033  1.00  0.00    -0.744 OA
ENDBRANCH  71  75
ENDBRANCH  44  68
BRANCH  56  79
ATOM     79  C   UNL A   1      44.334  34.419  30.510  1.00  0.00     0.023 A 
ATOM     80  C   UNL A   1      44.225  35.603  29.763  1.00  0.00     0.031 A 
ATOM     81  C   UNL A   1      44.936  34.485  31.779  1.00  0.00     0.131 A 
ATOM     82  C   UNL A   1      44.741  36.801  30.277  1.00  0.00     0.055 A 
ATOM     83  C   UNL A   1      45.400  35.688  32.308  1.00  0.00     0.041 A 
ATOM     84  F   UNL A   1      45.065  33.380  32.531  1.00  0.00    -0.206 F 
ATOM     85  C   UNL A   1      45.310  36.854  31.553  1.00  0.00     0.022 A 
BRANCH  82  86
ATOM     86  S   UNL A   1      44.702  38.283  29.236  1.00  0.00     0.124 S 
ATOM     87  O   UNL A   1      46.113  38.463  28.913  1.00  0.00    -0.237 OA
ATOM     88  O   UNL A   1      43.842  37.870  28.130  1.00  0.00    -0.237 OA
ATOM     89  O   UNL A   1      44.131  39.304  30.112  1.00  0.00    -0.744 OA
ENDBRANCH  82  86
ENDBRANCH  56  79
ENDBRANCH  30  31
ENDBRANCH  23  25
ENDBRANCH  22  23
ENDBRANCH   1  22
TORSDOF 15
ENDMDL
