MODEL 1
REMARK VINA RESULT:     -10.3      0.000      0.000
REMARK SMILES CCC[N@@H+](C)CC[C@@H]1CCC[C@]1([NH2+]C)C(=O)OCCOC(=O)c1ccc(-c2c3nc(c(-c4cc(S(=O)(=O)[O-])ccc4F)c4ccc([nH]4)c(-c4cc(S(=O)(=O)[O-])ccc4F)c4nc(c(-c5cc(S(=O)(=O)[O-])ccc5F)c5ccc2[nH]5)C=C4)C=C3)cc1
REMARK SMILES IDX 18 1 17 2 15 3 16 4 12 5 8 6 9 7 10 8 11 9 7 10 6 11 4 12
REMARK SMILES IDX 5 13 3 15 2 16 1 17 13 18 14 19 19 22 20 23 21 24 22 25
REMARK SMILES IDX 23 26 24 27 85 28 25 29 84 30 26 31 27 32 28 33 78 34 29 35
REMARK SMILES IDX 83 36 77 37 79 38 30 39 82 40 76 41 75 42 31 44 63 45 43 46
REMARK SMILES IDX 62 47 44 48 47 49 61 50 80 51 45 52 46 53 60 55 81 56 48 57
REMARK SMILES IDX 32 58 33 59 41 60 34 61 40 62 42 63 39 64 35 65 36 66 37 67
REMARK SMILES IDX 38 68 64 69 65 70 73 71 66 72 72 73 74 74 71 75 67 76 68 77
REMARK SMILES IDX 69 78 70 79 49 80 50 81 58 82 51 83 57 84 59 85 56 86 52 87
REMARK SMILES IDX 53 88 54 89 55 90
REMARK H PARENT 4 14 13 20 13 21 79 43 47 54
REMARK Flexibility Score: inf
ROOT
ATOM      1  C   UNL A   1      36.543  22.928  23.859  1.00  0.00     0.274 C 
ENDROOT
BRANCH   1   2
ATOM      2  O   UNL A   1      35.820  23.779  24.771  1.00  0.00    -0.457 OA
BRANCH   2   3
ATOM      3  C   UNL A   1      34.492  23.958  24.521  1.00  0.00     0.368 C 
ATOM      4  O   UNL A   1      34.073  24.611  23.570  1.00  0.00    -0.245 OA
BRANCH   3   5
ATOM      5  C   UNL A   1      33.572  23.383  25.656  1.00  0.00     0.197 C 
ATOM      6  C   UNL A   1      32.611  22.205  25.244  1.00  0.00     0.068 C 
ATOM      7  C   UNL A   1      31.400  22.930  24.673  1.00  0.00     0.011 C 
ATOM      8  C   UNL A   1      31.191  24.113  25.590  1.00  0.00     0.008 C 
ATOM      9  C   UNL A   1      32.566  24.484  26.123  1.00  0.00     0.081 C 
BRANCH   6  10
ATOM     10  C   UNL A   1      33.168  21.106  24.319  1.00  0.00     0.072 C 
BRANCH  10  11
ATOM     11  C   UNL A   1      32.576  19.681  24.460  1.00  0.00     0.262 C 
BRANCH  11  12
ATOM     12  N   UNL A   1      33.260  18.484  23.943  1.00  0.00    -0.337 N 
ATOM     13  C   UNL A   1      32.599  17.954  22.743  1.00  0.00     0.332 C 
ATOM     14  H   UNL A   1      34.180  18.871  23.733  1.00  0.00     0.347 HD
BRANCH  12  15
ATOM     15  C   UNL A   1      33.558  17.383  24.863  1.00  0.00     0.261 C 
BRANCH  15  16
ATOM     16  C   UNL A   1      33.110  15.951  24.516  1.00  0.00     0.058 C 
ATOM     17  C   UNL A   1      32.621  15.039  25.626  1.00  0.00     0.010 C 
ENDBRANCH  15  16
ENDBRANCH  12  15
ENDBRANCH  11  12
ENDBRANCH  10  11
ENDBRANCH   6  10
BRANCH   5  18
ATOM     18  N   UNL A   1      34.446  22.959  26.793  1.00  0.00    -0.334 N 
ATOM     19  C   UNL A   1      33.899  21.823  27.543  1.00  0.00     0.331 C 
ATOM     20  H   UNL A   1      34.555  23.748  27.431  1.00  0.00     0.347 HD
ATOM     21  H   UNL A   1      35.340  22.664  26.400  1.00  0.00     0.347 HD
ENDBRANCH   5  18
ENDBRANCH   3   5
ENDBRANCH   2   3
ENDBRANCH   1   2
BRANCH   1  22
ATOM     22  C   UNL A   1      36.770  21.555  24.488  1.00  0.00     0.275 C 
BRANCH  22  23
ATOM     23  O   UNL A   1      37.296  21.736  25.813  1.00  0.00    -0.458 OA
BRANCH  23  24
ATOM     24  C   UNL A   1      38.615  21.495  25.974  1.00  0.00     0.338 C 
ATOM     25  O   UNL A   1      39.203  20.457  25.694  1.00  0.00    -0.246 OA
BRANCH  24  26
ATOM     26  C   UNL A   1      39.273  22.696  26.538  1.00  0.00     0.060 A 
ATOM     27  C   UNL A   1      38.881  23.973  26.139  1.00  0.00     0.016 A 
ATOM     28  C   UNL A   1      40.350  22.558  27.414  1.00  0.00     0.016 A 
ATOM     29  C   UNL A   1      39.599  25.098  26.542  1.00  0.00     0.010 A 
ATOM     30  C   UNL A   1      41.014  23.698  27.891  1.00  0.00     0.010 A 
ATOM     31  C   UNL A   1      40.668  24.984  27.434  1.00  0.00    -0.014 A 
BRANCH  31  32
ATOM     32  C   UNL A   1      41.458  26.191  27.827  1.00  0.00     0.031 A 
ATOM     33  C   UNL A   1      40.836  27.237  28.717  1.00  0.00     0.074 A 
ATOM     34  C   UNL A   1      42.739  26.346  27.428  1.00  0.00     0.049 A 
ATOM     35  N   UNL A   1      41.248  28.449  28.990  1.00  0.00    -0.248 NA
ATOM     36  C   UNL A   1      39.569  26.875  29.371  1.00  0.00     0.031 C 
ATOM     37  C   UNL A   1      43.503  25.388  26.626  1.00  0.00     0.029 A 
ATOM     38  N   UNL A   1      43.632  27.366  27.654  1.00  0.00    -0.354 N 
ATOM     39  C   UNL A   1      40.256  29.021  29.781  1.00  0.00     0.074 A 
ATOM     40  C   UNL A   1      39.224  28.018  29.945  1.00  0.00     0.031 C 
ATOM     41  C   UNL A   1      44.757  25.838  26.473  1.00  0.00     0.029 A 
ATOM     42  C   UNL A   1      44.859  27.168  27.062  1.00  0.00     0.049 A 
ATOM     43  H   UNL A   1      43.415  28.163  28.189  1.00  0.00     0.167 HD
ATOM     44  C   UNL A   1      40.209  30.269  30.311  1.00  0.00     0.034 A 
ATOM     45  C   UNL A   1      45.928  27.981  26.948  1.00  0.00     0.034 A 
ATOM     46  C   UNL A   1      41.278  31.233  30.193  1.00  0.00     0.049 A 
ATOM     47  C   UNL A   1      45.844  29.373  27.517  1.00  0.00     0.074 A 
ATOM     48  C   UNL A   1      41.341  32.521  30.698  1.00  0.00     0.029 A 
ATOM     49  N   UNL A   1      42.483  31.009  29.537  1.00  0.00    -0.354 N 
ATOM     50  N   UNL A   1      44.854  29.943  28.164  1.00  0.00    -0.248 NA
ATOM     51  C   UNL A   1      47.012  30.239  27.315  1.00  0.00     0.031 C 
ATOM     52  C   UNL A   1      42.558  33.092  30.304  1.00  0.00     0.029 A 
ATOM     53  C   UNL A   1      43.284  32.139  29.610  1.00  0.00     0.049 A 
ATOM     54  H   UNL A   1      42.732  30.169  29.088  1.00  0.00     0.167 HD
ATOM     55  C   UNL A   1      45.281  31.237  28.443  1.00  0.00     0.074 A 
ATOM     56  C   UNL A   1      46.629  31.351  27.927  1.00  0.00     0.031 C 
ATOM     57  C   UNL A   1      44.616  32.245  29.062  1.00  0.00     0.034 A 
BRANCH  44  58
ATOM     58  C   UNL A   1      38.932  30.685  31.003  1.00  0.00     0.023 A 
ATOM     59  C   UNL A   1      37.817  31.172  30.300  1.00  0.00     0.031 A 
ATOM     60  C   UNL A   1      38.847  30.619  32.406  1.00  0.00     0.131 A 
ATOM     61  C   UNL A   1      36.695  31.638  31.005  1.00  0.00     0.055 A 
ATOM     62  C   UNL A   1      37.698  31.010  33.097  1.00  0.00     0.041 A 
ATOM     63  F   UNL A   1      39.887  30.183  33.134  1.00  0.00    -0.206 F 
ATOM     64  C   UNL A   1      36.618  31.538  32.397  1.00  0.00     0.022 A 
BRANCH  61  65
ATOM     65  S   UNL A   1      35.392  32.507  30.088  1.00  0.00     0.124 S 
ATOM     66  O   UNL A   1      36.072  33.743  29.708  1.00  0.00    -0.237 OA
ATOM     67  O   UNL A   1      35.100  31.579  29.002  1.00  0.00    -0.237 OA
ATOM     68  O   UNL A   1      34.327  32.668  31.075  1.00  0.00    -0.744 OA
ENDBRANCH  61  65
ENDBRANCH  44  58
BRANCH  45  69
ATOM     69  C   UNL A   1      47.133  27.542  26.186  1.00  0.00     0.023 A 
ATOM     70  C   UNL A   1      47.271  27.818  24.817  1.00  0.00     0.031 A 
ATOM     71  C   UNL A   1      48.156  26.808  26.817  1.00  0.00     0.131 A 
ATOM     72  C   UNL A   1      48.391  27.341  24.118  1.00  0.00     0.055 A 
ATOM     73  C   UNL A   1      49.293  26.385  26.129  1.00  0.00     0.041 A 
ATOM     74  F   UNL A   1      48.071  26.508  28.123  1.00  0.00    -0.206 F 
ATOM     75  C   UNL A   1      49.412  26.643  24.768  1.00  0.00     0.022 A 
BRANCH  72  76
ATOM     76  S   UNL A   1      48.466  27.585  22.321  1.00  0.00     0.124 S 
ATOM     77  O   UNL A   1      47.158  28.169  22.045  1.00  0.00    -0.237 OA
ATOM     78  O   UNL A   1      49.610  28.482  22.185  1.00  0.00    -0.237 OA
ATOM     79  O   UNL A   1      48.671  26.236  21.801  1.00  0.00    -0.744 OA
ENDBRANCH  72  76
ENDBRANCH  45  69
BRANCH  57  80
ATOM     80  C   UNL A   1      45.361  33.546  29.223  1.00  0.00     0.023 A 
ATOM     81  C   UNL A   1      45.252  34.576  28.271  1.00  0.00     0.031 A 
ATOM     82  C   UNL A   1      46.223  33.740  30.317  1.00  0.00     0.131 A 
ATOM     83  C   UNL A   1      46.040  35.730  28.399  1.00  0.00     0.055 A 
ATOM     84  C   UNL A   1      46.962  34.915  30.467  1.00  0.00     0.041 A 
ATOM     85  F   UNL A   1      46.365  32.788  31.251  1.00  0.00    -0.206 F 
ATOM     86  C   UNL A   1      46.884  35.911  29.498  1.00  0.00     0.022 A 
BRANCH  83  87
ATOM     87  S   UNL A   1      46.023  36.948  27.055  1.00  0.00     0.124 S 
ATOM     88  O   UNL A   1      44.615  37.327  27.006  1.00  0.00    -0.237 OA
ATOM     89  O   UNL A   1      46.941  37.970  27.549  1.00  0.00    -0.237 OA
ATOM     90  O   UNL A   1      46.502  36.192  25.900  1.00  0.00    -0.744 OA
ENDBRANCH  83  87
ENDBRANCH  57  80
ENDBRANCH  31  32
ENDBRANCH  24  26
ENDBRANCH  23  24
ENDBRANCH  22  23
ENDBRANCH   1  22
TORSDOF 20
ENDMDL
MODEL 2
REMARK VINA RESULT:     -10.3      5.525     10.426
REMARK SMILES CCC[N@@H+](C)CC[C@@H]1CCC[C@]1([NH2+]C)C(=O)OCCOC(=O)c1ccc(-c2c3nc(c(-c4cc(S(=O)(=O)[O-])ccc4F)c4ccc([nH]4)c(-c4cc(S(=O)(=O)[O-])ccc4F)c4nc(c(-c5cc(S(=O)(=O)[O-])ccc5F)c5ccc2[nH]5)C=C4)C=C3)cc1
REMARK SMILES IDX 18 1 17 2 15 3 16 4 12 5 8 6 9 7 10 8 11 9 7 10 6 11 4 12
REMARK SMILES IDX 5 13 3 15 2 16 1 17 13 18 14 19 19 22 20 23 21 24 22 25
REMARK SMILES IDX 23 26 24 27 85 28 25 29 84 30 26 31 27 32 28 33 78 34 29 35
REMARK SMILES IDX 83 36 77 37 79 38 30 39 82 40 76 41 75 42 31 44 63 45 43 46
REMARK SMILES IDX 62 47 44 48 47 49 61 50 80 51 45 52 46 53 60 55 81 56 48 57
REMARK SMILES IDX 32 58 33 59 41 60 34 61 40 62 42 63 39 64 35 65 36 66 37 67
REMARK SMILES IDX 38 68 64 69 65 70 73 71 66 72 72 73 74 74 71 75 67 76 68 77
REMARK SMILES IDX 69 78 70 79 49 80 50 81 58 82 51 83 57 84 59 85 56 86 52 87
REMARK SMILES IDX 53 88 54 89 55 90
REMARK H PARENT 4 14 13 20 13 21 79 43 47 54
REMARK Flexibility Score: inf
ROOT
ATOM      1  C   UNL A   1      31.787  28.496  27.198  1.00  0.00     0.274 C 
ENDROOT
BRANCH   1   2
ATOM      2  O   UNL A   1      32.866  27.790  26.553  1.00  0.00    -0.457 OA
BRANCH   2   3
ATOM      3  C   UNL A   1      32.518  26.787  25.698  1.00  0.00     0.368 C 
ATOM      4  O   UNL A   1      32.091  25.701  26.080  1.00  0.00    -0.245 OA
BRANCH   3   5
ATOM      5  C   UNL A   1      32.868  27.108  24.202  1.00  0.00     0.197 C 
ATOM      6  C   UNL A   1      31.648  27.378  23.243  1.00  0.00     0.068 C 
ATOM      7  C   UNL A   1      31.230  25.979  22.812  1.00  0.00     0.011 C 
ATOM      8  C   UNL A   1      32.529  25.239  22.588  1.00  0.00     0.008 C 
ATOM      9  C   UNL A   1      33.538  25.860  23.542  1.00  0.00     0.081 C 
BRANCH   6  10
ATOM     10  C   UNL A   1      30.484  28.236  23.776  1.00  0.00     0.072 C 
BRANCH  10  11
ATOM     11  C   UNL A   1      29.298  28.511  22.817  1.00  0.00     0.262 C 
BRANCH  11  12
ATOM     12  N   UNL A   1      28.132  29.317  23.212  1.00  0.00    -0.337 N 
ATOM     13  C   UNL A   1      26.896  28.524  23.209  1.00  0.00     0.332 C 
ATOM     14  H   UNL A   1      28.407  29.594  24.154  1.00  0.00     0.347 HD
BRANCH  12  15
ATOM     15  C   UNL A   1      27.893  30.598  22.540  1.00  0.00     0.261 C 
BRANCH  15  16
ATOM     16  C   UNL A   1      28.041  31.915  23.324  1.00  0.00     0.058 C 
ATOM     17  C   UNL A   1      28.827  33.058  22.710  1.00  0.00     0.010 C 
ENDBRANCH  15  16
ENDBRANCH  12  15
ENDBRANCH  11  12
ENDBRANCH  10  11
ENDBRANCH   6  10
BRANCH   5  18
ATOM     18  N   UNL A   1      33.805  28.274  24.183  1.00  0.00    -0.334 N 
ATOM     19  C   UNL A   1      34.014  28.818  22.837  1.00  0.00     0.331 C 
ATOM     20  H   UNL A   1      34.706  27.974  24.556  1.00  0.00     0.347 HD
ATOM     21  H   UNL A   1      33.387  29.012  24.749  1.00  0.00     0.347 HD
ENDBRANCH   5  18
ENDBRANCH   3   5
ENDBRANCH   2   3
ENDBRANCH   1   2
BRANCH   1  22
ATOM     22  C   UNL A   1      31.791  29.963  26.773  1.00  0.00     0.275 C 
BRANCH  22  23
ATOM     23  O   UNL A   1      33.143  30.361  26.498  1.00  0.00    -0.458 OA
BRANCH  23  24
ATOM     24  C   UNL A   1      33.632  31.381  27.236  1.00  0.00     0.338 C 
ATOM     25  O   UNL A   1      33.072  32.446  27.465  1.00  0.00    -0.246 OA
BRANCH  24  26
ATOM     26  C   UNL A   1      34.971  31.018  27.757  1.00  0.00     0.060 A 
ATOM     27  C   UNL A   1      35.254  29.705  28.134  1.00  0.00     0.016 A 
ATOM     28  C   UNL A   1      35.936  32.005  27.954  1.00  0.00     0.016 A 
ATOM     29  C   UNL A   1      36.452  29.389  28.771  1.00  0.00     0.010 A 
ATOM     30  C   UNL A   1      37.178  31.667  28.512  1.00  0.00     0.010 A 
ATOM     31  C   UNL A   1      37.441  30.358  28.961  1.00  0.00    -0.014 A 
BRANCH  31  32
ATOM     32  C   UNL A   1      38.704  30.019  29.683  1.00  0.00     0.031 A 
ATOM     33  C   UNL A   1      39.706  29.090  29.046  1.00  0.00     0.074 A 
ATOM     34  C   UNL A   1      38.986  30.561  30.888  1.00  0.00     0.049 A 
ATOM     35  N   UNL A   1      40.740  28.490  29.579  1.00  0.00    -0.248 NA
ATOM     36  C   UNL A   1      39.503  28.780  27.623  1.00  0.00     0.031 C 
ATOM     37  C   UNL A   1      38.152  31.532  31.600  1.00  0.00     0.029 A 
ATOM     38  N   UNL A   1      40.062  30.381  31.723  1.00  0.00    -0.354 N 
ATOM     39  C   UNL A   1      41.264  27.673  28.581  1.00  0.00     0.074 A 
ATOM     40  C   UNL A   1      40.432  27.859  27.410  1.00  0.00     0.031 C 
ATOM     41  C   UNL A   1      38.770  31.900  32.733  1.00  0.00     0.029 A 
ATOM     42  C   UNL A   1      39.984  31.108  32.891  1.00  0.00     0.049 A 
ATOM     43  H   UNL A   1      40.818  29.790  31.508  1.00  0.00     0.167 HD
ATOM     44  C   UNL A   1      42.332  26.839  28.642  1.00  0.00     0.034 A 
ATOM     45  C   UNL A   1      40.762  31.101  33.992  1.00  0.00     0.034 A 
ATOM     46  C   UNL A   1      43.190  26.715  29.796  1.00  0.00     0.049 A 
ATOM     47  C   UNL A   1      41.924  30.146  34.051  1.00  0.00     0.074 A 
ATOM     48  C   UNL A   1      44.305  25.910  29.964  1.00  0.00     0.029 A 
ATOM     49  N   UNL A   1      43.043  27.432  30.978  1.00  0.00    -0.354 N 
ATOM     50  N   UNL A   1      42.341  29.293  33.144  1.00  0.00    -0.248 NA
ATOM     51  C   UNL A   1      42.705  30.134  35.295  1.00  0.00     0.031 C 
ATOM     52  C   UNL A   1      44.797  26.100  31.261  1.00  0.00     0.029 A 
ATOM     53  C   UNL A   1      44.032  27.073  31.882  1.00  0.00     0.049 A 
ATOM     54  H   UNL A   1      42.338  28.098  31.148  1.00  0.00     0.167 HD
ATOM     55  C   UNL A   1      43.431  28.641  33.710  1.00  0.00     0.074 A 
ATOM     56  C   UNL A   1      43.629  29.224  35.022  1.00  0.00     0.031 C 
ATOM     57  C   UNL A   1      44.196  27.644  33.198  1.00  0.00     0.034 A 
BRANCH  44  58
ATOM     58  C   UNL A   1      42.586  25.943  27.452  1.00  0.00     0.023 A 
ATOM     59  C   UNL A   1      42.074  24.638  27.366  1.00  0.00     0.031 A 
ATOM     60  C   UNL A   1      43.389  26.404  26.392  1.00  0.00     0.131 A 
ATOM     61  C   UNL A   1      42.427  23.817  26.282  1.00  0.00     0.055 A 
ATOM     62  C   UNL A   1      43.673  25.611  25.279  1.00  0.00     0.041 A 
ATOM     63  F   UNL A   1      43.925  27.635  26.427  1.00  0.00    -0.206 F 
ATOM     64  C   UNL A   1      43.203  24.302  25.226  1.00  0.00     0.022 A 
BRANCH  61  65
ATOM     65  S   UNL A   1      41.975  22.060  26.339  1.00  0.00     0.124 S 
ATOM     66  O   UNL A   1      42.810  21.506  25.276  1.00  0.00    -0.237 OA
ATOM     67  O   UNL A   1      42.340  21.686  27.699  1.00  0.00    -0.237 OA
ATOM     68  O   UNL A   1      40.541  22.066  26.055  1.00  0.00    -0.744 OA
ENDBRANCH  61  65
ENDBRANCH  44  58
BRANCH  45  69
ATOM     69  C   UNL A   1      40.415  31.952  35.166  1.00  0.00     0.023 A 
ATOM     70  C   UNL A   1      39.404  31.579  36.064  1.00  0.00     0.031 A 
ATOM     71  C   UNL A   1      41.076  33.175  35.389  1.00  0.00     0.131 A 
ATOM     72  C   UNL A   1      39.064  32.431  37.128  1.00  0.00     0.055 A 
ATOM     73  C   UNL A   1      40.773  33.991  36.479  1.00  0.00     0.041 A 
ATOM     74  F   UNL A   1      42.046  33.586  34.556  1.00  0.00    -0.206 F 
ATOM     75  C   UNL A   1      39.754  33.625  37.352  1.00  0.00     0.022 A 
BRANCH  72  76
ATOM     76  S   UNL A   1      37.655  31.991  38.182  1.00  0.00     0.124 S 
ATOM     77  O   UNL A   1      37.393  30.616  37.770  1.00  0.00    -0.237 OA
ATOM     78  O   UNL A   1      38.211  32.165  39.520  1.00  0.00    -0.237 OA
ATOM     79  O   UNL A   1      36.630  32.961  37.805  1.00  0.00    -0.744 OA
ENDBRANCH  72  76
ENDBRANCH  45  69
BRANCH  57  80
ATOM     80  C   UNL A   1      45.324  27.146  34.066  1.00  0.00     0.023 A 
ATOM     81  C   UNL A   1      46.608  27.716  33.997  1.00  0.00     0.031 A 
ATOM     82  C   UNL A   1      45.124  26.061  34.938  1.00  0.00     0.131 A 
ATOM     83  C   UNL A   1      47.659  27.161  34.742  1.00  0.00     0.055 A 
ATOM     84  C   UNL A   1      46.162  25.548  35.718  1.00  0.00     0.041 A 
ATOM     85  F   UNL A   1      43.919  25.479  35.038  1.00  0.00    -0.206 F 
ATOM     86  C   UNL A   1      47.441  26.089  35.612  1.00  0.00     0.022 A 
BRANCH  83  87
ATOM     87  S   UNL A   1      49.339  27.793  34.483  1.00  0.00     0.124 S 
ATOM     88  O   UNL A   1      49.516  28.666  35.638  1.00  0.00    -0.237 OA
ATOM     89  O   UNL A   1      50.135  26.570  34.480  1.00  0.00    -0.237 OA
ATOM     90  O   UNL A   1      49.253  28.478  33.195  1.00  0.00    -0.744 OA
ENDBRANCH  83  87
ENDBRANCH  57  80
ENDBRANCH  31  32
ENDBRANCH  24  26
ENDBRANCH  23  24
ENDBRANCH  22  23
ENDBRANCH   1  22
TORSDOF 20
ENDMDL
MODEL 3
REMARK VINA RESULT:     -10.0      5.755     10.714
REMARK SMILES CCC[N@@H+](C)CC[C@@H]1CCC[C@]1([NH2+]C)C(=O)OCCOC(=O)c1ccc(-c2c3nc(c(-c4cc(S(=O)(=O)[O-])ccc4F)c4ccc([nH]4)c(-c4cc(S(=O)(=O)[O-])ccc4F)c4nc(c(-c5cc(S(=O)(=O)[O-])ccc5F)c5ccc2[nH]5)C=C4)C=C3)cc1
REMARK SMILES IDX 18 1 17 2 15 3 16 4 12 5 8 6 9 7 10 8 11 9 7 10 6 11 4 12
REMARK SMILES IDX 5 13 3 15 2 16 1 17 13 18 14 19 19 22 20 23 21 24 22 25
REMARK SMILES IDX 23 26 24 27 85 28 25 29 84 30 26 31 27 32 28 33 78 34 29 35
REMARK SMILES IDX 83 36 77 37 79 38 30 39 82 40 76 41 75 42 31 44 63 45 43 46
REMARK SMILES IDX 62 47 44 48 47 49 61 50 80 51 45 52 46 53 60 55 81 56 48 57
REMARK SMILES IDX 32 58 33 59 41 60 34 61 40 62 42 63 39 64 35 65 36 66 37 67
REMARK SMILES IDX 38 68 64 69 65 70 73 71 66 72 72 73 74 74 71 75 67 76 68 77
REMARK SMILES IDX 69 78 70 79 49 80 50 81 58 82 51 83 57 84 59 85 56 86 52 87
REMARK SMILES IDX 53 88 54 89 55 90
REMARK H PARENT 4 14 13 20 13 21 79 43 47 54
REMARK Flexibility Score: inf
ROOT
ATOM      1  C   UNL A   1      32.806  27.995  26.166  1.00  0.00     0.274 C 
ENDROOT
BRANCH   1   2
ATOM      2  O   UNL A   1      32.234  27.214  25.099  1.00  0.00    -0.457 OA
BRANCH   2   3
ATOM      3  C   UNL A   1      32.872  27.260  23.895  1.00  0.00     0.368 C 
ATOM      4  O   UNL A   1      33.972  27.782  23.741  1.00  0.00    -0.245 OA
BRANCH   3   5
ATOM      5  C   UNL A   1      31.989  26.725  22.712  1.00  0.00     0.197 C 
ATOM      6  C   UNL A   1      30.653  27.510  22.429  1.00  0.00     0.068 C 
ATOM      7  C   UNL A   1      29.669  26.880  23.406  1.00  0.00     0.011 C 
ATOM      8  C   UNL A   1      29.984  25.403  23.373  1.00  0.00     0.008 C 
ATOM      9  C   UNL A   1      31.467  25.293  23.054  1.00  0.00     0.081 C 
BRANCH   6  10
ATOM     10  C   UNL A   1      30.690  29.049  22.493  1.00  0.00     0.072 C 
BRANCH  10  11
ATOM     11  C   UNL A   1      29.887  29.740  23.624  1.00  0.00     0.262 C 
BRANCH  11  12
ATOM     12  N   UNL A   1      28.784  30.676  23.354  1.00  0.00    -0.337 N 
ATOM     13  C   UNL A   1      27.526  29.970  23.075  1.00  0.00     0.332 C 
ATOM     14  H   UNL A   1      28.750  31.183  24.238  1.00  0.00     0.347 HD
BRANCH  12  15
ATOM     15  C   UNL A   1      28.978  31.738  22.363  1.00  0.00     0.261 C 
BRANCH  15  16
ATOM     16  C   UNL A   1      28.405  31.575  20.942  1.00  0.00     0.058 C 
ATOM     17  C   UNL A   1      27.653  32.732  20.311  1.00  0.00     0.010 C 
ENDBRANCH  15  16
ENDBRANCH  12  15
ENDBRANCH  11  12
ENDBRANCH  10  11
ENDBRANCH   6  10
BRANCH   5  18
ATOM     18  N   UNL A   1      32.836  26.691  21.479  1.00  0.00    -0.334 N 
ATOM     19  C   UNL A   1      32.526  25.555  20.604  1.00  0.00     0.331 C 
ATOM     20  H   UNL A   1      33.815  26.628  21.759  1.00  0.00     0.347 HD
ATOM     21  H   UNL A   1      32.645  27.543  20.953  1.00  0.00     0.347 HD
ENDBRANCH   5  18
ENDBRANCH   3   5
ENDBRANCH   2   3
ENDBRANCH   1   2
BRANCH   1  22
ATOM     22  C   UNL A   1      32.044  29.310  26.322  1.00  0.00     0.275 C 
BRANCH  22  23
ATOM     23  O   UNL A   1      32.917  30.395  25.970  1.00  0.00    -0.458 OA
BRANCH  23  24
ATOM     24  C   UNL A   1      33.181  31.294  26.942  1.00  0.00     0.338 C 
ATOM     25  O   UNL A   1      32.456  32.216  27.295  1.00  0.00    -0.246 OA
BRANCH  24  26
ATOM     26  C   UNL A   1      34.499  30.994  27.549  1.00  0.00     0.060 A 
ATOM     27  C   UNL A   1      34.801  29.706  27.990  1.00  0.00     0.016 A 
ATOM     28  C   UNL A   1      35.421  32.019  27.761  1.00  0.00     0.016 A 
ATOM     29  C   UNL A   1      35.970  29.452  28.704  1.00  0.00     0.010 A 
ATOM     30  C   UNL A   1      36.639  31.742  28.399  1.00  0.00     0.010 A 
ATOM     31  C   UNL A   1      36.916  30.459  28.911  1.00  0.00    -0.014 A 
BRANCH  31  32
ATOM     32  C   UNL A   1      38.147  30.188  29.714  1.00  0.00     0.031 A 
ATOM     33  C   UNL A   1      39.236  29.314  29.145  1.00  0.00     0.074 A 
ATOM     34  C   UNL A   1      38.321  30.743  30.933  1.00  0.00     0.049 A 
ATOM     35  N   UNL A   1      40.265  28.770  29.745  1.00  0.00    -0.248 NA
ATOM     36  C   UNL A   1      39.142  28.996  27.712  1.00  0.00     0.031 C 
ATOM     37  C   UNL A   1      37.392  31.667  31.588  1.00  0.00     0.029 A 
ATOM     38  N   UNL A   1      39.350  30.621  31.836  1.00  0.00    -0.354 N 
ATOM     39  C   UNL A   1      40.895  27.984  28.784  1.00  0.00     0.074 A 
ATOM     40  C   UNL A   1      40.131  28.126  27.562  1.00  0.00     0.031 C 
ATOM     41  C   UNL A   1      37.915  32.066  32.757  1.00  0.00     0.029 A 
ATOM     42  C   UNL A   1      39.157  31.341  32.994  1.00  0.00     0.049 A 
ATOM     43  H   UNL A   1      40.149  30.071  31.672  1.00  0.00     0.167 HD
ATOM     44  C   UNL A   1      42.000  27.208  28.916  1.00  0.00     0.034 A 
ATOM     45  C   UNL A   1      39.862  31.374  34.143  1.00  0.00     0.034 A 
ATOM     46  C   UNL A   1      42.788  27.130  30.124  1.00  0.00     0.049 A 
ATOM     47  C   UNL A   1      41.068  30.484  34.279  1.00  0.00     0.074 A 
ATOM     48  C   UNL A   1      43.931  26.386  30.365  1.00  0.00     0.029 A 
ATOM     49  N   UNL A   1      42.526  27.837  31.292  1.00  0.00    -0.354 N 
ATOM     50  N   UNL A   1      41.588  29.655  33.403  1.00  0.00    -0.248 NA
ATOM     51  C   UNL A   1      41.766  30.513  35.571  1.00  0.00     0.031 C 
ATOM     52  C   UNL A   1      44.328  26.601  31.691  1.00  0.00     0.029 A 
ATOM     53  C   UNL A   1      43.473  27.531  32.258  1.00  0.00     0.049 A 
ATOM     54  H   UNL A   1      41.778  28.464  31.415  1.00  0.00     0.167 HD
ATOM     55  C   UNL A   1      42.672  29.063  34.040  1.00  0.00     0.074 A 
ATOM     56  C   UNL A   1      42.754  29.654  35.360  1.00  0.00     0.031 C 
ATOM     57  C   UNL A   1      43.521  28.108  33.581  1.00  0.00     0.034 A 
BRANCH  44  58
ATOM     58  C   UNL A   1      42.379  26.329  27.747  1.00  0.00     0.023 A 
ATOM     59  C   UNL A   1      41.901  25.016  27.605  1.00  0.00     0.031 A 
ATOM     60  C   UNL A   1      43.266  26.814  26.769  1.00  0.00     0.131 A 
ATOM     61  C   UNL A   1      42.366  24.212  26.551  1.00  0.00     0.055 A 
ATOM     62  C   UNL A   1      43.665  26.037  25.680  1.00  0.00     0.041 A 
ATOM     63  F   UNL A   1      43.774  28.054  26.862  1.00  0.00    -0.206 F 
ATOM     64  C   UNL A   1      43.226  24.721  25.574  1.00  0.00     0.022 A 
BRANCH  61  65
ATOM     65  S   UNL A   1      41.943  22.447  26.552  1.00  0.00     0.124 S 
ATOM     66  O   UNL A   1      42.641  21.975  25.359  1.00  0.00    -0.237 OA
ATOM     67  O   UNL A   1      42.483  21.995  27.828  1.00  0.00    -0.237 OA
ATOM     68  O   UNL A   1      40.485  22.444  26.454  1.00  0.00    -0.744 OA
ENDBRANCH  61  65
ENDBRANCH  44  58
BRANCH  45  69
ATOM     69  C   UNL A   1      39.395  32.205  35.291  1.00  0.00     0.023 A 
ATOM     70  C   UNL A   1      39.791  33.544  35.429  1.00  0.00     0.031 A 
ATOM     71  C   UNL A   1      38.565  31.656  36.287  1.00  0.00     0.131 A 
ATOM     72  C   UNL A   1      39.380  34.282  36.551  1.00  0.00     0.055 A 
ATOM     73  C   UNL A   1      38.114  32.411  37.370  1.00  0.00     0.041 A 
ATOM     74  F   UNL A   1      38.164  30.378  36.208  1.00  0.00    -0.206 F 
ATOM     75  C   UNL A   1      38.529  33.730  37.513  1.00  0.00     0.022 A 
BRANCH  72  76
ATOM     76  S   UNL A   1      40.029  35.961  36.778  1.00  0.00     0.124 S 
ATOM     77  O   UNL A   1      39.664  36.594  35.515  1.00  0.00    -0.237 OA
ATOM     78  O   UNL A   1      39.297  36.413  37.957  1.00  0.00    -0.237 OA
ATOM     79  O   UNL A   1      41.460  35.749  36.980  1.00  0.00    -0.744 OA
ENDBRANCH  72  76
ENDBRANCH  45  69
BRANCH  57  80
ATOM     80  C   UNL A   1      44.616  27.671  34.521  1.00  0.00     0.023 A 
ATOM     81  C   UNL A   1      44.438  26.589  35.401  1.00  0.00     0.031 A 
ATOM     82  C   UNL A   1      45.834  28.371  34.566  1.00  0.00     0.131 A 
ATOM     83  C   UNL A   1      45.438  26.276  36.333  1.00  0.00     0.055 A 
ATOM     84  C   UNL A   1      46.848  28.019  35.458  1.00  0.00     0.041 A 
ATOM     85  F   UNL A   1      46.054  29.413  33.749  1.00  0.00    -0.206 F 
ATOM     86  C   UNL A   1      46.648  26.975  36.358  1.00  0.00     0.022 A 
BRANCH  83  87
ATOM     87  S   UNL A   1      45.098  25.005  37.582  1.00  0.00     0.124 S 
ATOM     88  O   UNL A   1      45.690  23.817  36.976  1.00  0.00    -0.237 OA
ATOM     89  O   UNL A   1      45.785  25.531  38.758  1.00  0.00    -0.237 OA
ATOM     90  O   UNL A   1      43.640  24.994  37.672  1.00  0.00    -0.744 OA
ENDBRANCH  83  87
ENDBRANCH  57  80
ENDBRANCH  31  32
ENDBRANCH  24  26
ENDBRANCH  23  24
ENDBRANCH  22  23
ENDBRANCH   1  22
TORSDOF 20
ENDMDL
