MODEL 1
REMARK VINA RESULT:     -12.4      0.000      0.000
REMARK SMILES CC(C)CCc1cc2c(cc1Cl)C=C(C(=O)OCCOC(=O)c1ccc(-c3c4nc(c(-c5cc(S(=O)(=O)[O-])ccc5F)c5ccc([nH]5)c(-c5cc(S(=O)(=O)[O-])ccc5F)c5nc(c(-c6cc(S(=O)(=O)[O-])ccc6F)c6ccc3[nH]6)C=C5)C=C4)cc1)[C@@H](C(F)(F)F)O2
REMARK SMILES IDX 18 1 17 2 15 3 16 4 14 5 6 6 7 7 11 8 8 9 10 10 12 11 9 12
REMARK SMILES IDX 91 13 13 14 86 15 5 16 4 17 2 18 1 19 3 20 87 21 88 22 89 23
REMARK SMILES IDX 90 24 19 25 20 26 21 27 22 28 23 29 24 30 85 31 25 32 84 33
REMARK SMILES IDX 26 34 27 35 28 36 78 37 29 38 83 39 77 40 79 41 30 42 82 43
REMARK SMILES IDX 76 44 75 45 31 47 63 48 43 49 62 50 44 51 47 52 61 53 80 54
REMARK SMILES IDX 45 55 46 56 60 58 81 59 48 60 32 61 33 62 41 63 34 64 40 65
REMARK SMILES IDX 42 66 39 67 35 68 36 69 37 70 38 71 64 72 65 73 73 74 66 75
REMARK SMILES IDX 72 76 74 77 71 78 67 79 68 80 69 81 70 82 49 83 50 84 58 85
REMARK SMILES IDX 51 86 57 87 59 88 56 89 52 90 53 91 54 92 55 93
REMARK H PARENT 79 46 47 57
REMARK Flexibility Score: inf
ROOT
ATOM      1  C   UNL A   1      31.431  28.629  25.005  1.00  0.00     0.275 C 
ENDROOT
BRANCH   1   2
ATOM      2  O   UNL A   1      32.502  27.704  25.301  1.00  0.00    -0.459 OA
BRANCH   2   3
ATOM      3  C   UNL A   1      33.081  27.106  24.233  1.00  0.00     0.338 C 
ATOM      4  O   UNL A   1      33.550  27.665  23.253  1.00  0.00    -0.246 OA
BRANCH   3   5
ATOM      5  C   UNL A   1      33.123  25.643  24.423  1.00  0.00     0.087 C 
ATOM      6  C   UNL A   1      34.576  20.830  24.728  1.00  0.00    -0.026 A 
ATOM      7  C   UNL A   1      33.323  21.481  24.681  1.00  0.00     0.052 A 
ATOM      8  C   UNL A   1      35.735  21.617  24.816  1.00  0.00     0.045 A 
ATOM      9  C   UNL A   1      33.232  22.872  24.639  1.00  0.00     0.128 A 
ATOM     10  C   UNL A   1      35.645  23.006  24.757  1.00  0.00     0.032 A 
ATOM     11  Cl  UNL A   1      37.316  20.948  24.986  1.00  0.00    -0.084 Cl
ATOM     12  C   UNL A   1      34.398  23.625  24.634  1.00  0.00     0.019 A 
ATOM     13  O   UNL A   1      31.981  23.418  24.592  1.00  0.00    -0.475 OA
ATOM     14  C   UNL A   1      34.322  25.058  24.470  1.00  0.00     0.027 C 
ATOM     15  C   UNL A   1      31.840  24.863  24.436  1.00  0.00     0.316 C 
BRANCH   6  16
ATOM     16  C   UNL A   1      34.618  19.322  24.626  1.00  0.00     0.037 C 
BRANCH  16  17
ATOM     17  C   UNL A   1      33.274  18.657  24.973  1.00  0.00     0.008 C 
BRANCH  17  18
ATOM     18  C   UNL A   1      32.778  17.588  23.975  1.00  0.00    -0.017 C 
ATOM     19  C   UNL A   1      32.530  18.161  22.579  1.00  0.00     0.007 C 
ATOM     20  C   UNL A   1      33.804  16.455  23.879  1.00  0.00     0.007 C 
ENDBRANCH  17  18
ENDBRANCH  16  17
ENDBRANCH   6  16
BRANCH  15  21
ATOM     21  C   UNL A   1      31.038  25.127  23.151  1.00  0.00     0.430 C 
ATOM     22  F   UNL A   1      30.250  24.070  22.832  1.00  0.00    -0.167 F 
ATOM     23  F   UNL A   1      30.209  26.192  23.286  1.00  0.00    -0.167 F 
ATOM     24  F   UNL A   1      31.837  25.370  22.087  1.00  0.00    -0.167 F 
ENDBRANCH  15  21
ENDBRANCH   3   5
ENDBRANCH   2   3
ENDBRANCH   1   2
BRANCH   1  25
ATOM     25  C   UNL A   1      31.788  30.058  25.421  1.00  0.00     0.275 C 
BRANCH  25  26
ATOM     26  O   UNL A   1      32.367  30.068  26.737  1.00  0.00    -0.458 OA
BRANCH  26  27
ATOM     27  C   UNL A   1      32.900  31.250  27.119  1.00  0.00     0.338 C 
ATOM     28  O   UNL A   1      32.321  32.315  27.248  1.00  0.00    -0.246 OA
BRANCH  27  29
ATOM     29  C   UNL A   1      34.301  31.050  27.518  1.00  0.00     0.060 A 
ATOM     30  C   UNL A   1      35.126  32.101  27.890  1.00  0.00     0.016 A 
ATOM     31  C   UNL A   1      34.725  29.742  27.701  1.00  0.00     0.016 A 
ATOM     32  C   UNL A   1      36.379  31.811  28.451  1.00  0.00     0.010 A 
ATOM     33  C   UNL A   1      35.882  29.461  28.422  1.00  0.00     0.010 A 
ATOM     34  C   UNL A   1      36.753  30.488  28.783  1.00  0.00    -0.014 A 
BRANCH  34  35
ATOM     35  C   UNL A   1      38.018  30.198  29.530  1.00  0.00     0.031 A 
ATOM     36  C   UNL A   1      38.260  30.708  30.937  1.00  0.00     0.074 A 
ATOM     37  C   UNL A   1      38.994  29.492  28.917  1.00  0.00     0.049 A 
ATOM     38  N   UNL A   1      39.262  30.449  31.741  1.00  0.00    -0.248 NA
ATOM     39  C   UNL A   1      37.292  31.663  31.503  1.00  0.00     0.031 C 
ATOM     40  C   UNL A   1      38.970  29.078  27.513  1.00  0.00     0.029 A 
ATOM     41  N   UNL A   1      40.176  28.974  29.390  1.00  0.00    -0.354 N 
ATOM     42  C   UNL A   1      39.049  31.216  32.885  1.00  0.00     0.074 A 
ATOM     43  C   UNL A   1      37.880  32.022  32.634  1.00  0.00     0.031 C 
ATOM     44  C   UNL A   1      40.022  28.285  27.268  1.00  0.00     0.029 A 
ATOM     45  C   UNL A   1      40.832  28.176  28.479  1.00  0.00     0.049 A 
ATOM     46  H   UNL A   1      40.521  29.156  30.295  1.00  0.00     0.167 HD
ATOM     47  C   UNL A   1      39.726  31.208  34.059  1.00  0.00     0.034 A 
ATOM     48  C   UNL A   1      41.941  27.416  28.601  1.00  0.00     0.034 A 
ATOM     49  C   UNL A   1      40.856  30.353  34.319  1.00  0.00     0.049 A 
ATOM     50  C   UNL A   1      42.628  27.348  29.941  1.00  0.00     0.074 A 
ATOM     51  C   UNL A   1      41.540  30.182  35.509  1.00  0.00     0.029 A 
ATOM     52  N   UNL A   1      41.462  29.525  33.387  1.00  0.00    -0.354 N 
ATOM     53  N   UNL A   1      42.311  27.952  31.062  1.00  0.00    -0.248 NA
ATOM     54  C   UNL A   1      43.813  26.484  30.043  1.00  0.00     0.031 C 
ATOM     55  C   UNL A   1      42.599  29.304  35.280  1.00  0.00     0.029 A 
ATOM     56  C   UNL A   1      42.531  28.864  33.968  1.00  0.00     0.049 A 
ATOM     57  H   UNL A   1      41.177  29.423  32.450  1.00  0.00     0.167 HD
ATOM     58  C   UNL A   1      43.250  27.537  32.002  1.00  0.00     0.074 A 
ATOM     59  C   UNL A   1      44.117  26.591  31.331  1.00  0.00     0.031 C 
ATOM     60  C   UNL A   1      43.392  27.918  33.297  1.00  0.00     0.034 A 
BRANCH  47  61
ATOM     61  C   UNL A   1      39.239  32.083  35.195  1.00  0.00     0.023 A 
ATOM     62  C   UNL A   1      39.760  33.381  35.366  1.00  0.00     0.031 A 
ATOM     63  C   UNL A   1      38.382  31.580  36.191  1.00  0.00     0.131 A 
ATOM     64  C   UNL A   1      39.453  34.109  36.524  1.00  0.00     0.055 A 
ATOM     65  C   UNL A   1      38.035  32.331  37.315  1.00  0.00     0.041 A 
ATOM     66  F   UNL A   1      37.866  30.344  36.089  1.00  0.00    -0.206 F 
ATOM     67  C   UNL A   1      38.585  33.596  37.493  1.00  0.00     0.022 A 
BRANCH  64  68
ATOM     68  S   UNL A   1      40.231  35.711  36.864  1.00  0.00     0.124 S 
ATOM     69  O   UNL A   1      41.649  35.400  36.694  1.00  0.00    -0.237 OA
ATOM     70  O   UNL A   1      39.651  36.557  35.824  1.00  0.00    -0.237 OA
ATOM     71  O   UNL A   1      39.824  36.019  38.230  1.00  0.00    -0.744 OA
ENDBRANCH  64  68
ENDBRANCH  47  61
BRANCH  48  72
ATOM     72  C   UNL A   1      42.385  26.585  27.441  1.00  0.00     0.023 A 
ATOM     73  C   UNL A   1      41.977  25.245  27.307  1.00  0.00     0.031 A 
ATOM     74  C   UNL A   1      43.326  27.080  26.519  1.00  0.00     0.131 A 
ATOM     75  C   UNL A   1      42.566  24.430  26.331  1.00  0.00     0.055 A 
ATOM     76  C   UNL A   1      43.847  26.286  25.496  1.00  0.00     0.041 A 
ATOM     77  F   UNL A   1      43.763  28.346  26.612  1.00  0.00    -0.206 F 
ATOM     78  C   UNL A   1      43.483  24.947  25.412  1.00  0.00     0.022 A 
BRANCH  75  79
ATOM     79  S   UNL A   1      42.284  22.636  26.325  1.00  0.00     0.124 S 
ATOM     80  O   UNL A   1      42.668  22.272  24.966  1.00  0.00    -0.237 OA
ATOM     81  O   UNL A   1      43.190  22.188  27.380  1.00  0.00    -0.237 OA
ATOM     82  O   UNL A   1      40.863  22.511  26.636  1.00  0.00    -0.744 OA
ENDBRANCH  75  79
ENDBRANCH  48  72
BRANCH  60  83
ATOM     83  C   UNL A   1      44.536  27.343  34.099  1.00  0.00     0.023 A 
ATOM     84  C   UNL A   1      44.332  26.213  34.915  1.00  0.00     0.031 A 
ATOM     85  C   UNL A   1      45.776  28.001  34.174  1.00  0.00     0.131 A 
ATOM     86  C   UNL A   1      45.337  25.802  35.800  1.00  0.00     0.055 A 
ATOM     87  C   UNL A   1      46.795  27.552  35.016  1.00  0.00     0.041 A 
ATOM     88  F   UNL A   1      46.016  29.092  33.429  1.00  0.00    -0.206 F 
ATOM     89  C   UNL A   1      46.571  26.459  35.846  1.00  0.00     0.022 A 
BRANCH  86  90
ATOM     90  S   UNL A   1      45.045  24.468  36.995  1.00  0.00     0.124 S 
ATOM     91  O   UNL A   1      46.311  24.434  37.723  1.00  0.00    -0.237 OA
ATOM     92  O   UNL A   1      43.904  24.977  37.751  1.00  0.00    -0.237 OA
ATOM     93  O   UNL A   1      44.776  23.301  36.161  1.00  0.00    -0.744 OA
ENDBRANCH  86  90
ENDBRANCH  60  83
ENDBRANCH  34  35
ENDBRANCH  27  29
ENDBRANCH  26  27
ENDBRANCH  25  26
ENDBRANCH   1  25
TORSDOF 18
ENDMDL
MODEL 2
REMARK VINA RESULT:     -12.2      1.525      1.920
REMARK SMILES CC(C)CCc1cc2c(cc1Cl)C=C(C(=O)OCCOC(=O)c1ccc(-c3c4nc(c(-c5cc(S(=O)(=O)[O-])ccc5F)c5ccc([nH]5)c(-c5cc(S(=O)(=O)[O-])ccc5F)c5nc(c(-c6cc(S(=O)(=O)[O-])ccc6F)c6ccc3[nH]6)C=C5)C=C4)cc1)[C@@H](C(F)(F)F)O2
REMARK SMILES IDX 18 1 17 2 15 3 16 4 14 5 6 6 7 7 11 8 8 9 10 10 12 11 9 12
REMARK SMILES IDX 91 13 13 14 86 15 5 16 4 17 2 18 1 19 3 20 87 21 88 22 89 23
REMARK SMILES IDX 90 24 19 25 20 26 21 27 22 28 23 29 24 30 85 31 25 32 84 33
REMARK SMILES IDX 26 34 27 35 28 36 78 37 29 38 83 39 77 40 79 41 30 42 82 43
REMARK SMILES IDX 76 44 75 45 31 47 63 48 43 49 62 50 44 51 47 52 61 53 80 54
REMARK SMILES IDX 45 55 46 56 60 58 81 59 48 60 32 61 33 62 41 63 34 64 40 65
REMARK SMILES IDX 42 66 39 67 35 68 36 69 37 70 38 71 64 72 65 73 73 74 66 75
REMARK SMILES IDX 72 76 74 77 71 78 67 79 68 80 69 81 70 82 49 83 50 84 58 85
REMARK SMILES IDX 51 86 57 87 59 88 56 89 52 90 53 91 54 92 55 93
REMARK H PARENT 79 46 47 57
REMARK Flexibility Score: inf
ROOT
ATOM      1  C   UNL A   1      31.590  29.909  25.310  1.00  0.00     0.275 C 
ENDROOT
BRANCH   1   2
ATOM      2  O   UNL A   1      31.994  28.546  25.575  1.00  0.00    -0.459 OA
BRANCH   2   3
ATOM      3  C   UNL A   1      32.805  27.979  24.650  1.00  0.00     0.338 C 
ATOM      4  O   UNL A   1      33.476  28.565  23.815  1.00  0.00    -0.246 OA
BRANCH   3   5
ATOM      5  C   UNL A   1      32.821  26.511  24.811  1.00  0.00     0.087 C 
ATOM      6  C   UNL A   1      34.120  21.645  24.818  1.00  0.00    -0.026 A 
ATOM      7  C   UNL A   1      32.900  22.341  24.977  1.00  0.00     0.052 A 
ATOM      8  C   UNL A   1      35.307  22.389  24.734  1.00  0.00     0.045 A 
ATOM      9  C   UNL A   1      32.857  23.734  24.968  1.00  0.00     0.128 A 
ATOM     10  C   UNL A   1      35.261  23.781  24.709  1.00  0.00     0.032 A 
ATOM     11  Cl  UNL A   1      36.868  21.661  24.645  1.00  0.00    -0.084 Cl
ATOM     12  C   UNL A   1      34.035  24.446  24.792  1.00  0.00     0.019 A 
ATOM     13  O   UNL A   1      31.635  24.325  25.126  1.00  0.00    -0.475 OA
ATOM     14  C   UNL A   1      33.990  25.884  24.662  1.00  0.00     0.027 C 
ATOM     15  C   UNL A   1      31.527  25.777  25.015  1.00  0.00     0.316 C 
BRANCH   6  16
ATOM     16  C   UNL A   1      34.087  20.139  24.689  1.00  0.00     0.037 C 
BRANCH  16  17
ATOM     17  C   UNL A   1      32.810  19.619  24.006  1.00  0.00     0.008 C 
BRANCH  17  18
ATOM     18  C   UNL A   1      32.566  18.098  24.111  1.00  0.00    -0.017 C 
ATOM     19  C   UNL A   1      33.555  17.287  23.274  1.00  0.00     0.007 C 
ATOM     20  C   UNL A   1      32.666  17.658  25.575  1.00  0.00     0.007 C 
ENDBRANCH  17  18
ENDBRANCH  16  17
ENDBRANCH   6  16
BRANCH  15  21
ATOM     21  C   UNL A   1      30.545  26.095  23.874  1.00  0.00     0.430 C 
ATOM     22  F   UNL A   1      31.199  26.457  22.743  1.00  0.00    -0.167 F 
ATOM     23  F   UNL A   1      29.789  25.017  23.547  1.00  0.00    -0.167 F 
ATOM     24  F   UNL A   1      29.698  27.100  24.190  1.00  0.00    -0.167 F 
ENDBRANCH  15  21
ENDBRANCH   3   5
ENDBRANCH   2   3
ENDBRANCH   1   2
BRANCH   1  25
ATOM     25  C   UNL A   1      31.784  30.803  26.537  1.00  0.00     0.275 C 
BRANCH  25  26
ATOM     26  O   UNL A   1      33.042  30.518  27.172  1.00  0.00    -0.458 OA
BRANCH  26  27
ATOM     27  C   UNL A   1      33.733  31.604  27.588  1.00  0.00     0.338 C 
ATOM     28  O   UNL A   1      33.291  32.716  27.820  1.00  0.00    -0.246 OA
BRANCH  27  29
ATOM     29  C   UNL A   1      35.123  31.221  27.877  1.00  0.00     0.060 A 
ATOM     30  C   UNL A   1      36.128  32.157  28.064  1.00  0.00     0.016 A 
ATOM     31  C   UNL A   1      35.365  29.883  28.153  1.00  0.00     0.016 A 
ATOM     32  C   UNL A   1      37.376  31.723  28.536  1.00  0.00     0.010 A 
ATOM     33  C   UNL A   1      36.536  29.487  28.791  1.00  0.00     0.010 A 
ATOM     34  C   UNL A   1      37.583  30.391  28.966  1.00  0.00    -0.014 A 
BRANCH  34  35
ATOM     35  C   UNL A   1      38.862  29.971  29.621  1.00  0.00     0.031 A 
ATOM     36  C   UNL A   1      39.259  30.456  31.001  1.00  0.00     0.074 A 
ATOM     37  C   UNL A   1      39.710  29.165  28.946  1.00  0.00     0.049 A 
ATOM     38  N   UNL A   1      40.286  30.095  31.733  1.00  0.00    -0.248 NA
ATOM     39  C   UNL A   1      38.441  31.509  31.627  1.00  0.00     0.031 C 
ATOM     40  C   UNL A   1      39.540  28.752  27.551  1.00  0.00     0.029 A 
ATOM     41  N   UNL A   1      40.863  28.526  29.336  1.00  0.00    -0.354 N 
ATOM     42  C   UNL A   1      40.239  30.883  32.881  1.00  0.00     0.074 A 
ATOM     43  C   UNL A   1      39.145  31.807  32.709  1.00  0.00     0.031 C 
ATOM     44  C   UNL A   1      40.482  27.853  27.238  1.00  0.00     0.029 A 
ATOM     45  C   UNL A   1      41.363  27.661  28.387  1.00  0.00     0.049 A 
ATOM     46  H   UNL A   1      41.291  28.673  30.211  1.00  0.00     0.167 HD
ATOM     47  C   UNL A   1      40.996  30.806  34.003  1.00  0.00     0.034 A 
ATOM     48  C   UNL A   1      42.393  26.789  28.436  1.00  0.00     0.034 A 
ATOM     49  C   UNL A   1      42.046  29.837  34.188  1.00  0.00     0.049 A 
ATOM     50  C   UNL A   1      43.166  26.652  29.722  1.00  0.00     0.074 A 
ATOM     51  C   UNL A   1      42.794  29.597  35.327  1.00  0.00     0.029 A 
ATOM     52  N   UNL A   1      42.492  28.948  33.222  1.00  0.00    -0.354 N 
ATOM     53  N   UNL A   1      42.997  27.288  30.857  1.00  0.00    -0.248 NA
ATOM     54  C   UNL A   1      44.258  25.668  29.747  1.00  0.00     0.031 C 
ATOM     55  C   UNL A   1      43.736  28.613  35.029  1.00  0.00     0.029 A 
ATOM     56  C   UNL A   1      43.526  28.179  33.730  1.00  0.00     0.049 A 
ATOM     57  H   UNL A   1      42.129  28.874  32.310  1.00  0.00     0.167 HD
ATOM     58  C   UNL A   1      43.954  26.779  31.730  1.00  0.00     0.074 A 
ATOM     59  C   UNL A   1      44.665  25.746  31.007  1.00  0.00     0.031 C 
ATOM     60  C   UNL A   1      44.230  27.146  33.007  1.00  0.00     0.034 A 
BRANCH  47  61
ATOM     61  C   UNL A   1      40.689  31.730  35.162  1.00  0.00     0.023 A 
ATOM     62  C   UNL A   1      39.600  31.465  36.014  1.00  0.00     0.031 A 
ATOM     63  C   UNL A   1      41.375  32.949  35.328  1.00  0.00     0.131 A 
ATOM     64  C   UNL A   1      39.205  32.421  36.960  1.00  0.00     0.055 A 
ATOM     65  C   UNL A   1      41.012  33.873  36.309  1.00  0.00     0.041 A 
ATOM     66  F   UNL A   1      42.413  33.262  34.535  1.00  0.00    -0.206 F 
ATOM     67  C   UNL A   1      39.912  33.617  37.119  1.00  0.00     0.022 A 
BRANCH  64  68
ATOM     68  S   UNL A   1      37.711  32.194  37.963  1.00  0.00     0.124 S 
ATOM     69  O   UNL A   1      36.770  33.104  37.313  1.00  0.00    -0.237 OA
ATOM     70  O   UNL A   1      37.433  30.772  37.775  1.00  0.00    -0.237 OA
ATOM     71  O   UNL A   1      38.125  32.585  39.306  1.00  0.00    -0.744 OA
ENDBRANCH  64  68
ENDBRANCH  47  61
BRANCH  48  72
ATOM     72  C   UNL A   1      42.660  25.913  27.254  1.00  0.00     0.023 A 
ATOM     73  C   UNL A   1      42.140  24.608  27.184  1.00  0.00     0.031 A 
ATOM     74  C   UNL A   1      43.545  26.323  26.241  1.00  0.00     0.131 A 
ATOM     75  C   UNL A   1      42.569  23.738  26.173  1.00  0.00     0.055 A 
ATOM     76  C   UNL A   1      43.905  25.479  25.187  1.00  0.00     0.041 A 
ATOM     77  F   UNL A   1      44.085  27.552  26.269  1.00  0.00    -0.206 F 
ATOM     78  C   UNL A   1      43.433  24.172  25.162  1.00  0.00     0.022 A 
BRANCH  75  79
ATOM     79  S   UNL A   1      42.151  21.973  26.225  1.00  0.00     0.124 S 
ATOM     80  O   UNL A   1      42.519  21.613  27.590  1.00  0.00    -0.237 OA
ATOM     81  O   UNL A   1      40.718  21.997  25.943  1.00  0.00    -0.237 OA
ATOM     82  O   UNL A   1      42.979  21.392  25.172  1.00  0.00    -0.744 OA
ENDBRANCH  75  79
ENDBRANCH  48  72
BRANCH  60  83
ATOM     83  C   UNL A   1      45.364  26.456  33.730  1.00  0.00     0.023 A 
ATOM     84  C   UNL A   1      45.130  25.260  34.436  1.00  0.00     0.031 A 
ATOM     85  C   UNL A   1      46.628  27.059  33.846  1.00  0.00     0.131 A 
ATOM     86  C   UNL A   1      46.131  24.729  35.259  1.00  0.00     0.055 A 
ATOM     87  C   UNL A   1      47.642  26.494  34.622  1.00  0.00     0.041 A 
ATOM     88  F   UNL A   1      46.897  28.207  33.205  1.00  0.00    -0.206 F 
ATOM     89  C   UNL A   1      47.390  25.334  35.346  1.00  0.00     0.022 A 
BRANCH  86  90
ATOM     90  S   UNL A   1      45.808  23.296  36.324  1.00  0.00     0.124 S 
ATOM     91  O   UNL A   1      44.419  22.983  35.995  1.00  0.00    -0.237 OA
ATOM     92  O   UNL A   1      46.794  22.330  35.847  1.00  0.00    -0.237 OA
ATOM     93  O   UNL A   1      46.028  23.803  37.674  1.00  0.00    -0.744 OA
ENDBRANCH  86  90
ENDBRANCH  60  83
ENDBRANCH  34  35
ENDBRANCH  27  29
ENDBRANCH  26  27
ENDBRANCH  25  26
ENDBRANCH   1  25
TORSDOF 18
ENDMDL
MODEL 3
REMARK VINA RESULT:     -12.0      4.665     10.049
REMARK SMILES CC(C)CCc1cc2c(cc1Cl)C=C(C(=O)OCCOC(=O)c1ccc(-c3c4nc(c(-c5cc(S(=O)(=O)[O-])ccc5F)c5ccc([nH]5)c(-c5cc(S(=O)(=O)[O-])ccc5F)c5nc(c(-c6cc(S(=O)(=O)[O-])ccc6F)c6ccc3[nH]6)C=C5)C=C4)cc1)[C@@H](C(F)(F)F)O2
REMARK SMILES IDX 18 1 17 2 15 3 16 4 14 5 6 6 7 7 11 8 8 9 10 10 12 11 9 12
REMARK SMILES IDX 91 13 13 14 86 15 5 16 4 17 2 18 1 19 3 20 87 21 88 22 89 23
REMARK SMILES IDX 90 24 19 25 20 26 21 27 22 28 23 29 24 30 85 31 25 32 84 33
REMARK SMILES IDX 26 34 27 35 28 36 78 37 29 38 83 39 77 40 79 41 30 42 82 43
REMARK SMILES IDX 76 44 75 45 31 47 63 48 43 49 62 50 44 51 47 52 61 53 80 54
REMARK SMILES IDX 45 55 46 56 60 58 81 59 48 60 32 61 33 62 41 63 34 64 40 65
REMARK SMILES IDX 42 66 39 67 35 68 36 69 37 70 38 71 64 72 65 73 73 74 66 75
REMARK SMILES IDX 72 76 74 77 71 78 67 79 68 80 69 81 70 82 49 83 50 84 58 85
REMARK SMILES IDX 51 86 57 87 59 88 56 89 52 90 53 91 54 92 55 93
REMARK H PARENT 79 46 47 57
REMARK Flexibility Score: inf
ROOT
ATOM      1  C   UNL A   1      35.318  20.835  25.132  1.00  0.00     0.275 C 
ENDROOT
BRANCH   1   2
ATOM      2  O   UNL A   1      35.168  22.273  25.123  1.00  0.00    -0.459 OA
BRANCH   2   3
ATOM      3  C   UNL A   1      34.174  22.769  25.898  1.00  0.00     0.338 C 
ATOM      4  O   UNL A   1      33.842  22.364  27.002  1.00  0.00    -0.246 OA
BRANCH   3   5
ATOM      5  C   UNL A   1      33.547  23.936  25.246  1.00  0.00     0.087 C 
ATOM      6  C   UNL A   1      31.329  28.360  24.311  1.00  0.00    -0.026 A 
ATOM      7  C   UNL A   1      31.535  27.181  23.559  1.00  0.00     0.052 A 
ATOM      8  C   UNL A   1      31.926  28.458  25.577  1.00  0.00     0.045 A 
ATOM      9  C   UNL A   1      32.242  26.102  24.087  1.00  0.00     0.128 A 
ATOM     10  C   UNL A   1      32.618  27.373  26.111  1.00  0.00     0.032 A 
ATOM     11  Cl  UNL A   1      31.841  29.880  26.550  1.00  0.00    -0.084 Cl
ATOM     12  C   UNL A   1      32.743  26.189  25.379  1.00  0.00     0.019 A 
ATOM     13  O   UNL A   1      32.391  25.001  23.293  1.00  0.00    -0.475 OA
ATOM     14  C   UNL A   1      33.373  25.037  25.981  1.00  0.00     0.027 C 
ATOM     15  C   UNL A   1      33.029  23.808  23.843  1.00  0.00     0.316 C 
BRANCH   6  16
ATOM     16  C   UNL A   1      30.433  29.438  23.744  1.00  0.00     0.037 C 
BRANCH  16  17
ATOM     17  C   UNL A   1      29.114  28.888  23.173  1.00  0.00     0.008 C 
BRANCH  17  18
ATOM     18  C   UNL A   1      28.031  29.941  22.855  1.00  0.00    -0.017 C 
ATOM     19  C   UNL A   1      28.176  31.205  23.703  1.00  0.00     0.007 C 
ATOM     20  C   UNL A   1      28.096  30.319  21.373  1.00  0.00     0.007 C 
ENDBRANCH  17  18
ENDBRANCH  16  17
ENDBRANCH   6  16
BRANCH  15  21
ATOM     21  C   UNL A   1      32.027  22.645  23.745  1.00  0.00     0.430 C 
ATOM     22  F   UNL A   1      31.393  22.436  24.926  1.00  0.00    -0.167 F 
ATOM     23  F   UNL A   1      31.055  22.895  22.832  1.00  0.00    -0.167 F 
ATOM     24  F   UNL A   1      32.620  21.482  23.395  1.00  0.00    -0.167 F 
ENDBRANCH  15  21
ENDBRANCH   3   5
ENDBRANCH   2   3
ENDBRANCH   1   2
BRANCH   1  25
ATOM     25  C   UNL A   1      36.783  20.420  24.980  1.00  0.00     0.275 C 
BRANCH  25  26
ATOM     26  O   UNL A   1      37.651  21.537  25.242  1.00  0.00    -0.458 OA
BRANCH  26  27
ATOM     27  C   UNL A   1      38.820  21.226  25.844  1.00  0.00     0.338 C 
ATOM     28  O   UNL A   1      39.459  20.194  25.728  1.00  0.00    -0.246 OA
BRANCH  27  29
ATOM     29  C   UNL A   1      39.322  22.397  26.578  1.00  0.00     0.060 A 
ATOM     30  C   UNL A   1      40.377  22.317  27.474  1.00  0.00     0.016 A 
ATOM     31  C   UNL A   1      38.832  23.638  26.197  1.00  0.00     0.016 A 
ATOM     32  C   UNL A   1      40.928  23.505  27.976  1.00  0.00     0.010 A 
ATOM     33  C   UNL A   1      39.498  24.807  26.552  1.00  0.00     0.010 A 
ATOM     34  C   UNL A   1      40.539  24.771  27.477  1.00  0.00    -0.014 A 
BRANCH  34  35
ATOM     35  C   UNL A   1      41.243  26.025  27.894  1.00  0.00     0.031 A 
ATOM     36  C   UNL A   1      42.657  26.343  27.450  1.00  0.00     0.074 A 
ATOM     37  C   UNL A   1      40.614  26.884  28.725  1.00  0.00     0.049 A 
ATOM     38  N   UNL A   1      43.353  27.436  27.650  1.00  0.00    -0.248 NA
ATOM     39  C   UNL A   1      43.411  25.296  26.739  1.00  0.00     0.031 C 
ATOM     40  C   UNL A   1      39.320  26.634  29.363  1.00  0.00     0.029 A 
ATOM     41  N   UNL A   1      40.952  28.145  29.157  1.00  0.00    -0.354 N 
ATOM     42  C   UNL A   1      44.614  27.197  27.106  1.00  0.00     0.074 A 
ATOM     43  C   UNL A   1      44.622  25.827  26.657  1.00  0.00     0.031 C 
ATOM     44  C   UNL A   1      38.926  27.739  30.012  1.00  0.00     0.029 A 
ATOM     45  C   UNL A   1      39.961  28.763  29.888  1.00  0.00     0.049 A 
ATOM     46  H   UNL A   1      41.821  28.567  28.962  1.00  0.00     0.167 HD
ATOM     47  C   UNL A   1      45.650  28.055  26.939  1.00  0.00     0.034 A 
ATOM     48  C   UNL A   1      39.872  30.016  30.381  1.00  0.00     0.034 A 
ATOM     49  C   UNL A   1      45.607  29.439  27.336  1.00  0.00     0.049 A 
ATOM     50  C   UNL A   1      40.994  30.984  30.107  1.00  0.00     0.074 A 
ATOM     51  C   UNL A   1      46.554  30.422  27.109  1.00  0.00     0.029 A 
ATOM     52  N   UNL A   1      44.568  30.039  28.032  1.00  0.00    -0.354 N 
ATOM     53  N   UNL A   1      42.108  30.787  29.441  1.00  0.00    -0.248 NA
ATOM     54  C   UNL A   1      40.845  32.349  30.632  1.00  0.00     0.031 C 
ATOM     55  C   UNL A   1      46.121  31.596  27.724  1.00  0.00     0.029 A 
ATOM     56  C   UNL A   1      44.866  31.371  28.268  1.00  0.00     0.049 A 
ATOM     57  H   UNL A   1      43.742  29.586  28.317  1.00  0.00     0.167 HD
ATOM     58  C   UNL A   1      42.788  32.002  29.462  1.00  0.00     0.074 A 
ATOM     59  C   UNL A   1      41.936  32.940  30.162  1.00  0.00     0.031 C 
ATOM     60  C   UNL A   1      44.013  32.306  28.963  1.00  0.00     0.034 A 
BRANCH  47  61
ATOM     61  C   UNL A   1      46.899  27.572  26.234  1.00  0.00     0.023 A 
ATOM     62  C   UNL A   1      47.124  27.896  24.882  1.00  0.00     0.031 A 
ATOM     63  C   UNL A   1      47.783  26.666  26.851  1.00  0.00     0.131 A 
ATOM     64  C   UNL A   1      48.176  27.288  24.184  1.00  0.00     0.055 A 
ATOM     65  C   UNL A   1      48.863  26.106  26.166  1.00  0.00     0.041 A 
ATOM     66  F   UNL A   1      47.611  26.309  28.134  1.00  0.00    -0.206 F 
ATOM     67  C   UNL A   1      49.053  26.404  24.822  1.00  0.00     0.022 A 
BRANCH  64  68
ATOM     68  S   UNL A   1      48.401  27.549  22.403  1.00  0.00     0.124 S 
ATOM     69  O   UNL A   1      47.139  28.184  22.030  1.00  0.00    -0.237 OA
ATOM     70  O   UNL A   1      49.571  28.422  22.370  1.00  0.00    -0.237 OA
ATOM     71  O   UNL A   1      48.600  26.205  21.872  1.00  0.00    -0.744 OA
ENDBRANCH  64  68
ENDBRANCH  47  61
BRANCH  48  72
ATOM     72  C   UNL A   1      38.621  30.433  31.084  1.00  0.00     0.023 A 
ATOM     73  C   UNL A   1      37.557  31.032  30.383  1.00  0.00     0.031 A 
ATOM     74  C   UNL A   1      38.523  30.357  32.485  1.00  0.00     0.131 A 
ATOM     75  C   UNL A   1      36.487  31.599  31.088  1.00  0.00     0.055 A 
ATOM     76  C   UNL A   1      37.414  30.850  33.178  1.00  0.00     0.041 A 
ATOM     77  F   UNL A   1      39.517  29.813  33.205  1.00  0.00    -0.206 F 
ATOM     78  C   UNL A   1      36.399  31.494  32.480  1.00  0.00     0.022 A 
BRANCH  75  79
ATOM     79  S   UNL A   1      35.258  32.631  30.240  1.00  0.00     0.124 S 
ATOM     80  O   UNL A   1      36.060  33.774  29.817  1.00  0.00    -0.237 OA
ATOM     81  O   UNL A   1      34.810  31.743  29.170  1.00  0.00    -0.237 OA
ATOM     82  O   UNL A   1      34.265  32.903  31.275  1.00  0.00    -0.744 OA
ENDBRANCH  75  79
ENDBRANCH  48  72
BRANCH  60  83
ATOM     83  C   UNL A   1      44.547  33.706  29.160  1.00  0.00     0.023 A 
ATOM     84  C   UNL A   1      45.234  34.043  30.342  1.00  0.00     0.031 A 
ATOM     85  C   UNL A   1      44.242  34.736  28.253  1.00  0.00     0.131 A 
ATOM     86  C   UNL A   1      45.556  35.381  30.605  1.00  0.00     0.055 A 
ATOM     87  C   UNL A   1      44.616  36.059  28.492  1.00  0.00     0.041 A 
ATOM     88  F   UNL A   1      43.574  34.470  27.119  1.00  0.00    -0.206 F 
ATOM     89  C   UNL A   1      45.261  36.388  29.680  1.00  0.00     0.022 A 
BRANCH  86  90
ATOM     90  S   UNL A   1      46.275  35.877  32.194  1.00  0.00     0.124 S 
ATOM     91  O   UNL A   1      45.106  35.868  33.070  1.00  0.00    -0.237 OA
ATOM     92  O   UNL A   1      47.245  34.814  32.439  1.00  0.00    -0.237 OA
ATOM     93  O   UNL A   1      46.842  37.195  31.928  1.00  0.00    -0.744 OA
ENDBRANCH  86  90
ENDBRANCH  60  83
ENDBRANCH  34  35
ENDBRANCH  27  29
ENDBRANCH  26  27
ENDBRANCH  25  26
ENDBRANCH   1  25
TORSDOF 18
ENDMDL
