MODEL 1
REMARK VINA RESULT:     -12.5      0.000      0.000
REMARK SMILES O=C(OCCOC(=O)C1(NC(=O)c2nc(C3CC3)n[nH]2)CCCCC1)c1ccc(-c2c3nc(c(-c4cc(S(=O)(=O)[O-])ccc4F)c4ccc([nH]4)c(-c4cc(S(=O)(=O)[O-])ccc4F)c4nc(c(-c5cc(S(=O)(=O)[O-])ccc5F)c5ccc2[nH]5)C=C4)C=C3)cc1
REMARK SMILES IDX 4 1 3 2 2 3 1 4 26 5 27 6 88 7 28 8 87 9 29 10 30 11 31 12
REMARK SMILES IDX 81 13 32 14 86 15 80 16 82 17 33 18 85 19 79 20 78 21 34 23
REMARK SMILES IDX 66 24 46 25 65 26 47 27 50 28 64 29 83 30 48 31 49 32 63 34
REMARK SMILES IDX 84 35 51 36 35 37 36 38 44 39 37 40 43 41 45 42 42 43 38 44
REMARK SMILES IDX 39 45 40 46 41 47 67 48 68 49 76 50 69 51 75 52 77 53 74 54
REMARK SMILES IDX 70 55 71 56 72 57 73 58 52 59 53 60 61 61 54 62 60 63 62 64
REMARK SMILES IDX 59 65 55 66 56 67 57 68 58 69 5 70 6 71 7 72 8 73 9 74 21 75
REMARK SMILES IDX 25 76 22 77 24 78 23 79 10 80 11 81 12 83 13 84 14 85 20 86
REMARK SMILES IDX 15 87 19 88 16 90 17 91 18 92
REMARK H PARENT 82 22 50 33 10 82 20 89
REMARK Flexibility Score: inf
ROOT
ATOM      1  C   UNL A   1      35.029  20.527  24.868  1.00  0.00     0.275 C 
ENDROOT
BRANCH   1   2
ATOM      2  O   UNL A   1      36.129  20.765  25.750  1.00  0.00    -0.458 OA
BRANCH   2   3
ATOM      3  C   UNL A   1      37.428  20.810  25.409  1.00  0.00     0.338 C 
ATOM      4  O   UNL A   1      37.874  19.974  24.627  1.00  0.00    -0.246 OA
BRANCH   3   5
ATOM      5  C   UNL A   1      38.398  21.787  25.974  1.00  0.00     0.060 A 
ATOM      6  C   UNL A   1      40.047  21.493  26.766  1.00  0.00     0.016 A 
ATOM      7  C   UNL A   1      37.895  23.509  25.634  1.00  0.00     0.016 A 
ATOM      8  C   UNL A   1      41.069  22.933  27.305  1.00  0.00     0.010 A 
ATOM      9  C   UNL A   1      38.939  24.915  26.113  1.00  0.00     0.010 A 
ATOM     10  C   UNL A   1      40.505  24.633  26.999  1.00  0.00    -0.014 A 
BRANCH  10  11
ATOM     11  C   UNL A   1      41.290  25.835  27.468  1.00  0.00     0.031 A 
ATOM     12  C   UNL A   1      40.636  26.942  28.289  1.00  0.00     0.074 A 
ATOM     13  C   UNL A   1      42.577  25.987  27.087  1.00  0.00     0.049 A 
ATOM     14  N   UNL A   1      41.104  28.122  28.631  1.00  0.00    -0.248 NA
ATOM     15  C   UNL A   1      39.281  26.702  28.797  1.00  0.00     0.031 C 
ATOM     16  C   UNL A   1      43.362  25.010  26.340  1.00  0.00     0.029 A 
ATOM     17  N   UNL A   1      43.452  27.042  27.225  1.00  0.00    -0.354 N 
ATOM     18  C   UNL A   1      40.094  28.748  29.370  1.00  0.00     0.074 A 
ATOM     19  C   UNL A   1      38.969  27.850  29.372  1.00  0.00     0.031 C 
ATOM     20  C   UNL A   1      44.559  25.517  26.024  1.00  0.00     0.029 A 
ATOM     21  C   UNL A   1      44.636  26.873  26.534  1.00  0.00     0.049 A 
ATOM     22  H   UNL A   1      43.253  27.840  27.766  1.00  0.00     0.167 HD
ATOM     23  C   UNL A   1      40.100  29.945  30.010  1.00  0.00     0.034 A 
ATOM     24  C   UNL A   1      45.667  27.707  26.299  1.00  0.00     0.034 A 
ATOM     25  C   UNL A   1      41.232  30.838  29.998  1.00  0.00     0.049 A 
ATOM     26  C   UNL A   1      45.635  29.060  26.945  1.00  0.00     0.074 A 
ATOM     27  C   UNL A   1      41.379  32.063  30.623  1.00  0.00     0.029 A 
ATOM     28  N   UNL A   1      42.409  30.602  29.300  1.00  0.00    -0.354 N 
ATOM     29  N   UNL A   1      44.688  29.593  27.682  1.00  0.00    -0.248 NA
ATOM     30  C   UNL A   1      46.816  29.910  26.763  1.00  0.00     0.031 C 
ATOM     31  C   UNL A   1      42.611  32.602  30.237  1.00  0.00     0.029 A 
ATOM     32  C   UNL A   1      43.267  31.679  29.438  1.00  0.00     0.049 A 
ATOM     33  H   UNL A   1      42.605  29.787  28.784  1.00  0.00     0.167 HD
ATOM     34  C   UNL A   1      45.174  30.830  28.082  1.00  0.00     0.074 A 
ATOM     35  C   UNL A   1      46.503  30.956  27.515  1.00  0.00     0.031 C 
ATOM     36  C   UNL A   1      44.581  31.778  28.850  1.00  0.00     0.034 A 
BRANCH  23  37
ATOM     37  C   UNL A   1      38.830  30.375  30.726  1.00  0.00     0.023 A 
ATOM     38  C   UNL A   1      37.869  31.204  30.117  1.00  0.00     0.031 A 
ATOM     39  C   UNL A   1      38.599  29.984  32.058  1.00  0.00     0.131 A 
ATOM     40  C   UNL A   1      36.773  31.680  30.859  1.00  0.00     0.055 A 
ATOM     41  C   UNL A   1      37.465  30.394  32.766  1.00  0.00     0.041 A 
ATOM     42  F   UNL A   1      39.481  29.206  32.705  1.00  0.00    -0.206 F 
ATOM     43  C   UNL A   1      36.553  31.262  32.173  1.00  0.00     0.022 A 
BRANCH  40  44
ATOM     44  S   UNL A   1      35.713  32.965  30.134  1.00  0.00     0.124 S 
ATOM     45  O   UNL A   1      36.369  34.185  30.597  1.00  0.00    -0.237 OA
ATOM     46  O   UNL A   1      35.812  32.689  28.705  1.00  0.00    -0.237 OA
ATOM     47  O   UNL A   1      34.404  32.707  30.729  1.00  0.00    -0.744 OA
ENDBRANCH  40  44
ENDBRANCH  23  37
BRANCH  24  48
ATOM     48  C   UNL A   1      46.796  27.281  25.417  1.00  0.00     0.023 A 
ATOM     49  C   UNL A   1      46.950  27.797  24.122  1.00  0.00     0.031 A 
ATOM     50  C   UNL A   1      47.754  26.349  25.867  1.00  0.00     0.131 A 
ATOM     51  C   UNL A   1      48.008  27.358  23.309  1.00  0.00     0.055 A 
ATOM     52  C   UNL A   1      48.834  25.953  25.074  1.00  0.00     0.041 A 
ATOM     53  F   UNL A   1      47.671  25.832  27.104  1.00  0.00    -0.206 F 
ATOM     54  C   UNL A   1      48.959  26.450  23.781  1.00  0.00     0.022 A 
BRANCH  51  55
ATOM     55  S   UNL A   1      48.084  27.933  21.591  1.00  0.00     0.124 S 
ATOM     56  O   UNL A   1      46.781  28.568  21.429  1.00  0.00    -0.237 OA
ATOM     57  O   UNL A   1      49.235  28.829  21.626  1.00  0.00    -0.237 OA
ATOM     58  O   UNL A   1      48.278  26.702  20.828  1.00  0.00    -0.744 OA
ENDBRANCH  51  55
ENDBRANCH  24  48
BRANCH  36  59
ATOM     59  C   UNL A   1      45.387  33.014  29.133  1.00  0.00     0.023 A 
ATOM     60  C   UNL A   1      45.300  34.144  28.305  1.00  0.00     0.031 A 
ATOM     61  C   UNL A   1      46.256  33.057  30.237  1.00  0.00     0.131 A 
ATOM     62  C   UNL A   1      46.115  35.253  28.559  1.00  0.00     0.055 A 
ATOM     63  C   UNL A   1      47.016  34.190  30.522  1.00  0.00     0.041 A 
ATOM     64  F   UNL A   1      46.376  31.998  31.053  1.00  0.00    -0.206 F 
ATOM     65  C   UNL A   1      46.957  35.292  29.674  1.00  0.00     0.022 A 
BRANCH  62  66
ATOM     66  S   UNL A   1      46.125  36.609  27.356  1.00  0.00     0.124 S 
ATOM     67  O   UNL A   1      46.786  35.989  26.212  1.00  0.00    -0.237 OA
ATOM     68  O   UNL A   1      44.704  36.895  27.195  1.00  0.00    -0.237 OA
ATOM     69  O   UNL A   1      46.895  37.655  28.028  1.00  0.00    -0.744 OA
ENDBRANCH  62  66
ENDBRANCH  36  59
ENDBRANCH  10  11
ENDBRANCH   3   5
ENDBRANCH   2   3
ENDBRANCH   1   2
BRANCH   1  70
ATOM     70  C   UNL A   1      33.744  21.193  25.387  1.00  0.00     0.274 C 
BRANCH  70  71
ATOM     71  O   UNL A   1      33.527  22.507  24.814  1.00  0.00    -0.460 OA
BRANCH  71  72
ATOM     72  C   UNL A   1      33.583  23.568  25.668  1.00  0.00     0.331 C 
ATOM     73  O   UNL A   1      34.152  23.472  26.750  1.00  0.00    -0.249 OA
BRANCH  72  74
ATOM     74  C   UNL A   1      32.853  24.931  25.098  1.00  0.00     0.138 C 
ATOM     75  C   UNL A   1      31.714  24.440  24.153  1.00  0.00     0.040 C 
ATOM     76  C   UNL A   1      32.195  25.490  26.437  1.00  0.00     0.040 C 
ATOM     77  C   UNL A   1      30.455  25.309  24.111  1.00  0.00     0.003 C 
ATOM     78  C   UNL A   1      30.954  26.358  26.288  1.00  0.00     0.003 C 
ATOM     79  C   UNL A   1      29.901  25.616  25.489  1.00  0.00     0.000 C 
BRANCH  74  80
ATOM     80  N   UNL A   1      33.640  26.380  24.404  1.00  0.00    -0.333 N 
ATOM     81  C   UNL A   1      33.312  27.997  23.316  1.00  0.00     0.289 C 
ATOM     82  H   UNL A   1      34.591  26.368  24.660  1.00  0.00     0.165 HD
ATOM     83  O   UNL A   1      34.113  28.570  22.540  1.00  0.00    -0.266 OA
BRANCH  81  84
ATOM     84  C   UNL A   1      31.953  28.909  23.055  1.00  0.00     0.214 A 
ATOM     85  N   UNL A   1      30.892  29.141  23.829  1.00  0.00    -0.207 NA
ATOM     86  N   UNL A   1      31.725  29.572  21.875  1.00  0.00    -0.255 N 
ATOM     87  C   UNL A   1      29.935  29.554  22.945  1.00  0.00     0.154 A 
ATOM     88  N   UNL A   1      30.404  29.831  21.723  1.00  0.00    -0.158 NA
ATOM     89  H   UNL A   1      32.425  29.824  21.230  1.00  0.00     0.192 HD
BRANCH  87  90
ATOM     90  C   UNL A   1      28.439  29.410  23.238  1.00  0.00     0.060 C 
ATOM     91  C   UNL A   1      27.654  30.695  23.502  1.00  0.00     0.012 C 
ATOM     92  C   UNL A   1      27.378  29.895  22.280  1.00  0.00     0.012 C 
ENDBRANCH  87  90
ENDBRANCH  81  84
ENDBRANCH  74  80
ENDBRANCH  72  74
ENDBRANCH  71  72
ENDBRANCH  70  71
ENDBRANCH   1  70
TORSDOF 17
ENDMDL
MODEL 2
REMARK VINA RESULT:     -12.2      5.191     10.323
REMARK SMILES O=C(OCCOC(=O)C1(NC(=O)c2nc(C3CC3)n[nH]2)CCCCC1)c1ccc(-c2c3nc(c(-c4cc(S(=O)(=O)[O-])ccc4F)c4ccc([nH]4)c(-c4cc(S(=O)(=O)[O-])ccc4F)c4nc(c(-c5cc(S(=O)(=O)[O-])ccc5F)c5ccc2[nH]5)C=C4)C=C3)cc1
REMARK SMILES IDX 4 1 3 2 2 3 1 4 26 5 27 6 88 7 28 8 87 9 29 10 30 11 31 12
REMARK SMILES IDX 81 13 32 14 86 15 80 16 82 17 33 18 85 19 79 20 78 21 34 23
REMARK SMILES IDX 66 24 46 25 65 26 47 27 50 28 64 29 83 30 48 31 49 32 63 34
REMARK SMILES IDX 84 35 51 36 35 37 36 38 44 39 37 40 43 41 45 42 42 43 38 44
REMARK SMILES IDX 39 45 40 46 41 47 67 48 68 49 76 50 69 51 75 52 77 53 74 54
REMARK SMILES IDX 70 55 71 56 72 57 73 58 52 59 53 60 61 61 54 62 60 63 62 64
REMARK SMILES IDX 59 65 55 66 56 67 57 68 58 69 5 70 6 71 7 72 8 73 9 74 21 75
REMARK SMILES IDX 25 76 22 77 24 78 23 79 10 80 11 81 12 83 13 84 14 85 20 86
REMARK SMILES IDX 15 87 19 88 16 90 17 91 18 92
REMARK H PARENT 82 22 50 33 10 82 20 89
REMARK Flexibility Score: inf
ROOT
ATOM      1  C   UNL A   1      31.971  29.626  24.956  1.00  0.00     0.275 C 
ENDROOT
BRANCH   1   2
ATOM      2  O   UNL A   1      31.598  30.231  26.197  1.00  0.00    -0.458 OA
BRANCH   2   3
ATOM      3  C   UNL A   1      32.146  31.329  26.745  1.00  0.00     0.338 C 
ATOM      4  O   UNL A   1      31.546  32.399  26.678  1.00  0.00    -0.246 OA
BRANCH   3   5
ATOM      5  C   UNL A   1      33.489  31.350  27.388  1.00  0.00     0.060 A 
ATOM      6  C   UNL A   1      34.549  32.794  27.863  1.00  0.00     0.016 A 
ATOM      7  C   UNL A   1      34.011  29.681  27.911  1.00  0.00     0.016 A 
ATOM      8  C   UNL A   1      36.153  32.500  28.728  1.00  0.00     0.010 A 
ATOM      9  C   UNL A   1      35.562  29.413  28.817  1.00  0.00     0.010 A 
ATOM     10  C   UNL A   1      36.664  30.815  29.182  1.00  0.00    -0.014 A 
BRANCH  10  11
ATOM     11  C   UNL A   1      37.990  30.532  29.846  1.00  0.00     0.031 A 
ATOM     12  C   UNL A   1      38.963  29.505  29.276  1.00  0.00     0.074 A 
ATOM     13  C   UNL A   1      38.296  31.131  31.018  1.00  0.00     0.049 A 
ATOM     14  N   UNL A   1      40.061  29.008  29.800  1.00  0.00    -0.248 NA
ATOM     15  C   UNL A   1      38.673  28.960  27.946  1.00  0.00     0.031 C 
ATOM     16  C   UNL A   1      37.501  32.162  31.678  1.00  0.00     0.029 A 
ATOM     17  N   UNL A   1      39.332  30.931  31.903  1.00  0.00    -0.354 N 
ATOM     18  C   UNL A   1      40.564  28.094  28.867  1.00  0.00     0.074 A 
ATOM     19  C   UNL A   1      39.622  28.055  27.779  1.00  0.00     0.031 C 
ATOM     20  C   UNL A   1      38.021  32.457  32.874  1.00  0.00     0.029 A 
ATOM     21  C   UNL A   1      39.191  31.628  33.088  1.00  0.00     0.049 A 
ATOM     22  H   UNL A   1      40.102  30.348  31.710  1.00  0.00     0.167 HD
ATOM     23  C   UNL A   1      41.712  27.368  28.892  1.00  0.00     0.034 A 
ATOM     24  C   UNL A   1      39.890  31.597  34.238  1.00  0.00     0.034 A 
ATOM     25  C   UNL A   1      42.646  27.412  29.989  1.00  0.00     0.049 A 
ATOM     26  C   UNL A   1      41.116  30.733  34.290  1.00  0.00     0.074 A 
ATOM     27  C   UNL A   1      43.852  26.750  30.130  1.00  0.00     0.029 A 
ATOM     28  N   UNL A   1      42.458  28.152  31.149  1.00  0.00    -0.354 N 
ATOM     29  N   UNL A   1      41.589  29.928  33.368  1.00  0.00    -0.248 NA
ATOM     30  C   UNL A   1      41.921  30.797  35.514  1.00  0.00     0.031 C 
ATOM     31  C   UNL A   1      44.353  27.027  31.407  1.00  0.00     0.029 A 
ATOM     32  C   UNL A   1      43.502  27.925  32.031  1.00  0.00     0.049 A 
ATOM     33  H   UNL A   1      41.696  28.751  31.320  1.00  0.00     0.167 HD
ATOM     34  C   UNL A   1      42.769  29.413  33.887  1.00  0.00     0.074 A 
ATOM     35  C   UNL A   1      42.941  30.013  35.196  1.00  0.00     0.031 C 
ATOM     36  C   UNL A   1      43.637  28.529  33.334  1.00  0.00     0.034 A 
BRANCH  23  37
ATOM     37  C   UNL A   1      41.986  26.432  27.727  1.00  0.00     0.023 A 
ATOM     38  C   UNL A   1      41.587  25.081  27.740  1.00  0.00     0.031 A 
ATOM     39  C   UNL A   1      42.699  26.887  26.602  1.00  0.00     0.131 A 
ATOM     40  C   UNL A   1      41.974  24.220  26.697  1.00  0.00     0.055 A 
ATOM     41  C   UNL A   1      43.010  26.045  25.531  1.00  0.00     0.041 A 
ATOM     42  F   UNL A   1      43.123  28.158  26.531  1.00  0.00    -0.206 F 
ATOM     43  C   UNL A   1      42.663  24.698  25.581  1.00  0.00     0.022 A 
BRANCH  40  44
ATOM     44  S   UNL A   1      41.689  22.435  26.881  1.00  0.00     0.124 S 
ATOM     45  O   UNL A   1      40.349  22.409  27.463  1.00  0.00    -0.237 OA
ATOM     46  O   UNL A   1      41.800  21.953  25.509  1.00  0.00    -0.237 OA
ATOM     47  O   UNL A   1      42.758  22.006  27.780  1.00  0.00    -0.744 OA
ENDBRANCH  40  44
ENDBRANCH  23  37
BRANCH  24  48
ATOM     48  C   UNL A   1      39.443  32.402  35.415  1.00  0.00     0.023 A 
ATOM     49  C   UNL A   1      39.859  33.730  35.594  1.00  0.00     0.031 A 
ATOM     50  C   UNL A   1      38.577  31.853  36.381  1.00  0.00     0.131 A 
ATOM     51  C   UNL A   1      39.441  34.453  36.724  1.00  0.00     0.055 A 
ATOM     52  C   UNL A   1      38.123  32.592  37.477  1.00  0.00     0.041 A 
ATOM     53  F   UNL A   1      38.130  30.592  36.256  1.00  0.00    -0.206 F 
ATOM     54  C   UNL A   1      38.565  33.898  37.659  1.00  0.00     0.022 A 
BRANCH  51  55
ATOM     55  S   UNL A   1      40.121  36.112  36.998  1.00  0.00     0.124 S 
ATOM     56  O   UNL A   1      39.806  36.777  35.738  1.00  0.00    -0.237 OA
ATOM     57  O   UNL A   1      39.365  36.556  38.164  1.00  0.00    -0.237 OA
ATOM     58  O   UNL A   1      41.541  35.864  37.234  1.00  0.00    -0.744 OA
ENDBRANCH  51  55
ENDBRANCH  24  48
BRANCH  36  59
ATOM     59  C   UNL A   1      44.855  28.188  34.145  1.00  0.00     0.023 A 
ATOM     60  C   UNL A   1      44.859  27.095  35.025  1.00  0.00     0.031 A 
ATOM     61  C   UNL A   1      46.018  28.969  34.040  1.00  0.00     0.131 A 
ATOM     62  C   UNL A   1      45.988  26.845  35.815  1.00  0.00     0.055 A 
ATOM     63  C   UNL A   1      47.162  28.675  34.781  1.00  0.00     0.041 A 
ATOM     64  F   UNL A   1      46.059  30.027  33.215  1.00  0.00    -0.206 F 
ATOM     65  C   UNL A   1      47.147  27.616  35.683  1.00  0.00     0.022 A 
BRANCH  62  66
ATOM     66  S   UNL A   1      45.885  25.555  37.083  1.00  0.00     0.124 S 
ATOM     67  O   UNL A   1      46.931  24.631  36.657  1.00  0.00    -0.237 OA
ATOM     68  O   UNL A   1      46.152  26.300  38.309  1.00  0.00    -0.237 OA
ATOM     69  O   UNL A   1      44.519  25.052  36.949  1.00  0.00    -0.744 OA
ENDBRANCH  62  66
ENDBRANCH  36  59
ENDBRANCH  10  11
ENDBRANCH   3   5
ENDBRANCH   2   3
ENDBRANCH   1   2
BRANCH   1  70
ATOM     70  C   UNL A   1      30.744  29.386  24.061  1.00  0.00     0.274 C 
BRANCH  70  71
ATOM     71  O   UNL A   1      30.319  28.000  24.060  1.00  0.00    -0.460 OA
BRANCH  71  72
ATOM     72  C   UNL A   1      30.745  27.225  23.023  1.00  0.00     0.331 C 
ATOM     73  O   UNL A   1      30.498  27.539  21.863  1.00  0.00    -0.249 OA
BRANCH  72  74
ATOM     74  C   UNL A   1      31.603  25.896  23.483  1.00  0.00     0.138 C 
ATOM     75  C   UNL A   1      33.105  26.280  23.314  1.00  0.00     0.040 C 
ATOM     76  C   UNL A   1      31.263  25.854  25.039  1.00  0.00     0.040 C 
ATOM     77  C   UNL A   1      34.076  25.652  24.318  1.00  0.00     0.003 C 
ATOM     78  C   UNL A   1      32.285  25.195  25.953  1.00  0.00     0.003 C 
ATOM     79  C   UNL A   1      33.642  25.843  25.758  1.00  0.00     0.000 C 
BRANCH  74  80
ATOM     80  N   UNL A   1      31.344  24.201  22.971  1.00  0.00    -0.333 N 
ATOM     81  C   UNL A   1      32.126  22.387  23.033  1.00  0.00     0.289 C 
ATOM     82  H   UNL A   1      30.495  24.155  22.473  1.00  0.00     0.165 HD
ATOM     83  O   UNL A   1      32.026  21.483  22.170  1.00  0.00    -0.266 OA
BRANCH  81  84
ATOM     84  C   UNL A   1      33.150  21.651  24.108  1.00  0.00     0.214 A 
ATOM     85  N   UNL A   1      34.004  22.162  24.996  1.00  0.00    -0.207 NA
ATOM     86  N   UNL A   1      33.274  20.286  24.192  1.00  0.00    -0.255 N 
ATOM     87  C   UNL A   1      34.866  21.131  25.242  1.00  0.00     0.154 A 
ATOM     88  N   UNL A   1      34.456  19.951  24.763  1.00  0.00    -0.158 NA
ATOM     89  H   UNL A   1      32.598  19.642  23.881  1.00  0.00     0.192 HD
BRANCH  87  90
ATOM     90  C   UNL A   1      36.295  21.365  25.738  1.00  0.00     0.060 C 
ATOM     91  C   UNL A   1      37.431  21.053  24.763  1.00  0.00     0.012 C 
ATOM     92  C   UNL A   1      37.176  22.458  25.179  1.00  0.00     0.012 C 
ENDBRANCH  87  90
ENDBRANCH  81  84
ENDBRANCH  74  80
ENDBRANCH  72  74
ENDBRANCH  71  72
ENDBRANCH  70  71
ENDBRANCH   1  70
TORSDOF 17
ENDMDL
MODEL 3
REMARK VINA RESULT:     -12.1      1.382      2.014
REMARK SMILES O=C(OCCOC(=O)C1(NC(=O)c2nc(C3CC3)n[nH]2)CCCCC1)c1ccc(-c2c3nc(c(-c4cc(S(=O)(=O)[O-])ccc4F)c4ccc([nH]4)c(-c4cc(S(=O)(=O)[O-])ccc4F)c4nc(c(-c5cc(S(=O)(=O)[O-])ccc5F)c5ccc2[nH]5)C=C4)C=C3)cc1
REMARK SMILES IDX 4 1 3 2 2 3 1 4 26 5 27 6 88 7 28 8 87 9 29 10 30 11 31 12
REMARK SMILES IDX 81 13 32 14 86 15 80 16 82 17 33 18 85 19 79 20 78 21 34 23
REMARK SMILES IDX 66 24 46 25 65 26 47 27 50 28 64 29 83 30 48 31 49 32 63 34
REMARK SMILES IDX 84 35 51 36 35 37 36 38 44 39 37 40 43 41 45 42 42 43 38 44
REMARK SMILES IDX 39 45 40 46 41 47 67 48 68 49 76 50 69 51 75 52 77 53 74 54
REMARK SMILES IDX 70 55 71 56 72 57 73 58 52 59 53 60 61 61 54 62 60 63 62 64
REMARK SMILES IDX 59 65 55 66 56 67 57 68 58 69 5 70 6 71 7 72 8 73 9 74 21 75
REMARK SMILES IDX 25 76 22 77 24 78 23 79 10 80 11 81 12 83 13 84 14 85 20 86
REMARK SMILES IDX 15 87 19 88 16 90 17 91 18 92
REMARK H PARENT 82 22 50 33 10 82 20 89
REMARK Flexibility Score: inf
ROOT
ATOM      1  C   UNL A   1      35.642  20.102  24.788  1.00  0.00     0.275 C 
ENDROOT
BRANCH   1   2
ATOM      2  O   UNL A   1      36.604  20.686  25.670  1.00  0.00    -0.458 OA
BRANCH   2   3
ATOM      3  C   UNL A   1      37.933  20.736  25.478  1.00  0.00     0.338 C 
ATOM      4  O   UNL A   1      38.479  19.860  24.813  1.00  0.00    -0.246 OA
BRANCH   3   5
ATOM      5  C   UNL A   1      38.817  21.771  26.081  1.00  0.00     0.060 A 
ATOM      6  C   UNL A   1      40.365  21.568  27.080  1.00  0.00     0.016 A 
ATOM      7  C   UNL A   1      38.334  23.454  25.564  1.00  0.00     0.016 A 
ATOM      8  C   UNL A   1      41.296  23.063  27.630  1.00  0.00     0.010 A 
ATOM      9  C   UNL A   1      39.296  24.912  26.060  1.00  0.00     0.010 A 
ATOM     10  C   UNL A   1      40.750  24.726  27.140  1.00  0.00    -0.014 A 
BRANCH  10  11
ATOM     11  C   UNL A   1      41.458  25.974  27.611  1.00  0.00     0.031 A 
ATOM     12  C   UNL A   1      40.707  27.096  28.320  1.00  0.00     0.074 A 
ATOM     13  C   UNL A   1      42.768  26.150  27.329  1.00  0.00     0.049 A 
ATOM     14  N   UNL A   1      41.110  28.306  28.639  1.00  0.00    -0.248 NA
ATOM     15  C   UNL A   1      39.322  26.836  28.727  1.00  0.00     0.031 C 
ATOM     16  C   UNL A   1      43.640  25.166  26.697  1.00  0.00     0.029 A 
ATOM     17  N   UNL A   1      43.597  27.238  27.484  1.00  0.00    -0.354 N 
ATOM     18  C   UNL A   1      40.025  28.932  29.261  1.00  0.00     0.074 A 
ATOM     19  C   UNL A   1      38.930  28.000  29.217  1.00  0.00     0.031 C 
ATOM     20  C   UNL A   1      44.843  25.696  26.455  1.00  0.00     0.029 A 
ATOM     21  C   UNL A   1      44.839  27.076  26.901  1.00  0.00     0.049 A 
ATOM     22  H   UNL A   1      43.331  28.055  27.966  1.00  0.00     0.167 HD
ATOM     23  C   UNL A   1      39.943  30.159  29.839  1.00  0.00     0.034 A 
ATOM     24  C   UNL A   1      45.861  27.932  26.709  1.00  0.00     0.034 A 
ATOM     25  C   UNL A   1      41.045  31.087  29.875  1.00  0.00     0.049 A 
ATOM     26  C   UNL A   1      45.736  29.313  27.282  1.00  0.00     0.074 A 
ATOM     27  C   UNL A   1      41.104  32.344  30.447  1.00  0.00     0.029 A 
ATOM     28  N   UNL A   1      42.282  30.856  29.287  1.00  0.00    -0.354 N 
ATOM     29  N   UNL A   1      44.717  29.848  27.913  1.00  0.00    -0.248 NA
ATOM     30  C   UNL A   1      46.903  30.192  27.154  1.00  0.00     0.031 C 
ATOM     31  C   UNL A   1      42.348  32.905  30.137  1.00  0.00     0.029 A 
ATOM     32  C   UNL A   1      43.095  31.967  29.441  1.00  0.00     0.049 A 
ATOM     33  H   UNL A   1      42.544  30.025  28.830  1.00  0.00     0.167 HD
ATOM     34  C   UNL A   1      45.131  31.119  28.288  1.00  0.00     0.074 A 
ATOM     35  C   UNL A   1      46.499  31.261  27.826  1.00  0.00     0.031 C 
ATOM     36  C   UNL A   1      44.449  32.081  28.958  1.00  0.00     0.034 A 
BRANCH  23  37
ATOM     37  C   UNL A   1      38.606  30.579  30.427  1.00  0.00     0.023 A 
ATOM     38  C   UNL A   1      37.639  31.272  29.673  1.00  0.00     0.031 A 
ATOM     39  C   UNL A   1      38.312  30.322  31.779  1.00  0.00     0.131 A 
ATOM     40  C   UNL A   1      36.472  31.753  30.293  1.00  0.00     0.055 A 
ATOM     41  C   UNL A   1      37.113  30.732  32.369  1.00  0.00     0.041 A 
ATOM     42  F   UNL A   1      39.195  29.680  32.560  1.00  0.00    -0.206 F 
ATOM     43  C   UNL A   1      36.191  31.468  31.630  1.00  0.00     0.022 A 
BRANCH  40  44
ATOM     44  S   UNL A   1      35.387  32.878  29.367  1.00  0.00     0.124 S 
ATOM     45  O   UNL A   1      34.073  32.530  29.902  1.00  0.00    -0.237 OA
ATOM     46  O   UNL A   1      35.902  34.192  29.738  1.00  0.00    -0.237 OA
ATOM     47  O   UNL A   1      35.604  32.497  27.973  1.00  0.00    -0.744 OA
ENDBRANCH  40  44
ENDBRANCH  23  37
BRANCH  24  48
ATOM     48  C   UNL A   1      47.071  27.502  25.945  1.00  0.00     0.023 A 
ATOM     49  C   UNL A   1      47.227  27.811  24.586  1.00  0.00     0.031 A 
ATOM     50  C   UNL A   1      48.104  26.778  26.573  1.00  0.00     0.131 A 
ATOM     51  C   UNL A   1      48.365  27.372  23.889  1.00  0.00     0.055 A 
ATOM     52  C   UNL A   1      49.258  26.386  25.890  1.00  0.00     0.041 A 
ATOM     53  F   UNL A   1      48.021  26.467  27.878  1.00  0.00    -0.206 F 
ATOM     54  C   UNL A   1      49.388  26.673  24.535  1.00  0.00     0.022 A 
BRANCH  51  55
ATOM     55  S   UNL A   1      48.458  27.659  22.101  1.00  0.00     0.124 S 
ATOM     56  O   UNL A   1      47.145  28.229  21.820  1.00  0.00    -0.237 OA
ATOM     57  O   UNL A   1      49.589  28.575  22.004  1.00  0.00    -0.237 OA
ATOM     58  O   UNL A   1      48.690  26.325  21.553  1.00  0.00    -0.744 OA
ENDBRANCH  51  55
ENDBRANCH  24  48
BRANCH  36  59
ATOM     59  C   UNL A   1      45.193  33.355  29.243  1.00  0.00     0.023 A 
ATOM     60  C   UNL A   1      45.062  34.476  28.408  1.00  0.00     0.031 A 
ATOM     61  C   UNL A   1      46.047  33.444  30.355  1.00  0.00     0.131 A 
ATOM     62  C   UNL A   1      45.820  35.624  28.665  1.00  0.00     0.055 A 
ATOM     63  C   UNL A   1      46.749  34.613  30.643  1.00  0.00     0.041 A 
ATOM     64  F   UNL A   1      46.208  32.395  31.178  1.00  0.00    -0.206 F 
ATOM     65  C   UNL A   1      46.648  35.707  29.789  1.00  0.00     0.022 A 
BRANCH  62  66
ATOM     66  S   UNL A   1      45.779  36.973  27.457  1.00  0.00     0.124 S 
ATOM     67  O   UNL A   1      46.010  38.141  28.302  1.00  0.00    -0.237 OA
ATOM     68  O   UNL A   1      46.866  36.616  26.552  1.00  0.00    -0.237 OA
ATOM     69  O   UNL A   1      44.438  36.877  26.882  1.00  0.00    -0.744 OA
ENDBRANCH  62  66
ENDBRANCH  36  59
ENDBRANCH  10  11
ENDBRANCH   3   5
ENDBRANCH   2   3
ENDBRANCH   1   2
BRANCH   1  70
ATOM     70  C   UNL A   1      34.208  20.331  25.295  1.00  0.00     0.274 C 
BRANCH  70  71
ATOM     71  O   UNL A   1      33.420  21.142  24.388  1.00  0.00    -0.460 OA
BRANCH  71  72
ATOM     72  C   UNL A   1      32.237  21.624  24.862  1.00  0.00     0.331 C 
ATOM     73  O   UNL A   1      31.400  20.868  25.345  1.00  0.00    -0.249 OA
BRANCH  72  74
ATOM     74  C   UNL A   1      32.075  23.259  24.734  1.00  0.00     0.138 C 
ATOM     75  C   UNL A   1      32.452  23.834  26.133  1.00  0.00     0.040 C 
ATOM     76  C   UNL A   1      33.256  23.589  23.717  1.00  0.00     0.040 C 
ATOM     77  C   UNL A   1      33.136  25.203  26.135  1.00  0.00     0.003 C 
ATOM     78  C   UNL A   1      33.861  24.984  23.787  1.00  0.00     0.003 C 
ATOM     79  C   UNL A   1      34.328  25.271  25.200  1.00  0.00     0.000 C 
BRANCH  74  80
ATOM     80  N   UNL A   1      30.693  24.168  24.051  1.00  0.00    -0.333 N 
ATOM     81  C   UNL A   1      29.880  25.964  23.930  1.00  0.00     0.289 C 
ATOM     82  H   UNL A   1      30.128  23.537  23.548  1.00  0.00     0.165 HD
ATOM     83  O   UNL A   1      28.661  26.246  23.843  1.00  0.00    -0.266 OA
BRANCH  81  84
ATOM     84  C   UNL A   1      30.525  27.489  24.020  1.00  0.00     0.214 A 
ATOM     85  N   UNL A   1      31.637  27.937  24.605  1.00  0.00    -0.207 NA
ATOM     86  N   UNL A   1      29.906  28.585  23.473  1.00  0.00    -0.255 N 
ATOM     87  C   UNL A   1      31.408  29.276  24.744  1.00  0.00     0.154 A 
ATOM     88  N   UNL A   1      30.347  29.722  24.062  1.00  0.00    -0.158 NA
ATOM     89  H   UNL A   1      29.235  28.548  22.754  1.00  0.00     0.192 HD
BRANCH  87  90
ATOM     90  C   UNL A   1      32.107  30.115  25.818  1.00  0.00     0.060 C 
ATOM     91  C   UNL A   1      32.152  29.538  27.233  1.00  0.00     0.012 C 
ATOM     92  C   UNL A   1      33.409  29.690  26.454  1.00  0.00     0.012 C 
ENDBRANCH  87  90
ENDBRANCH  81  84
ENDBRANCH  74  80
ENDBRANCH  72  74
ENDBRANCH  71  72
ENDBRANCH  70  71
ENDBRANCH   1  70
TORSDOF 17
ENDMDL
