MODEL 1
REMARK VINA RESULT:     -10.7      0.000      0.000
REMARK SMILES O=C(CNC(=O)OCc1ccccc1)NCC(=O)OCCOC(=O)c1ccc(-c2c3nc(c(-c4cc(S(=O)(=O)[O-])ccc4F)c4ccc([nH]4)c(-c4cc(S(=O)(=O)[O-])ccc4F)c4nc(c(-c5cc(S(=O)(=O)[O-])ccc5F)c5ccc2[nH]5)C=C4)C=C3)cc1
REMARK SMILES IDX 19 1 17 2 18 3 16 4 15 5 1 6 2 7 3 9 4 10 5 11 6 13 7 14
REMARK SMILES IDX 8 15 9 16 10 17 14 18 11 19 13 20 12 21 20 22 21 23 22 24
REMARK SMILES IDX 23 25 24 26 25 27 26 28 87 29 27 30 86 31 28 32 29 33 30 34
REMARK SMILES IDX 80 35 31 36 85 37 79 38 81 39 32 40 84 41 78 42 77 43 33 45
REMARK SMILES IDX 65 46 45 47 64 48 46 49 49 50 63 51 82 52 47 53 48 54 62 56
REMARK SMILES IDX 83 57 50 58 34 59 35 60 43 61 36 62 42 63 44 64 41 65 37 66
REMARK SMILES IDX 38 67 39 68 40 69 66 70 67 71 75 72 68 73 74 74 76 75 73 76
REMARK SMILES IDX 69 77 70 78 71 79 72 80 51 81 52 82 60 83 53 84 59 85 61 86
REMARK SMILES IDX 58 87 54 88 55 89 56 90 57 91
REMARK H PARENT 15 8 4 12 81 44 49 55
REMARK Flexibility Score: inf
ROOT
ATOM      1  O   UNL A   1      35.565  21.277  25.954  1.00  0.00    -0.461 OA
ENDROOT
BRANCH   1   2
ATOM      2  C   UNL A   1      34.248  21.188  26.286  1.00  0.00     0.325 C 
ATOM      3  O   UNL A   1      33.791  21.444  27.393  1.00  0.00    -0.250 OA
BRANCH   2   4
ATOM      4  C   UNL A   1      33.382  20.695  25.130  1.00  0.00     0.238 C 
BRANCH   4   5
ATOM      5  N   UNL A   1      32.572  21.703  24.467  1.00  0.00    -0.344 N 
ATOM      6  O   UNL A   1      34.279  22.644  23.266  1.00  0.00    -0.273 OA
ATOM      7  C   UNL A   1      33.080  22.561  23.521  1.00  0.00     0.240 C 
ATOM      8  H   UNL A   1      31.619  21.775  24.706  1.00  0.00     0.164 HD
BRANCH   7   9
ATOM      9  C   UNL A   1      32.050  23.499  22.896  1.00  0.00     0.219 C 
BRANCH   9  10
ATOM     10  N   UNL A   1      32.696  24.392  21.953  1.00  0.00    -0.312 N 
ATOM     11  C   UNL A   1      32.856  25.737  22.077  1.00  0.00     0.407 C 
ATOM     12  H   UNL A   1      33.057  23.980  21.135  1.00  0.00     0.167 HD
ATOM     13  O   UNL A   1      33.411  26.385  21.207  1.00  0.00    -0.225 OA
BRANCH  11  14
ATOM     14  O   UNL A   1      32.348  26.225  23.234  1.00  0.00    -0.445 OA
BRANCH  14  15
ATOM     15  C   UNL A   1      33.331  26.522  24.236  1.00  0.00     0.270 C 
BRANCH  15  16
ATOM     16  C   UNL A   1      32.849  27.564  25.217  1.00  0.00    -0.011 A 
ATOM     17  C   UNL A   1      32.839  28.917  24.846  1.00  0.00     0.007 A 
ATOM     18  C   UNL A   1      32.389  27.211  26.495  1.00  0.00     0.007 A 
ATOM     19  C   UNL A   1      32.411  29.896  25.744  1.00  0.00     0.000 A 
ATOM     20  C   UNL A   1      31.966  28.192  27.393  1.00  0.00     0.000 A 
ATOM     21  C   UNL A   1      31.979  29.534  27.018  1.00  0.00     0.000 A 
ENDBRANCH  15  16
ENDBRANCH  14  15
ENDBRANCH  11  14
ENDBRANCH   9  10
ENDBRANCH   7   9
ENDBRANCH   4   5
ENDBRANCH   2   4
ENDBRANCH   1   2
BRANCH   1  22
ATOM     22  C   UNL A   1      36.057  20.320  24.999  1.00  0.00     0.274 C 
BRANCH  22  23
ATOM     23  C   UNL A   1      37.588  20.318  24.991  1.00  0.00     0.275 C 
BRANCH  23  24
ATOM     24  O   UNL A   1      38.135  21.502  25.604  1.00  0.00    -0.458 OA
BRANCH  24  25
ATOM     25  C   UNL A   1      39.341  21.344  26.199  1.00  0.00     0.338 C 
ATOM     26  O   UNL A   1      40.048  20.346  26.183  1.00  0.00    -0.246 OA
BRANCH  25  27
ATOM     27  C   UNL A   1      39.790  22.626  26.765  1.00  0.00     0.060 A 
ATOM     28  C   UNL A   1      39.264  23.793  26.206  1.00  0.00     0.016 A 
ATOM     29  C   UNL A   1      40.765  22.694  27.764  1.00  0.00     0.016 A 
ATOM     30  C   UNL A   1      39.726  25.036  26.623  1.00  0.00     0.010 A 
ATOM     31  C   UNL A   1      41.223  23.948  28.188  1.00  0.00     0.010 A 
ATOM     32  C   UNL A   1      40.719  25.126  27.608  1.00  0.00    -0.014 A 
BRANCH  32  33
ATOM     33  C   UNL A   1      41.262  26.459  27.970  1.00  0.00     0.031 A 
ATOM     34  C   UNL A   1      42.672  26.821  27.596  1.00  0.00     0.074 A 
ATOM     35  C   UNL A   1      40.470  27.358  28.585  1.00  0.00     0.049 A 
ATOM     36  N   UNL A   1      43.343  27.915  27.848  1.00  0.00    -0.248 NA
ATOM     37  C   UNL A   1      43.428  25.811  26.842  1.00  0.00     0.031 C 
ATOM     38  C   UNL A   1      39.070  27.134  28.952  1.00  0.00     0.029 A 
ATOM     39  N   UNL A   1      40.723  28.640  29.003  1.00  0.00    -0.354 N 
ATOM     40  C   UNL A   1      44.605  27.724  27.297  1.00  0.00     0.074 A 
ATOM     41  C   UNL A   1      44.613  26.393  26.726  1.00  0.00     0.031 C 
ATOM     42  C   UNL A   1      38.587  28.245  29.531  1.00  0.00     0.029 A 
ATOM     43  C   UNL A   1      39.653  29.239  29.624  1.00  0.00     0.049 A 
ATOM     44  H   UNL A   1      41.589  29.089  28.871  1.00  0.00     0.167 HD
ATOM     45  C   UNL A   1      45.655  28.583  27.265  1.00  0.00     0.034 A 
ATOM     46  C   UNL A   1      39.550  30.441  30.227  1.00  0.00     0.034 A 
ATOM     47  C   UNL A   1      45.624  29.908  27.838  1.00  0.00     0.049 A 
ATOM     48  C   UNL A   1      40.753  31.350  30.241  1.00  0.00     0.074 A 
ATOM     49  C   UNL A   1      46.624  30.866  27.853  1.00  0.00     0.029 A 
ATOM     50  N   UNL A   1      44.539  30.464  28.505  1.00  0.00    -0.354 N 
ATOM     51  N   UNL A   1      41.945  31.152  29.726  1.00  0.00    -0.248 NA
ATOM     52  C   UNL A   1      40.596  32.645  30.914  1.00  0.00     0.031 C 
ATOM     53  C   UNL A   1      46.169  31.968  28.588  1.00  0.00     0.029 A 
ATOM     54  C   UNL A   1      44.856  31.734  28.964  1.00  0.00     0.049 A 
ATOM     55  H   UNL A   1      43.669  30.019  28.635  1.00  0.00     0.167 HD
ATOM     56  C   UNL A   1      42.670  32.311  29.993  1.00  0.00     0.074 A 
ATOM     57  C   UNL A   1      41.776  33.206  30.697  1.00  0.00     0.031 C 
ATOM     58  C   UNL A   1      43.957  32.610  29.681  1.00  0.00     0.034 A 
BRANCH  45  59
ATOM     59  C   UNL A   1      46.940  28.088  26.642  1.00  0.00     0.023 A 
ATOM     60  C   UNL A   1      47.172  28.154  25.257  1.00  0.00     0.031 A 
ATOM     61  C   UNL A   1      47.939  27.514  27.449  1.00  0.00     0.131 A 
ATOM     62  C   UNL A   1      48.339  27.589  24.715  1.00  0.00     0.055 A 
ATOM     63  C   UNL A   1      49.132  27.026  26.913  1.00  0.00     0.041 A 
ATOM     64  F   UNL A   1      47.766  27.401  28.775  1.00  0.00    -0.206 F 
ATOM     65  C   UNL A   1      49.332  27.049  25.536  1.00  0.00     0.022 A 
BRANCH  62  66
ATOM     66  S   UNL A   1      48.477  27.440  22.912  1.00  0.00     0.124 S 
ATOM     67  O   UNL A   1      49.781  28.050  22.665  1.00  0.00    -0.237 OA
ATOM     68  O   UNL A   1      48.392  25.999  22.708  1.00  0.00    -0.237 OA
ATOM     69  O   UNL A   1      47.336  28.209  22.416  1.00  0.00    -0.744 OA
ENDBRANCH  62  66
ENDBRANCH  45  59
BRANCH  46  70
ATOM     70  C   UNL A   1      38.284  30.838  30.907  1.00  0.00     0.023 A 
ATOM     71  C   UNL A   1      37.282  31.547  30.227  1.00  0.00     0.031 A 
ATOM     72  C   UNL A   1      38.080  30.552  32.269  1.00  0.00     0.131 A 
ATOM     73  C   UNL A   1      36.140  31.980  30.919  1.00  0.00     0.055 A 
ATOM     74  C   UNL A   1      36.919  30.938  32.940  1.00  0.00     0.041 A 
ATOM     75  F   UNL A   1      39.008  29.880  32.969  1.00  0.00    -0.206 F 
ATOM     76  C   UNL A   1      35.946  31.669  32.267  1.00  0.00     0.022 A 
BRANCH  73  77
ATOM     77  S   UNL A   1      34.947  33.037  30.053  1.00  0.00     0.124 S 
ATOM     78  O   UNL A   1      34.071  33.453  31.142  1.00  0.00    -0.237 OA
ATOM     79  O   UNL A   1      35.811  34.072  29.493  1.00  0.00    -0.237 OA
ATOM     80  O   UNL A   1      34.343  32.136  29.073  1.00  0.00    -0.744 OA
ENDBRANCH  73  77
ENDBRANCH  46  70
BRANCH  58  81
ATOM     81  C   UNL A   1      44.452  33.982  30.068  1.00  0.00     0.023 A 
ATOM     82  C   UNL A   1      44.249  35.103  29.244  1.00  0.00     0.031 A 
ATOM     83  C   UNL A   1      45.158  34.166  31.271  1.00  0.00     0.131 A 
ATOM     84  C   UNL A   1      44.796  36.344  29.603  1.00  0.00     0.055 A 
ATOM     85  C   UNL A   1      45.648  35.416  31.652  1.00  0.00     0.041 A 
ATOM     86  F   UNL A   1      45.384  33.131  32.095  1.00  0.00    -0.206 F 
ATOM     87  C   UNL A   1      45.479  36.511  30.810  1.00  0.00     0.022 A 
BRANCH  84  88
ATOM     88  S   UNL A   1      44.685  37.719  28.425  1.00  0.00     0.124 S 
ATOM     89  O   UNL A   1      45.905  38.467  28.716  1.00  0.00    -0.237 OA
ATOM     90  O   UNL A   1      44.653  37.029  27.140  1.00  0.00    -0.237 OA
ATOM     91  O   UNL A   1      43.442  38.393  28.798  1.00  0.00    -0.744 OA
ENDBRANCH  84  88
ENDBRANCH  58  81
ENDBRANCH  32  33
ENDBRANCH  25  27
ENDBRANCH  24  25
ENDBRANCH  23  24
ENDBRANCH  22  23
ENDBRANCH   1  22
TORSDOF 20
ENDMDL
MODEL 2
REMARK VINA RESULT:     -10.6      1.447      7.763
REMARK SMILES O=C(CNC(=O)OCc1ccccc1)NCC(=O)OCCOC(=O)c1ccc(-c2c3nc(c(-c4cc(S(=O)(=O)[O-])ccc4F)c4ccc([nH]4)c(-c4cc(S(=O)(=O)[O-])ccc4F)c4nc(c(-c5cc(S(=O)(=O)[O-])ccc5F)c5ccc2[nH]5)C=C4)C=C3)cc1
REMARK SMILES IDX 19 1 17 2 18 3 16 4 15 5 1 6 2 7 3 9 4 10 5 11 6 13 7 14
REMARK SMILES IDX 8 15 9 16 10 17 14 18 11 19 13 20 12 21 20 22 21 23 22 24
REMARK SMILES IDX 23 25 24 26 25 27 26 28 87 29 27 30 86 31 28 32 29 33 30 34
REMARK SMILES IDX 80 35 31 36 85 37 79 38 81 39 32 40 84 41 78 42 77 43 33 45
REMARK SMILES IDX 65 46 45 47 64 48 46 49 49 50 63 51 82 52 47 53 48 54 62 56
REMARK SMILES IDX 83 57 50 58 34 59 35 60 43 61 36 62 42 63 44 64 41 65 37 66
REMARK SMILES IDX 38 67 39 68 40 69 66 70 67 71 75 72 68 73 74 74 76 75 73 76
REMARK SMILES IDX 69 77 70 78 71 79 72 80 51 81 52 82 60 83 53 84 59 85 61 86
REMARK SMILES IDX 58 87 54 88 55 89 56 90 57 91
REMARK H PARENT 15 8 4 12 81 44 49 55
REMARK Flexibility Score: inf
ROOT
ATOM      1  O   UNL A   1      34.466  20.256  25.397  1.00  0.00    -0.461 OA
ENDROOT
BRANCH   1   2
ATOM      2  C   UNL A   1      33.896  19.283  24.636  1.00  0.00     0.325 C 
ATOM      3  O   UNL A   1      34.399  18.187  24.416  1.00  0.00    -0.250 OA
BRANCH   2   4
ATOM      4  C   UNL A   1      32.554  19.709  24.045  1.00  0.00     0.238 C 
BRANCH   4   5
ATOM      5  N   UNL A   1      32.102  21.045  24.390  1.00  0.00    -0.344 N 
ATOM      6  O   UNL A   1      32.458  21.970  22.326  1.00  0.00    -0.273 OA
ATOM      7  C   UNL A   1      32.021  22.064  23.470  1.00  0.00     0.240 C 
ATOM      8  H   UNL A   1      31.843  21.230  25.322  1.00  0.00     0.164 HD
BRANCH   7   9
ATOM      9  C   UNL A   1      31.457  23.373  24.020  1.00  0.00     0.219 C 
BRANCH   9  10
ATOM     10  N   UNL A   1      30.658  23.113  25.202  1.00  0.00    -0.312 N 
ATOM     11  C   UNL A   1      30.685  23.800  26.376  1.00  0.00     0.407 C 
ATOM     12  H   UNL A   1      30.028  22.359  25.150  1.00  0.00     0.167 HD
ATOM     13  O   UNL A   1      29.969  23.479  27.308  1.00  0.00    -0.225 OA
BRANCH  11  14
ATOM     14  O   UNL A   1      31.563  24.833  26.364  1.00  0.00    -0.445 OA
BRANCH  14  15
ATOM     15  C   UNL A   1      30.954  26.130  26.309  1.00  0.00     0.270 C 
BRANCH  15  16
ATOM     16  C   UNL A   1      31.952  27.239  26.546  1.00  0.00    -0.011 A 
ATOM     17  C   UNL A   1      31.534  28.433  27.152  1.00  0.00     0.007 A 
ATOM     18  C   UNL A   1      33.302  27.099  26.189  1.00  0.00     0.007 A 
ATOM     19  C   UNL A   1      32.438  29.474  27.366  1.00  0.00     0.000 A 
ATOM     20  C   UNL A   1      34.203  28.144  26.399  1.00  0.00     0.000 A 
ATOM     21  C   UNL A   1      33.771  29.332  26.985  1.00  0.00     0.000 A 
ENDBRANCH  15  16
ENDBRANCH  14  15
ENDBRANCH  11  14
ENDBRANCH   9  10
ENDBRANCH   7   9
ENDBRANCH   4   5
ENDBRANCH   2   4
ENDBRANCH   1   2
BRANCH   1  22
ATOM     22  C   UNL A   1      35.351  21.168  24.724  1.00  0.00     0.274 C 
BRANCH  22  23
ATOM     23  C   UNL A   1      36.810  20.783  24.985  1.00  0.00     0.275 C 
BRANCH  23  24
ATOM     24  O   UNL A   1      37.472  21.727  25.849  1.00  0.00    -0.458 OA
BRANCH  24  25
ATOM     25  C   UNL A   1      38.772  21.453  26.119  1.00  0.00     0.338 C 
ATOM     26  O   UNL A   1      39.371  20.413  25.886  1.00  0.00    -0.246 OA
BRANCH  25  27
ATOM     27  C   UNL A   1      39.445  22.666  26.610  1.00  0.00     0.060 A 
ATOM     28  C   UNL A   1      39.004  23.893  26.108  1.00  0.00     0.016 A 
ATOM     29  C   UNL A   1      40.538  22.606  27.479  1.00  0.00     0.016 A 
ATOM     30  C   UNL A   1      39.667  25.065  26.450  1.00  0.00     0.010 A 
ATOM     31  C   UNL A   1      41.199  23.790  27.828  1.00  0.00     0.010 A 
ATOM     32  C   UNL A   1      40.778  25.025  27.302  1.00  0.00    -0.014 A 
BRANCH  32  33
ATOM     33  C   UNL A   1      41.525  26.278  27.579  1.00  0.00     0.031 A 
ATOM     34  C   UNL A   1      40.887  27.363  28.401  1.00  0.00     0.074 A 
ATOM     35  C   UNL A   1      42.790  26.414  27.138  1.00  0.00     0.049 A 
ATOM     36  N   UNL A   1      41.355  28.541  28.727  1.00  0.00    -0.248 NA
ATOM     37  C   UNL A   1      39.541  27.085  28.921  1.00  0.00     0.031 C 
ATOM     38  C   UNL A   1      43.526  25.406  26.372  1.00  0.00     0.029 A 
ATOM     39  N   UNL A   1      43.682  27.447  27.273  1.00  0.00    -0.354 N 
ATOM     40  C   UNL A   1      40.358  29.152  29.479  1.00  0.00     0.074 A 
ATOM     41  C   UNL A   1      39.246  28.224  29.531  1.00  0.00     0.031 C 
ATOM     42  C   UNL A   1      44.761  25.868  26.115  1.00  0.00     0.029 A 
ATOM     43  C   UNL A   1      44.886  27.222  26.650  1.00  0.00     0.049 A 
ATOM     44  H   UNL A   1      43.479  28.273  27.770  1.00  0.00     0.167 HD
ATOM     45  C   UNL A   1      40.372  30.371  30.075  1.00  0.00     0.034 A 
ATOM     46  C   UNL A   1      45.959  28.025  26.501  1.00  0.00     0.034 A 
ATOM     47  C   UNL A   1      41.492  31.280  30.013  1.00  0.00     0.049 A 
ATOM     48  C   UNL A   1      45.924  29.402  27.111  1.00  0.00     0.074 A 
ATOM     49  C   UNL A   1      41.621  32.533  30.589  1.00  0.00     0.029 A 
ATOM     50  N   UNL A   1      42.679  31.039  29.329  1.00  0.00    -0.354 N 
ATOM     51  N   UNL A   1      44.969  29.973  27.809  1.00  0.00    -0.248 NA
ATOM     52  C   UNL A   1      47.112  30.243  26.916  1.00  0.00     0.031 C 
ATOM     53  C   UNL A   1      42.850  33.075  30.195  1.00  0.00     0.029 A 
ATOM     54  C   UNL A   1      43.527  32.131  29.440  1.00  0.00     0.049 A 
ATOM     55  H   UNL A   1      42.887  30.211  28.836  1.00  0.00     0.167 HD
ATOM     56  C   UNL A   1      45.455  31.231  28.158  1.00  0.00     0.074 A 
ATOM     57  C   UNL A   1      46.791  31.326  27.608  1.00  0.00     0.031 C 
ATOM     58  C   UNL A   1      44.853  32.217  28.871  1.00  0.00     0.034 A 
BRANCH  45  59
ATOM     59  C   UNL A   1      39.115  30.810  30.790  1.00  0.00     0.023 A 
ATOM     60  C   UNL A   1      38.112  31.556  30.145  1.00  0.00     0.031 A 
ATOM     61  C   UNL A   1      38.933  30.500  32.150  1.00  0.00     0.131 A 
ATOM     62  C   UNL A   1      37.009  32.025  30.879  1.00  0.00     0.055 A 
ATOM     63  C   UNL A   1      37.796  30.902  32.853  1.00  0.00     0.041 A 
ATOM     64  F   UNL A   1      39.866  29.811  32.825  1.00  0.00    -0.206 F 
ATOM     65  C   UNL A   1      36.832  31.682  32.221  1.00  0.00     0.022 A 
BRANCH  62  66
ATOM     66  S   UNL A   1      35.883  33.212  30.092  1.00  0.00     0.124 S 
ATOM     67  O   UNL A   1      36.732  33.770  29.043  1.00  0.00    -0.237 OA
ATOM     68  O   UNL A   1      34.788  32.358  29.648  1.00  0.00    -0.237 OA
ATOM     69  O   UNL A   1      35.553  34.139  31.174  1.00  0.00    -0.744 OA
ENDBRANCH  62  66
ENDBRANCH  45  59
BRANCH  46  70
ATOM     70  C   UNL A   1      47.135  27.571  25.704  1.00  0.00     0.023 A 
ATOM     71  C   UNL A   1      47.272  27.909  24.349  1.00  0.00     0.031 A 
ATOM     72  C   UNL A   1      48.119  26.747  26.281  1.00  0.00     0.131 A 
ATOM     73  C   UNL A   1      48.346  27.394  23.605  1.00  0.00     0.055 A 
ATOM     74  C   UNL A   1      49.214  26.282  25.551  1.00  0.00     0.041 A 
ATOM     75  F   UNL A   1      48.035  26.391  27.572  1.00  0.00    -0.206 F 
ATOM     76  C   UNL A   1      49.325  26.595  24.201  1.00  0.00     0.022 A 
BRANCH  73  77
ATOM     77  S   UNL A   1      48.399  27.712  21.820  1.00  0.00     0.124 S 
ATOM     78  O   UNL A   1      49.564  28.581  21.707  1.00  0.00    -0.237 OA
ATOM     79  O   UNL A   1      48.547  26.366  21.277  1.00  0.00    -0.237 OA
ATOM     80  O   UNL A   1      47.113  28.352  21.551  1.00  0.00    -0.744 OA
ENDBRANCH  73  77
ENDBRANCH  46  70
BRANCH  58  81
ATOM     81  C   UNL A   1      45.662  33.466  29.128  1.00  0.00     0.023 A 
ATOM     82  C   UNL A   1      45.636  34.560  28.245  1.00  0.00     0.031 A 
ATOM     83  C   UNL A   1      46.489  33.551  30.262  1.00  0.00     0.131 A 
ATOM     84  C   UNL A   1      46.465  35.667  28.479  1.00  0.00     0.055 A 
ATOM     85  C   UNL A   1      47.266  34.681  30.522  1.00  0.00     0.041 A 
ATOM     86  F   UNL A   1      46.555  32.535  31.137  1.00  0.00    -0.206 F 
ATOM     87  C   UNL A   1      47.267  35.742  29.621  1.00  0.00     0.022 A 
BRANCH  84  88
ATOM     88  S   UNL A   1      46.555  36.971  27.221  1.00  0.00     0.124 S 
ATOM     89  O   UNL A   1      47.876  37.541  27.468  1.00  0.00    -0.237 OA
ATOM     90  O   UNL A   1      46.408  36.219  25.980  1.00  0.00    -0.237 OA
ATOM     91  O   UNL A   1      45.431  37.847  27.552  1.00  0.00    -0.744 OA
ENDBRANCH  84  88
ENDBRANCH  58  81
ENDBRANCH  32  33
ENDBRANCH  25  27
ENDBRANCH  24  25
ENDBRANCH  23  24
ENDBRANCH  22  23
ENDBRANCH   1  22
TORSDOF 20
ENDMDL
MODEL 3
REMARK VINA RESULT:     -10.5      3.858     10.053
REMARK SMILES O=C(CNC(=O)OCc1ccccc1)NCC(=O)OCCOC(=O)c1ccc(-c2c3nc(c(-c4cc(S(=O)(=O)[O-])ccc4F)c4ccc([nH]4)c(-c4cc(S(=O)(=O)[O-])ccc4F)c4nc(c(-c5cc(S(=O)(=O)[O-])ccc5F)c5ccc2[nH]5)C=C4)C=C3)cc1
REMARK SMILES IDX 19 1 17 2 18 3 16 4 15 5 1 6 2 7 3 9 4 10 5 11 6 13 7 14
REMARK SMILES IDX 8 15 9 16 10 17 14 18 11 19 13 20 12 21 20 22 21 23 22 24
REMARK SMILES IDX 23 25 24 26 25 27 26 28 87 29 27 30 86 31 28 32 29 33 30 34
REMARK SMILES IDX 80 35 31 36 85 37 79 38 81 39 32 40 84 41 78 42 77 43 33 45
REMARK SMILES IDX 65 46 45 47 64 48 46 49 49 50 63 51 82 52 47 53 48 54 62 56
REMARK SMILES IDX 83 57 50 58 34 59 35 60 43 61 36 62 42 63 44 64 41 65 37 66
REMARK SMILES IDX 38 67 39 68 40 69 66 70 67 71 75 72 68 73 74 74 76 75 73 76
REMARK SMILES IDX 69 77 70 78 71 79 72 80 51 81 52 82 60 83 53 84 59 85 61 86
REMARK SMILES IDX 58 87 54 88 55 89 56 90 57 91
REMARK H PARENT 15 8 4 12 81 44 49 55
REMARK Flexibility Score: inf
ROOT
ATOM      1  O   UNL A   1      42.266  19.490  26.788  1.00  0.00    -0.461 OA
ENDROOT
BRANCH   1   2
ATOM      2  C   UNL A   1      42.921  18.635  25.956  1.00  0.00     0.325 C 
ATOM      3  O   UNL A   1      42.590  17.473  25.750  1.00  0.00    -0.250 OA
BRANCH   2   4
ATOM      4  C   UNL A   1      44.155  19.267  25.316  1.00  0.00     0.238 C 
BRANCH   4   5
ATOM      5  N   UNL A   1      44.508  20.595  25.789  1.00  0.00    -0.344 N 
ATOM      6  O   UNL A   1      46.577  20.664  24.810  1.00  0.00    -0.273 OA
ATOM      7  C   UNL A   1      45.677  21.224  25.432  1.00  0.00     0.240 C 
ATOM      8  H   UNL A   1      43.886  21.063  26.391  1.00  0.00     0.164 HD
BRANCH   7   9
ATOM      9  C   UNL A   1      45.829  22.641  25.981  1.00  0.00     0.219 C 
BRANCH   9  10
ATOM     10  N   UNL A   1      44.632  23.412  25.706  1.00  0.00    -0.312 N 
ATOM     11  C   UNL A   1      44.561  24.619  25.083  1.00  0.00     0.407 C 
ATOM     12  H   UNL A   1      43.779  23.021  26.002  1.00  0.00     0.167 HD
ATOM     13  O   UNL A   1      43.491  25.178  24.917  1.00  0.00    -0.225 OA
BRANCH  11  14
ATOM     14  O   UNL A   1      45.773  25.084  24.692  1.00  0.00    -0.445 OA
BRANCH  14  15
ATOM     15  C   UNL A   1      46.217  26.253  25.395  1.00  0.00     0.270 C 
BRANCH  15  16
ATOM     16  C   UNL A   1      47.398  25.965  26.292  1.00  0.00    -0.011 A 
ATOM     17  C   UNL A   1      48.691  25.939  25.750  1.00  0.00     0.007 A 
ATOM     18  C   UNL A   1      47.236  25.738  27.667  1.00  0.00     0.007 A 
ATOM     19  C   UNL A   1      49.793  25.661  26.560  1.00  0.00     0.000 A 
ATOM     20  C   UNL A   1      48.339  25.455  28.474  1.00  0.00     0.000 A 
ATOM     21  C   UNL A   1      49.617  25.413  27.920  1.00  0.00     0.000 A 
ENDBRANCH  15  16
ENDBRANCH  14  15
ENDBRANCH  11  14
ENDBRANCH   9  10
ENDBRANCH   7   9
ENDBRANCH   4   5
ENDBRANCH   2   4
ENDBRANCH   1   2
BRANCH   1  22
ATOM     22  C   UNL A   1      40.931  19.866  26.406  1.00  0.00     0.274 C 
BRANCH  22  23
ATOM     23  C   UNL A   1      40.840  21.384  26.222  1.00  0.00     0.275 C 
BRANCH  23  24
ATOM     24  O   UNL A   1      39.841  21.974  27.078  1.00  0.00    -0.458 OA
BRANCH  24  25
ATOM     25  C   UNL A   1      39.040  22.893  26.486  1.00  0.00     0.338 C 
ATOM     26  O   UNL A   1      38.106  22.679  25.727  1.00  0.00    -0.246 OA
BRANCH  25  27
ATOM     27  C   UNL A   1      39.346  24.233  27.013  1.00  0.00     0.060 A 
ATOM     28  C   UNL A   1      39.946  25.144  26.140  1.00  0.00     0.016 A 
ATOM     29  C   UNL A   1      39.129  24.570  28.351  1.00  0.00     0.016 A 
ATOM     30  C   UNL A   1      40.356  26.388  26.604  1.00  0.00     0.010 A 
ATOM     31  C   UNL A   1      39.536  25.827  28.814  1.00  0.00     0.010 A 
ATOM     32  C   UNL A   1      40.168  26.737  27.948  1.00  0.00    -0.014 A 
BRANCH  32  33
ATOM     33  C   UNL A   1      40.697  28.034  28.440  1.00  0.00     0.031 A 
ATOM     34  C   UNL A   1      39.756  29.059  29.010  1.00  0.00     0.074 A 
ATOM     35  C   UNL A   1      42.024  28.264  28.423  1.00  0.00     0.049 A 
ATOM     36  N   UNL A   1      40.011  30.260  29.460  1.00  0.00    -0.248 NA
ATOM     37  C   UNL A   1      38.338  28.679  29.076  1.00  0.00     0.031 C 
ATOM     38  C   UNL A   1      43.035  27.323  27.939  1.00  0.00     0.029 A 
ATOM     39  N   UNL A   1      42.751  29.355  28.829  1.00  0.00    -0.354 N 
ATOM     40  C   UNL A   1      38.786  30.789  29.851  1.00  0.00     0.074 A 
ATOM     41  C   UNL A   1      37.785  29.785  29.552  1.00  0.00     0.031 C 
ATOM     42  C   UNL A   1      44.251  27.873  28.086  1.00  0.00     0.029 A 
ATOM     43  C   UNL A   1      44.104  29.223  28.623  1.00  0.00     0.049 A 
ATOM     44  H   UNL A   1      42.343  30.156  29.230  1.00  0.00     0.167 HD
ATOM     45  C   UNL A   1      38.524  31.996  30.413  1.00  0.00     0.034 A 
ATOM     46  C   UNL A   1      45.109  30.100  28.819  1.00  0.00     0.034 A 
ATOM     47  C   UNL A   1      39.539  32.981  30.705  1.00  0.00     0.049 A 
ATOM     48  C   UNL A   1      44.784  31.462  29.378  1.00  0.00     0.074 A 
ATOM     49  C   UNL A   1      39.388  34.230  31.284  1.00  0.00     0.029 A 
ATOM     50  N   UNL A   1      40.895  32.833  30.436  1.00  0.00    -0.354 N 
ATOM     51  N   UNL A   1      43.619  31.954  29.732  1.00  0.00    -0.248 NA
ATOM     52  C   UNL A   1      45.910  32.385  29.566  1.00  0.00     0.031 C 
ATOM     53  C   UNL A   1      40.638  34.862  31.299  1.00  0.00     0.029 A 
ATOM     54  C   UNL A   1      41.585  33.980  30.805  1.00  0.00     0.049 A 
ATOM     55  H   UNL A   1      41.307  32.031  30.040  1.00  0.00     0.167 HD
ATOM     56  C   UNL A   1      43.878  33.237  30.209  1.00  0.00     0.074 A 
ATOM     57  C   UNL A   1      45.310  33.432  30.113  1.00  0.00     0.031 C 
ATOM     58  C   UNL A   1      43.013  34.167  30.687  1.00  0.00     0.034 A 
BRANCH  45  59
ATOM     59  C   UNL A   1      37.077  32.336  30.687  1.00  0.00     0.023 A 
ATOM     60  C   UNL A   1      36.226  32.841  29.688  1.00  0.00     0.031 A 
ATOM     61  C   UNL A   1      36.549  32.175  31.981  1.00  0.00     0.131 A 
ATOM     62  C   UNL A   1      34.919  33.235  30.017  1.00  0.00     0.055 A 
ATOM     63  C   UNL A   1      35.224  32.495  32.282  1.00  0.00     0.041 A 
ATOM     64  F   UNL A   1      37.318  31.719  32.982  1.00  0.00    -0.206 F 
ATOM     65  C   UNL A   1      34.403  33.042  31.300  1.00  0.00     0.022 A 
BRANCH  62  66
ATOM     66  S   UNL A   1      33.946  34.139  28.779  1.00  0.00     0.124 S 
ATOM     67  O   UNL A   1      32.835  34.637  29.585  1.00  0.00    -0.237 OA
ATOM     68  O   UNL A   1      34.894  35.138  28.302  1.00  0.00    -0.237 OA
ATOM     69  O   UNL A   1      33.585  33.107  27.807  1.00  0.00    -0.744 OA
ENDBRANCH  62  66
ENDBRANCH  45  59
BRANCH  46  70
ATOM     70  C   UNL A   1      46.506  29.742  28.441  1.00  0.00     0.023 A 
ATOM     71  C   UNL A   1      47.430  29.298  29.399  1.00  0.00     0.031 A 
ATOM     72  C   UNL A   1      46.951  29.886  27.114  1.00  0.00     0.131 A 
ATOM     73  C   UNL A   1      48.761  29.052  29.026  1.00  0.00     0.055 A 
ATOM     74  C   UNL A   1      48.261  29.589  26.737  1.00  0.00     0.041 A 
ATOM     75  F   UNL A   1      46.110  30.312  26.158  1.00  0.00    -0.206 F 
ATOM     76  C   UNL A   1      49.179  29.181  27.699  1.00  0.00     0.022 A 
BRANCH  73  77
ATOM     77  S   UNL A   1      49.965  28.644  30.319  1.00  0.00     0.124 S 
ATOM     78  O   UNL A   1      51.071  28.105  29.537  1.00  0.00    -0.237 OA
ATOM     79  O   UNL A   1      50.192  29.944  30.942  1.00  0.00    -0.237 OA
ATOM     80  O   UNL A   1      49.255  27.673  31.150  1.00  0.00    -0.744 OA
ENDBRANCH  73  77
ENDBRANCH  46  70
BRANCH  58  81
ATOM     81  C   UNL A   1      43.608  35.464  31.180  1.00  0.00     0.023 A 
ATOM     82  C   UNL A   1      43.753  36.579  30.337  1.00  0.00     0.031 A 
ATOM     83  C   UNL A   1      44.056  35.576  32.508  1.00  0.00     0.131 A 
ATOM     84  C   UNL A   1      44.385  37.738  30.813  1.00  0.00     0.055 A 
ATOM     85  C   UNL A   1      44.629  36.752  32.994  1.00  0.00     0.041 A 
ATOM     86  F   UNL A   1      43.944  34.541  33.356  1.00  0.00    -0.206 F 
ATOM     87  C   UNL A   1      44.809  37.837  32.142  1.00  0.00     0.022 A 
BRANCH  84  88
ATOM     88  S   UNL A   1      44.735  39.083  29.648  1.00  0.00     0.124 S 
ATOM     89  O   UNL A   1      44.414  38.465  28.365  1.00  0.00    -0.237 OA
ATOM     90  O   UNL A   1      43.823  40.131  30.096  1.00  0.00    -0.237 OA
ATOM     91  O   UNL A   1      46.154  39.364  29.862  1.00  0.00    -0.744 OA
ENDBRANCH  84  88
ENDBRANCH  58  81
ENDBRANCH  32  33
ENDBRANCH  25  27
ENDBRANCH  24  25
ENDBRANCH  23  24
ENDBRANCH  22  23
ENDBRANCH   1  22
TORSDOF 20
ENDMDL
