MODEL 1
REMARK VINA RESULT:     -14.5      0.000      0.000
REMARK SMILES O=C(N[C@H](C(=O)OCCOC(=O)c1ccc(-c2c3nc(c(-c4cc(S(=O)(=O)[O-])ccc4F)c4ccc([nH]4)c(-c4cc(S(=O)(=O)[O-])ccc4F)c4nc(c(-c5cc(S(=O)(=O)[O-])ccc5F)c5ccc2[nH]5)C=C4)C=C3)cc1)c1ccccc1F)c1ccc(C[NH+]2CCCCC2)cc1
REMARK SMILES IDX 8 1 7 2 5 3 6 4 4 5 3 6 1 7 2 8 83 10 84 11 95 12 85 13
REMARK SMILES IDX 94 14 86 15 87 16 88 17 89 18 93 19 90 21 92 22 91 23 76 24
REMARK SMILES IDX 77 25 81 26 78 27 80 28 82 29 79 30 9 31 10 32 11 33 12 34
REMARK SMILES IDX 13 35 14 36 75 37 15 38 74 39 16 40 17 41 18 42 68 43 19 44
REMARK SMILES IDX 73 45 67 46 69 47 20 48 72 49 66 50 65 51 21 53 53 54 33 55
REMARK SMILES IDX 52 56 34 57 37 58 51 59 70 60 35 61 36 62 50 64 71 65 38 66
REMARK SMILES IDX 22 67 23 68 31 69 24 70 30 71 32 72 29 73 25 74 26 75 27 76
REMARK SMILES IDX 28 77 54 78 55 79 63 80 56 81 62 82 64 83 61 84 57 85 58 86
REMARK SMILES IDX 59 87 60 88 39 89 40 90 48 91 41 92 47 93 49 94 46 95 42 96
REMARK SMILES IDX 43 97 44 98 45 99
REMARK H PARENT 3 9 88 20 69 52 37 63
REMARK Flexibility Score: inf
ROOT
ATOM      1  C   UNL A   1      35.257  19.690  24.903  1.00  0.00     0.274 C 
ENDROOT
BRANCH   1   2
ATOM      2  O   UNL A   1      34.113  20.452  25.697  1.00  0.00    -0.460 OA
BRANCH   2   3
ATOM      3  C   UNL A   1      32.825  20.420  25.248  1.00  0.00     0.333 C 
ATOM      4  O   UNL A   1      32.184  19.385  25.108  1.00  0.00    -0.249 OA
BRANCH   3   5
ATOM      5  C   UNL A   1      32.254  21.891  25.161  1.00  0.00     0.226 C 
BRANCH   5   6
ATOM      6  N   UNL A   1      31.224  22.218  26.171  1.00  0.00    -0.335 N 
ATOM      7  O   UNL A   1      29.835  23.601  27.331  1.00  0.00    -0.269 OA
ATOM      8  C   UNL A   1      30.694  23.469  26.468  1.00  0.00     0.252 C 
ATOM      9  H   UNL A   1      30.873  21.462  26.694  1.00  0.00     0.165 HD
BRANCH   8  10
ATOM     10  C   UNL A   1      31.050  24.627  25.601  1.00  0.00     0.039 A 
ATOM     11  C   UNL A   1      30.480  24.644  23.891  1.00  0.00     0.014 A 
ATOM     12  C   UNL A   1      31.593  26.179  26.360  1.00  0.00     0.014 A 
ATOM     13  C   UNL A   1      30.448  26.160  22.942  1.00  0.00     0.010 A 
ATOM     14  C   UNL A   1      31.603  27.711  25.389  1.00  0.00     0.010 A 
ATOM     15  C   UNL A   1      31.004  27.704  23.679  1.00  0.00     0.006 A 
BRANCH  15  16
ATOM     16  C   UNL A   1      30.973  28.988  22.864  1.00  0.00     0.299 C 
BRANCH  16  17
ATOM     17  N   UNL A   1      29.671  29.677  22.745  1.00  0.00    -0.331 N 
ATOM     18  C   UNL A   1      29.408  30.609  23.849  1.00  0.00     0.262 C 
ATOM     19  C   UNL A   1      29.389  30.142  21.381  1.00  0.00     0.262 C 
ATOM     20  H   UNL A   1      28.940  28.980  22.882  1.00  0.00     0.348 HD
ATOM     21  C   UNL A   1      28.174  31.495  23.673  1.00  0.00     0.062 C 
ATOM     22  C   UNL A   1      28.151  31.031  21.244  1.00  0.00     0.062 C 
ATOM     23  C   UNL A   1      28.121  32.131  22.293  1.00  0.00     0.012 C 
ENDBRANCH  16  17
ENDBRANCH  15  16
ENDBRANCH   8  10
ENDBRANCH   5   6
BRANCH   5  24
ATOM     24  C   UNL A   1      33.450  22.806  25.133  1.00  0.00     0.021 A 
ATOM     25  C   UNL A   1      34.163  23.106  26.295  1.00  0.00     0.009 A 
ATOM     26  C   UNL A   1      34.018  23.105  23.883  1.00  0.00     0.129 A 
ATOM     27  C   UNL A   1      35.453  23.623  26.194  1.00  0.00     0.001 A 
ATOM     28  C   UNL A   1      35.302  23.616  23.780  1.00  0.00     0.039 A 
ATOM     29  F   UNL A   1      33.350  22.807  22.758  1.00  0.00    -0.207 F 
ATOM     30  C   UNL A   1      36.030  23.854  24.942  1.00  0.00     0.003 A 
ENDBRANCH   5  24
ENDBRANCH   3   5
ENDBRANCH   2   3
ENDBRANCH   1   2
BRANCH   1  31
ATOM     31  C   UNL A   1      37.405  20.077  24.863  1.00  0.00     0.275 C 
BRANCH  31  32
ATOM     32  O   UNL A   1      38.208  21.301  25.494  1.00  0.00    -0.458 OA
BRANCH  32  33
ATOM     33  C   UNL A   1      39.393  21.064  26.105  1.00  0.00     0.338 C 
ATOM     34  O   UNL A   1      40.147  20.125  25.932  1.00  0.00    -0.246 OA
BRANCH  33  35
ATOM     35  C   UNL A   1      39.785  22.293  26.799  1.00  0.00     0.060 A 
ATOM     36  C   UNL A   1      39.244  23.510  26.358  1.00  0.00     0.016 A 
ATOM     37  C   UNL A   1      40.742  22.239  27.807  1.00  0.00     0.016 A 
ATOM     38  C   UNL A   1      39.717  24.701  26.886  1.00  0.00     0.010 A 
ATOM     39  C   UNL A   1      41.229  23.434  28.321  1.00  0.00     0.010 A 
ATOM     40  C   UNL A   1      40.753  24.661  27.823  1.00  0.00    -0.014 A 
BRANCH  40  41
ATOM     41  C   UNL A   1      41.494  25.894  28.141  1.00  0.00     0.031 A 
ATOM     42  C   UNL A   1      40.769  26.975  28.889  1.00  0.00     0.074 A 
ATOM     43  C   UNL A   1      42.769  26.027  27.747  1.00  0.00     0.049 A 
ATOM     44  N   UNL A   1      41.133  28.204  29.133  1.00  0.00    -0.248 NA
ATOM     45  C   UNL A   1      39.438  26.623  29.417  1.00  0.00     0.031 C 
ATOM     46  C   UNL A   1      43.552  24.991  27.072  1.00  0.00     0.029 A 
ATOM     47  N   UNL A   1      43.620  27.093  27.835  1.00  0.00    -0.354 N 
ATOM     48  C   UNL A   1      40.067  28.783  29.816  1.00  0.00     0.074 A 
ATOM     49  C   UNL A   1      39.034  27.777  29.923  1.00  0.00     0.031 C 
ATOM     50  C   UNL A   1      44.768  25.484  26.788  1.00  0.00     0.029 A 
ATOM     51  C   UNL A   1      44.823  26.881  27.206  1.00  0.00     0.049 A 
ATOM     52  H   UNL A   1      43.394  27.929  28.303  1.00  0.00     0.167 HD
ATOM     53  C   UNL A   1      39.974  30.044  30.301  1.00  0.00     0.034 A 
ATOM     54  C   UNL A   1      45.828  27.742  26.962  1.00  0.00     0.034 A 
ATOM     55  C   UNL A   1      41.036  31.010  30.160  1.00  0.00     0.049 A 
ATOM     56  C   UNL A   1      45.676  29.160  27.452  1.00  0.00     0.074 A 
ATOM     57  C   UNL A   1      41.083  32.316  30.609  1.00  0.00     0.029 A 
ATOM     58  N   UNL A   1      42.242  30.768  29.509  1.00  0.00    -0.354 N 
ATOM     59  N   UNL A   1      44.663  29.710  28.086  1.00  0.00    -0.248 NA
ATOM     60  C   UNL A   1      46.799  30.068  27.204  1.00  0.00     0.031 C 
ATOM     61  C   UNL A   1      42.282  32.884  30.166  1.00  0.00     0.029 A 
ATOM     62  C   UNL A   1      43.026  31.909  29.516  1.00  0.00     0.049 A 
ATOM     63  H   UNL A   1      42.500  29.910  29.102  1.00  0.00     0.167 HD
ATOM     64  C   UNL A   1      45.041  31.024  28.339  1.00  0.00     0.074 A 
ATOM     65  C   UNL A   1      46.381  31.174  27.802  1.00  0.00     0.031 C 
ATOM     66  C   UNL A   1      44.354  32.019  28.959  1.00  0.00     0.034 A 
BRANCH  53  67
ATOM     67  C   UNL A   1      38.674  30.450  30.956  1.00  0.00     0.023 A 
ATOM     68  C   UNL A   1      37.634  31.065  30.236  1.00  0.00     0.031 A 
ATOM     69  C   UNL A   1      38.486  30.251  32.336  1.00  0.00     0.131 A 
ATOM     70  C   UNL A   1      36.487  31.519  30.908  1.00  0.00     0.055 A 
ATOM     71  C   UNL A   1      37.309  30.633  32.984  1.00  0.00     0.041 A 
ATOM     72  F   UNL A   1      39.451  29.696  33.085  1.00  0.00    -0.206 F 
ATOM     73  C   UNL A   1      36.305  31.284  32.272  1.00  0.00     0.022 A 
BRANCH  70  74
ATOM     74  S   UNL A   1      35.295  32.545  30.001  1.00  0.00     0.124 S 
ATOM     75  O   UNL A   1      34.958  31.678  28.875  1.00  0.00    -0.237 OA
ATOM     76  O   UNL A   1      34.241  32.750  30.987  1.00  0.00    -0.237 OA
ATOM     77  O   UNL A   1      36.064  33.737  29.653  1.00  0.00    -0.744 OA
ENDBRANCH  70  74
ENDBRANCH  53  67
BRANCH  54  78
ATOM     78  C   UNL A   1      47.029  27.300  26.199  1.00  0.00     0.023 A 
ATOM     79  C   UNL A   1      47.219  27.688  24.866  1.00  0.00     0.031 A 
ATOM     80  C   UNL A   1      48.000  26.469  26.789  1.00  0.00     0.131 A 
ATOM     81  C   UNL A   1      48.332  27.215  24.152  1.00  0.00     0.055 A 
ATOM     82  C   UNL A   1      49.134  26.049  26.092  1.00  0.00     0.041 A 
ATOM     83  F   UNL A   1      47.870  26.069  28.065  1.00  0.00    -0.206 F 
ATOM     84  C   UNL A   1      49.299  26.413  24.760  1.00  0.00     0.022 A 
BRANCH  81  85
ATOM     85  S   UNL A   1      48.450  27.599  22.383  1.00  0.00     0.124 S 
ATOM     86  O   UNL A   1      47.219  28.349  22.160  1.00  0.00    -0.237 OA
ATOM     87  O   UNL A   1      49.689  28.366  22.324  1.00  0.00    -0.237 OA
ATOM     88  O   UNL A   1      48.503  26.282  21.753  1.00  0.00    -0.744 OA
ENDBRANCH  81  85
ENDBRANCH  54  78
BRANCH  66  89
ATOM     89  C   UNL A   1      45.073  33.334  29.122  1.00  0.00     0.023 A 
ATOM     90  C   UNL A   1      44.970  34.356  28.163  1.00  0.00     0.031 A 
ATOM     91  C   UNL A   1      45.880  33.560  30.251  1.00  0.00     0.131 A 
ATOM     92  C   UNL A   1      45.714  35.533  28.318  1.00  0.00     0.055 A 
ATOM     93  C   UNL A   1      46.561  34.763  30.436  1.00  0.00     0.041 A 
ATOM     94  F   UNL A   1      46.014  32.616  31.197  1.00  0.00    -0.206 F 
ATOM     95  C   UNL A   1      46.492  35.752  29.459  1.00  0.00     0.022 A 
BRANCH  92  96
ATOM     96  S   UNL A   1      45.733  36.732  26.960  1.00  0.00     0.124 S 
ATOM     97  O   UNL A   1      46.615  37.769  27.485  1.00  0.00    -0.237 OA
ATOM     98  O   UNL A   1      46.265  35.943  25.854  1.00  0.00    -0.237 OA
ATOM     99  O   UNL A   1      44.330  37.119  26.825  1.00  0.00    -0.744 OA
ENDBRANCH  92  96
ENDBRANCH  66  89
ENDBRANCH  40  41
ENDBRANCH  33  35
ENDBRANCH  32  33
ENDBRANCH  31  32
ENDBRANCH   1  31
TORSDOF 19
ENDMDL
MODEL 2
REMARK VINA RESULT:     -14.5      4.918     10.472
REMARK SMILES O=C(N[C@H](C(=O)OCCOC(=O)c1ccc(-c2c3nc(c(-c4cc(S(=O)(=O)[O-])ccc4F)c4ccc([nH]4)c(-c4cc(S(=O)(=O)[O-])ccc4F)c4nc(c(-c5cc(S(=O)(=O)[O-])ccc5F)c5ccc2[nH]5)C=C4)C=C3)cc1)c1ccccc1F)c1ccc(C[NH+]2CCCCC2)cc1
REMARK SMILES IDX 8 1 7 2 5 3 6 4 4 5 3 6 1 7 2 8 83 10 84 11 95 12 85 13
REMARK SMILES IDX 94 14 86 15 87 16 88 17 89 18 93 19 90 21 92 22 91 23 76 24
REMARK SMILES IDX 77 25 81 26 78 27 80 28 82 29 79 30 9 31 10 32 11 33 12 34
REMARK SMILES IDX 13 35 14 36 75 37 15 38 74 39 16 40 17 41 18 42 68 43 19 44
REMARK SMILES IDX 73 45 67 46 69 47 20 48 72 49 66 50 65 51 21 53 53 54 33 55
REMARK SMILES IDX 52 56 34 57 37 58 51 59 70 60 35 61 36 62 50 64 71 65 38 66
REMARK SMILES IDX 22 67 23 68 31 69 24 70 30 71 32 72 29 73 25 74 26 75 27 76
REMARK SMILES IDX 28 77 54 78 55 79 63 80 56 81 62 82 64 83 61 84 57 85 58 86
REMARK SMILES IDX 59 87 60 88 39 89 40 90 48 91 41 92 47 93 49 94 46 95 42 96
REMARK SMILES IDX 43 97 44 98 45 99
REMARK H PARENT 3 9 88 20 69 52 37 63
REMARK Flexibility Score: inf
ROOT
ATOM      1  C   UNL A   1      30.310  30.879  24.313  1.00  0.00     0.274 C 
ENDROOT
BRANCH   1   2
ATOM      2  O   UNL A   1      29.829  29.424  23.899  1.00  0.00    -0.460 OA
BRANCH   2   3
ATOM      3  C   UNL A   1      30.262  28.863  22.733  1.00  0.00     0.333 C 
ATOM      4  O   UNL A   1      30.191  29.423  21.646  1.00  0.00    -0.249 OA
BRANCH   3   5
ATOM      5  C   UNL A   1      31.043  27.523  23.044  1.00  0.00     0.226 C 
BRANCH   5   6
ATOM      6  N   UNL A   1      31.778  26.952  21.895  1.00  0.00    -0.335 N 
ATOM      7  O   UNL A   1      33.160  25.468  20.859  1.00  0.00    -0.269 OA
ATOM      8  C   UNL A   1      32.614  25.841  21.890  1.00  0.00     0.252 C 
ATOM      9  H   UNL A   1      31.662  27.413  21.032  1.00  0.00     0.165 HD
BRANCH   8  10
ATOM     10  C   UNL A   1      32.697  24.996  23.114  1.00  0.00     0.039 A 
ATOM     11  C   UNL A   1      31.424  23.754  23.405  1.00  0.00     0.014 A 
ATOM     12  C   UNL A   1      34.267  24.869  24.007  1.00  0.00     0.014 A 
ATOM     13  C   UNL A   1      31.689  22.412  24.558  1.00  0.00     0.010 A 
ATOM     14  C   UNL A   1      34.524  23.536  25.209  1.00  0.00     0.010 A 
ATOM     15  C   UNL A   1      33.237  22.287  25.466  1.00  0.00     0.006 A 
BRANCH  15  16
ATOM     16  C   UNL A   1      33.452  21.142  26.445  1.00  0.00     0.299 C 
BRANCH  16  17
ATOM     17  N   UNL A   1      33.628  19.792  25.870  1.00  0.00    -0.331 N 
ATOM     18  C   UNL A   1      32.371  19.195  25.401  1.00  0.00     0.262 C 
ATOM     19  C   UNL A   1      34.798  19.690  24.989  1.00  0.00     0.262 C 
ATOM     20  H   UNL A   1      33.886  19.164  26.631  1.00  0.00     0.348 HD
ATOM     21  C   UNL A   1      32.522  17.891  24.617  1.00  0.00     0.062 C 
ATOM     22  C   UNL A   1      34.913  18.374  24.216  1.00  0.00     0.062 C 
ATOM     23  C   UNL A   1      33.602  17.989  23.552  1.00  0.00     0.012 C 
ENDBRANCH  16  17
ENDBRANCH  15  16
ENDBRANCH   8  10
ENDBRANCH   5   6
BRANCH   5  24
ATOM     24  C   UNL A   1      31.870  27.794  24.274  1.00  0.00     0.021 A 
ATOM     25  C   UNL A   1      31.615  27.139  25.480  1.00  0.00     0.009 A 
ATOM     26  C   UNL A   1      33.086  28.479  24.108  1.00  0.00     0.129 A 
ATOM     27  C   UNL A   1      32.599  27.112  26.467  1.00  0.00     0.001 A 
ATOM     28  C   UNL A   1      34.067  28.450  25.086  1.00  0.00     0.039 A 
ATOM     29  F   UNL A   1      33.350  29.099  22.947  1.00  0.00    -0.207 F 
ATOM     30  C   UNL A   1      33.830  27.743  26.262  1.00  0.00     0.003 A 
ENDBRANCH   5  24
ENDBRANCH   3   5
ENDBRANCH   2   3
ENDBRANCH   1   2
BRANCH   1  31
ATOM     31  C   UNL A   1      31.099  31.581  26.224  1.00  0.00     0.275 C 
BRANCH  31  32
ATOM     32  O   UNL A   1      32.541  31.335  26.856  1.00  0.00    -0.458 OA
BRANCH  32  33
ATOM     33  C   UNL A   1      33.180  32.368  27.455  1.00  0.00     0.338 C 
ATOM     34  O   UNL A   1      32.695  33.397  27.887  1.00  0.00    -0.246 OA
BRANCH  33  35
ATOM     35  C   UNL A   1      34.534  31.918  27.785  1.00  0.00     0.060 A 
ATOM     36  C   UNL A   1      34.729  30.563  28.095  1.00  0.00     0.016 A 
ATOM     37  C   UNL A   1      35.567  32.845  27.873  1.00  0.00     0.016 A 
ATOM     38  C   UNL A   1      35.961  30.139  28.568  1.00  0.00     0.010 A 
ATOM     39  C   UNL A   1      36.795  32.423  28.365  1.00  0.00     0.010 A 
ATOM     40  C   UNL A   1      36.973  31.084  28.759  1.00  0.00    -0.014 A 
BRANCH  40  41
ATOM     41  C   UNL A   1      38.155  30.729  29.564  1.00  0.00     0.031 A 
ATOM     42  C   UNL A   1      39.125  29.739  28.987  1.00  0.00     0.074 A 
ATOM     43  C   UNL A   1      38.326  31.277  30.777  1.00  0.00     0.049 A 
ATOM     44  N   UNL A   1      40.133  29.136  29.555  1.00  0.00    -0.248 NA
ATOM     45  C   UNL A   1      38.911  29.360  27.579  1.00  0.00     0.031 C 
ATOM     46  C   UNL A   1      37.456  32.293  31.369  1.00  0.00     0.029 A 
ATOM     47  N   UNL A   1      39.272  31.038  31.734  1.00  0.00    -0.354 N 
ATOM     48  C   UNL A   1      40.658  28.286  28.586  1.00  0.00     0.074 A 
ATOM     49  C   UNL A   1      39.838  28.432  27.404  1.00  0.00     0.031 C 
ATOM     50  C   UNL A   1      37.900  32.577  32.604  1.00  0.00     0.029 A 
ATOM     51  C   UNL A   1      39.043  31.720  32.904  1.00  0.00     0.049 A 
ATOM     52  H   UNL A   1      40.040  30.438  31.598  1.00  0.00     0.167 HD
ATOM     53  C   UNL A   1      41.726  27.461  28.690  1.00  0.00     0.034 A 
ATOM     54  C   UNL A   1      39.666  31.619  34.093  1.00  0.00     0.034 A 
ATOM     55  C   UNL A   1      42.506  27.350  29.899  1.00  0.00     0.049 A 
ATOM     56  C   UNL A   1      40.813  30.645  34.207  1.00  0.00     0.074 A 
ATOM     57  C   UNL A   1      43.617  26.565  30.143  1.00  0.00     0.029 A 
ATOM     58  N   UNL A   1      42.244  28.049  31.074  1.00  0.00    -0.354 N 
ATOM     59  N   UNL A   1      41.299  29.832  33.294  1.00  0.00    -0.248 NA
ATOM     60  C   UNL A   1      41.496  30.580  35.501  1.00  0.00     0.031 C 
ATOM     61  C   UNL A   1      43.980  26.733  31.484  1.00  0.00     0.029 A 
ATOM     62  C   UNL A   1      43.152  27.689  32.056  1.00  0.00     0.049 A 
ATOM     63  H   UNL A   1      41.518  28.703  31.190  1.00  0.00     0.167 HD
ATOM     64  C   UNL A   1      42.368  29.179  33.898  1.00  0.00     0.074 A 
ATOM     65  C   UNL A   1      42.461  29.708  35.247  1.00  0.00     0.031 C 
ATOM     66  C   UNL A   1      43.202  28.233  33.393  1.00  0.00     0.034 A 
BRANCH  53  67
ATOM     67  C   UNL A   1      42.057  26.587  27.503  1.00  0.00     0.023 A 
ATOM     68  C   UNL A   1      41.648  25.244  27.426  1.00  0.00     0.031 A 
ATOM     69  C   UNL A   1      42.829  27.097  26.443  1.00  0.00     0.131 A 
ATOM     70  C   UNL A   1      42.068  24.442  26.351  1.00  0.00     0.055 A 
ATOM     71  C   UNL A   1      43.177  26.316  25.339  1.00  0.00     0.041 A 
ATOM     72  F   UNL A   1      43.276  28.363  26.470  1.00  0.00    -0.206 F 
ATOM     73  C   UNL A   1      42.807  24.975  25.294  1.00  0.00     0.022 A 
BRANCH  70  74
ATOM     74  S   UNL A   1      41.752  22.655  26.423  1.00  0.00     0.124 S 
ATOM     75  O   UNL A   1      42.444  22.186  25.225  1.00  0.00    -0.237 OA
ATOM     76  O   UNL A   1      42.354  22.280  27.697  1.00  0.00    -0.237 OA
ATOM     77  O   UNL A   1      40.295  22.562  26.370  1.00  0.00    -0.744 OA
ENDBRANCH  70  74
ENDBRANCH  53  67
BRANCH  54  78
ATOM     78  C   UNL A   1      39.203  32.425  35.257  1.00  0.00     0.023 A 
ATOM     79  C   UNL A   1      39.689  33.721  35.476  1.00  0.00     0.031 A 
ATOM     80  C   UNL A   1      38.275  31.905  36.178  1.00  0.00     0.131 A 
ATOM     81  C   UNL A   1      39.277  34.441  36.609  1.00  0.00     0.055 A 
ATOM     82  C   UNL A   1      37.825  32.646  37.272  1.00  0.00     0.041 A 
ATOM     83  F   UNL A   1      37.774  30.669  36.016  1.00  0.00    -0.206 F 
ATOM     84  C   UNL A   1      38.337  33.919  37.499  1.00  0.00     0.022 A 
BRANCH  81  85
ATOM     85  S   UNL A   1      40.059  36.042  36.946  1.00  0.00     0.124 S 
ATOM     86  O   UNL A   1      41.440  35.649  37.201  1.00  0.00    -0.237 OA
ATOM     87  O   UNL A   1      39.815  36.765  35.704  1.00  0.00    -0.237 OA
ATOM     88  O   UNL A   1      39.326  36.538  38.109  1.00  0.00    -0.744 OA
ENDBRANCH  81  85
ENDBRANCH  54  78
BRANCH  66  89
ATOM     89  C   UNL A   1      44.308  27.757  34.299  1.00  0.00     0.023 A 
ATOM     90  C   UNL A   1      44.178  26.593  35.075  1.00  0.00     0.031 A 
ATOM     91  C   UNL A   1      45.507  28.487  34.393  1.00  0.00     0.131 A 
ATOM     92  C   UNL A   1      45.201  26.227  35.959  1.00  0.00     0.055 A 
ATOM     93  C   UNL A   1      46.551  28.078  35.221  1.00  0.00     0.041 A 
ATOM     94  F   UNL A   1      45.682  29.608  33.675  1.00  0.00    -0.206 F 
ATOM     95  C   UNL A   1      46.396  26.950  36.022  1.00  0.00     0.022 A 
BRANCH  92  96
ATOM     96  S   UNL A   1      44.910  24.851  37.103  1.00  0.00     0.124 S 
ATOM     97  O   UNL A   1      44.011  25.457  38.079  1.00  0.00    -0.237 OA
ATOM     98  O   UNL A   1      44.317  23.842  36.231  1.00  0.00    -0.237 OA
ATOM     99  O   UNL A   1      46.245  24.532  37.602  1.00  0.00    -0.744 OA
ENDBRANCH  92  96
ENDBRANCH  66  89
ENDBRANCH  40  41
ENDBRANCH  33  35
ENDBRANCH  32  33
ENDBRANCH  31  32
ENDBRANCH   1  31
TORSDOF 19
ENDMDL
MODEL 3
REMARK VINA RESULT:     -14.4      4.790      8.491
REMARK SMILES O=C(N[C@H](C(=O)OCCOC(=O)c1ccc(-c2c3nc(c(-c4cc(S(=O)(=O)[O-])ccc4F)c4ccc([nH]4)c(-c4cc(S(=O)(=O)[O-])ccc4F)c4nc(c(-c5cc(S(=O)(=O)[O-])ccc5F)c5ccc2[nH]5)C=C4)C=C3)cc1)c1ccccc1F)c1ccc(C[NH+]2CCCCC2)cc1
REMARK SMILES IDX 8 1 7 2 5 3 6 4 4 5 3 6 1 7 2 8 83 10 84 11 95 12 85 13
REMARK SMILES IDX 94 14 86 15 87 16 88 17 89 18 93 19 90 21 92 22 91 23 76 24
REMARK SMILES IDX 77 25 81 26 78 27 80 28 82 29 79 30 9 31 10 32 11 33 12 34
REMARK SMILES IDX 13 35 14 36 75 37 15 38 74 39 16 40 17 41 18 42 68 43 19 44
REMARK SMILES IDX 73 45 67 46 69 47 20 48 72 49 66 50 65 51 21 53 53 54 33 55
REMARK SMILES IDX 52 56 34 57 37 58 51 59 70 60 35 61 36 62 50 64 71 65 38 66
REMARK SMILES IDX 22 67 23 68 31 69 24 70 30 71 32 72 29 73 25 74 26 75 27 76
REMARK SMILES IDX 28 77 54 78 55 79 63 80 56 81 62 82 64 83 61 84 57 85 58 86
REMARK SMILES IDX 59 87 60 88 39 89 40 90 48 91 41 92 47 93 49 94 46 95 42 96
REMARK SMILES IDX 43 97 44 98 45 99
REMARK H PARENT 3 9 88 20 69 52 37 63
REMARK Flexibility Score: inf
ROOT
ATOM      1  C   UNL A   1      31.621  30.361  25.948  1.00  0.00     0.274 C 
ENDROOT
BRANCH   1   2
ATOM      2  O   UNL A   1      31.956  29.006  26.704  1.00  0.00    -0.460 OA
BRANCH   2   3
ATOM      3  C   UNL A   1      32.957  28.196  26.253  1.00  0.00     0.333 C 
ATOM      4  O   UNL A   1      34.145  28.491  26.316  1.00  0.00    -0.249 OA
BRANCH   3   5
ATOM      5  C   UNL A   1      32.366  26.784  25.861  1.00  0.00     0.226 C 
BRANCH   5   6
ATOM      6  N   UNL A   1      30.959  26.567  26.262  1.00  0.00    -0.335 N 
ATOM      7  O   UNL A   1      29.092  25.323  26.657  1.00  0.00    -0.269 OA
ATOM      8  C   UNL A   1      30.262  25.364  26.296  1.00  0.00     0.252 C 
ATOM      9  H   UNL A   1      30.457  27.368  26.537  1.00  0.00     0.165 HD
BRANCH   8  10
ATOM     10  C   UNL A   1      31.004  24.094  26.062  1.00  0.00     0.039 A 
ATOM     11  C   UNL A   1      31.025  23.389  24.404  1.00  0.00     0.014 A 
ATOM     12  C   UNL A   1      32.246  23.551  27.262  1.00  0.00     0.014 A 
ATOM     13  C   UNL A   1      32.244  22.168  23.934  1.00  0.00     0.010 A 
ATOM     14  C   UNL A   1      33.458  22.281  26.805  1.00  0.00     0.010 A 
ATOM     15  C   UNL A   1      33.471  21.605  25.123  1.00  0.00     0.006 A 
BRANCH  15  16
ATOM     16  C   UNL A   1      34.504  20.566  24.714  1.00  0.00     0.299 C 
BRANCH  16  17
ATOM     17  N   UNL A   1      34.251  19.169  25.124  1.00  0.00    -0.331 N 
ATOM     18  C   UNL A   1      32.822  18.855  25.254  1.00  0.00     0.262 C 
ATOM     19  C   UNL A   1      35.097  18.199  24.417  1.00  0.00     0.262 C 
ATOM     20  H   UNL A   1      34.575  19.066  26.085  1.00  0.00     0.348 HD
ATOM     21  C   UNL A   1      32.497  17.378  25.477  1.00  0.00     0.062 C 
ATOM     22  C   UNL A   1      34.739  16.731  24.658  1.00  0.00     0.062 C 
ATOM     23  C   UNL A   1      33.248  16.478  24.509  1.00  0.00     0.012 C 
ENDBRANCH  16  17
ENDBRANCH  15  16
ENDBRANCH   8  10
ENDBRANCH   5   6
BRANCH   5  24
ATOM     24  C   UNL A   1      32.659  26.597  24.395  1.00  0.00     0.021 A 
ATOM     25  C   UNL A   1      33.684  25.755  23.961  1.00  0.00     0.009 A 
ATOM     26  C   UNL A   1      31.695  27.038  23.473  1.00  0.00     0.129 A 
ATOM     27  C   UNL A   1      33.690  25.306  22.641  1.00  0.00     0.001 A 
ATOM     28  C   UNL A   1      31.696  26.590  22.161  1.00  0.00     0.039 A 
ATOM     29  F   UNL A   1      30.695  27.834  23.881  1.00  0.00    -0.207 F 
ATOM     30  C   UNL A   1      32.687  25.701  21.751  1.00  0.00     0.003 A 
ENDBRANCH   5  24
ENDBRANCH   3   5
ENDBRANCH   2   3
ENDBRANCH   1   2
BRANCH   1  31
ATOM     31  C   UNL A   1      31.839  32.420  26.642  1.00  0.00     0.275 C 
BRANCH  31  32
ATOM     32  O   UNL A   1      32.476  32.950  28.003  1.00  0.00    -0.458 OA
BRANCH  32  33
ATOM     33  C   UNL A   1      33.557  33.764  27.949  1.00  0.00     0.338 C 
ATOM     34  O   UNL A   1      33.576  34.980  27.940  1.00  0.00    -0.246 OA
BRANCH  33  35
ATOM     35  C   UNL A   1      34.741  32.944  28.216  1.00  0.00     0.060 A 
ATOM     36  C   UNL A   1      34.560  31.578  28.482  1.00  0.00     0.016 A 
ATOM     37  C   UNL A   1      35.993  33.545  28.290  1.00  0.00     0.016 A 
ATOM     38  C   UNL A   1      35.638  30.813  28.898  1.00  0.00     0.010 A 
ATOM     39  C   UNL A   1      37.069  32.781  28.724  1.00  0.00     0.010 A 
ATOM     40  C   UNL A   1      36.879  31.432  29.076  1.00  0.00    -0.014 A 
BRANCH  40  41
ATOM     41  C   UNL A   1      37.938  30.735  29.826  1.00  0.00     0.031 A 
ATOM     42  C   UNL A   1      38.163  31.134  31.255  1.00  0.00     0.074 A 
ATOM     43  C   UNL A   1      38.673  29.790  29.221  1.00  0.00     0.049 A 
ATOM     44  N   UNL A   1      39.131  30.806  32.066  1.00  0.00    -0.248 NA
ATOM     45  C   UNL A   1      37.168  32.050  31.842  1.00  0.00     0.031 C 
ATOM     46  C   UNL A   1      38.464  29.311  27.855  1.00  0.00     0.029 A 
ATOM     47  N   UNL A   1      39.755  29.085  29.668  1.00  0.00    -0.354 N 
ATOM     48  C   UNL A   1      38.880  31.495  33.250  1.00  0.00     0.074 A 
ATOM     49  C   UNL A   1      37.684  32.280  33.039  1.00  0.00     0.031 C 
ATOM     50  C   UNL A   1      39.407  28.399  27.567  1.00  0.00     0.029 A 
ATOM     51  C   UNL A   1      40.314  28.281  28.705  1.00  0.00     0.049 A 
ATOM     52  H   UNL A   1      40.099  29.147  30.588  1.00  0.00     0.167 HD
ATOM     53  C   UNL A   1      39.595  31.467  34.399  1.00  0.00     0.034 A 
ATOM     54  C   UNL A   1      41.457  27.571  28.735  1.00  0.00     0.034 A 
ATOM     55  C   UNL A   1      40.787  30.668  34.552  1.00  0.00     0.049 A 
ATOM     56  C   UNL A   1      42.274  27.606  30.003  1.00  0.00     0.074 A 
ATOM     57  C   UNL A   1      41.603  30.536  35.659  1.00  0.00     0.029 A 
ATOM     58  N   UNL A   1      41.335  29.869  33.553  1.00  0.00    -0.354 N 
ATOM     59  N   UNL A   1      42.043  28.268  31.116  1.00  0.00    -0.248 NA
ATOM     60  C   UNL A   1      43.495  26.797  30.024  1.00  0.00     0.031 C 
ATOM     61  C   UNL A   1      42.682  29.718  35.307  1.00  0.00     0.029 A 
ATOM     62  C   UNL A   1      42.496  29.266  34.007  1.00  0.00     0.049 A 
ATOM     63  H   UNL A   1      40.953  29.750  32.654  1.00  0.00     0.167 HD
ATOM     64  C   UNL A   1      43.078  27.930  31.982  1.00  0.00     0.074 A 
ATOM     65  C   UNL A   1      43.922  26.993  31.262  1.00  0.00     0.031 C 
ATOM     66  C   UNL A   1      43.315  28.346  33.253  1.00  0.00     0.034 A 
BRANCH  53  67
ATOM     67  C   UNL A   1      39.143  32.362  35.529  1.00  0.00     0.023 A 
ATOM     68  C   UNL A   1      39.596  33.687  35.661  1.00  0.00     0.031 A 
ATOM     69  C   UNL A   1      38.270  31.868  36.516  1.00  0.00     0.131 A 
ATOM     70  C   UNL A   1      39.230  34.447  36.785  1.00  0.00     0.055 A 
ATOM     71  C   UNL A   1      37.847  32.655  37.590  1.00  0.00     0.041 A 
ATOM     72  F   UNL A   1      37.825  30.603  36.464  1.00  0.00    -0.206 F 
ATOM     73  C   UNL A   1      38.338  33.949  37.736  1.00  0.00     0.022 A 
BRANCH  70  74
ATOM     74  S   UNL A   1      40.046  36.045  37.059  1.00  0.00     0.124 S 
ATOM     75  O   UNL A   1      39.856  36.698  35.766  1.00  0.00    -0.237 OA
ATOM     76  O   UNL A   1      39.286  36.600  38.173  1.00  0.00    -0.237 OA
ATOM     77  O   UNL A   1      41.426  35.677  37.367  1.00  0.00    -0.744 OA
ENDBRANCH  70  74
ENDBRANCH  53  67
BRANCH  54  78
ATOM     78  C   UNL A   1      41.903  26.809  27.536  1.00  0.00     0.023 A 
ATOM     79  C   UNL A   1      41.684  25.428  27.435  1.00  0.00     0.031 A 
ATOM     80  C   UNL A   1      42.570  27.450  26.474  1.00  0.00     0.131 A 
ATOM     81  C   UNL A   1      42.161  24.724  26.318  1.00  0.00     0.055 A 
ATOM     82  C   UNL A   1      42.991  26.754  25.340  1.00  0.00     0.041 A 
ATOM     83  F   UNL A   1      42.804  28.772  26.516  1.00  0.00    -0.206 F 
ATOM     84  C   UNL A   1      42.798  25.379  25.263  1.00  0.00     0.022 A 
BRANCH  81  85
ATOM     85  S   UNL A   1      42.009  22.917  26.308  1.00  0.00     0.124 S 
ATOM     86  O   UNL A   1      42.618  22.576  25.027  1.00  0.00    -0.237 OA
ATOM     87  O   UNL A   1      42.764  22.544  27.499  1.00  0.00    -0.237 OA
ATOM     88  O   UNL A   1      40.567  22.698  26.392  1.00  0.00    -0.744 OA
ENDBRANCH  81  85
ENDBRANCH  54  78
BRANCH  66  89
ATOM     89  C   UNL A   1      44.511  27.746  33.947  1.00  0.00     0.023 A 
ATOM     90  C   UNL A   1      44.430  26.521  34.631  1.00  0.00     0.031 A 
ATOM     91  C   UNL A   1      45.746  28.417  33.929  1.00  0.00     0.131 A 
ATOM     92  C   UNL A   1      45.547  26.037  35.325  1.00  0.00     0.055 A 
ATOM     93  C   UNL A   1      46.874  27.894  34.561  1.00  0.00     0.041 A 
ATOM     94  F   UNL A   1      45.877  29.592  33.291  1.00  0.00    -0.206 F 
ATOM     95  C   UNL A   1      46.773  26.704  35.277  1.00  0.00     0.022 A 
BRANCH  92  96
ATOM     96  S   UNL A   1      45.347  24.575  36.377  1.00  0.00     0.124 S 
ATOM     97  O   UNL A   1      45.893  25.041  37.647  1.00  0.00    -0.237 OA
ATOM     98  O   UNL A   1      43.903  24.361  36.344  1.00  0.00    -0.237 OA
ATOM     99  O   UNL A   1      46.140  23.553  35.698  1.00  0.00    -0.744 OA
ENDBRANCH  92  96
ENDBRANCH  66  89
ENDBRANCH  40  41
ENDBRANCH  33  35
ENDBRANCH  32  33
ENDBRANCH  31  32
ENDBRANCH   1  31
TORSDOF 19
ENDMDL
