MODEL 1
REMARK VINA RESULT:     -11.3      0.000      0.000
REMARK SMILES O=C(OCCOC(=O)c1cccn1CC(=O)N1CCS(=O)CC1)c1ccc(-c2c3nc(c(-c4cc(S(=O)(=O)[O-])ccc4F)c4ccc([nH]4)c(-c4cc(S(=O)(=O)[O-])ccc4F)c4nc(c(-c5cc(S(=O)(=O)[O-])ccc5F)c5ccc2[nH]5)C=C4)C=C3)cc1
REMARK SMILES IDX 4 1 3 2 2 3 1 4 24 5 25 6 86 7 26 8 85 9 27 10 28 11 29 12
REMARK SMILES IDX 79 13 30 14 84 15 78 16 80 17 31 18 83 19 77 20 76 21 32 23
REMARK SMILES IDX 64 24 44 25 63 26 45 27 48 28 62 29 81 30 46 31 47 32 61 34
REMARK SMILES IDX 82 35 49 36 33 37 34 38 42 39 35 40 41 41 43 42 40 43 36 44
REMARK SMILES IDX 37 45 38 46 39 47 65 48 66 49 74 50 67 51 73 52 75 53 72 54
REMARK SMILES IDX 68 55 69 56 70 57 71 58 50 59 51 60 59 61 52 62 58 63 60 64
REMARK SMILES IDX 57 65 53 66 54 67 55 68 56 69 5 70 6 71 7 72 8 73 9 74 10 75
REMARK SMILES IDX 13 76 11 77 12 78 14 79 15 80 16 81 17 82 18 83 23 84 19 85
REMARK SMILES IDX 22 86 20 87 21 88
REMARK H PARENT 80 22 48 33
REMARK Flexibility Score: inf
ROOT
ATOM      1  C   UNL A   1      40.416  22.671  26.295  1.00  0.00     0.275 C 
ENDROOT
BRANCH   1   2
ATOM      2  O   UNL A   1      39.758  23.541  27.219  1.00  0.00    -0.458 OA
BRANCH   2   3
ATOM      3  C   UNL A   1      40.557  24.484  27.736  1.00  0.00     0.338 C 
ATOM      4  O   UNL A   1      41.716  24.350  28.092  1.00  0.00    -0.246 OA
BRANCH   3   5
ATOM      5  C   UNL A   1      39.856  25.755  27.879  1.00  0.00     0.060 A 
ATOM      6  C   UNL A   1      40.126  26.783  26.982  1.00  0.00     0.016 A 
ATOM      7  C   UNL A   1      39.309  26.023  29.121  1.00  0.00     0.016 A 
ATOM      8  C   UNL A   1      40.090  28.101  27.437  1.00  0.00     0.010 A 
ATOM      9  C   UNL A   1      39.302  27.338  29.554  1.00  0.00     0.010 A 
ATOM     10  C   UNL A   1      39.887  28.375  28.793  1.00  0.00    -0.014 A 
BRANCH  10  11
ATOM     11  C   UNL A   1      40.293  29.690  29.439  1.00  0.00     0.031 A 
ATOM     12  C   UNL A   1      39.106  30.373  30.090  1.00  0.00     0.074 A 
ATOM     13  C   UNL A   1      41.582  30.173  29.472  1.00  0.00     0.049 A 
ATOM     14  N   UNL A   1      38.262  31.177  29.519  1.00  0.00    -0.248 NA
ATOM     15  C   UNL A   1      38.574  29.819  31.363  1.00  0.00     0.031 C 
ATOM     16  C   UNL A   1      42.801  29.403  29.149  1.00  0.00     0.029 A 
ATOM     17  N   UNL A   1      42.143  31.405  29.789  1.00  0.00    -0.354 N 
ATOM     18  C   UNL A   1      37.229  31.390  30.447  1.00  0.00     0.074 A 
ATOM     19  C   UNL A   1      37.326  30.305  31.386  1.00  0.00     0.031 C 
ATOM     20  C   UNL A   1      43.902  30.189  29.128  1.00  0.00     0.029 A 
ATOM     21  C   UNL A   1      43.530  31.547  29.464  1.00  0.00     0.049 A 
ATOM     22  H   UNL A   1      41.622  32.129  30.206  1.00  0.00     0.167 HD
ATOM     23  C   UNL A   1      36.695  32.624  30.701  1.00  0.00     0.034 A 
ATOM     24  C   UNL A   1      44.317  32.674  29.416  1.00  0.00     0.034 A 
ATOM     25  C   UNL A   1      37.674  33.603  30.311  1.00  0.00     0.049 A 
ATOM     26  C   UNL A   1      43.463  33.766  29.908  1.00  0.00     0.074 A 
ATOM     27  C   UNL A   1      38.206  33.970  29.104  1.00  0.00     0.029 A 
ATOM     28  N   UNL A   1      38.506  34.053  31.324  1.00  0.00    -0.354 N 
ATOM     29  N   UNL A   1      43.155  33.975  31.152  1.00  0.00    -0.248 NA
ATOM     30  C   UNL A   1      42.831  34.660  28.928  1.00  0.00     0.031 C 
ATOM     31  C   UNL A   1      39.558  34.221  29.408  1.00  0.00     0.029 A 
ATOM     32  C   UNL A   1      39.748  34.282  30.794  1.00  0.00     0.049 A 
ATOM     33  H   UNL A   1      38.247  34.187  32.265  1.00  0.00     0.167 HD
ATOM     34  C   UNL A   1      42.051  34.790  31.053  1.00  0.00     0.074 A 
ATOM     35  C   UNL A   1      42.113  35.420  29.752  1.00  0.00     0.031 C 
ATOM     36  C   UNL A   1      40.909  34.382  31.669  1.00  0.00     0.034 A 
BRANCH  23  37
ATOM     37  C   UNL A   1      35.621  33.129  31.626  1.00  0.00     0.023 A 
ATOM     38  C   UNL A   1      34.696  34.029  31.036  1.00  0.00     0.031 A 
ATOM     39  C   UNL A   1      35.514  32.956  33.009  1.00  0.00     0.131 A 
ATOM     40  C   UNL A   1      33.822  34.799  31.808  1.00  0.00     0.055 A 
ATOM     41  C   UNL A   1      34.611  33.702  33.781  1.00  0.00     0.041 A 
ATOM     42  F   UNL A   1      36.295  32.112  33.688  1.00  0.00    -0.206 F 
ATOM     43  C   UNL A   1      33.781  34.647  33.188  1.00  0.00     0.022 A 
BRANCH  40  44
ATOM     44  S   UNL A   1      32.833  36.071  30.979  1.00  0.00     0.124 S 
ATOM     45  O   UNL A   1      32.593  35.473  29.671  1.00  0.00    -0.237 OA
ATOM     46  O   UNL A   1      31.670  36.172  31.857  1.00  0.00    -0.237 OA
ATOM     47  O   UNL A   1      33.712  37.237  30.981  1.00  0.00    -0.744 OA
ENDBRANCH  40  44
ENDBRANCH  23  37
BRANCH  24  48
ATOM     48  C   UNL A   1      45.713  33.102  28.950  1.00  0.00     0.023 A 
ATOM     49  C   UNL A   1      46.071  33.614  27.688  1.00  0.00     0.031 A 
ATOM     50  C   UNL A   1      46.813  32.995  29.867  1.00  0.00     0.131 A 
ATOM     51  C   UNL A   1      47.417  34.026  27.433  1.00  0.00     0.055 A 
ATOM     52  C   UNL A   1      48.104  33.470  29.637  1.00  0.00     0.041 A 
ATOM     53  F   UNL A   1      46.706  32.400  31.060  1.00  0.00    -0.206 F 
ATOM     54  C   UNL A   1      48.412  34.001  28.413  1.00  0.00     0.022 A 
BRANCH  51  55
ATOM     55  S   UNL A   1      47.963  34.623  25.803  1.00  0.00     0.124 S 
ATOM     56  O   UNL A   1      48.391  35.985  26.108  1.00  0.00    -0.237 OA
ATOM     57  O   UNL A   1      49.017  33.684  25.438  1.00  0.00    -0.237 OA
ATOM     58  O   UNL A   1      46.747  34.525  24.995  1.00  0.00    -0.744 OA
ENDBRANCH  51  55
ENDBRANCH  24  48
BRANCH  36  59
ATOM     59  C   UNL A   1      41.151  33.677  32.995  1.00  0.00     0.023 A 
ATOM     60  C   UNL A   1      41.024  32.274  33.097  1.00  0.00     0.031 A 
ATOM     61  C   UNL A   1      41.371  34.362  34.197  1.00  0.00     0.131 A 
ATOM     62  C   UNL A   1      41.110  31.624  34.346  1.00  0.00     0.055 A 
ATOM     63  C   UNL A   1      41.494  33.718  35.438  1.00  0.00     0.041 A 
ATOM     64  F   UNL A   1      41.427  35.693  34.200  1.00  0.00    -0.206 F 
ATOM     65  C   UNL A   1      41.362  32.338  35.516  1.00  0.00     0.022 A 
BRANCH  62  66
ATOM     66  S   UNL A   1      40.902  29.821  34.431  1.00  0.00     0.124 S 
ATOM     67  O   UNL A   1      39.462  29.676  34.612  1.00  0.00    -0.237 OA
ATOM     68  O   UNL A   1      41.434  29.376  33.146  1.00  0.00    -0.237 OA
ATOM     69  O   UNL A   1      41.710  29.441  35.590  1.00  0.00    -0.744 OA
ENDBRANCH  62  66
ENDBRANCH  36  59
ENDBRANCH  10  11
ENDBRANCH   3   5
ENDBRANCH   2   3
ENDBRANCH   1   2
BRANCH   1  70
ATOM     70  C   UNL A   1      40.579  21.183  26.700  1.00  0.00     0.275 C 
BRANCH  70  71
ATOM     71  O   UNL A   1      41.384  20.380  25.815  1.00  0.00    -0.457 OA
BRANCH  71  72
ATOM     72  C   UNL A   1      42.393  19.652  26.410  1.00  0.00     0.355 C 
ATOM     73  O   UNL A   1      42.294  19.036  27.450  1.00  0.00    -0.244 OA
BRANCH  72  74
ATOM     74  C   UNL A   1      43.592  19.710  25.582  1.00  0.00     0.128 A 
ATOM     75  C   UNL A   1      44.095  18.716  24.754  1.00  0.00     0.035 A 
ATOM     76  N   UNL A   1      44.446  20.809  25.453  1.00  0.00    -0.333 N 
ATOM     77  C   UNL A   1      45.237  19.219  24.096  1.00  0.00     0.020 A 
ATOM     78  C   UNL A   1      45.428  20.507  24.539  1.00  0.00     0.087 A 
BRANCH  76  79
ATOM     79  C   UNL A   1      44.250  22.117  26.086  1.00  0.00     0.222 C 
BRANCH  79  80
ATOM     80  C   UNL A   1      43.920  23.322  25.194  1.00  0.00     0.242 C 
ATOM     81  O   UNL A   1      43.106  23.224  24.274  1.00  0.00    -0.273 OA
ATOM     82  N   UNL A   1      44.452  24.554  25.569  1.00  0.00    -0.339 N 
ATOM     83  C   UNL A   1      43.827  25.816  25.211  1.00  0.00     0.133 C 
ATOM     84  C   UNL A   1      45.824  24.701  25.981  1.00  0.00     0.133 C 
ATOM     85  C   UNL A   1      43.919  26.922  26.268  1.00  0.00     0.126 C 
ATOM     86  C   UNL A   1      45.919  25.243  27.375  1.00  0.00     0.126 C 
ATOM     87  S   UNL A   1      45.060  26.785  27.663  1.00  0.00     0.025 S 
ATOM     88  O   UNL A   1      46.067  27.891  27.602  1.00  0.00    -0.259 OA
ENDBRANCH  79  80
ENDBRANCH  76  79
ENDBRANCH  72  74
ENDBRANCH  71  72
ENDBRANCH  70  71
ENDBRANCH   1  70
TORSDOF 16
ENDMDL
MODEL 2
REMARK VINA RESULT:     -10.9      3.729     12.579
REMARK SMILES O=C(OCCOC(=O)c1cccn1CC(=O)N1CCS(=O)CC1)c1ccc(-c2c3nc(c(-c4cc(S(=O)(=O)[O-])ccc4F)c4ccc([nH]4)c(-c4cc(S(=O)(=O)[O-])ccc4F)c4nc(c(-c5cc(S(=O)(=O)[O-])ccc5F)c5ccc2[nH]5)C=C4)C=C3)cc1
REMARK SMILES IDX 4 1 3 2 2 3 1 4 24 5 25 6 86 7 26 8 85 9 27 10 28 11 29 12
REMARK SMILES IDX 79 13 30 14 84 15 78 16 80 17 31 18 83 19 77 20 76 21 32 23
REMARK SMILES IDX 64 24 44 25 63 26 45 27 48 28 62 29 81 30 46 31 47 32 61 34
REMARK SMILES IDX 82 35 49 36 33 37 34 38 42 39 35 40 41 41 43 42 40 43 36 44
REMARK SMILES IDX 37 45 38 46 39 47 65 48 66 49 74 50 67 51 73 52 75 53 72 54
REMARK SMILES IDX 68 55 69 56 70 57 71 58 50 59 51 60 59 61 52 62 58 63 60 64
REMARK SMILES IDX 57 65 53 66 54 67 55 68 56 69 5 70 6 71 7 72 8 73 9 74 10 75
REMARK SMILES IDX 13 76 11 77 12 78 14 79 15 80 16 81 17 82 18 83 23 84 19 85
REMARK SMILES IDX 22 86 20 87 21 88
REMARK H PARENT 80 22 48 33
REMARK Flexibility Score: inf
ROOT
ATOM      1  C   UNL A   1      38.147  32.327  29.857  1.00  0.00     0.275 C 
ENDROOT
BRANCH   1   2
ATOM      2  O   UNL A   1      37.190  31.265  29.815  1.00  0.00    -0.458 OA
BRANCH   2   3
ATOM      3  C   UNL A   1      36.987  30.768  28.589  1.00  0.00     0.338 C 
ATOM      4  O   UNL A   1      36.307  31.257  27.701  1.00  0.00    -0.246 OA
BRANCH   3   5
ATOM      5  C   UNL A   1      37.663  29.488  28.414  1.00  0.00     0.060 A 
ATOM      6  C   UNL A   1      37.678  28.580  29.468  1.00  0.00     0.016 A 
ATOM      7  C   UNL A   1      38.605  29.419  27.405  1.00  0.00     0.016 A 
ATOM      8  C   UNL A   1      38.800  27.769  29.641  1.00  0.00     0.010 A 
ATOM      9  C   UNL A   1      39.716  28.619  27.610  1.00  0.00     0.010 A 
ATOM     10  C   UNL A   1      39.927  27.939  28.831  1.00  0.00    -0.014 A 
BRANCH  10  11
ATOM     11  C   UNL A   1      41.313  27.460  29.235  1.00  0.00     0.031 A 
ATOM     12  C   UNL A   1      41.868  26.473  28.226  1.00  0.00     0.074 A 
ATOM     13  C   UNL A   1      41.994  27.903  30.345  1.00  0.00     0.049 A 
ATOM     14  N   UNL A   1      41.677  25.189  28.208  1.00  0.00    -0.248 NA
ATOM     15  C   UNL A   1      42.338  26.984  26.912  1.00  0.00     0.031 C 
ATOM     16  C   UNL A   1      41.642  29.084  31.160  1.00  0.00     0.029 A 
ATOM     17  N   UNL A   1      43.128  27.464  31.020  1.00  0.00    -0.354 N 
ATOM     18  C   UNL A   1      42.205  24.728  26.991  1.00  0.00     0.074 A 
ATOM     19  C   UNL A   1      42.289  25.887  26.145  1.00  0.00     0.031 C 
ATOM     20  C   UNL A   1      42.411  29.178  32.269  1.00  0.00     0.029 A 
ATOM     21  C   UNL A   1      43.367  28.091  32.285  1.00  0.00     0.049 A 
ATOM     22  H   UNL A   1      43.724  26.771  30.654  1.00  0.00     0.167 HD
ATOM     23  C   UNL A   1      42.978  23.604  26.889  1.00  0.00     0.034 A 
ATOM     24  C   UNL A   1      44.229  27.740  33.298  1.00  0.00     0.034 A 
ATOM     25  C   UNL A   1      43.551  23.358  28.186  1.00  0.00     0.049 A 
ATOM     26  C   UNL A   1      45.005  26.606  32.773  1.00  0.00     0.074 A 
ATOM     27  C   UNL A   1      43.018  23.004  29.396  1.00  0.00     0.029 A 
ATOM     28  N   UNL A   1      44.817  23.884  28.389  1.00  0.00    -0.354 N 
ATOM     29  N   UNL A   1      45.974  26.694  31.913  1.00  0.00    -0.248 NA
ATOM     30  C   UNL A   1      44.623  25.245  33.177  1.00  0.00     0.031 C 
ATOM     31  C   UNL A   1      43.783  23.745  30.317  1.00  0.00     0.029 A 
ATOM     32  C   UNL A   1      44.913  24.290  29.694  1.00  0.00     0.049 A 
ATOM     33  H   UNL A   1      45.528  23.952  27.711  1.00  0.00     0.167 HD
ATOM     34  C   UNL A   1      46.069  25.406  31.438  1.00  0.00     0.074 A 
ATOM     35  C   UNL A   1      45.488  24.546  32.446  1.00  0.00     0.031 C 
ATOM     36  C   UNL A   1      45.960  25.219  30.096  1.00  0.00     0.034 A 
BRANCH  23  37
ATOM     37  C   UNL A   1      43.666  22.907  25.746  1.00  0.00     0.023 A 
ATOM     38  C   UNL A   1      43.540  21.494  25.743  1.00  0.00     0.031 A 
ATOM     39  C   UNL A   1      44.533  23.449  24.793  1.00  0.00     0.131 A 
ATOM     40  C   UNL A   1      44.338  20.684  24.929  1.00  0.00     0.055 A 
ATOM     41  C   UNL A   1      45.307  22.638  23.950  1.00  0.00     0.041 A 
ATOM     42  F   UNL A   1      44.718  24.764  24.659  1.00  0.00    -0.206 F 
ATOM     43  C   UNL A   1      45.234  21.252  24.034  1.00  0.00     0.022 A 
BRANCH  40  44
ATOM     44  S   UNL A   1      44.253  18.888  25.154  1.00  0.00     0.124 S 
ATOM     45  O   UNL A   1      43.312  18.758  26.259  1.00  0.00    -0.237 OA
ATOM     46  O   UNL A   1      43.771  18.441  23.850  1.00  0.00    -0.237 OA
ATOM     47  O   UNL A   1      45.633  18.521  25.462  1.00  0.00    -0.744 OA
ENDBRANCH  40  44
ENDBRANCH  23  37
BRANCH  24  48
ATOM     48  C   UNL A   1      44.535  28.117  34.752  1.00  0.00     0.023 A 
ATOM     49  C   UNL A   1      44.459  27.283  35.883  1.00  0.00     0.031 A 
ATOM     50  C   UNL A   1      44.956  29.458  35.046  1.00  0.00     0.131 A 
ATOM     51  C   UNL A   1      44.840  27.777  37.170  1.00  0.00     0.055 A 
ATOM     52  C   UNL A   1      45.400  29.910  36.288  1.00  0.00     0.041 A 
ATOM     53  F   UNL A   1      44.952  30.435  34.133  1.00  0.00    -0.206 F 
ATOM     54  C   UNL A   1      45.353  29.062  37.362  1.00  0.00     0.022 A 
BRANCH  51  55
ATOM     55  S   UNL A   1      44.694  26.777  38.684  1.00  0.00     0.124 S 
ATOM     56  O   UNL A   1      43.311  26.316  38.608  1.00  0.00    -0.237 OA
ATOM     57  O   UNL A   1      45.722  25.758  38.513  1.00  0.00    -0.237 OA
ATOM     58  O   UNL A   1      44.963  27.749  39.744  1.00  0.00    -0.744 OA
ENDBRANCH  51  55
ENDBRANCH  24  48
BRANCH  36  59
ATOM     59  C   UNL A   1      46.603  26.325  29.272  1.00  0.00     0.023 A 
ATOM     60  C   UNL A   1      45.808  27.318  28.659  1.00  0.00     0.031 A 
ATOM     61  C   UNL A   1      47.968  26.354  28.963  1.00  0.00     0.131 A 
ATOM     62  C   UNL A   1      46.376  28.267  27.783  1.00  0.00     0.055 A 
ATOM     63  C   UNL A   1      48.546  27.316  28.120  1.00  0.00     0.041 A 
ATOM     64  F   UNL A   1      48.775  25.407  29.439  1.00  0.00    -0.206 F 
ATOM     65  C   UNL A   1      47.746  28.281  27.524  1.00  0.00     0.022 A 
BRANCH  62  66
ATOM     66  S   UNL A   1      45.307  29.501  26.986  1.00  0.00     0.124 S 
ATOM     67  O   UNL A   1      46.200  30.644  26.834  1.00  0.00    -0.237 OA
ATOM     68  O   UNL A   1      44.909  28.832  25.752  1.00  0.00    -0.237 OA
ATOM     69  O   UNL A   1      44.226  29.688  27.954  1.00  0.00    -0.744 OA
ENDBRANCH  62  66
ENDBRANCH  36  59
ENDBRANCH  10  11
ENDBRANCH   3   5
ENDBRANCH   2   3
ENDBRANCH   1   2
BRANCH   1  70
ATOM     70  C   UNL A   1      39.556  32.003  30.417  1.00  0.00     0.275 C 
BRANCH  70  71
ATOM     71  O   UNL A   1      39.682  32.047  31.852  1.00  0.00    -0.457 OA
BRANCH  71  72
ATOM     72  C   UNL A   1      39.461  33.275  32.440  1.00  0.00     0.355 C 
ATOM     73  O   UNL A   1      39.987  34.316  32.109  1.00  0.00    -0.244 OA
BRANCH  72  74
ATOM     74  C   UNL A   1      38.474  33.137  33.504  1.00  0.00     0.128 A 
ATOM     75  C   UNL A   1      38.585  32.384  34.665  1.00  0.00     0.035 A 
ATOM     76  N   UNL A   1      37.232  33.774  33.558  1.00  0.00    -0.333 N 
ATOM     77  C   UNL A   1      37.424  32.586  35.441  1.00  0.00     0.020 A 
ATOM     78  C   UNL A   1      36.610  33.447  34.740  1.00  0.00     0.087 A 
BRANCH  76  79
ATOM     79  C   UNL A   1      36.728  34.739  32.575  1.00  0.00     0.222 C 
BRANCH  79  80
ATOM     80  C   UNL A   1      35.289  35.252  32.721  1.00  0.00     0.242 C 
ATOM     81  O   UNL A   1      34.975  36.003  33.647  1.00  0.00    -0.273 OA
ATOM     82  N   UNL A   1      34.404  34.967  31.683  1.00  0.00    -0.339 N 
ATOM     83  C   UNL A   1      33.249  35.798  31.390  1.00  0.00     0.133 C 
ATOM     84  C   UNL A   1      34.325  33.659  31.085  1.00  0.00     0.133 C 
ATOM     85  C   UNL A   1      32.901  35.944  29.905  1.00  0.00     0.126 C 
ATOM     86  C   UNL A   1      34.626  33.712  29.618  1.00  0.00     0.126 C 
ATOM     87  S   UNL A   1      33.624  34.846  28.665  1.00  0.00     0.025 S 
ATOM     88  O   UNL A   1      32.541  34.056  27.999  1.00  0.00    -0.259 OA
ENDBRANCH  79  80
ENDBRANCH  76  79
ENDBRANCH  72  74
ENDBRANCH  71  72
ENDBRANCH  70  71
ENDBRANCH   1  70
TORSDOF 16
ENDMDL
MODEL 3
REMARK VINA RESULT:     -10.7      5.020     11.132
REMARK SMILES O=C(OCCOC(=O)c1cccn1CC(=O)N1CCS(=O)CC1)c1ccc(-c2c3nc(c(-c4cc(S(=O)(=O)[O-])ccc4F)c4ccc([nH]4)c(-c4cc(S(=O)(=O)[O-])ccc4F)c4nc(c(-c5cc(S(=O)(=O)[O-])ccc5F)c5ccc2[nH]5)C=C4)C=C3)cc1
REMARK SMILES IDX 4 1 3 2 2 3 1 4 24 5 25 6 86 7 26 8 85 9 27 10 28 11 29 12
REMARK SMILES IDX 79 13 30 14 84 15 78 16 80 17 31 18 83 19 77 20 76 21 32 23
REMARK SMILES IDX 64 24 44 25 63 26 45 27 48 28 62 29 81 30 46 31 47 32 61 34
REMARK SMILES IDX 82 35 49 36 33 37 34 38 42 39 35 40 41 41 43 42 40 43 36 44
REMARK SMILES IDX 37 45 38 46 39 47 65 48 66 49 74 50 67 51 73 52 75 53 72 54
REMARK SMILES IDX 68 55 69 56 70 57 71 58 50 59 51 60 59 61 52 62 58 63 60 64
REMARK SMILES IDX 57 65 53 66 54 67 55 68 56 69 5 70 6 71 7 72 8 73 9 74 10 75
REMARK SMILES IDX 13 76 11 77 12 78 14 79 15 80 16 81 17 82 18 83 23 84 19 85
REMARK SMILES IDX 22 86 20 87 21 88
REMARK H PARENT 80 22 48 33
REMARK Flexibility Score: inf
ROOT
ATOM      1  C   UNL A   1      37.844  21.273  25.250  1.00  0.00     0.275 C 
ENDROOT
BRANCH   1   2
ATOM      2  O   UNL A   1      38.923  21.678  26.095  1.00  0.00    -0.458 OA
BRANCH   2   3
ATOM      3  C   UNL A   1      39.935  20.802  26.139  1.00  0.00     0.338 C 
ATOM      4  O   UNL A   1      39.893  19.617  25.855  1.00  0.00    -0.246 OA
BRANCH   3   5
ATOM      5  C   UNL A   1      41.160  21.426  26.626  1.00  0.00     0.060 A 
ATOM      6  C   UNL A   1      41.384  21.499  27.997  1.00  0.00     0.016 A 
ATOM      7  C   UNL A   1      41.805  22.285  25.756  1.00  0.00     0.016 A 
ATOM      8  C   UNL A   1      42.057  22.608  28.512  1.00  0.00     0.010 A 
ATOM      9  C   UNL A   1      42.451  23.386  26.292  1.00  0.00     0.010 A 
ATOM     10  C   UNL A   1      42.407  23.672  27.675  1.00  0.00    -0.014 A 
BRANCH  10  11
ATOM     11  C   UNL A   1      42.695  25.071  28.197  1.00  0.00     0.031 A 
ATOM     12  C   UNL A   1      44.136  25.203  28.651  1.00  0.00     0.074 A 
ATOM     13  C   UNL A   1      41.780  26.099  28.208  1.00  0.00     0.049 A 
ATOM     14  N   UNL A   1      44.611  24.914  29.824  1.00  0.00    -0.248 NA
ATOM     15  C   UNL A   1      45.205  25.279  27.621  1.00  0.00     0.031 C 
ATOM     16  C   UNL A   1      40.491  26.115  27.486  1.00  0.00     0.029 A 
ATOM     17  N   UNL A   1      41.738  27.347  28.818  1.00  0.00    -0.354 N 
ATOM     18  C   UNL A   1      46.009  24.996  29.715  1.00  0.00     0.074 A 
ATOM     19  C   UNL A   1      46.292  24.904  28.309  1.00  0.00     0.031 C 
ATOM     20  C   UNL A   1      39.746  27.196  27.810  1.00  0.00     0.029 A 
ATOM     21  C   UNL A   1      40.475  28.019  28.751  1.00  0.00     0.049 A 
ATOM     22  H   UNL A   1      42.522  27.741  29.265  1.00  0.00     0.167 HD
ATOM     23  C   UNL A   1      46.798  25.606  30.653  1.00  0.00     0.034 A 
ATOM     24  C   UNL A   1      40.022  29.123  29.436  1.00  0.00     0.034 A 
ATOM     25  C   UNL A   1      45.966  26.533  31.374  1.00  0.00     0.049 A 
ATOM     26  C   UNL A   1      41.179  29.603  30.209  1.00  0.00     0.074 A 
ATOM     27  C   UNL A   1      44.903  26.378  32.222  1.00  0.00     0.029 A 
ATOM     28  N   UNL A   1      45.981  27.837  30.905  1.00  0.00    -0.354 N 
ATOM     29  N   UNL A   1      42.188  30.258  29.721  1.00  0.00    -0.248 NA
ATOM     30  C   UNL A   1      41.262  29.258  31.635  1.00  0.00     0.031 C 
ATOM     31  C   UNL A   1      44.056  27.449  31.880  1.00  0.00     0.029 A 
ATOM     32  C   UNL A   1      44.728  28.368  31.064  1.00  0.00     0.049 A 
ATOM     33  H   UNL A   1      46.760  28.304  30.525  1.00  0.00     0.167 HD
ATOM     34  C   UNL A   1      43.147  30.097  30.694  1.00  0.00     0.074 A 
ATOM     35  C   UNL A   1      42.447  29.792  31.924  1.00  0.00     0.031 C 
ATOM     36  C   UNL A   1      44.339  29.560  30.322  1.00  0.00     0.034 A 
BRANCH  23  37
ATOM     37  C   UNL A   1      48.278  25.843  30.780  1.00  0.00     0.023 A 
ATOM     38  C   UNL A   1      48.959  26.057  29.554  1.00  0.00     0.031 A 
ATOM     39  C   UNL A   1      49.082  25.721  31.917  1.00  0.00     0.131 A 
ATOM     40  C   UNL A   1      50.353  26.013  29.468  1.00  0.00     0.055 A 
ATOM     41  C   UNL A   1      50.482  25.713  31.836  1.00  0.00     0.041 A 
ATOM     42  F   UNL A   1      48.573  25.555  33.140  1.00  0.00    -0.206 F 
ATOM     43  C   UNL A   1      51.124  25.830  30.608  1.00  0.00     0.022 A 
BRANCH  40  44
ATOM     44  S   UNL A   1      51.117  26.084  27.826  1.00  0.00     0.124 S 
ATOM     45  O   UNL A   1      50.486  27.262  27.242  1.00  0.00    -0.237 OA
ATOM     46  O   UNL A   1      52.533  26.217  28.155  1.00  0.00    -0.237 OA
ATOM     47  O   UNL A   1      50.739  24.810  27.222  1.00  0.00    -0.744 OA
ENDBRANCH  40  44
ENDBRANCH  23  37
BRANCH  24  48
ATOM     48  C   UNL A   1      38.720  29.897  29.669  1.00  0.00     0.023 A 
ATOM     49  C   UNL A   1      38.402  31.188  29.209  1.00  0.00     0.031 A 
ATOM     50  C   UNL A   1      37.673  29.277  30.432  1.00  0.00     0.131 A 
ATOM     51  C   UNL A   1      37.110  31.746  29.464  1.00  0.00     0.055 A 
ATOM     52  C   UNL A   1      36.391  29.795  30.610  1.00  0.00     0.041 A 
ATOM     53  F   UNL A   1      37.836  28.116  31.075  1.00  0.00    -0.206 F 
ATOM     54  C   UNL A   1      36.098  31.037  30.115  1.00  0.00     0.022 A 
BRANCH  51  55
ATOM     55  S   UNL A   1      36.660  33.438  28.964  1.00  0.00     0.124 S 
ATOM     56  O   UNL A   1      37.966  34.084  28.877  1.00  0.00    -0.237 OA
ATOM     57  O   UNL A   1      35.956  33.239  27.703  1.00  0.00    -0.237 OA
ATOM     58  O   UNL A   1      35.819  33.893  30.071  1.00  0.00    -0.744 OA
ENDBRANCH  51  55
ENDBRANCH  24  48
BRANCH  36  59
ATOM     59  C   UNL A   1      44.801  30.000  28.940  1.00  0.00     0.023 A 
ATOM     60  C   UNL A   1      45.152  29.044  27.962  1.00  0.00     0.031 A 
ATOM     61  C   UNL A   1      45.034  31.338  28.602  1.00  0.00     0.131 A 
ATOM     62  C   UNL A   1      45.710  29.437  26.728  1.00  0.00     0.055 A 
ATOM     63  C   UNL A   1      45.556  31.739  27.363  1.00  0.00     0.041 A 
ATOM     64  F   UNL A   1      44.801  32.297  29.497  1.00  0.00    -0.206 F 
ATOM     65  C   UNL A   1      45.898  30.783  26.416  1.00  0.00     0.022 A 
BRANCH  62  66
ATOM     66  S   UNL A   1      46.182  28.168  25.515  1.00  0.00     0.124 S 
ATOM     67  O   UNL A   1      44.942  27.418  25.342  1.00  0.00    -0.237 OA
ATOM     68  O   UNL A   1      46.613  28.963  24.370  1.00  0.00    -0.237 OA
ATOM     69  O   UNL A   1      47.255  27.438  26.190  1.00  0.00    -0.744 OA
ENDBRANCH  62  66
ENDBRANCH  36  59
ENDBRANCH  10  11
ENDBRANCH   3   5
ENDBRANCH   2   3
ENDBRANCH   1   2
BRANCH   1  70
ATOM     70  C   UNL A   1      37.267  22.323  24.266  1.00  0.00     0.275 C 
BRANCH  70  71
ATOM     71  O   UNL A   1      36.401  23.315  24.849  1.00  0.00    -0.457 OA
BRANCH  71  72
ATOM     72  C   UNL A   1      35.248  23.599  24.146  1.00  0.00     0.355 C 
ATOM     73  O   UNL A   1      35.177  23.733  22.943  1.00  0.00    -0.244 OA
BRANCH  72  74
ATOM     74  C   UNL A   1      34.122  23.686  25.067  1.00  0.00     0.128 A 
ATOM     75  C   UNL A   1      33.506  24.836  25.541  1.00  0.00     0.035 A 
ATOM     76  N   UNL A   1      33.433  22.605  25.624  1.00  0.00    -0.333 N 
ATOM     77  C   UNL A   1      32.422  24.456  26.361  1.00  0.00     0.020 A 
ATOM     78  C   UNL A   1      32.397  23.081  26.391  1.00  0.00     0.087 A 
BRANCH  76  79
ATOM     79  C   UNL A   1      33.690  21.191  25.330  1.00  0.00     0.222 C 
BRANCH  79  80
ATOM     80  C   UNL A   1      32.901  20.522  24.197  1.00  0.00     0.242 C 
ATOM     81  O   UNL A   1      32.516  21.172  23.223  1.00  0.00    -0.273 OA
ATOM     82  N   UNL A   1      32.782  19.134  24.239  1.00  0.00    -0.339 N 
ATOM     83  C   UNL A   1      32.586  18.330  23.044  1.00  0.00     0.133 C 
ATOM     84  C   UNL A   1      32.451  18.432  25.452  1.00  0.00     0.133 C 
ATOM     85  C   UNL A   1      33.288  16.967  23.044  1.00  0.00     0.126 C 
ATOM     86  C   UNL A   1      33.525  17.456  25.827  1.00  0.00     0.126 C 
ATOM     87  S   UNL A   1      33.959  16.264  24.567  1.00  0.00     0.025 S 
ATOM     88  O   UNL A   1      33.253  14.982  24.884  1.00  0.00    -0.259 OA
ENDBRANCH  79  80
ENDBRANCH  76  79
ENDBRANCH  72  74
ENDBRANCH  71  72
ENDBRANCH  70  71
ENDBRANCH   1  70
TORSDOF 16
ENDMDL
