MODEL 1
REMARK VINA RESULT:     -11.5      0.000      0.000
REMARK SMILES COc1cc([C@@H]2[NH2+][C@H](C(=O)OCCOC(=O)c3ccc(-c4c5nc(c(-c6cc(S(=O)(=O)[O-])ccc6F)c6ccc([nH]6)c(-c6cc(S(=O)(=O)[O-])ccc6F)c6nc(c(-c7cc(S(=O)(=O)[O-])ccc7F)c7ccc4[nH]7)C=C6)C=C5)cc3)CS2)ccc1OCc1ccc(Cl)cc1
REMARK SMILES IDX 12 1 11 2 9 3 10 4 8 5 6 6 7 7 81 8 80 11 5 12 3 13 4 14
REMARK SMILES IDX 84 15 83 16 82 17 2 18 1 19 85 20 86 21 87 22 88 23 93 24
REMARK SMILES IDX 89 25 92 26 90 27 91 28 13 29 14 30 15 31 16 32 17 33 18 34
REMARK SMILES IDX 79 35 19 36 78 37 20 38 21 39 22 40 72 41 23 42 77 43 71 44
REMARK SMILES IDX 73 45 24 46 76 47 70 48 69 49 25 51 57 52 37 53 56 54 38 55
REMARK SMILES IDX 41 56 55 57 74 58 39 59 40 60 54 62 75 63 42 64 26 65 27 66
REMARK SMILES IDX 35 67 28 68 34 69 36 70 33 71 29 72 30 73 31 74 32 75 58 76
REMARK SMILES IDX 59 77 67 78 60 79 66 80 68 81 65 82 61 83 62 84 63 85 64 86
REMARK SMILES IDX 43 87 44 88 52 89 45 90 51 91 53 92 50 93 46 94 47 95 48 96
REMARK SMILES IDX 49 97
REMARK H PARENT 7 9 7 10 73 50 41 61
REMARK Flexibility Score: inf
ROOT
ATOM      1  C   UNL A   1      38.090  20.074  24.896  1.00  0.00     0.274 C 
ENDROOT
BRANCH   1   2
ATOM      2  O   UNL A   1      36.830  19.386  25.003  1.00  0.00    -0.458 OA
BRANCH   2   3
ATOM      3  C   UNL A   1      35.693  20.124  24.999  1.00  0.00     0.365 C 
ATOM      4  O   UNL A   1      35.646  21.317  24.717  1.00  0.00    -0.245 OA
BRANCH   3   5
ATOM      5  C   UNL A   1      34.435  19.324  25.379  1.00  0.00     0.304 C 
ATOM      6  C   UNL A   1      32.309  20.340  24.857  1.00  0.00     0.274 C 
ATOM      7  N   UNL A   1      33.313  20.148  25.899  1.00  0.00    -0.319 N 
ATOM      8  S   UNL A   1      32.278  18.837  23.862  1.00  0.00    -0.087 SA
ATOM      9  H   UNL A   1      32.886  19.675  26.695  1.00  0.00     0.348 HD
ATOM     10  H   UNL A   1      33.672  21.058  26.189  1.00  0.00     0.348 HD
ATOM     11  C   UNL A   1      34.002  18.427  24.220  1.00  0.00     0.153 C 
BRANCH   6  12
ATOM     12  C   UNL A   1      32.538  21.627  24.084  1.00  0.00     0.024 A 
ATOM     13  C   UNL A   1      33.272  23.969  24.098  1.00  0.00     0.161 A 
ATOM     14  C   UNL A   1      32.934  22.787  24.778  1.00  0.00     0.061 A 
ATOM     15  C   UNL A   1      33.296  23.977  22.700  1.00  0.00     0.161 A 
ATOM     16  C   UNL A   1      32.905  22.831  22.007  1.00  0.00     0.051 A 
ATOM     17  C   UNL A   1      32.491  21.688  22.685  1.00  0.00     0.015 A 
BRANCH  13  18
ATOM     18  O   UNL A   1      33.657  25.078  24.803  1.00  0.00    -0.493 OA
ATOM     19  C   UNL A   1      34.905  24.891  25.473  1.00  0.00     0.278 C 
ENDBRANCH  13  18
BRANCH  15  20
ATOM     20  O   UNL A   1      33.636  25.004  21.862  1.00  0.00    -0.485 OA
BRANCH  20  21
ATOM     21  C   UNL A   1      32.617  25.900  21.418  1.00  0.00     0.265 C 
BRANCH  21  22
ATOM     22  C   UNL A   1      32.260  27.026  22.373  1.00  0.00    -0.011 A 
ATOM     23  C   UNL A   1      30.976  27.169  22.924  1.00  0.00     0.009 A 
ATOM     24  C   UNL A   1      33.246  27.959  22.723  1.00  0.00     0.009 A 
ATOM     25  C   UNL A   1      30.712  28.150  23.881  1.00  0.00     0.021 A 
ATOM     26  C   UNL A   1      32.977  28.959  23.662  1.00  0.00     0.021 A 
ATOM     27  C   UNL A   1      31.718  29.035  24.251  1.00  0.00     0.041 A 
ATOM     28  Cl  UNL A   1      31.404  30.230  25.449  1.00  0.00    -0.084 Cl
ENDBRANCH  21  22
ENDBRANCH  20  21
ENDBRANCH  15  20
ENDBRANCH   6  12
ENDBRANCH   3   5
ENDBRANCH   2   3
ENDBRANCH   1   2
BRANCH   1  29
ATOM     29  C   UNL A   1      39.143  19.328  25.713  1.00  0.00     0.275 C 
BRANCH  29  30
ATOM     30  O   UNL A   1      40.285  20.177  25.913  1.00  0.00    -0.458 OA
BRANCH  30  31
ATOM     31  C   UNL A   1      40.628  20.378  27.208  1.00  0.00     0.338 C 
ATOM     32  O   UNL A   1      40.778  19.548  28.084  1.00  0.00    -0.246 OA
BRANCH  31  33
ATOM     33  C   UNL A   1      40.942  21.801  27.376  1.00  0.00     0.060 A 
ATOM     34  C   UNL A   1      40.349  22.715  26.504  1.00  0.00     0.016 A 
ATOM     35  C   UNL A   1      41.840  22.222  28.355  1.00  0.00     0.016 A 
ATOM     36  C   UNL A   1      40.650  24.070  26.603  1.00  0.00     0.010 A 
ATOM     37  C   UNL A   1      42.136  23.582  28.459  1.00  0.00     0.010 A 
ATOM     38  C   UNL A   1      41.548  24.511  27.580  1.00  0.00    -0.014 A 
BRANCH  38  39
ATOM     39  C   UNL A   1      41.914  25.943  27.663  1.00  0.00     0.031 A 
ATOM     40  C   UNL A   1      43.206  26.408  27.057  1.00  0.00     0.074 A 
ATOM     41  C   UNL A   1      41.100  26.806  28.300  1.00  0.00     0.049 A 
ATOM     42  N   UNL A   1      43.801  27.566  27.161  1.00  0.00    -0.248 NA
ATOM     43  C   UNL A   1      43.927  25.428  26.229  1.00  0.00     0.031 C 
ATOM     44  C   UNL A   1      39.798  26.466  28.876  1.00  0.00     0.029 A 
ATOM     45  N   UNL A   1      41.255  28.138  28.587  1.00  0.00    -0.354 N 
ATOM     46  C   UNL A   1      44.985  27.448  26.442  1.00  0.00     0.074 A 
ATOM     47  C   UNL A   1      45.024  26.101  25.914  1.00  0.00     0.031 C 
ATOM     48  C   UNL A   1      39.281  27.556  29.465  1.00  0.00     0.029 A 
ATOM     49  C   UNL A   1      40.242  28.651  29.364  1.00  0.00     0.049 A 
ATOM     50  H   UNL A   1      42.015  28.674  28.266  1.00  0.00     0.167 HD
ATOM     51  C   UNL A   1      45.946  28.384  26.250  1.00  0.00     0.034 A 
ATOM     52  C   UNL A   1      40.130  29.849  29.972  1.00  0.00     0.034 A 
ATOM     53  C   UNL A   1      45.873  29.722  26.785  1.00  0.00     0.049 A 
ATOM     54  C   UNL A   1      41.247  30.849  29.800  1.00  0.00     0.074 A 
ATOM     55  C   UNL A   1      46.773  30.762  26.634  1.00  0.00     0.029 A 
ATOM     56  N   UNL A   1      44.844  30.202  27.586  1.00  0.00    -0.354 N 
ATOM     57  N   UNL A   1      42.367  30.728  29.125  1.00  0.00    -0.248 NA
ATOM     58  C   UNL A   1      41.084  32.144  30.471  1.00  0.00     0.031 C 
ATOM     59  C   UNL A   1      46.323  31.845  27.398  1.00  0.00     0.029 A 
ATOM     60  C   UNL A   1      45.103  31.509  27.965  1.00  0.00     0.049 A 
ATOM     61  H   UNL A   1      44.045  29.688  27.845  1.00  0.00     0.167 HD
ATOM     62  C   UNL A   1      43.034  31.939  29.275  1.00  0.00     0.074 A 
ATOM     63  C   UNL A   1      42.179  32.783  30.087  1.00  0.00     0.031 C 
ATOM     64  C   UNL A   1      44.242  32.326  28.789  1.00  0.00     0.034 A 
BRANCH  51  65
ATOM     65  C   UNL A   1      47.183  27.966  25.492  1.00  0.00     0.023 A 
ATOM     66  C   UNL A   1      47.304  28.142  24.103  1.00  0.00     0.031 A 
ATOM     67  C   UNL A   1      48.253  27.359  26.175  1.00  0.00     0.131 A 
ATOM     68  C   UNL A   1      48.441  27.660  23.433  1.00  0.00     0.055 A 
ATOM     69  C   UNL A   1      49.411  26.948  25.515  1.00  0.00     0.041 A 
ATOM     70  F   UNL A   1      48.183  27.144  27.498  1.00  0.00    -0.206 F 
ATOM     71  C   UNL A   1      49.505  27.086  24.133  1.00  0.00     0.022 A 
BRANCH  68  72
ATOM     72  S   UNL A   1      48.458  27.681  21.620  1.00  0.00     0.124 S 
ATOM     73  O   UNL A   1      47.125  28.201  21.318  1.00  0.00    -0.237 OA
ATOM     74  O   UNL A   1      49.573  28.572  21.324  1.00  0.00    -0.237 OA
ATOM     75  O   UNL A   1      48.667  26.280  21.262  1.00  0.00    -0.744 OA
ENDBRANCH  68  72
ENDBRANCH  51  65
BRANCH  52  76
ATOM     76  C   UNL A   1      38.967  30.143  30.857  1.00  0.00     0.023 A 
ATOM     77  C   UNL A   1      37.939  31.004  30.447  1.00  0.00     0.031 A 
ATOM     78  C   UNL A   1      38.893  29.600  32.154  1.00  0.00     0.131 A 
ATOM     79  C   UNL A   1      36.903  31.331  31.337  1.00  0.00     0.055 A 
ATOM     80  C   UNL A   1      37.831  29.883  33.014  1.00  0.00     0.041 A 
ATOM     81  F   UNL A   1      39.851  28.772  32.600  1.00  0.00    -0.206 F 
ATOM     82  C   UNL A   1      36.836  30.765  32.613  1.00  0.00     0.022 A 
BRANCH  79  83
ATOM     83  S   UNL A   1      35.691  32.584  30.836  1.00  0.00     0.124 S 
ATOM     84  O   UNL A   1      36.322  33.813  31.304  1.00  0.00    -0.237 OA
ATOM     85  O   UNL A   1      35.645  32.398  29.390  1.00  0.00    -0.237 OA
ATOM     86  O   UNL A   1      34.480  32.191  31.552  1.00  0.00    -0.744 OA
ENDBRANCH  79  83
ENDBRANCH  52  76
BRANCH  64  87
ATOM     87  C   UNL A   1      44.679  33.735  29.098  1.00  0.00     0.023 A 
ATOM     88  C   UNL A   1      44.393  34.803  28.231  1.00  0.00     0.031 A 
ATOM     89  C   UNL A   1      45.408  34.008  30.269  1.00  0.00     0.131 A 
ATOM     90  C   UNL A   1      44.880  36.087  28.521  1.00  0.00     0.055 A 
ATOM     91  C   UNL A   1      45.838  35.297  30.583  1.00  0.00     0.041 A 
ATOM     92  F   UNL A   1      45.711  33.022  31.130  1.00  0.00    -0.206 F 
ATOM     93  C   UNL A   1      45.586  36.343  29.700  1.00  0.00     0.022 A 
BRANCH  90  94
ATOM     94  S   UNL A   1      44.656  37.402  27.293  1.00  0.00     0.124 S 
ATOM     95  O   UNL A   1      45.738  37.125  26.352  1.00  0.00    -0.237 OA
ATOM     96  O   UNL A   1      43.306  37.147  26.804  1.00  0.00    -0.237 OA
ATOM     97  O   UNL A   1      44.812  38.629  28.072  1.00  0.00    -0.744 OA
ENDBRANCH  90  94
ENDBRANCH  64  87
ENDBRANCH  38  39
ENDBRANCH  31  33
ENDBRANCH  30  31
ENDBRANCH  29  30
ENDBRANCH   1  29
TORSDOF 19
ENDMDL
MODEL 2
REMARK VINA RESULT:     -11.4      5.919     12.144
REMARK SMILES COc1cc([C@@H]2[NH2+][C@H](C(=O)OCCOC(=O)c3ccc(-c4c5nc(c(-c6cc(S(=O)(=O)[O-])ccc6F)c6ccc([nH]6)c(-c6cc(S(=O)(=O)[O-])ccc6F)c6nc(c(-c7cc(S(=O)(=O)[O-])ccc7F)c7ccc4[nH]7)C=C6)C=C5)cc3)CS2)ccc1OCc1ccc(Cl)cc1
REMARK SMILES IDX 12 1 11 2 9 3 10 4 8 5 6 6 7 7 81 8 80 11 5 12 3 13 4 14
REMARK SMILES IDX 84 15 83 16 82 17 2 18 1 19 85 20 86 21 87 22 88 23 93 24
REMARK SMILES IDX 89 25 92 26 90 27 91 28 13 29 14 30 15 31 16 32 17 33 18 34
REMARK SMILES IDX 79 35 19 36 78 37 20 38 21 39 22 40 72 41 23 42 77 43 71 44
REMARK SMILES IDX 73 45 24 46 76 47 70 48 69 49 25 51 57 52 37 53 56 54 38 55
REMARK SMILES IDX 41 56 55 57 74 58 39 59 40 60 54 62 75 63 42 64 26 65 27 66
REMARK SMILES IDX 35 67 28 68 34 69 36 70 33 71 29 72 30 73 31 74 32 75 58 76
REMARK SMILES IDX 59 77 67 78 60 79 66 80 68 81 65 82 61 83 62 84 63 85 64 86
REMARK SMILES IDX 43 87 44 88 52 89 45 90 51 91 53 92 50 93 46 94 47 95 48 96
REMARK SMILES IDX 49 97
REMARK H PARENT 7 9 7 10 73 50 41 61
REMARK Flexibility Score: inf
ROOT
ATOM      1  C   UNL A   1      33.795  33.628  28.378  1.00  0.00     0.274 C 
ENDROOT
BRANCH   1   2
ATOM      2  O   UNL A   1      33.119  34.356  29.420  1.00  0.00    -0.458 OA
BRANCH   2   3
ATOM      3  C   UNL A   1      33.269  35.702  29.463  1.00  0.00     0.365 C 
ATOM      4  O   UNL A   1      33.868  36.358  28.616  1.00  0.00    -0.245 OA
BRANCH   3   5
ATOM      5  C   UNL A   1      32.606  36.360  30.686  1.00  0.00     0.304 C 
ATOM      6  C   UNL A   1      33.314  35.574  32.855  1.00  0.00     0.274 C 
ATOM      7  N   UNL A   1      32.311  35.428  31.805  1.00  0.00    -0.319 N 
ATOM      8  S   UNL A   1      33.801  37.309  32.891  1.00  0.00    -0.087 SA
ATOM      9  H   UNL A   1      31.389  35.638  32.187  1.00  0.00     0.348 HD
ATOM     10  H   UNL A   1      32.329  34.469  31.455  1.00  0.00     0.348 HD
ATOM     11  C   UNL A   1      33.415  37.573  31.145  1.00  0.00     0.153 C 
BRANCH   6  12
ATOM     12  C   UNL A   1      34.452  34.582  32.688  1.00  0.00     0.024 A 
ATOM     13  C   UNL A   1      36.866  34.188  32.489  1.00  0.00     0.161 A 
ATOM     14  C   UNL A   1      35.767  35.062  32.529  1.00  0.00     0.061 A 
ATOM     15  C   UNL A   1      36.666  32.820  32.693  1.00  0.00     0.161 A 
ATOM     16  C   UNL A   1      35.366  32.338  32.851  1.00  0.00     0.051 A 
ATOM     17  C   UNL A   1      34.273  33.197  32.806  1.00  0.00     0.015 A 
BRANCH  13  18
ATOM     18  O   UNL A   1      38.133  34.687  32.338  1.00  0.00    -0.493 OA
ATOM     19  C   UNL A   1      38.609  34.566  30.996  1.00  0.00     0.278 C 
ENDBRANCH  13  18
BRANCH  15  20
ATOM     20  O   UNL A   1      37.602  31.821  32.733  1.00  0.00    -0.485 OA
BRANCH  20  21
ATOM     21  C   UNL A   1      37.999  31.297  34.001  1.00  0.00     0.265 C 
BRANCH  21  22
ATOM     22  C   UNL A   1      38.495  32.314  35.015  1.00  0.00    -0.011 A 
ATOM     23  C   UNL A   1      39.752  32.931  34.911  1.00  0.00     0.009 A 
ATOM     24  C   UNL A   1      37.668  32.658  36.094  1.00  0.00     0.009 A 
ATOM     25  C   UNL A   1      40.131  33.939  35.798  1.00  0.00     0.021 A 
ATOM     26  C   UNL A   1      38.056  33.649  36.999  1.00  0.00     0.021 A 
ATOM     27  C   UNL A   1      39.276  34.300  36.833  1.00  0.00     0.041 A 
ATOM     28  Cl  UNL A   1      39.728  35.560  37.913  1.00  0.00    -0.084 Cl
ENDBRANCH  21  22
ENDBRANCH  20  21
ENDBRANCH  15  20
ENDBRANCH   6  12
ENDBRANCH   3   5
ENDBRANCH   2   3
ENDBRANCH   1   2
BRANCH   1  29
ATOM     29  C   UNL A   1      35.037  32.954  28.958  1.00  0.00     0.275 C 
BRANCH  29  30
ATOM     30  O   UNL A   1      34.714  31.607  29.345  1.00  0.00    -0.458 OA
BRANCH  30  31
ATOM     31  C   UNL A   1      35.101  30.652  28.466  1.00  0.00     0.338 C 
ATOM     32  O   UNL A   1      34.551  30.309  27.437  1.00  0.00    -0.246 OA
BRANCH  31  33
ATOM     33  C   UNL A   1      36.418  30.161  28.885  1.00  0.00     0.060 A 
ATOM     34  C   UNL A   1      37.508  30.392  28.044  1.00  0.00     0.016 A 
ATOM     35  C   UNL A   1      36.569  29.449  30.073  1.00  0.00     0.016 A 
ATOM     36  C   UNL A   1      38.767  29.910  28.384  1.00  0.00     0.010 A 
ATOM     37  C   UNL A   1      37.834  28.972  30.418  1.00  0.00     0.010 A 
ATOM     38  C   UNL A   1      38.938  29.194  29.573  1.00  0.00    -0.014 A 
BRANCH  38  39
ATOM     39  C   UNL A   1      40.262  28.633  29.922  1.00  0.00     0.031 A 
ATOM     40  C   UNL A   1      41.106  29.327  30.951  1.00  0.00     0.074 A 
ATOM     41  C   UNL A   1      40.705  27.525  29.300  1.00  0.00     0.049 A 
ATOM     42  N   UNL A   1      42.352  29.115  31.281  1.00  0.00    -0.248 NA
ATOM     43  C   UNL A   1      40.457  30.415  31.700  1.00  0.00     0.031 C 
ATOM     44  C   UNL A   1      39.940  26.745  28.325  1.00  0.00     0.029 A 
ATOM     45  N   UNL A   1      41.909  26.874  29.378  1.00  0.00    -0.354 N 
ATOM     46  C   UNL A   1      42.652  30.063  32.253  1.00  0.00     0.074 A 
ATOM     47  C   UNL A   1      41.457  30.856  32.451  1.00  0.00     0.031 C 
ATOM     48  C   UNL A   1      40.702  25.732  27.881  1.00  0.00     0.029 A 
ATOM     49  C   UNL A   1      42.025  25.830  28.488  1.00  0.00     0.049 A 
ATOM     50  H   UNL A   1      42.620  27.128  30.009  1.00  0.00     0.167 HD
ATOM     51  C   UNL A   1      43.822  30.249  32.910  1.00  0.00     0.034 A 
ATOM     52  C   UNL A   1      43.094  25.077  28.163  1.00  0.00     0.034 A 
ATOM     53  C   UNL A   1      44.995  29.436  32.695  1.00  0.00     0.049 A 
ATOM     54  C   UNL A   1      44.405  25.349  28.859  1.00  0.00     0.074 A 
ATOM     55  C   UNL A   1      46.226  29.514  33.321  1.00  0.00     0.029 A 
ATOM     56  N   UNL A   1      45.084  28.401  31.772  1.00  0.00    -0.354 N 
ATOM     57  N   UNL A   1      44.683  26.253  29.771  1.00  0.00    -0.248 NA
ATOM     58  C   UNL A   1      45.543  24.503  28.482  1.00  0.00     0.031 C 
ATOM     59  C   UNL A   1      47.078  28.574  32.729  1.00  0.00     0.029 A 
ATOM     60  C   UNL A   1      46.359  27.856  31.787  1.00  0.00     0.049 A 
ATOM     61  H   UNL A   1      44.348  28.097  31.192  1.00  0.00     0.167 HD
ATOM     62  C   UNL A   1      46.025  26.069  30.090  1.00  0.00     0.074 A 
ATOM     63  C   UNL A   1      46.491  24.956  29.288  1.00  0.00     0.031 C 
ATOM     64  C   UNL A   1      46.805  26.755  30.966  1.00  0.00     0.034 A 
BRANCH  51  65
ATOM     65  C   UNL A   1      43.908  31.416  33.864  1.00  0.00     0.023 A 
ATOM     66  C   UNL A   1      43.657  31.277  35.240  1.00  0.00     0.031 A 
ATOM     67  C   UNL A   1      44.225  32.698  33.379  1.00  0.00     0.131 A 
ATOM     68  C   UNL A   1      43.668  32.410  36.071  1.00  0.00     0.055 A 
ATOM     69  C   UNL A   1      44.305  33.807  34.221  1.00  0.00     0.041 A 
ATOM     70  F   UNL A   1      44.450  32.895  32.070  1.00  0.00    -0.206 F 
ATOM     71  C   UNL A   1      44.013  33.669  35.575  1.00  0.00     0.022 A 
BRANCH  68  72
ATOM     72  S   UNL A   1      43.102  32.237  37.785  1.00  0.00     0.124 S 
ATOM     73  O   UNL A   1      44.327  31.807  38.459  1.00  0.00    -0.237 OA
ATOM     74  O   UNL A   1      42.637  33.582  38.103  1.00  0.00    -0.237 OA
ATOM     75  O   UNL A   1      42.057  31.219  37.702  1.00  0.00    -0.744 OA
ENDBRANCH  68  72
ENDBRANCH  51  65
BRANCH  52  76
ATOM     76  C   UNL A   1      42.998  24.054  27.082  1.00  0.00     0.023 A 
ATOM     77  C   UNL A   1      42.371  22.819  27.301  1.00  0.00     0.031 A 
ATOM     78  C   UNL A   1      43.580  24.282  25.820  1.00  0.00     0.131 A 
ATOM     79  C   UNL A   1      42.376  21.843  26.292  1.00  0.00     0.055 A 
ATOM     80  C   UNL A   1      43.532  23.330  24.801  1.00  0.00     0.041 A 
ATOM     81  F   UNL A   1      44.196  25.445  25.556  1.00  0.00    -0.206 F 
ATOM     82  C   UNL A   1      42.940  22.095  25.039  1.00  0.00     0.022 A 
BRANCH  79  83
ATOM     83  S   UNL A   1      41.714  20.197  26.673  1.00  0.00     0.124 S 
ATOM     84  O   UNL A   1      40.345  20.511  27.067  1.00  0.00    -0.237 OA
ATOM     85  O   UNL A   1      41.872  19.506  25.397  1.00  0.00    -0.237 OA
ATOM     86  O   UNL A   1      42.581  19.722  27.748  1.00  0.00    -0.744 OA
ENDBRANCH  79  83
ENDBRANCH  52  76
BRANCH  64  87
ATOM     87  C   UNL A   1      48.229  26.284  31.119  1.00  0.00     0.023 A 
ATOM     88  C   UNL A   1      49.242  26.698  30.237  1.00  0.00     0.031 A 
ATOM     89  C   UNL A   1      48.573  25.396  32.153  1.00  0.00     0.131 A 
ATOM     90  C   UNL A   1      50.539  26.180  30.372  1.00  0.00     0.055 A 
ATOM     91  C   UNL A   1      49.877  24.931  32.320  1.00  0.00     0.041 A 
ATOM     92  F   UNL A   1      47.642  24.967  33.022  1.00  0.00    -0.206 F 
ATOM     93  C   UNL A   1      50.866  25.313  31.418  1.00  0.00     0.022 A 
BRANCH  90  94
ATOM     94  S   UNL A   1      51.774  26.585  29.108  1.00  0.00     0.124 S 
ATOM     95  O   UNL A   1      51.472  27.986  28.827  1.00  0.00    -0.237 OA
ATOM     96  O   UNL A   1      53.031  26.332  29.806  1.00  0.00    -0.237 OA
ATOM     97  O   UNL A   1      51.471  25.656  28.021  1.00  0.00    -0.744 OA
ENDBRANCH  90  94
ENDBRANCH  64  87
ENDBRANCH  38  39
ENDBRANCH  31  33
ENDBRANCH  30  31
ENDBRANCH  29  30
ENDBRANCH   1  29
TORSDOF 19
ENDMDL
MODEL 3
REMARK VINA RESULT:     -11.3      1.549      2.094
REMARK SMILES COc1cc([C@@H]2[NH2+][C@H](C(=O)OCCOC(=O)c3ccc(-c4c5nc(c(-c6cc(S(=O)(=O)[O-])ccc6F)c6ccc([nH]6)c(-c6cc(S(=O)(=O)[O-])ccc6F)c6nc(c(-c7cc(S(=O)(=O)[O-])ccc7F)c7ccc4[nH]7)C=C6)C=C5)cc3)CS2)ccc1OCc1ccc(Cl)cc1
REMARK SMILES IDX 12 1 11 2 9 3 10 4 8 5 6 6 7 7 81 8 80 11 5 12 3 13 4 14
REMARK SMILES IDX 84 15 83 16 82 17 2 18 1 19 85 20 86 21 87 22 88 23 93 24
REMARK SMILES IDX 89 25 92 26 90 27 91 28 13 29 14 30 15 31 16 32 17 33 18 34
REMARK SMILES IDX 79 35 19 36 78 37 20 38 21 39 22 40 72 41 23 42 77 43 71 44
REMARK SMILES IDX 73 45 24 46 76 47 70 48 69 49 25 51 57 52 37 53 56 54 38 55
REMARK SMILES IDX 41 56 55 57 74 58 39 59 40 60 54 62 75 63 42 64 26 65 27 66
REMARK SMILES IDX 35 67 28 68 34 69 36 70 33 71 29 72 30 73 31 74 32 75 58 76
REMARK SMILES IDX 59 77 67 78 60 79 66 80 68 81 65 82 61 83 62 84 63 85 64 86
REMARK SMILES IDX 43 87 44 88 52 89 45 90 51 91 53 92 50 93 46 94 47 95 48 96
REMARK SMILES IDX 49 97
REMARK H PARENT 7 9 7 10 73 50 41 61
REMARK Flexibility Score: inf
ROOT
ATOM      1  C   UNL A   1      38.017  20.074  25.010  1.00  0.00     0.274 C 
ENDROOT
BRANCH   1   2
ATOM      2  O   UNL A   1      36.960  19.235  24.507  1.00  0.00    -0.458 OA
BRANCH   2   3
ATOM      3  C   UNL A   1      35.702  19.442  24.968  1.00  0.00     0.365 C 
ATOM      4  O   UNL A   1      35.245  20.544  25.258  1.00  0.00    -0.245 OA
BRANCH   3   5
ATOM      5  C   UNL A   1      34.869  18.155  25.094  1.00  0.00     0.304 C 
ATOM      6  C   UNL A   1      32.508  18.343  24.632  1.00  0.00     0.274 C 
ATOM      7  N   UNL A   1      33.519  18.347  25.685  1.00  0.00    -0.319 N 
ATOM      8  S   UNL A   1      33.062  17.190  23.363  1.00  0.00    -0.087 SA
ATOM      9  H   UNL A   1      33.326  17.591  26.342  1.00  0.00     0.348 HD
ATOM     10  H   UNL A   1      33.492  19.244  26.172  1.00  0.00     0.348 HD
ATOM     11  C   UNL A   1      34.812  17.422  23.754  1.00  0.00     0.153 C 
BRANCH   6  12
ATOM     12  C   UNL A   1      32.197  19.747  24.145  1.00  0.00     0.024 A 
ATOM     13  C   UNL A   1      31.766  22.101  24.692  1.00  0.00     0.161 A 
ATOM     14  C   UNL A   1      31.941  20.764  25.086  1.00  0.00     0.061 A 
ATOM     15  C   UNL A   1      31.927  22.450  23.348  1.00  0.00     0.161 A 
ATOM     16  C   UNL A   1      32.179  21.447  22.411  1.00  0.00     0.051 A 
ATOM     17  C   UNL A   1      32.270  20.113  22.794  1.00  0.00     0.015 A 
BRANCH  13  18
ATOM     18  O   UNL A   1      31.523  23.066  25.633  1.00  0.00    -0.493 OA
ATOM     19  C   UNL A   1      30.441  22.722  26.500  1.00  0.00     0.278 C 
ENDBRANCH  13  18
BRANCH  15  20
ATOM     20  O   UNL A   1      31.840  23.691  22.776  1.00  0.00    -0.485 OA
BRANCH  20  21
ATOM     21  C   UNL A   1      33.042  24.409  22.499  1.00  0.00     0.265 C 
BRANCH  21  22
ATOM     22  C   UNL A   1      34.174  24.218  23.494  1.00  0.00    -0.011 A 
ATOM     23  C   UNL A   1      35.283  23.398  23.228  1.00  0.00     0.009 A 
ATOM     24  C   UNL A   1      34.119  24.888  24.725  1.00  0.00     0.009 A 
ATOM     25  C   UNL A   1      36.355  23.331  24.118  1.00  0.00     0.021 A 
ATOM     26  C   UNL A   1      35.180  24.801  25.630  1.00  0.00     0.021 A 
ATOM     27  C   UNL A   1      36.302  24.041  25.312  1.00  0.00     0.041 A 
ATOM     28  Cl  UNL A   1      37.633  23.981  26.400  1.00  0.00    -0.084 Cl
ENDBRANCH  21  22
ENDBRANCH  20  21
ENDBRANCH  15  20
ENDBRANCH   6  12
ENDBRANCH   3   5
ENDBRANCH   2   3
ENDBRANCH   1   2
BRANCH   1  29
ATOM     29  C   UNL A   1      39.029  19.212  25.762  1.00  0.00     0.275 C 
BRANCH  29  30
ATOM     30  O   UNL A   1      40.283  19.909  25.845  1.00  0.00    -0.458 OA
BRANCH  30  31
ATOM     31  C   UNL A   1      40.751  20.096  27.103  1.00  0.00     0.338 C 
ATOM     32  O   UNL A   1      41.020  19.254  27.938  1.00  0.00    -0.246 OA
BRANCH  31  33
ATOM     33  C   UNL A   1      41.032  21.525  27.271  1.00  0.00     0.060 A 
ATOM     34  C   UNL A   1      40.628  22.401  26.262  1.00  0.00     0.016 A 
ATOM     35  C   UNL A   1      41.719  21.990  28.391  1.00  0.00     0.016 A 
ATOM     36  C   UNL A   1      40.909  23.760  26.363  1.00  0.00     0.010 A 
ATOM     37  C   UNL A   1      41.994  23.354  28.496  1.00  0.00     0.010 A 
ATOM     38  C   UNL A   1      41.597  24.244  27.481  1.00  0.00    -0.014 A 
BRANCH  38  39
ATOM     39  C   UNL A   1      41.945  25.680  27.577  1.00  0.00     0.031 A 
ATOM     40  C   UNL A   1      43.246  26.160  27.004  1.00  0.00     0.074 A 
ATOM     41  C   UNL A   1      41.106  26.532  28.195  1.00  0.00     0.049 A 
ATOM     42  N   UNL A   1      43.826  27.324  27.126  1.00  0.00    -0.248 NA
ATOM     43  C   UNL A   1      43.999  25.190  26.192  1.00  0.00     0.031 C 
ATOM     44  C   UNL A   1      39.794  26.177  28.738  1.00  0.00     0.029 A 
ATOM     45  N   UNL A   1      41.239  27.865  28.488  1.00  0.00    -0.354 N 
ATOM     46  C   UNL A   1      45.029  27.221  26.436  1.00  0.00     0.074 A 
ATOM     47  C   UNL A   1      45.096  25.876  25.906  1.00  0.00     0.031 C 
ATOM     48  C   UNL A   1      39.251  27.260  29.316  1.00  0.00     0.029 A 
ATOM     49  C   UNL A   1      40.201  28.365  29.242  1.00  0.00     0.049 A 
ATOM     50  H   UNL A   1      42.001  28.410  28.188  1.00  0.00     0.167 HD
ATOM     51  C   UNL A   1      45.985  28.167  26.271  1.00  0.00     0.034 A 
ATOM     52  C   UNL A   1      40.062  29.560  29.849  1.00  0.00     0.034 A 
ATOM     53  C   UNL A   1      45.884  29.503  26.807  1.00  0.00     0.049 A 
ATOM     54  C   UNL A   1      41.172  30.573  29.707  1.00  0.00     0.074 A 
ATOM     55  C   UNL A   1      46.776  30.554  26.681  1.00  0.00     0.029 A 
ATOM     56  N   UNL A   1      44.830  29.970  27.583  1.00  0.00    -0.354 N 
ATOM     57  N   UNL A   1      42.310  30.465  29.061  1.00  0.00    -0.248 NA
ATOM     58  C   UNL A   1      40.978  31.864  30.378  1.00  0.00     0.031 C 
ATOM     59  C   UNL A   1      46.295  31.629  27.437  1.00  0.00     0.029 A 
ATOM     60  C   UNL A   1      45.065  31.279  27.972  1.00  0.00     0.049 A 
ATOM     61  H   UNL A   1      44.030  29.447  27.821  1.00  0.00     0.167 HD
ATOM     62  C   UNL A   1      42.959  31.683  29.231  1.00  0.00     0.074 A 
ATOM     63  C   UNL A   1      42.076  32.516  30.023  1.00  0.00     0.031 C 
ATOM     64  C   UNL A   1      44.175  32.084  28.775  1.00  0.00     0.034 A 
BRANCH  51  65
ATOM     65  C   UNL A   1      47.244  27.766  25.544  1.00  0.00     0.023 A 
ATOM     66  C   UNL A   1      47.388  27.921  24.154  1.00  0.00     0.031 A 
ATOM     67  C   UNL A   1      48.314  27.194  26.256  1.00  0.00     0.131 A 
ATOM     68  C   UNL A   1      48.548  27.453  23.514  1.00  0.00     0.055 A 
ATOM     69  C   UNL A   1      49.494  26.798  25.625  1.00  0.00     0.041 A 
ATOM     70  F   UNL A   1      48.224  26.999  27.581  1.00  0.00    -0.206 F 
ATOM     71  C   UNL A   1      49.611  26.915  24.243  1.00  0.00     0.022 A 
BRANCH  68  72
ATOM     72  S   UNL A   1      48.598  27.445  21.701  1.00  0.00     0.124 S 
ATOM     73  O   UNL A   1      49.800  28.233  21.435  1.00  0.00    -0.237 OA
ATOM     74  O   UNL A   1      48.687  26.022  21.394  1.00  0.00    -0.237 OA
ATOM     75  O   UNL A   1      47.343  28.089  21.319  1.00  0.00    -0.744 OA
ENDBRANCH  68  72
ENDBRANCH  51  65
BRANCH  52  76
ATOM     76  C   UNL A   1      38.873  29.839  30.706  1.00  0.00     0.023 A 
ATOM     77  C   UNL A   1      37.864  30.717  30.287  1.00  0.00     0.031 A 
ATOM     78  C   UNL A   1      38.756  29.263  31.985  1.00  0.00     0.131 A 
ATOM     79  C   UNL A   1      36.803  31.029  31.153  1.00  0.00     0.055 A 
ATOM     80  C   UNL A   1      37.670  29.532  32.820  1.00  0.00     0.041 A 
ATOM     81  F   UNL A   1      39.695  28.417  32.438  1.00  0.00    -0.206 F 
ATOM     82  C   UNL A   1      36.693  30.431  32.411  1.00  0.00     0.022 A 
BRANCH  79  83
ATOM     83  S   UNL A   1      35.615  32.303  30.647  1.00  0.00     0.124 S 
ATOM     84  O   UNL A   1      34.488  32.027  31.532  1.00  0.00    -0.237 OA
ATOM     85  O   UNL A   1      36.356  33.530  30.917  1.00  0.00    -0.237 OA
ATOM     86  O   UNL A   1      35.386  32.012  29.234  1.00  0.00    -0.744 OA
ENDBRANCH  79  83
ENDBRANCH  52  76
BRANCH  64  87
ATOM     87  C   UNL A   1      44.589  33.498  29.099  1.00  0.00     0.023 A 
ATOM     88  C   UNL A   1      44.104  34.594  28.367  1.00  0.00     0.031 A 
ATOM     89  C   UNL A   1      45.496  33.746  30.144  1.00  0.00     0.131 A 
ATOM     90  C   UNL A   1      44.570  35.886  28.655  1.00  0.00     0.055 A 
ATOM     91  C   UNL A   1      45.910  35.038  30.466  1.00  0.00     0.041 A 
ATOM     92  F   UNL A   1      45.993  32.733  30.873  1.00  0.00    -0.206 F 
ATOM     93  C   UNL A   1      45.456  36.117  29.711  1.00  0.00     0.022 A 
BRANCH  90  94
ATOM     94  S   UNL A   1      44.071  37.253  27.573  1.00  0.00     0.124 S 
ATOM     95  O   UNL A   1      43.150  36.591  26.654  1.00  0.00    -0.237 OA
ATOM     96  O   UNL A   1      43.468  38.192  28.514  1.00  0.00    -0.237 OA
ATOM     97  O   UNL A   1      45.330  37.697  26.977  1.00  0.00    -0.744 OA
ENDBRANCH  90  94
ENDBRANCH  64  87
ENDBRANCH  38  39
ENDBRANCH  31  33
ENDBRANCH  30  31
ENDBRANCH  29  30
ENDBRANCH   1  29
TORSDOF 19
ENDMDL
