MODEL 1
REMARK VINA RESULT:     -12.8      0.000      0.000
REMARK SMILES Cc1cc(C)n(C)c(=O)c1C(=O)[NH+]1CCC2(CC1)C[NH2+][C@@H](C(=O)OCCOC(=O)c1ccc(-c3c4nc(c(-c5cc(S(=O)(=O)[O-])ccc5F)c5ccc([nH]5)c(-c5cc(S(=O)(=O)[O-])ccc5F)c5nc(c(-c6cc(S(=O)(=O)[O-])ccc6F)c6ccc3[nH]6)C=C5)C=C4)cc1)C2
REMARK SMILES IDX 26 1 25 2 24 3 22 4 23 5 21 6 13 7 14 8 18 9 15 11 17 12
REMARK SMILES IDX 16 13 19 14 93 15 20 16 11 19 12 20 10 21 1 22 2 23 3 24
REMARK SMILES IDX 4 25 8 26 5 27 6 28 9 29 7 30 27 31 28 32 29 33 30 34 31 35
REMARK SMILES IDX 92 36 32 37 91 38 33 39 34 40 35 41 85 42 36 43 90 44 84 45
REMARK SMILES IDX 86 46 37 47 89 48 83 49 82 50 38 52 70 53 50 54 69 55 51 56
REMARK SMILES IDX 54 57 68 58 87 59 52 60 53 61 67 63 88 64 55 65 39 66 40 67
REMARK SMILES IDX 48 68 41 69 47 70 49 71 46 72 42 73 43 74 44 75 45 76 71 77
REMARK SMILES IDX 72 78 80 79 73 80 79 81 81 82 78 83 74 84 75 85 76 86 77 87
REMARK SMILES IDX 56 88 57 89 65 90 58 91 64 92 66 93 63 94 59 95 60 96 61 97
REMARK SMILES IDX 62 98
REMARK H PARENT 13 10 20 17 20 18 86 51 54 62
REMARK Flexibility Score: inf
ROOT
ATOM      1  C   UNL A   1      43.705  21.668  25.221  1.00  0.00     0.275 C 
ENDROOT
BRANCH   1   2
ATOM      2  C   UNL A   1      42.726  20.843  26.059  1.00  0.00     0.274 C 
BRANCH   2   3
ATOM      3  O   UNL A   1      41.391  20.997  25.548  1.00  0.00    -0.458 OA
BRANCH   3   4
ATOM      4  C   UNL A   1      40.430  21.283  26.464  1.00  0.00     0.364 C 
ATOM      5  O   UNL A   1      40.379  20.807  27.594  1.00  0.00    -0.245 OA
BRANCH   4   6
ATOM      6  C   UNL A   1      39.388  22.271  25.950  1.00  0.00     0.294 C 
ATOM      7  N   UNL A   1      34.398  22.567  24.319  1.00  0.00    -0.267 N 
ATOM      8  C   UNL A   1      35.557  22.647  23.439  1.00  0.00     0.271 C 
ATOM      9  C   UNL A   1      34.628  21.777  25.520  1.00  0.00     0.271 C 
ATOM     10  H   UNL A   1      33.685  23.242  24.400  1.00  0.00     0.357 HD
ATOM     11  C   UNL A   1      36.635  23.449  24.156  1.00  0.00     0.075 C 
ATOM     12  C   UNL A   1      35.854  22.249  26.320  1.00  0.00     0.075 C 
ATOM     13  C   UNL A   1      37.055  22.816  25.501  1.00  0.00     0.036 C 
ATOM     14  C   UNL A   1      37.811  23.878  26.341  1.00  0.00     0.268 C 
ATOM     15  C   UNL A   1      38.129  21.717  25.283  1.00  0.00     0.090 C 
ATOM     16  N   UNL A   1      38.855  23.123  27.033  1.00  0.00    -0.334 N 
ATOM     17  H   UNL A   1      38.464  22.560  27.788  1.00  0.00     0.347 HD
ATOM     18  H   UNL A   1      39.560  23.708  27.479  1.00  0.00     0.347 HD
BRANCH   7  19
ATOM     19  C   UNL A   1      33.219  23.169  23.895  1.00  0.00     0.350 C 
ATOM     20  O   UNL A   1      32.342  22.515  23.322  1.00  0.00    -0.225 OA
BRANCH  19  21
ATOM     21  C   UNL A   1      33.010  24.652  23.973  1.00  0.00     0.147 A 
ATOM     22  C   UNL A   1      33.053  25.031  21.445  1.00  0.00     0.045 C 
ATOM     23  C   UNL A   1      32.869  25.430  22.877  1.00  0.00    -0.027 A 
ATOM     24  C   UNL A   1      32.336  26.774  22.994  1.00  0.00     0.026 A 
ATOM     25  C   UNL A   1      31.740  27.200  24.116  1.00  0.00     0.018 A 
ATOM     26  C   UNL A   1      32.558  25.223  25.297  1.00  0.00     0.267 A 
ATOM     27  C   UNL A   1      31.034  28.529  24.100  1.00  0.00     0.064 C 
ATOM     28  N   UNL A   1      31.798  26.408  25.256  1.00  0.00    -0.315 N 
ATOM     29  O   UNL A   1      32.856  24.668  26.356  1.00  0.00    -0.268 OA
ATOM     30  C   UNL A   1      31.100  26.800  26.474  1.00  0.00     0.153 C 
ENDBRANCH  19  21
ENDBRANCH   7  19
ENDBRANCH   4   6
ENDBRANCH   3   4
ENDBRANCH   2   3
ENDBRANCH   1   2
BRANCH   1  31
ATOM     31  O   UNL A   1      43.107  22.900  24.774  1.00  0.00    -0.458 OA
BRANCH  31  32
ATOM     32  C   UNL A   1      43.849  24.012  24.997  1.00  0.00     0.338 C 
ATOM     33  O   UNL A   1      44.862  24.352  24.411  1.00  0.00    -0.246 OA
BRANCH  32  34
ATOM     34  C   UNL A   1      43.185  24.859  25.999  1.00  0.00     0.060 A 
ATOM     35  C   UNL A   1      43.560  26.200  26.079  1.00  0.00     0.016 A 
ATOM     36  C   UNL A   1      42.289  24.319  26.921  1.00  0.00     0.016 A 
ATOM     37  C   UNL A   1      43.062  27.009  27.094  1.00  0.00     0.010 A 
ATOM     38  C   UNL A   1      41.769  25.139  27.929  1.00  0.00     0.010 A 
ATOM     39  C   UNL A   1      42.164  26.485  28.030  1.00  0.00    -0.014 A 
BRANCH  39  40
ATOM     40  C   UNL A   1      41.693  27.345  29.142  1.00  0.00     0.031 A 
ATOM     41  C   UNL A   1      42.475  27.404  30.423  1.00  0.00     0.074 A 
ATOM     42  C   UNL A   1      40.609  28.125  28.975  1.00  0.00     0.049 A 
ATOM     43  N   UNL A   1      42.196  28.035  31.534  1.00  0.00    -0.248 NA
ATOM     44  C   UNL A   1      43.742  26.658  30.453  1.00  0.00     0.031 C 
ATOM     45  C   UNL A   1      39.823  28.224  27.743  1.00  0.00     0.029 A 
ATOM     46  N   UNL A   1      39.995  29.002  29.833  1.00  0.00    -0.354 N 
ATOM     47  C   UNL A   1      43.247  27.760  32.401  1.00  0.00     0.074 A 
ATOM     48  C   UNL A   1      44.153  26.876  31.694  1.00  0.00     0.031 C 
ATOM     49  C   UNL A   1      38.856  29.139  27.913  1.00  0.00     0.029 A 
ATOM     50  C   UNL A   1      38.910  29.641  29.283  1.00  0.00     0.049 A 
ATOM     51  H   UNL A   1      40.303  29.158  30.754  1.00  0.00     0.167 HD
ATOM     52  C   UNL A   1      43.441  28.209  33.666  1.00  0.00     0.034 A 
ATOM     53  C   UNL A   1      38.043  30.516  29.828  1.00  0.00     0.034 A 
ATOM     54  C   UNL A   1      42.530  29.087  34.355  1.00  0.00     0.049 A 
ATOM     55  C   UNL A   1      38.204  30.898  31.274  1.00  0.00     0.074 A 
ATOM     56  C   UNL A   1      42.611  29.572  35.649  1.00  0.00     0.029 A 
ATOM     57  N   UNL A   1      41.371  29.619  33.805  1.00  0.00    -0.354 N 
ATOM     58  N   UNL A   1      39.145  30.547  32.118  1.00  0.00    -0.248 NA
ATOM     59  C   UNL A   1      37.173  31.773  31.848  1.00  0.00     0.031 C 
ATOM     60  C   UNL A   1      41.475  30.351  35.898  1.00  0.00     0.029 A 
ATOM     61  C   UNL A   1      40.716  30.404  34.740  1.00  0.00     0.049 A 
ATOM     62  H   UNL A   1      41.060  29.461  32.885  1.00  0.00     0.167 HD
ATOM     63  C   UNL A   1      38.827  31.169  33.321  1.00  0.00     0.074 A 
ATOM     64  C   UNL A   1      37.609  31.920  33.093  1.00  0.00     0.031 C 
ATOM     65  C   UNL A   1      39.487  31.125  34.505  1.00  0.00     0.034 A 
BRANCH  52  66
ATOM     66  C   UNL A   1      44.664  27.711  34.392  1.00  0.00     0.023 A 
ATOM     67  C   UNL A   1      44.677  26.465  35.042  1.00  0.00     0.031 A 
ATOM     68  C   UNL A   1      45.822  28.505  34.459  1.00  0.00     0.131 A 
ATOM     69  C   UNL A   1      45.803  26.078  35.783  1.00  0.00     0.055 A 
ATOM     70  C   UNL A   1      46.964  28.083  35.141  1.00  0.00     0.041 A 
ATOM     71  F   UNL A   1      45.856  29.713  33.874  1.00  0.00    -0.206 F 
ATOM     72  C   UNL A   1      46.954  26.868  35.819  1.00  0.00     0.022 A 
BRANCH  69  73
ATOM     73  S   UNL A   1      45.699  24.581  36.799  1.00  0.00     0.124 S 
ATOM     74  O   UNL A   1      44.266  24.299  36.754  1.00  0.00    -0.237 OA
ATOM     75  O   UNL A   1      46.559  23.650  36.078  1.00  0.00    -0.237 OA
ATOM     76  O   UNL A   1      46.204  25.015  38.100  1.00  0.00    -0.744 OA
ENDBRANCH  69  73
ENDBRANCH  52  66
BRANCH  53  77
ATOM     77  C   UNL A   1      36.923  31.056  29.012  1.00  0.00     0.023 A 
ATOM     78  C   UNL A   1      35.914  30.209  28.527  1.00  0.00     0.031 A 
ATOM     79  C   UNL A   1      36.836  32.429  28.722  1.00  0.00     0.131 A 
ATOM     80  C   UNL A   1      34.861  30.746  27.768  1.00  0.00     0.055 A 
ATOM     81  C   UNL A   1      35.770  32.962  27.996  1.00  0.00     0.041 A 
ATOM     82  F   UNL A   1      37.774  33.277  29.170  1.00  0.00    -0.206 F 
ATOM     83  C   UNL A   1      34.776  32.117  27.513  1.00  0.00     0.022 A 
BRANCH  80  84
ATOM     84  S   UNL A   1      33.598  29.621  27.113  1.00  0.00     0.124 S 
ATOM     85  O   UNL A   1      32.441  30.503  27.013  1.00  0.00    -0.237 OA
ATOM     86  O   UNL A   1      34.192  29.193  25.851  1.00  0.00    -0.237 OA
ATOM     87  O   UNL A   1      33.505  28.582  28.137  1.00  0.00    -0.744 OA
ENDBRANCH  80  84
ENDBRANCH  53  77
BRANCH  65  88
ATOM     88  C   UNL A   1      38.915  31.928  35.642  1.00  0.00     0.023 A 
ATOM     89  C   UNL A   1      38.230  31.311  36.701  1.00  0.00     0.031 A 
ATOM     90  C   UNL A   1      39.090  33.322  35.681  1.00  0.00     0.131 A 
ATOM     91  C   UNL A   1      37.718  32.093  37.748  1.00  0.00     0.055 A 
ATOM     92  C   UNL A   1      38.616  34.090  36.745  1.00  0.00     0.041 A 
ATOM     93  F   UNL A   1      39.739  33.957  34.692  1.00  0.00    -0.206 F 
ATOM     94  C   UNL A   1      37.921  33.476  37.784  1.00  0.00     0.022 A 
BRANCH  91  95
ATOM     95  S   UNL A   1      36.752  31.284  39.053  1.00  0.00     0.124 S 
ATOM     96  O   UNL A   1      36.494  29.973  38.466  1.00  0.00    -0.237 OA
ATOM     97  O   UNL A   1      37.671  31.305  40.186  1.00  0.00    -0.237 OA
ATOM     98  O   UNL A   1      35.578  32.143  39.193  1.00  0.00    -0.744 OA
ENDBRANCH  91  95
ENDBRANCH  65  88
ENDBRANCH  39  40
ENDBRANCH  32  34
ENDBRANCH  31  32
ENDBRANCH   1  31
TORSDOF 16
ENDMDL
MODEL 2
REMARK VINA RESULT:     -12.5      4.807      9.231
REMARK SMILES Cc1cc(C)n(C)c(=O)c1C(=O)[NH+]1CCC2(CC1)C[NH2+][C@@H](C(=O)OCCOC(=O)c1ccc(-c3c4nc(c(-c5cc(S(=O)(=O)[O-])ccc5F)c5ccc([nH]5)c(-c5cc(S(=O)(=O)[O-])ccc5F)c5nc(c(-c6cc(S(=O)(=O)[O-])ccc6F)c6ccc3[nH]6)C=C5)C=C4)cc1)C2
REMARK SMILES IDX 26 1 25 2 24 3 22 4 23 5 21 6 13 7 14 8 18 9 15 11 17 12
REMARK SMILES IDX 16 13 19 14 93 15 20 16 11 19 12 20 10 21 1 22 2 23 3 24
REMARK SMILES IDX 4 25 8 26 5 27 6 28 9 29 7 30 27 31 28 32 29 33 30 34 31 35
REMARK SMILES IDX 92 36 32 37 91 38 33 39 34 40 35 41 85 42 36 43 90 44 84 45
REMARK SMILES IDX 86 46 37 47 89 48 83 49 82 50 38 52 70 53 50 54 69 55 51 56
REMARK SMILES IDX 54 57 68 58 87 59 52 60 53 61 67 63 88 64 55 65 39 66 40 67
REMARK SMILES IDX 48 68 41 69 47 70 49 71 46 72 42 73 43 74 44 75 45 76 71 77
REMARK SMILES IDX 72 78 80 79 73 80 79 81 81 82 78 83 74 84 75 85 76 86 77 87
REMARK SMILES IDX 56 88 57 89 65 90 58 91 64 92 66 93 63 94 59 95 60 96 61 97
REMARK SMILES IDX 62 98
REMARK H PARENT 13 10 20 17 20 18 86 51 54 62
REMARK Flexibility Score: inf
ROOT
ATOM      1  C   UNL A   1      36.740  20.221  24.823  1.00  0.00     0.275 C 
ENDROOT
BRANCH   1   2
ATOM      2  C   UNL A   1      35.376  20.436  25.483  1.00  0.00     0.274 C 
BRANCH   2   3
ATOM      3  O   UNL A   1      34.363  19.715  24.763  1.00  0.00    -0.458 OA
BRANCH   3   4
ATOM      4  C   UNL A   1      33.077  20.011  25.083  1.00  0.00     0.364 C 
ATOM      5  O   UNL A   1      32.171  19.187  25.170  1.00  0.00    -0.245 OA
BRANCH   4   6
ATOM      6  C   UNL A   1      32.847  21.499  25.325  1.00  0.00     0.294 C 
ATOM      7  N   UNL A   1      33.240  26.196  22.996  1.00  0.00    -0.267 N 
ATOM      8  C   UNL A   1      34.147  25.712  24.029  1.00  0.00     0.271 C 
ATOM      9  C   UNL A   1      32.647  25.136  22.192  1.00  0.00     0.271 C 
ATOM     10  H   UNL A   1      32.714  27.029  23.029  1.00  0.00     0.357 HD
ATOM     11  C   UNL A   1      33.322  24.947  25.055  1.00  0.00     0.075 C 
ATOM     12  C   UNL A   1      31.941  24.066  23.042  1.00  0.00     0.075 C 
ATOM     13  C   UNL A   1      32.562  23.751  24.439  1.00  0.00     0.036 C 
ATOM     14  C   UNL A   1      31.449  23.304  25.421  1.00  0.00     0.268 C 
ATOM     15  C   UNL A   1      33.475  22.499  24.355  1.00  0.00     0.090 C 
ATOM     16  N   UNL A   1      31.412  21.848  25.294  1.00  0.00    -0.334 N 
ATOM     17  H   UNL A   1      30.981  21.565  24.415  1.00  0.00     0.347 HD
ATOM     18  H   UNL A   1      30.861  21.386  26.017  1.00  0.00     0.347 HD
BRANCH   7  19
ATOM     19  C   UNL A   1      33.101  27.571  22.846  1.00  0.00     0.350 C 
ATOM     20  O   UNL A   1      34.004  28.250  22.348  1.00  0.00    -0.225 OA
BRANCH  19  21
ATOM     21  C   UNL A   1      31.929  28.319  23.408  1.00  0.00     0.147 A 
ATOM     22  C   UNL A   1      33.215  29.336  25.370  1.00  0.00     0.045 C 
ATOM     23  C   UNL A   1      32.029  29.142  24.475  1.00  0.00    -0.027 A 
ATOM     24  C   UNL A   1      30.974  30.092  24.771  1.00  0.00     0.026 A 
ATOM     25  C   UNL A   1      30.006  30.367  23.887  1.00  0.00     0.018 A 
ATOM     26  C   UNL A   1      30.707  28.459  22.530  1.00  0.00     0.267 A 
ATOM     27  C   UNL A   1      29.064  31.505  24.176  1.00  0.00     0.064 C 
ATOM     28  N   UNL A   1      29.897  29.593  22.738  1.00  0.00    -0.315 N 
ATOM     29  O   UNL A   1      30.441  27.607  21.682  1.00  0.00    -0.268 OA
ATOM     30  C   UNL A   1      28.906  29.906  21.717  1.00  0.00     0.153 C 
ENDBRANCH  19  21
ENDBRANCH   7  19
ENDBRANCH   4   6
ENDBRANCH   3   4
ENDBRANCH   2   3
ENDBRANCH   1   2
BRANCH   1  31
ATOM     31  O   UNL A   1      37.634  21.318  25.094  1.00  0.00    -0.458 OA
BRANCH  31  32
ATOM     32  C   UNL A   1      38.745  20.992  25.796  1.00  0.00     0.338 C 
ATOM     33  O   UNL A   1      39.251  19.889  25.906  1.00  0.00    -0.246 OA
BRANCH  32  34
ATOM     34  C   UNL A   1      39.365  22.210  26.338  1.00  0.00     0.060 A 
ATOM     35  C   UNL A   1      38.869  23.444  25.918  1.00  0.00     0.016 A 
ATOM     36  C   UNL A   1      40.490  22.144  27.160  1.00  0.00     0.016 A 
ATOM     37  C   UNL A   1      39.503  24.623  26.295  1.00  0.00     0.010 A 
ATOM     38  C   UNL A   1      41.115  23.331  27.559  1.00  0.00     0.010 A 
ATOM     39  C   UNL A   1      40.634  24.576  27.117  1.00  0.00    -0.014 A 
BRANCH  39  40
ATOM     40  C   UNL A   1      41.335  25.838  27.457  1.00  0.00     0.031 A 
ATOM     41  C   UNL A   1      40.640  26.879  28.286  1.00  0.00     0.074 A 
ATOM     42  C   UNL A   1      42.617  26.014  27.084  1.00  0.00     0.049 A 
ATOM     43  N   UNL A   1      41.051  28.072  28.630  1.00  0.00    -0.248 NA
ATOM     44  C   UNL A   1      39.308  26.527  28.800  1.00  0.00     0.031 C 
ATOM     45  C   UNL A   1      43.426  25.033  26.357  1.00  0.00     0.029 A 
ATOM     46  N   UNL A   1      43.471  27.068  27.285  1.00  0.00    -0.354 N 
ATOM     47  C   UNL A   1      40.029  28.619  29.396  1.00  0.00     0.074 A 
ATOM     48  C   UNL A   1      38.964  27.636  29.437  1.00  0.00     0.031 C 
ATOM     49  C   UNL A   1      44.670  25.517  26.208  1.00  0.00     0.029 A 
ATOM     50  C   UNL A   1      44.727  26.865  26.766  1.00  0.00     0.049 A 
ATOM     51  H   UNL A   1      43.209  27.891  27.756  1.00  0.00     0.167 HD
ATOM     52  C   UNL A   1      39.986  29.826  30.013  1.00  0.00     0.034 A 
ATOM     53  C   UNL A   1      45.798  27.682  26.725  1.00  0.00     0.034 A 
ATOM     54  C   UNL A   1      41.053  30.792  29.962  1.00  0.00     0.049 A 
ATOM     55  C   UNL A   1      45.682  29.066  27.302  1.00  0.00     0.074 A 
ATOM     56  C   UNL A   1      41.099  32.059  30.520  1.00  0.00     0.029 A 
ATOM     57  N   UNL A   1      42.270  30.599  29.320  1.00  0.00    -0.354 N 
ATOM     58  N   UNL A   1      44.670  29.612  27.934  1.00  0.00    -0.248 NA
ATOM     59  C   UNL A   1      46.843  29.951  27.140  1.00  0.00     0.031 C 
ATOM     60  C   UNL A   1      42.317  32.650  30.168  1.00  0.00     0.029 A 
ATOM     61  C   UNL A   1      43.060  31.731  29.445  1.00  0.00     0.049 A 
ATOM     62  H   UNL A   1      42.531  29.778  28.845  1.00  0.00     0.167 HD
ATOM     63  C   UNL A   1      45.077  30.903  28.256  1.00  0.00     0.074 A 
ATOM     64  C   UNL A   1      46.428  31.053  27.752  1.00  0.00     0.031 C 
ATOM     65  C   UNL A   1      44.395  31.873  28.913  1.00  0.00     0.034 A 
BRANCH  52  66
ATOM     66  C   UNL A   1      38.720  30.175  30.752  1.00  0.00     0.023 A 
ATOM     67  C   UNL A   1      37.679  30.887  30.132  1.00  0.00     0.031 A 
ATOM     68  C   UNL A   1      38.565  29.818  32.103  1.00  0.00     0.131 A 
ATOM     69  C   UNL A   1      36.557  31.272  30.880  1.00  0.00     0.055 A 
ATOM     70  C   UNL A   1      37.414  30.145  32.823  1.00  0.00     0.041 A 
ATOM     71  F   UNL A   1      39.538  29.157  32.750  1.00  0.00    -0.206 F 
ATOM     72  C   UNL A   1      36.407  30.887  32.214  1.00  0.00     0.022 A 
BRANCH  69  73
ATOM     73  S   UNL A   1      35.348  32.386  30.116  1.00  0.00     0.124 S 
ATOM     74  O   UNL A   1      34.876  31.578  28.995  1.00  0.00    -0.237 OA
ATOM     75  O   UNL A   1      34.393  32.603  31.197  1.00  0.00    -0.237 OA
ATOM     76  O   UNL A   1      36.145  33.554  29.746  1.00  0.00    -0.744 OA
ENDBRANCH  69  73
ENDBRANCH  52  66
BRANCH  53  77
ATOM     77  C   UNL A   1      47.056  27.222  26.078  1.00  0.00     0.023 A 
ATOM     78  C   UNL A   1      48.054  26.576  26.825  1.00  0.00     0.031 A 
ATOM     79  C   UNL A   1      47.269  27.405  24.700  1.00  0.00     0.131 A 
ATOM     80  C   UNL A   1      49.227  26.142  26.188  1.00  0.00     0.055 A 
ATOM     81  C   UNL A   1      48.422  26.942  24.066  1.00  0.00     0.041 A 
ATOM     82  F   UNL A   1      46.340  28.012  23.946  1.00  0.00    -0.206 F 
ATOM     83  C   UNL A   1      49.411  26.308  24.813  1.00  0.00     0.022 A 
BRANCH  80  84
ATOM     84  S   UNL A   1      50.521  25.355  27.186  1.00  0.00     0.124 S 
ATOM     85  O   UNL A   1      49.784  24.270  27.823  1.00  0.00    -0.237 OA
ATOM     86  O   UNL A   1      51.496  24.964  26.173  1.00  0.00    -0.237 OA
ATOM     87  O   UNL A   1      50.956  26.425  28.082  1.00  0.00    -0.744 OA
ENDBRANCH  80  84
ENDBRANCH  53  77
BRANCH  65  88
ATOM     88  C   UNL A   1      45.106  33.180  29.143  1.00  0.00     0.023 A 
ATOM     89  C   UNL A   1      44.986  34.247  28.238  1.00  0.00     0.031 A 
ATOM     90  C   UNL A   1      45.883  33.368  30.299  1.00  0.00     0.131 A 
ATOM     91  C   UNL A   1      45.659  35.452  28.490  1.00  0.00     0.055 A 
ATOM     92  C   UNL A   1      46.514  34.583  30.567  1.00  0.00     0.041 A 
ATOM     93  F   UNL A   1      46.025  32.378  31.194  1.00  0.00    -0.206 F 
ATOM     94  C   UNL A   1      46.407  35.632  29.657  1.00  0.00     0.022 A 
BRANCH  91  95
ATOM     95  S   UNL A   1      45.568  36.779  27.258  1.00  0.00     0.124 S 
ATOM     96  O   UNL A   1      46.413  36.256  26.189  1.00  0.00    -0.237 OA
ATOM     97  O   UNL A   1      44.140  36.845  26.966  1.00  0.00    -0.237 OA
ATOM     98  O   UNL A   1      46.108  37.940  27.963  1.00  0.00    -0.744 OA
ENDBRANCH  91  95
ENDBRANCH  65  88
ENDBRANCH  39  40
ENDBRANCH  32  34
ENDBRANCH  31  32
ENDBRANCH   1  31
TORSDOF 16
ENDMDL
MODEL 3
REMARK VINA RESULT:     -12.4      2.568      8.768
REMARK SMILES Cc1cc(C)n(C)c(=O)c1C(=O)[NH+]1CCC2(CC1)C[NH2+][C@@H](C(=O)OCCOC(=O)c1ccc(-c3c4nc(c(-c5cc(S(=O)(=O)[O-])ccc5F)c5ccc([nH]5)c(-c5cc(S(=O)(=O)[O-])ccc5F)c5nc(c(-c6cc(S(=O)(=O)[O-])ccc6F)c6ccc3[nH]6)C=C5)C=C4)cc1)C2
REMARK SMILES IDX 26 1 25 2 24 3 22 4 23 5 21 6 13 7 14 8 18 9 15 11 17 12
REMARK SMILES IDX 16 13 19 14 93 15 20 16 11 19 12 20 10 21 1 22 2 23 3 24
REMARK SMILES IDX 4 25 8 26 5 27 6 28 9 29 7 30 27 31 28 32 29 33 30 34 31 35
REMARK SMILES IDX 92 36 32 37 91 38 33 39 34 40 35 41 85 42 36 43 90 44 84 45
REMARK SMILES IDX 86 46 37 47 89 48 83 49 82 50 38 52 70 53 50 54 69 55 51 56
REMARK SMILES IDX 54 57 68 58 87 59 52 60 53 61 67 63 88 64 55 65 39 66 40 67
REMARK SMILES IDX 48 68 41 69 47 70 49 71 46 72 42 73 43 74 44 75 45 76 71 77
REMARK SMILES IDX 72 78 80 79 73 80 79 81 81 82 78 83 74 84 75 85 76 86 77 87
REMARK SMILES IDX 56 88 57 89 65 90 58 91 64 92 66 93 63 94 59 95 60 96 61 97
REMARK SMILES IDX 62 98
REMARK H PARENT 13 10 20 17 20 18 86 51 54 62
REMARK Flexibility Score: inf
ROOT
ATOM      1  C   UNL A   1      32.508  30.080  25.389  1.00  0.00     0.275 C 
ENDROOT
BRANCH   1   2
ATOM      2  C   UNL A   1      31.083  30.006  24.838  1.00  0.00     0.274 C 
BRANCH   2   3
ATOM      3  O   UNL A   1      30.839  28.705  24.279  1.00  0.00    -0.458 OA
BRANCH   3   4
ATOM      4  C   UNL A   1      31.461  28.433  23.104  1.00  0.00     0.364 C 
ATOM      5  O   UNL A   1      31.465  29.176  22.127  1.00  0.00    -0.245 OA
BRANCH   4   6
ATOM      6  C   UNL A   1      32.171  27.083  23.099  1.00  0.00     0.294 C 
ATOM      7  N   UNL A   1      33.429  23.042  26.219  1.00  0.00    -0.267 N 
ATOM      8  C   UNL A   1      34.377  24.044  25.749  1.00  0.00     0.271 C 
ATOM      9  C   UNL A   1      32.064  23.537  26.338  1.00  0.00     0.271 C 
ATOM     10  H   UNL A   1      33.503  22.068  26.090  1.00  0.00     0.357 HD
ATOM     11  C   UNL A   1      34.024  24.383  24.307  1.00  0.00     0.075 C 
ATOM     12  C   UNL A   1      31.543  24.173  25.039  1.00  0.00     0.075 C 
ATOM     13  C   UNL A   1      32.586  24.926  24.155  1.00  0.00     0.036 C 
ATOM     14  C   UNL A   1      32.172  24.840  22.663  1.00  0.00     0.268 C 
ATOM     15  C   UNL A   1      32.538  26.450  24.442  1.00  0.00     0.090 C 
ATOM     16  N   UNL A   1      31.364  26.037  22.438  1.00  0.00    -0.334 N 
ATOM     17  H   UNL A   1      30.445  25.949  22.871  1.00  0.00     0.347 HD
ATOM     18  H   UNL A   1      31.174  26.226  21.454  1.00  0.00     0.347 HD
BRANCH   7  19
ATOM     19  C   UNL A   1      33.925  21.789  26.561  1.00  0.00     0.350 C 
ATOM     20  O   UNL A   1      34.358  21.566  27.696  1.00  0.00    -0.225 OA
BRANCH  19  21
ATOM     21  C   UNL A   1      34.099  20.698  25.548  1.00  0.00     0.147 A 
ATOM     22  C   UNL A   1      36.643  20.909  25.406  1.00  0.00     0.045 C 
ATOM     23  C   UNL A   1      35.311  20.287  25.115  1.00  0.00    -0.027 A 
ATOM     24  C   UNL A   1      35.451  19.027  24.412  1.00  0.00     0.026 A 
ATOM     25  C   UNL A   1      34.463  18.122  24.383  1.00  0.00     0.018 A 
ATOM     26  C   UNL A   1      32.922  19.782  25.302  1.00  0.00     0.267 A 
ATOM     27  C   UNL A   1      34.745  16.760  23.810  1.00  0.00     0.064 C 
ATOM     28  N   UNL A   1      33.211  18.471  24.876  1.00  0.00    -0.315 N 
ATOM     29  O   UNL A   1      31.769  20.182  25.466  1.00  0.00    -0.268 OA
ATOM     30  C   UNL A   1      32.132  17.494  24.932  1.00  0.00     0.153 C 
ENDBRANCH  19  21
ENDBRANCH   7  19
ENDBRANCH   4   6
ENDBRANCH   3   4
ENDBRANCH   2   3
ENDBRANCH   1   2
BRANCH   1  31
ATOM     31  O   UNL A   1      32.511  30.301  26.813  1.00  0.00    -0.458 OA
BRANCH  31  32
ATOM     32  C   UNL A   1      33.132  31.436  27.215  1.00  0.00     0.338 C 
ATOM     33  O   UNL A   1      32.676  32.566  27.218  1.00  0.00    -0.246 OA
BRANCH  32  34
ATOM     34  C   UNL A   1      34.445  31.106  27.788  1.00  0.00     0.060 A 
ATOM     35  C   UNL A   1      34.657  29.805  28.245  1.00  0.00     0.016 A 
ATOM     36  C   UNL A   1      35.417  32.088  27.978  1.00  0.00     0.016 A 
ATOM     37  C   UNL A   1      35.830  29.477  28.915  1.00  0.00     0.010 A 
ATOM     38  C   UNL A   1      36.609  31.753  28.631  1.00  0.00     0.010 A 
ATOM     39  C   UNL A   1      36.816  30.449  29.116  1.00  0.00    -0.014 A 
BRANCH  39  40
ATOM     40  C   UNL A   1      38.032  30.098  29.889  1.00  0.00     0.031 A 
ATOM     41  C   UNL A   1      39.081  29.219  29.272  1.00  0.00     0.074 A 
ATOM     42  C   UNL A   1      38.226  30.628  31.111  1.00  0.00     0.049 A 
ATOM     43  N   UNL A   1      40.177  28.741  29.802  1.00  0.00    -0.248 NA
ATOM     44  C   UNL A   1      38.871  28.833  27.868  1.00  0.00     0.031 C 
ATOM     45  C   UNL A   1      37.323  31.570  31.775  1.00  0.00     0.029 A 
ATOM     46  N   UNL A   1      39.258  30.471  32.001  1.00  0.00    -0.354 N 
ATOM     47  C   UNL A   1      40.786  27.991  28.803  1.00  0.00     0.074 A 
ATOM     48  C   UNL A   1      39.918  28.053  27.644  1.00  0.00     0.031 C 
ATOM     49  C   UNL A   1      37.859  31.935  32.951  1.00  0.00     0.029 A 
ATOM     50  C   UNL A   1      39.107  31.205  33.154  1.00  0.00     0.049 A 
ATOM     51  H   UNL A   1      40.032  29.888  31.831  1.00  0.00     0.167 HD
ATOM     52  C   UNL A   1      41.964  27.320  28.848  1.00  0.00     0.034 A 
ATOM     53  C   UNL A   1      39.876  31.265  34.258  1.00  0.00     0.034 A 
ATOM     54  C   UNL A   1      42.816  27.268  30.009  1.00  0.00     0.049 A 
ATOM     55  C   UNL A   1      41.110  30.409  34.335  1.00  0.00     0.074 A 
ATOM     56  C   UNL A   1      44.010  26.588  30.174  1.00  0.00     0.029 A 
ATOM     57  N   UNL A   1      42.567  27.928  31.206  1.00  0.00    -0.354 N 
ATOM     58  N   UNL A   1      41.623  29.620  33.420  1.00  0.00    -0.248 NA
ATOM     59  C   UNL A   1      41.857  30.434  35.600  1.00  0.00     0.031 C 
ATOM     60  C   UNL A   1      44.453  26.791  31.486  1.00  0.00     0.029 A 
ATOM     61  C   UNL A   1      43.570  27.649  32.120  1.00  0.00     0.049 A 
ATOM     62  H   UNL A   1      41.791  28.508  31.379  1.00  0.00     0.167 HD
ATOM     63  C   UNL A   1      42.760  29.062  33.996  1.00  0.00     0.074 A 
ATOM     64  C   UNL A   1      42.861  29.608  35.335  1.00  0.00     0.031 C 
ATOM     65  C   UNL A   1      43.642  28.181  33.461  1.00  0.00     0.034 A 
BRANCH  52  66
ATOM     66  C   UNL A   1      42.364  26.553  27.615  1.00  0.00     0.023 A 
ATOM     67  C   UNL A   1      41.991  25.210  27.430  1.00  0.00     0.031 A 
ATOM     68  C   UNL A   1      43.155  27.162  26.624  1.00  0.00     0.131 A 
ATOM     69  C   UNL A   1      42.460  24.504  26.313  1.00  0.00     0.055 A 
ATOM     70  C   UNL A   1      43.560  26.473  25.480  1.00  0.00     0.041 A 
ATOM     71  F   UNL A   1      43.556  28.436  26.760  1.00  0.00    -0.206 F 
ATOM     72  C   UNL A   1      43.223  25.132  25.326  1.00  0.00     0.022 A 
BRANCH  69  73
ATOM     73  S   UNL A   1      42.158  22.719  26.227  1.00  0.00     0.124 S 
ATOM     74  O   UNL A   1      40.700  22.667  26.305  1.00  0.00    -0.237 OA
ATOM     75  O   UNL A   1      42.745  22.361  24.941  1.00  0.00    -0.237 OA
ATOM     76  O   UNL A   1      42.860  22.197  27.398  1.00  0.00    -0.744 OA
ENDBRANCH  69  73
ENDBRANCH  52  66
BRANCH  53  77
ATOM     77  C   UNL A   1      39.475  32.138  35.394  1.00  0.00     0.023 A 
ATOM     78  C   UNL A   1      39.929  33.464  35.476  1.00  0.00     0.031 A 
ATOM     79  C   UNL A   1      38.617  31.664  36.402  1.00  0.00     0.131 A 
ATOM     80  C   UNL A   1      39.526  34.270  36.552  1.00  0.00     0.055 A 
ATOM     81  C   UNL A   1      38.193  32.480  37.451  1.00  0.00     0.041 A 
ATOM     82  F   UNL A   1      38.153  30.405  36.361  1.00  0.00    -0.206 F 
ATOM     83  C   UNL A   1      38.651  33.792  37.531  1.00  0.00     0.022 A 
BRANCH  80  84
ATOM     84  S   UNL A   1      40.167  35.964  36.659  1.00  0.00     0.124 S 
ATOM     85  O   UNL A   1      41.606  35.734  36.705  1.00  0.00    -0.237 OA
ATOM     86  O   UNL A   1      39.649  36.567  35.435  1.00  0.00    -0.237 OA
ATOM     87  O   UNL A   1      39.576  36.472  37.895  1.00  0.00    -0.744 OA
ENDBRANCH  80  84
ENDBRANCH  53  77
BRANCH  65  88
ATOM     88  C   UNL A   1      44.807  27.766  34.319  1.00  0.00     0.023 A 
ATOM     89  C   UNL A   1      44.760  26.602  35.102  1.00  0.00     0.031 A 
ATOM     90  C   UNL A   1      45.988  28.529  34.325  1.00  0.00     0.131 A 
ATOM     91  C   UNL A   1      45.869  26.244  35.884  1.00  0.00     0.055 A 
ATOM     92  C   UNL A   1      47.103  28.146  35.070  1.00  0.00     0.041 A 
ATOM     93  F   UNL A   1      46.080  29.649  33.591  1.00  0.00    -0.206 F 
ATOM     94  C   UNL A   1      47.046  26.999  35.859  1.00  0.00     0.022 A 
BRANCH  91  95
ATOM     95  S   UNL A   1      45.748  24.790  36.961  1.00  0.00     0.124 S 
ATOM     96  O   UNL A   1      45.310  25.384  38.220  1.00  0.00    -0.237 OA
ATOM     97  O   UNL A   1      44.763  23.964  36.270  1.00  0.00    -0.237 OA
ATOM     98  O   UNL A   1      47.108  24.254  36.968  1.00  0.00    -0.744 OA
ENDBRANCH  91  95
ENDBRANCH  65  88
ENDBRANCH  39  40
ENDBRANCH  32  34
ENDBRANCH  31  32
ENDBRANCH   1  31
TORSDOF 16
ENDMDL
