MODEL 1
REMARK VINA RESULT:     -12.1      0.000      0.000
REMARK SMILES Cc1ccnc(C(=O)c2[nH]c3ccc(OC(F)(F)F)cc3c2CC(=O)OCCOC(=O)c2ccc(-c3c4nc(c(-c5cc(S(=O)(=O)[O-])ccc5F)c5ccc([nH]5)c(-c5cc(S(=O)(=O)[O-])ccc5F)c5nc(c(-c6cc(S(=O)(=O)[O-])ccc6F)c6ccc3[nH]6)C=C5)C=C4)cc2)c1
REMARK SMILES IDX 27 1 26 2 24 3 25 4 23 5 22 6 9 7 10 8 11 9 21 11 12 12
REMARK SMILES IDX 20 13 13 14 14 15 7 16 8 17 6 18 1 19 2 20 3 21 95 22 4 23
REMARK SMILES IDX 5 24 15 25 16 26 17 27 18 28 19 29 28 30 29 31 30 32 31 33
REMARK SMILES IDX 32 34 33 35 94 36 34 37 93 38 35 39 36 40 37 41 87 42 38 43
REMARK SMILES IDX 92 44 86 45 88 46 39 47 91 48 85 49 84 50 40 52 72 53 52 54
REMARK SMILES IDX 71 55 53 56 56 57 70 58 89 59 54 60 55 61 69 63 90 64 57 65
REMARK SMILES IDX 41 66 42 67 50 68 43 69 49 70 51 71 48 72 44 73 45 74 46 75
REMARK SMILES IDX 47 76 73 77 74 78 82 79 75 80 81 81 83 82 80 83 76 84 77 85
REMARK SMILES IDX 78 86 79 87 58 88 59 89 67 90 60 91 66 92 68 93 65 94 61 95
REMARK SMILES IDX 62 96 63 97 64 98
REMARK H PARENT 10 10 88 51 56 62
REMARK Flexibility Score: inf
ROOT
ATOM      1  C   UNL A   1      35.498  21.122  25.721  1.00  0.00     0.274 C 
ENDROOT
BRANCH   1   2
ATOM      2  O   UNL A   1      35.175  22.417  25.166  1.00  0.00    -0.462 OA
BRANCH   2   3
ATOM      3  C   UNL A   1      34.692  23.335  26.039  1.00  0.00     0.310 C 
ATOM      4  O   UNL A   1      34.755  23.209  27.262  1.00  0.00    -0.252 OA
BRANCH   3   5
ATOM      5  C   UNL A   1      34.179  24.619  25.423  1.00  0.00     0.161 C 
BRANCH   5   6
ATOM      6  C   UNL A   1      33.109  25.414  26.107  1.00  0.00     0.000 A 
ATOM      7  C   UNL A   1      31.802  25.030  26.410  1.00  0.00     0.093 A 
ATOM      8  N   UNL A   1      31.172  26.126  26.948  1.00  0.00    -0.352 N 
ATOM      9  C   UNL A   1      31.968  27.235  26.877  1.00  0.00     0.046 A 
ATOM     10  H   UNL A   1      30.267  26.113  27.334  1.00  0.00     0.167 HD
ATOM     11  C   UNL A   1      33.212  26.817  26.419  1.00  0.00     0.008 A 
ATOM     12  C   UNL A   1      31.669  28.563  27.183  1.00  0.00     0.030 A 
ATOM     13  C   UNL A   1      34.232  27.788  26.305  1.00  0.00     0.057 A 
ATOM     14  C   UNL A   1      32.690  29.507  27.037  1.00  0.00     0.049 A 
ATOM     15  C   UNL A   1      33.966  29.132  26.618  1.00  0.00     0.130 A 
BRANCH   7  16
ATOM     16  C   UNL A   1      31.061  23.779  26.321  1.00  0.00     0.227 C 
ATOM     17  O   UNL A   1      30.098  23.593  27.066  1.00  0.00    -0.285 OA
BRANCH  16  18
ATOM     18  C   UNL A   1      31.267  22.865  25.129  1.00  0.00     0.113 A 
ATOM     19  C   UNL A   1      32.686  19.435  24.298  1.00  0.00     0.044 C 
ATOM     20  C   UNL A   1      32.128  20.823  24.180  1.00  0.00    -0.047 A 
ATOM     21  C   UNL A   1      32.139  21.456  22.936  1.00  0.00     0.023 A 
ATOM     22  C   UNL A   1      31.661  21.535  25.294  1.00  0.00     0.036 A 
ATOM     23  C   UNL A   1      31.692  22.760  22.854  1.00  0.00     0.112 A 
ATOM     24  N   UNL A   1      31.261  23.478  23.913  1.00  0.00    -0.253 NA
ENDBRANCH  16  18
ENDBRANCH   7  16
BRANCH  15  25
ATOM     25  O   UNL A   1      35.038  29.969  26.467  1.00  0.00    -0.406 OA
BRANCH  25  26
ATOM     26  C   UNL A   1      35.874  30.172  27.593  1.00  0.00     0.573 C 
ATOM     27  F   UNL A   1      35.398  29.532  28.682  1.00  0.00    -0.132 F 
ATOM     28  F   UNL A   1      37.139  29.762  27.348  1.00  0.00    -0.132 F 
ATOM     29  F   UNL A   1      35.918  31.495  27.872  1.00  0.00    -0.132 F 
ENDBRANCH  25  26
ENDBRANCH  15  25
ENDBRANCH   5   6
ENDBRANCH   3   5
ENDBRANCH   2   3
ENDBRANCH   1   2
BRANCH   1  30
ATOM     30  C   UNL A   1      36.704  20.474  25.020  1.00  0.00     0.275 C 
BRANCH  30  31
ATOM     31  O   UNL A   1      37.826  21.374  24.876  1.00  0.00    -0.458 OA
BRANCH  31  32
ATOM     32  C   UNL A   1      38.792  21.157  25.791  1.00  0.00     0.338 C 
ATOM     33  O   UNL A   1      39.323  20.082  26.037  1.00  0.00    -0.246 OA
BRANCH  32  34
ATOM     34  C   UNL A   1      39.303  22.368  26.426  1.00  0.00     0.060 A 
ATOM     35  C   UNL A   1      38.803  23.580  25.955  1.00  0.00     0.016 A 
ATOM     36  C   UNL A   1      40.447  22.329  27.225  1.00  0.00     0.016 A 
ATOM     37  C   UNL A   1      39.495  24.754  26.201  1.00  0.00     0.010 A 
ATOM     38  C   UNL A   1      41.095  23.528  27.547  1.00  0.00     0.010 A 
ATOM     39  C   UNL A   1      40.638  24.745  27.013  1.00  0.00    -0.014 A 
BRANCH  39  40
ATOM     40  C   UNL A   1      41.294  26.042  27.311  1.00  0.00     0.031 A 
ATOM     41  C   UNL A   1      40.629  27.078  28.171  1.00  0.00     0.074 A 
ATOM     42  C   UNL A   1      42.551  26.230  26.868  1.00  0.00     0.049 A 
ATOM     43  N   UNL A   1      41.095  28.229  28.582  1.00  0.00    -0.248 NA
ATOM     44  C   UNL A   1      39.268  26.780  28.639  1.00  0.00     0.031 C 
ATOM     45  C   UNL A   1      43.306  25.270  26.056  1.00  0.00     0.029 A 
ATOM     46  N   UNL A   1      43.426  27.266  27.055  1.00  0.00    -0.354 N 
ATOM     47  C   UNL A   1      40.099  28.786  29.375  1.00  0.00     0.074 A 
ATOM     48  C   UNL A   1      38.983  27.862  29.353  1.00  0.00     0.031 C 
ATOM     49  C   UNL A   1      44.540  25.747  25.847  1.00  0.00     0.029 A 
ATOM     50  C   UNL A   1      44.642  27.072  26.445  1.00  0.00     0.049 A 
ATOM     51  H   UNL A   1      43.205  28.072  27.575  1.00  0.00     0.167 HD
ATOM     52  C   UNL A   1      40.119  29.955  30.064  1.00  0.00     0.034 A 
ATOM     53  C   UNL A   1      45.713  27.882  26.351  1.00  0.00     0.034 A 
ATOM     54  C   UNL A   1      41.220  30.889  30.037  1.00  0.00     0.049 A 
ATOM     55  C   UNL A   1      45.659  29.222  27.028  1.00  0.00     0.074 A 
ATOM     56  C   UNL A   1      41.326  32.119  30.664  1.00  0.00     0.029 A 
ATOM     57  N   UNL A   1      42.402  30.702  29.333  1.00  0.00    -0.354 N 
ATOM     58  N   UNL A   1      44.702  29.738  27.764  1.00  0.00    -0.248 NA
ATOM     59  C   UNL A   1      46.832  30.087  26.863  1.00  0.00     0.031 C 
ATOM     60  C   UNL A   1      42.546  32.699  30.292  1.00  0.00     0.029 A 
ATOM     61  C   UNL A   1      43.229  31.806  29.483  1.00  0.00     0.049 A 
ATOM     62  H   UNL A   1      42.623  29.901  28.805  1.00  0.00     0.167 HD
ATOM     63  C   UNL A   1      45.162  30.990  28.154  1.00  0.00     0.074 A 
ATOM     64  C   UNL A   1      46.495  31.132  27.601  1.00  0.00     0.031 C 
ATOM     65  C   UNL A   1      44.540  31.943  28.895  1.00  0.00     0.034 A 
BRANCH  52  66
ATOM     66  C   UNL A   1      38.894  30.300  30.871  1.00  0.00     0.023 A 
ATOM     67  C   UNL A   1      38.013  31.313  30.460  1.00  0.00     0.031 A 
ATOM     68  C   UNL A   1      38.608  29.618  32.066  1.00  0.00     0.131 A 
ATOM     69  C   UNL A   1      36.911  31.650  31.261  1.00  0.00     0.055 A 
ATOM     70  C   UNL A   1      37.479  29.919  32.831  1.00  0.00     0.041 A 
ATOM     71  F   UNL A   1      39.428  28.655  32.516  1.00  0.00    -0.206 F 
ATOM     72  C   UNL A   1      36.628  30.948  32.435  1.00  0.00     0.022 A 
BRANCH  69  73
ATOM     73  S   UNL A   1      35.926  33.104  30.807  1.00  0.00     0.124 S 
ATOM     74  O   UNL A   1      34.665  32.489  30.395  1.00  0.00    -0.237 OA
ATOM     75  O   UNL A   1      35.887  33.859  32.054  1.00  0.00    -0.237 OA
ATOM     76  O   UNL A   1      36.696  33.717  29.727  1.00  0.00    -0.744 OA
ENDBRANCH  69  73
ENDBRANCH  52  66
BRANCH  53  77
ATOM     77  C   UNL A   1      46.889  27.474  25.535  1.00  0.00     0.023 A 
ATOM     78  C   UNL A   1      47.030  27.886  24.202  1.00  0.00     0.031 A 
ATOM     79  C   UNL A   1      47.876  26.630  26.076  1.00  0.00     0.131 A 
ATOM     80  C   UNL A   1      48.114  27.423  23.443  1.00  0.00     0.055 A 
ATOM     81  C   UNL A   1      48.981  26.216  25.333  1.00  0.00     0.041 A 
ATOM     82  F   UNL A   1      47.787  26.208  27.348  1.00  0.00    -0.206 F 
ATOM     83  C   UNL A   1      49.097  26.601  24.003  1.00  0.00     0.022 A 
BRANCH  80  84
ATOM     84  S   UNL A   1      48.176  27.834  21.678  1.00  0.00     0.124 S 
ATOM     85  O   UNL A   1      48.388  26.524  21.071  1.00  0.00    -0.237 OA
ATOM     86  O   UNL A   1      46.865  28.436  21.463  1.00  0.00    -0.237 OA
ATOM     87  O   UNL A   1      49.307  28.754  21.583  1.00  0.00    -0.744 OA
ENDBRANCH  80  84
ENDBRANCH  53  77
BRANCH  65  88
ATOM     88  C   UNL A   1      45.322  33.207  29.142  1.00  0.00     0.023 A 
ATOM     89  C   UNL A   1      45.256  34.289  28.246  1.00  0.00     0.031 A 
ATOM     90  C   UNL A   1      46.194  33.303  30.239  1.00  0.00     0.131 A 
ATOM     91  C   UNL A   1      46.104  35.391  28.420  1.00  0.00     0.055 A 
ATOM     92  C   UNL A   1      46.993  34.429  30.440  1.00  0.00     0.041 A 
ATOM     93  F   UNL A   1      46.296  32.298  31.122  1.00  0.00    -0.206 F 
ATOM     94  C   UNL A   1      46.965  35.473  29.518  1.00  0.00     0.022 A 
BRANCH  91  95
ATOM     95  S   UNL A   1      46.157  36.657  27.123  1.00  0.00     0.124 S 
ATOM     96  O   UNL A   1      47.136  37.600  27.656  1.00  0.00    -0.237 OA
ATOM     97  O   UNL A   1      46.581  35.889  25.957  1.00  0.00    -0.237 OA
ATOM     98  O   UNL A   1      44.783  37.154  27.073  1.00  0.00    -0.744 OA
ENDBRANCH  91  95
ENDBRANCH  65  88
ENDBRANCH  39  40
ENDBRANCH  32  34
ENDBRANCH  31  32
ENDBRANCH  30  31
ENDBRANCH   1  30
TORSDOF 19
ENDMDL
MODEL 2
REMARK VINA RESULT:     -11.7      3.056      4.742
REMARK SMILES Cc1ccnc(C(=O)c2[nH]c3ccc(OC(F)(F)F)cc3c2CC(=O)OCCOC(=O)c2ccc(-c3c4nc(c(-c5cc(S(=O)(=O)[O-])ccc5F)c5ccc([nH]5)c(-c5cc(S(=O)(=O)[O-])ccc5F)c5nc(c(-c6cc(S(=O)(=O)[O-])ccc6F)c6ccc3[nH]6)C=C5)C=C4)cc2)c1
REMARK SMILES IDX 27 1 26 2 24 3 25 4 23 5 22 6 9 7 10 8 11 9 21 11 12 12
REMARK SMILES IDX 20 13 13 14 14 15 7 16 8 17 6 18 1 19 2 20 3 21 95 22 4 23
REMARK SMILES IDX 5 24 15 25 16 26 17 27 18 28 19 29 28 30 29 31 30 32 31 33
REMARK SMILES IDX 32 34 33 35 94 36 34 37 93 38 35 39 36 40 37 41 87 42 38 43
REMARK SMILES IDX 92 44 86 45 88 46 39 47 91 48 85 49 84 50 40 52 72 53 52 54
REMARK SMILES IDX 71 55 53 56 56 57 70 58 89 59 54 60 55 61 69 63 90 64 57 65
REMARK SMILES IDX 41 66 42 67 50 68 43 69 49 70 51 71 48 72 44 73 45 74 46 75
REMARK SMILES IDX 47 76 73 77 74 78 82 79 75 80 81 81 83 82 80 83 76 84 77 85
REMARK SMILES IDX 78 86 79 87 58 88 59 89 67 90 60 91 66 92 68 93 65 94 61 95
REMARK SMILES IDX 62 96 63 97 64 98
REMARK H PARENT 10 10 88 51 56 62
REMARK Flexibility Score: inf
ROOT
ATOM      1  C   UNL A   1      35.570  21.766  26.473  1.00  0.00     0.274 C 
ENDROOT
BRANCH   1   2
ATOM      2  O   UNL A   1      34.441  22.574  26.069  1.00  0.00    -0.462 OA
BRANCH   2   3
ATOM      3  C   UNL A   1      33.305  22.414  26.792  1.00  0.00     0.310 C 
ATOM      4  O   UNL A   1      33.277  22.412  28.022  1.00  0.00    -0.252 OA
BRANCH   3   5
ATOM      5  C   UNL A   1      32.021  22.370  25.993  1.00  0.00     0.161 C 
BRANCH   5   6
ATOM      6  C   UNL A   1      32.045  22.027  24.535  1.00  0.00     0.000 A 
ATOM      7  C   UNL A   1      31.693  22.829  23.449  1.00  0.00     0.093 A 
ATOM      8  N   UNL A   1      31.786  22.049  22.322  1.00  0.00    -0.352 N 
ATOM      9  C   UNL A   1      32.046  20.747  22.644  1.00  0.00     0.046 A 
ATOM     10  H   UNL A   1      31.680  22.386  21.403  1.00  0.00     0.167 HD
ATOM     11  C   UNL A   1      32.282  20.704  24.014  1.00  0.00     0.008 A 
ATOM     12  C   UNL A   1      32.086  19.620  21.824  1.00  0.00     0.030 A 
ATOM     13  C   UNL A   1      32.623  19.457  24.584  1.00  0.00     0.057 A 
ATOM     14  C   UNL A   1      32.402  18.395  22.419  1.00  0.00     0.049 A 
ATOM     15  C   UNL A   1      32.684  18.306  23.781  1.00  0.00     0.130 A 
BRANCH   7  16
ATOM     16  C   UNL A   1      31.328  24.231  23.294  1.00  0.00     0.227 C 
ATOM     17  O   UNL A   1      30.138  24.548  23.293  1.00  0.00    -0.285 OA
BRANCH  16  18
ATOM     18  C   UNL A   1      32.384  25.306  23.451  1.00  0.00     0.113 A 
ATOM     19  C   UNL A   1      33.769  27.669  26.090  1.00  0.00     0.044 C 
ATOM     20  C   UNL A   1      33.471  26.996  24.782  1.00  0.00    -0.047 A 
ATOM     21  C   UNL A   1      33.886  27.604  23.597  1.00  0.00     0.023 A 
ATOM     22  C   UNL A   1      32.724  25.812  24.708  1.00  0.00     0.036 A 
ATOM     23  C   UNL A   1      33.542  27.013  22.396  1.00  0.00     0.112 A 
ATOM     24  N   UNL A   1      32.803  25.888  22.293  1.00  0.00    -0.253 NA
ENDBRANCH  16  18
ENDBRANCH   7  16
BRANCH  15  25
ATOM     25  O   UNL A   1      33.027  17.165  24.456  1.00  0.00    -0.406 OA
BRANCH  25  26
ATOM     26  C   UNL A   1      34.299  16.602  24.187  1.00  0.00     0.573 C 
ATOM     27  F   UNL A   1      34.577  15.588  25.033  1.00  0.00    -0.132 F 
ATOM     28  F   UNL A   1      34.382  16.159  22.912  1.00  0.00    -0.132 F 
ATOM     29  F   UNL A   1      35.243  17.557  24.353  1.00  0.00    -0.132 F 
ENDBRANCH  25  26
ENDBRANCH  15  25
ENDBRANCH   5   6
ENDBRANCH   3   5
ENDBRANCH   2   3
ENDBRANCH   1   2
BRANCH   1  30
ATOM     30  C   UNL A   1      36.219  21.039  25.284  1.00  0.00     0.275 C 
BRANCH  30  31
ATOM     31  O   UNL A   1      37.454  21.652  24.850  1.00  0.00    -0.458 OA
BRANCH  31  32
ATOM     32  C   UNL A   1      38.493  21.371  25.662  1.00  0.00     0.338 C 
ATOM     33  O   UNL A   1      39.031  20.280  25.789  1.00  0.00    -0.246 OA
BRANCH  32  34
ATOM     34  C   UNL A   1      39.068  22.534  26.329  1.00  0.00     0.060 A 
ATOM     35  C   UNL A   1      38.567  23.780  25.957  1.00  0.00     0.016 A 
ATOM     36  C   UNL A   1      40.258  22.429  27.053  1.00  0.00     0.016 A 
ATOM     37  C   UNL A   1      39.299  24.926  26.223  1.00  0.00     0.010 A 
ATOM     38  C   UNL A   1      40.950  23.596  27.399  1.00  0.00     0.010 A 
ATOM     39  C   UNL A   1      40.489  24.849  26.961  1.00  0.00    -0.014 A 
BRANCH  39  40
ATOM     40  C   UNL A   1      41.190  26.115  27.289  1.00  0.00     0.031 A 
ATOM     41  C   UNL A   1      40.555  27.162  28.157  1.00  0.00     0.074 A 
ATOM     42  C   UNL A   1      42.460  26.261  26.864  1.00  0.00     0.049 A 
ATOM     43  N   UNL A   1      41.060  28.288  28.593  1.00  0.00    -0.248 NA
ATOM     44  C   UNL A   1      39.178  26.910  28.604  1.00  0.00     0.031 C 
ATOM     45  C   UNL A   1      43.188  25.285  26.046  1.00  0.00     0.029 A 
ATOM     46  N   UNL A   1      43.372  27.259  27.079  1.00  0.00    -0.354 N 
ATOM     47  C   UNL A   1      40.076  28.870  29.383  1.00  0.00     0.074 A 
ATOM     48  C   UNL A   1      38.926  27.990  29.332  1.00  0.00     0.031 C 
ATOM     49  C   UNL A   1      44.441  25.718  25.860  1.00  0.00     0.029 A 
ATOM     50  C   UNL A   1      44.587  27.027  26.481  1.00  0.00     0.049 A 
ATOM     51  H   UNL A   1      43.175  28.065  27.610  1.00  0.00     0.167 HD
ATOM     52  C   UNL A   1      40.133  30.026  30.091  1.00  0.00     0.034 A 
ATOM     53  C   UNL A   1      45.689  27.797  26.413  1.00  0.00     0.034 A 
ATOM     54  C   UNL A   1      41.269  30.917  30.093  1.00  0.00     0.049 A 
ATOM     55  C   UNL A   1      45.679  29.127  27.112  1.00  0.00     0.074 A 
ATOM     56  C   UNL A   1      41.414  32.132  30.741  1.00  0.00     0.029 A 
ATOM     57  N   UNL A   1      42.452  30.696  29.401  1.00  0.00    -0.354 N 
ATOM     58  N   UNL A   1      44.733  29.668  27.845  1.00  0.00    -0.248 NA
ATOM     59  C   UNL A   1      46.886  29.948  26.975  1.00  0.00     0.031 C 
ATOM     60  C   UNL A   1      42.661  32.670  30.394  1.00  0.00     0.029 A 
ATOM     61  C   UNL A   1      43.319  31.764  29.579  1.00  0.00     0.049 A 
ATOM     62  H   UNL A   1      42.649  29.895  28.862  1.00  0.00     0.167 HD
ATOM     63  C   UNL A   1      45.236  30.895  28.260  1.00  0.00     0.074 A 
ATOM     64  C   UNL A   1      46.581  30.993  27.726  1.00  0.00     0.031 C 
ATOM     65  C   UNL A   1      44.642  31.859  29.010  1.00  0.00     0.034 A 
BRANCH  52  66
ATOM     66  C   UNL A   1      38.912  30.406  30.888  1.00  0.00     0.023 A 
ATOM     67  C   UNL A   1      37.959  31.304  30.379  1.00  0.00     0.031 A 
ATOM     68  C   UNL A   1      38.700  29.874  32.172  1.00  0.00     0.131 A 
ATOM     69  C   UNL A   1      36.862  31.681  31.167  1.00  0.00     0.055 A 
ATOM     70  C   UNL A   1      37.576  30.210  32.930  1.00  0.00     0.041 A 
ATOM     71  F   UNL A   1      39.589  29.028  32.716  1.00  0.00    -0.206 F 
ATOM     72  C   UNL A   1      36.654  31.127  32.433  1.00  0.00     0.022 A 
BRANCH  69  73
ATOM     73  S   UNL A   1      35.778  33.003  30.561  1.00  0.00     0.124 S 
ATOM     74  O   UNL A   1      36.230  33.146  29.178  1.00  0.00    -0.237 OA
ATOM     75  O   UNL A   1      34.450  32.427  30.739  1.00  0.00    -0.237 OA
ATOM     76  O   UNL A   1      36.093  34.132  31.433  1.00  0.00    -0.744 OA
ENDBRANCH  69  73
ENDBRANCH  52  66
BRANCH  53  77
ATOM     77  C   UNL A   1      46.859  27.357  25.605  1.00  0.00     0.023 A 
ATOM     78  C   UNL A   1      47.048  27.806  24.291  1.00  0.00     0.031 A 
ATOM     79  C   UNL A   1      47.790  26.443  26.134  1.00  0.00     0.131 A 
ATOM     80  C   UNL A   1      48.123  27.314  23.536  1.00  0.00     0.055 A 
ATOM     81  C   UNL A   1      48.887  25.998  25.398  1.00  0.00     0.041 A 
ATOM     82  F   UNL A   1      47.654  25.983  27.389  1.00  0.00    -0.206 F 
ATOM     83  C   UNL A   1      49.050  26.423  24.084  1.00  0.00     0.022 A 
BRANCH  80  84
ATOM     84  S   UNL A   1      48.242  27.783  21.788  1.00  0.00     0.124 S 
ATOM     85  O   UNL A   1      49.376  28.701  21.799  1.00  0.00    -0.237 OA
ATOM     86  O   UNL A   1      48.467  26.493  21.145  1.00  0.00    -0.237 OA
ATOM     87  O   UNL A   1      46.945  28.398  21.513  1.00  0.00    -0.744 OA
ENDBRANCH  80  84
ENDBRANCH  53  77
BRANCH  65  88
ATOM     88  C   UNL A   1      45.469  33.087  29.286  1.00  0.00     0.023 A 
ATOM     89  C   UNL A   1      46.277  33.177  30.434  1.00  0.00     0.031 A 
ATOM     90  C   UNL A   1      45.395  34.203  28.436  1.00  0.00     0.131 A 
ATOM     91  C   UNL A   1      46.918  34.384  30.743  1.00  0.00     0.055 A 
ATOM     92  C   UNL A   1      46.084  35.384  28.718  1.00  0.00     0.041 A 
ATOM     93  F   UNL A   1      44.637  34.171  27.329  1.00  0.00    -0.206 F 
ATOM     94  C   UNL A   1      46.836  35.485  29.887  1.00  0.00     0.022 A 
BRANCH  91  95
ATOM     95  S   UNL A   1      47.757  34.534  32.344  1.00  0.00     0.124 S 
ATOM     96  O   UNL A   1      48.838  35.466  32.036  1.00  0.00    -0.237 OA
ATOM     97  O   UNL A   1      46.697  35.049  33.203  1.00  0.00    -0.237 OA
ATOM     98  O   UNL A   1      48.184  33.167  32.637  1.00  0.00    -0.744 OA
ENDBRANCH  91  95
ENDBRANCH  65  88
ENDBRANCH  39  40
ENDBRANCH  32  34
ENDBRANCH  31  32
ENDBRANCH  30  31
ENDBRANCH   1  30
TORSDOF 19
ENDMDL
MODEL 3
REMARK VINA RESULT:     -11.6      5.312      9.855
REMARK SMILES Cc1ccnc(C(=O)c2[nH]c3ccc(OC(F)(F)F)cc3c2CC(=O)OCCOC(=O)c2ccc(-c3c4nc(c(-c5cc(S(=O)(=O)[O-])ccc5F)c5ccc([nH]5)c(-c5cc(S(=O)(=O)[O-])ccc5F)c5nc(c(-c6cc(S(=O)(=O)[O-])ccc6F)c6ccc3[nH]6)C=C5)C=C4)cc2)c1
REMARK SMILES IDX 27 1 26 2 24 3 25 4 23 5 22 6 9 7 10 8 11 9 21 11 12 12
REMARK SMILES IDX 20 13 13 14 14 15 7 16 8 17 6 18 1 19 2 20 3 21 95 22 4 23
REMARK SMILES IDX 5 24 15 25 16 26 17 27 18 28 19 29 28 30 29 31 30 32 31 33
REMARK SMILES IDX 32 34 33 35 94 36 34 37 93 38 35 39 36 40 37 41 87 42 38 43
REMARK SMILES IDX 92 44 86 45 88 46 39 47 91 48 85 49 84 50 40 52 72 53 52 54
REMARK SMILES IDX 71 55 53 56 56 57 70 58 89 59 54 60 55 61 69 63 90 64 57 65
REMARK SMILES IDX 41 66 42 67 50 68 43 69 49 70 51 71 48 72 44 73 45 74 46 75
REMARK SMILES IDX 47 76 73 77 74 78 82 79 75 80 81 81 83 82 80 83 76 84 77 85
REMARK SMILES IDX 78 86 79 87 58 88 59 89 67 90 60 91 66 92 68 93 65 94 61 95
REMARK SMILES IDX 62 96 63 97 64 98
REMARK H PARENT 10 10 88 51 56 62
REMARK Flexibility Score: inf
ROOT
ATOM      1  C   UNL A   1      32.581  29.165  24.456  1.00  0.00     0.274 C 
ENDROOT
BRANCH   1   2
ATOM      2  O   UNL A   1      33.090  27.862  24.092  1.00  0.00    -0.462 OA
BRANCH   2   3
ATOM      3  C   UNL A   1      33.193  27.613  22.763  1.00  0.00     0.310 C 
ATOM      4  O   UNL A   1      34.189  27.890  22.095  1.00  0.00    -0.252 OA
BRANCH   3   5
ATOM      5  C   UNL A   1      32.048  26.835  22.151  1.00  0.00     0.161 C 
BRANCH   5   6
ATOM      6  C   UNL A   1      30.797  26.584  22.935  1.00  0.00     0.000 A 
ATOM      7  C   UNL A   1      30.400  25.415  23.585  1.00  0.00     0.093 A 
ATOM      8  N   UNL A   1      29.138  25.636  24.082  1.00  0.00    -0.352 N 
ATOM      9  C   UNL A   1      28.648  26.841  23.664  1.00  0.00     0.046 A 
ATOM     10  H   UNL A   1      28.652  25.008  24.664  1.00  0.00     0.167 HD
ATOM     11  C   UNL A   1      29.680  27.494  23.000  1.00  0.00     0.008 A 
ATOM     12  C   UNL A   1      27.375  27.387  23.827  1.00  0.00     0.030 A 
ATOM     13  C   UNL A   1      29.429  28.795  22.510  1.00  0.00     0.057 A 
ATOM     14  C   UNL A   1      27.146  28.665  23.310  1.00  0.00     0.049 A 
ATOM     15  C   UNL A   1      28.160  29.378  22.671  1.00  0.00     0.130 A 
BRANCH   7  16
ATOM     16  C   UNL A   1      31.038  24.134  23.857  1.00  0.00     0.227 C 
ATOM     17  O   UNL A   1      30.926  23.219  23.041  1.00  0.00    -0.285 OA
BRANCH  16  18
ATOM     18  C   UNL A   1      32.075  24.028  24.957  1.00  0.00     0.113 A 
ATOM     19  C   UNL A   1      35.850  24.097  25.420  1.00  0.00     0.044 C 
ATOM     20  C   UNL A   1      34.378  23.928  25.661  1.00  0.00    -0.047 A 
ATOM     21  C   UNL A   1      33.951  23.292  26.827  1.00  0.00     0.023 A 
ATOM     22  C   UNL A   1      33.419  24.324  24.718  1.00  0.00     0.036 A 
ATOM     23  C   UNL A   1      32.598  23.075  27.003  1.00  0.00     0.112 A 
ATOM     24  N   UNL A   1      31.654  23.422  26.102  1.00  0.00    -0.253 NA
ENDBRANCH  16  18
ENDBRANCH   7  16
BRANCH  15  25
ATOM     25  O   UNL A   1      28.050  30.640  22.153  1.00  0.00    -0.406 OA
BRANCH  25  26
ATOM     26  C   UNL A   1      28.068  31.725  23.064  1.00  0.00     0.573 C 
ATOM     27  F   UNL A   1      26.959  31.741  23.834  1.00  0.00    -0.132 F 
ATOM     28  F   UNL A   1      29.164  31.686  23.856  1.00  0.00    -0.132 F 
ATOM     29  F   UNL A   1      28.108  32.882  22.364  1.00  0.00    -0.132 F 
ENDBRANCH  25  26
ENDBRANCH  15  25
ENDBRANCH   5   6
ENDBRANCH   3   5
ENDBRANCH   2   3
ENDBRANCH   1   2
BRANCH   1  30
ATOM     30  C   UNL A   1      33.452  29.852  25.521  1.00  0.00     0.275 C 
BRANCH  30  31
ATOM     31  O   UNL A   1      32.679  30.511  26.548  1.00  0.00    -0.458 OA
BRANCH  31  32
ATOM     32  C   UNL A   1      33.370  31.475  27.188  1.00  0.00     0.338 C 
ATOM     33  O   UNL A   1      32.948  32.583  27.491  1.00  0.00    -0.246 OA
BRANCH  32  34
ATOM     34  C   UNL A   1      34.692  31.064  27.651  1.00  0.00     0.060 A 
ATOM     35  C   UNL A   1      34.785  29.801  28.231  1.00  0.00     0.016 A 
ATOM     36  C   UNL A   1      35.722  31.995  27.795  1.00  0.00     0.016 A 
ATOM     37  C   UNL A   1      35.868  29.490  29.037  1.00  0.00     0.010 A 
ATOM     38  C   UNL A   1      36.857  31.646  28.537  1.00  0.00     0.010 A 
ATOM     39  C   UNL A   1      36.923  30.402  29.187  1.00  0.00    -0.014 A 
BRANCH  39  40
ATOM     40  C   UNL A   1      38.096  29.986  29.995  1.00  0.00     0.031 A 
ATOM     41  C   UNL A   1      39.121  29.030  29.457  1.00  0.00     0.074 A 
ATOM     42  C   UNL A   1      38.271  30.568  31.197  1.00  0.00     0.049 A 
ATOM     43  N   UNL A   1      40.236  28.622  30.008  1.00  0.00    -0.248 NA
ATOM     44  C   UNL A   1      38.869  28.465  28.124  1.00  0.00     0.031 C 
ATOM     45  C   UNL A   1      37.355  31.542  31.798  1.00  0.00     0.029 A 
ATOM     46  N   UNL A   1      39.282  30.454  32.113  1.00  0.00    -0.354 N 
ATOM     47  C   UNL A   1      40.832  27.772  29.085  1.00  0.00     0.074 A 
ATOM     48  C   UNL A   1      39.932  27.689  27.952  1.00  0.00     0.031 C 
ATOM     49  C   UNL A   1      37.864  31.961  32.964  1.00  0.00     0.029 A 
ATOM     50  C   UNL A   1      39.101  31.238  33.227  1.00  0.00     0.049 A 
ATOM     51  H   UNL A   1      40.063  29.867  31.986  1.00  0.00     0.167 HD
ATOM     52  C   UNL A   1      42.023  27.128  29.173  1.00  0.00     0.034 A 
ATOM     53  C   UNL A   1      39.833  31.342  34.351  1.00  0.00     0.034 A 
ATOM     54  C   UNL A   1      42.887  27.182  30.328  1.00  0.00     0.049 A 
ATOM     55  C   UNL A   1      41.090  30.526  34.466  1.00  0.00     0.074 A 
ATOM     56  C   UNL A   1      44.094  26.536  30.537  1.00  0.00     0.029 A 
ATOM     57  N   UNL A   1      42.628  27.915  31.479  1.00  0.00    -0.354 N 
ATOM     58  N   UNL A   1      41.632  29.716  33.587  1.00  0.00    -0.248 NA
ATOM     59  C   UNL A   1      41.832  30.641  35.725  1.00  0.00     0.031 C 
ATOM     60  C   UNL A   1      44.534  26.832  31.834  1.00  0.00     0.029 A 
ATOM     61  C   UNL A   1      43.633  27.712  32.413  1.00  0.00     0.049 A 
ATOM     62  H   UNL A   1      41.844  28.495  31.613  1.00  0.00     0.167 HD
ATOM     63  C   UNL A   1      42.786  29.227  34.189  1.00  0.00     0.074 A 
ATOM     64  C   UNL A   1      42.876  29.864  35.489  1.00  0.00     0.031 C 
ATOM     65  C   UNL A   1      43.688  28.328  33.717  1.00  0.00     0.034 A 
BRANCH  52  66
ATOM     66  C   UNL A   1      42.436  26.281  27.996  1.00  0.00     0.023 A 
ATOM     67  C   UNL A   1      41.957  24.971  27.838  1.00  0.00     0.031 A 
ATOM     68  C   UNL A   1      43.324  26.783  27.029  1.00  0.00     0.131 A 
ATOM     69  C   UNL A   1      42.402  24.187  26.764  1.00  0.00     0.055 A 
ATOM     70  C   UNL A   1      43.721  26.017  25.930  1.00  0.00     0.041 A 
ATOM     71  F   UNL A   1      43.830  28.021  27.142  1.00  0.00    -0.206 F 
ATOM     72  C   UNL A   1      43.268  24.707  25.798  1.00  0.00     0.022 A 
BRANCH  69  73
ATOM     73  S   UNL A   1      41.930  22.436  26.718  1.00  0.00     0.124 S 
ATOM     74  O   UNL A   1      42.589  21.921  27.917  1.00  0.00    -0.237 OA
ATOM     75  O   UNL A   1      40.474  22.502  26.772  1.00  0.00    -0.237 OA
ATOM     76  O   UNL A   1      42.490  21.963  25.454  1.00  0.00    -0.744 OA
ENDBRANCH  69  73
ENDBRANCH  52  66
BRANCH  53  77
ATOM     77  C   UNL A   1      39.363  32.200  35.473  1.00  0.00     0.023 A 
ATOM     78  C   UNL A   1      39.788  33.530  35.602  1.00  0.00     0.031 A 
ATOM     79  C   UNL A   1      38.503  31.680  36.457  1.00  0.00     0.131 A 
ATOM     80  C   UNL A   1      39.380  34.285  36.711  1.00  0.00     0.055 A 
ATOM     81  C   UNL A   1      38.057  32.452  37.530  1.00  0.00     0.041 A 
ATOM     82  F   UNL A   1      38.067  30.412  36.379  1.00  0.00    -0.206 F 
ATOM     83  C   UNL A   1      38.509  33.759  37.669  1.00  0.00     0.022 A 
BRANCH  80  84
ATOM     84  S   UNL A   1      40.082  35.942  36.938  1.00  0.00     0.124 S 
ATOM     85  O   UNL A   1      41.490  35.642  37.172  1.00  0.00    -0.237 OA
ATOM     86  O   UNL A   1      39.765  36.579  35.665  1.00  0.00    -0.237 OA
ATOM     87  O   UNL A   1      39.355  36.463  38.094  1.00  0.00    -0.744 OA
ENDBRANCH  80  84
ENDBRANCH  53  77
BRANCH  65  88
ATOM     88  C   UNL A   1      44.843  28.007  34.629  1.00  0.00     0.023 A 
ATOM     89  C   UNL A   1      44.753  26.975  35.581  1.00  0.00     0.031 A 
ATOM     90  C   UNL A   1      46.014  28.781  34.595  1.00  0.00     0.131 A 
ATOM     91  C   UNL A   1      45.783  26.795  36.513  1.00  0.00     0.055 A 
ATOM     92  C   UNL A   1      47.063  28.558  35.489  1.00  0.00     0.041 A 
ATOM     93  F   UNL A   1      46.150  29.778  33.708  1.00  0.00    -0.206 F 
ATOM     94  C   UNL A   1      46.943  27.573  36.467  1.00  0.00     0.022 A 
BRANCH  91  95
ATOM     95  S   UNL A   1      45.531  25.615  37.867  1.00  0.00     0.124 S 
ATOM     96  O   UNL A   1      46.835  24.965  37.953  1.00  0.00    -0.237 OA
ATOM     97  O   UNL A   1      45.179  26.490  38.980  1.00  0.00    -0.237 OA
ATOM     98  O   UNL A   1      44.446  24.764  37.381  1.00  0.00    -0.744 OA
ENDBRANCH  91  95
ENDBRANCH  65  88
ENDBRANCH  39  40
ENDBRANCH  32  34
ENDBRANCH  31  32
ENDBRANCH  30  31
ENDBRANCH   1  30
TORSDOF 19
ENDMDL
