MODEL 1
REMARK VINA RESULT:     -11.2      0.000      0.000
REMARK SMILES O=C(OCCOC(=O)c1cccnc1SCC(=O)c1ccccc1Cl)c1ccc(-c2c3nc(c(-c4cc(S(=O)(=O)[O-])ccc4F)c4ccc([nH]4)c(-c4cc(S(=O)(=O)[O-])ccc4F)c4nc(c(-c5cc(S(=O)(=O)[O-])ccc5F)c5ccc2[nH]5)C=C4)C=C3)cc1
REMARK SMILES IDX 5 1 4 2 3 3 2 4 1 5 26 6 27 7 88 8 28 9 87 10 29 11 30 12
REMARK SMILES IDX 31 13 81 14 32 15 86 16 80 17 82 18 33 19 85 20 79 21 78 22
REMARK SMILES IDX 34 24 66 25 46 26 65 27 47 28 50 29 64 30 83 31 48 32 49 33
REMARK SMILES IDX 63 35 84 36 51 37 35 38 36 39 44 40 37 41 43 42 45 43 42 44
REMARK SMILES IDX 38 45 39 46 40 47 41 48 67 49 68 50 76 51 69 52 75 53 77 54
REMARK SMILES IDX 74 55 70 56 71 57 72 58 73 59 52 60 53 61 61 62 54 63 60 64
REMARK SMILES IDX 62 65 59 66 55 67 56 68 57 69 58 70 6 71 7 72 8 73 9 74
REMARK SMILES IDX 10 75 14 76 11 77 13 78 12 79 15 80 16 81 17 82 18 83 19 84
REMARK SMILES IDX 20 85 24 86 21 87 23 88 25 89 22 90
REMARK H PARENT 82 23 50 34
REMARK Flexibility Score: inf
ROOT
ATOM      1  C   UNL A   1      32.229  30.814  26.691  1.00  0.00     0.275 C 
ENDROOT
BRANCH   1   2
ATOM      2  C   UNL A   1      31.843  32.294  26.637  1.00  0.00     0.275 C 
BRANCH   2   3
ATOM      3  O   UNL A   1      32.267  33.103  27.750  1.00  0.00    -0.458 OA
BRANCH   3   4
ATOM      4  C   UNL A   1      33.465  33.719  27.910  1.00  0.00     0.338 C 
ATOM      5  O   UNL A   1      33.640  34.842  27.441  1.00  0.00    -0.246 OA
BRANCH   4   6
ATOM      6  C   UNL A   1      34.629  32.986  28.473  1.00  0.00     0.060 A 
ATOM      7  C   UNL A   1      34.545  31.806  29.214  1.00  0.00     0.016 A 
ATOM      8  C   UNL A   1      35.892  33.525  28.211  1.00  0.00     0.016 A 
ATOM      9  C   UNL A   1      35.703  31.111  29.573  1.00  0.00     0.010 A 
ATOM     10  C   UNL A   1      37.052  32.820  28.536  1.00  0.00     0.010 A 
ATOM     11  C   UNL A   1      36.964  31.609  29.234  1.00  0.00    -0.014 A 
BRANCH  11  12
ATOM     12  C   UNL A   1      38.173  31.001  29.838  1.00  0.00     0.031 A 
ATOM     13  C   UNL A   1      38.550  31.457  31.219  1.00  0.00     0.074 A 
ATOM     14  C   UNL A   1      38.861  30.016  29.226  1.00  0.00     0.049 A 
ATOM     15  N   UNL A   1      39.470  30.985  32.016  1.00  0.00    -0.248 NA
ATOM     16  C   UNL A   1      37.756  32.553  31.801  1.00  0.00     0.031 C 
ATOM     17  C   UNL A   1      38.524  29.424  27.933  1.00  0.00     0.029 A 
ATOM     18  N   UNL A   1      39.992  29.339  29.608  1.00  0.00    -0.354 N 
ATOM     19  C   UNL A   1      39.317  31.680  33.208  1.00  0.00     0.074 A 
ATOM     20  C   UNL A   1      38.292  32.675  33.002  1.00  0.00     0.031 C 
ATOM     21  C   UNL A   1      39.473  28.532  27.591  1.00  0.00     0.029 A 
ATOM     22  C   UNL A   1      40.467  28.465  28.655  1.00  0.00     0.049 A 
ATOM     23  H   UNL A   1      40.424  29.466  30.483  1.00  0.00     0.167 HD
ATOM     24  C   UNL A   1      39.934  31.464  34.390  1.00  0.00     0.034 A 
ATOM     25  C   UNL A   1      41.576  27.698  28.651  1.00  0.00     0.034 A 
ATOM     26  C   UNL A   1      40.973  30.489  34.569  1.00  0.00     0.049 A 
ATOM     27  C   UNL A   1      42.385  27.620  29.924  1.00  0.00     0.074 A 
ATOM     28  C   UNL A   1      41.665  30.170  35.722  1.00  0.00     0.029 A 
ATOM     29  N   UNL A   1      41.492  29.694  33.555  1.00  0.00    -0.354 N 
ATOM     30  N   UNL A   1      42.166  28.218  31.074  1.00  0.00    -0.248 NA
ATOM     31  C   UNL A   1      43.547  26.723  29.926  1.00  0.00     0.031 C 
ATOM     32  C   UNL A   1      42.661  29.250  35.386  1.00  0.00     0.029 A 
ATOM     33  C   UNL A   1      42.534  28.927  34.043  1.00  0.00     0.049 A 
ATOM     34  H   UNL A   1      41.165  29.680  32.626  1.00  0.00     0.167 HD
ATOM     35  C   UNL A   1      43.120  27.713  31.952  1.00  0.00     0.074 A 
ATOM     36  C   UNL A   1      43.915  26.767  31.198  1.00  0.00     0.031 C 
ATOM     37  C   UNL A   1      43.311  27.990  33.268  1.00  0.00     0.034 A 
BRANCH  24  38
ATOM     38  C   UNL A   1      39.514  32.324  35.550  1.00  0.00     0.023 A 
ATOM     39  C   UNL A   1      40.150  33.550  35.826  1.00  0.00     0.031 A 
ATOM     40  C   UNL A   1      38.492  31.899  36.411  1.00  0.00     0.131 A 
ATOM     41  C   UNL A   1      39.791  34.280  36.968  1.00  0.00     0.055 A 
ATOM     42  C   UNL A   1      38.091  32.663  37.507  1.00  0.00     0.041 A 
ATOM     43  F   UNL A   1      37.877  30.722  36.212  1.00  0.00    -0.206 F 
ATOM     44  C   UNL A   1      38.749  33.856  37.796  1.00  0.00     0.022 A 
BRANCH  41  45
ATOM     45  S   UNL A   1      40.781  35.731  37.422  1.00  0.00     0.124 S 
ATOM     46  O   UNL A   1      41.509  35.993  36.184  1.00  0.00    -0.237 OA
ATOM     47  O   UNL A   1      39.761  36.710  37.782  1.00  0.00    -0.237 OA
ATOM     48  O   UNL A   1      41.601  35.251  38.532  1.00  0.00    -0.744 OA
ENDBRANCH  41  45
ENDBRANCH  24  38
BRANCH  25  49
ATOM     49  C   UNL A   1      42.004  26.952  27.428  1.00  0.00     0.023 A 
ATOM     50  C   UNL A   1      41.789  25.571  27.290  1.00  0.00     0.031 A 
ATOM     51  C   UNL A   1      42.747  27.601  26.423  1.00  0.00     0.131 A 
ATOM     52  C   UNL A   1      42.376  24.871  26.221  1.00  0.00     0.055 A 
ATOM     53  C   UNL A   1      43.286  26.909  25.335  1.00  0.00     0.041 A 
ATOM     54  F   UNL A   1      42.977  28.923  26.494  1.00  0.00    -0.206 F 
ATOM     55  C   UNL A   1      43.118  25.532  25.241  1.00  0.00     0.022 A 
BRANCH  52  56
ATOM     56  S   UNL A   1      42.262  23.059  26.202  1.00  0.00     0.124 S 
ATOM     57  O   UNL A   1      40.850  22.848  26.495  1.00  0.00    -0.237 OA
ATOM     58  O   UNL A   1      42.690  22.748  24.842  1.00  0.00    -0.237 OA
ATOM     59  O   UNL A   1      43.187  22.650  27.257  1.00  0.00    -0.744 OA
ENDBRANCH  52  56
ENDBRANCH  25  49
BRANCH  37  60
ATOM     60  C   UNL A   1      44.392  27.220  33.979  1.00  0.00     0.023 A 
ATOM     61  C   UNL A   1      44.167  25.928  34.482  1.00  0.00     0.031 A 
ATOM     62  C   UNL A   1      45.668  27.787  34.154  1.00  0.00     0.131 A 
ATOM     63  C   UNL A   1      45.180  25.271  35.190  1.00  0.00     0.055 A 
ATOM     64  C   UNL A   1      46.696  27.097  34.792  1.00  0.00     0.041 A 
ATOM     65  F   UNL A   1      45.937  29.021  33.696  1.00  0.00    -0.206 F 
ATOM     66  C   UNL A   1      46.452  25.836  35.328  1.00  0.00     0.022 A 
BRANCH  63  67
ATOM     67  S   UNL A   1      44.781  23.709  36.018  1.00  0.00     0.124 S 
ATOM     68  O   UNL A   1      43.414  23.471  35.565  1.00  0.00    -0.237 OA
ATOM     69  O   UNL A   1      45.795  22.805  35.487  1.00  0.00    -0.237 OA
ATOM     70  O   UNL A   1      44.917  24.030  37.438  1.00  0.00    -0.744 OA
ENDBRANCH  63  67
ENDBRANCH  37  60
ENDBRANCH  11  12
ENDBRANCH   4   6
ENDBRANCH   3   4
ENDBRANCH   2   3
ENDBRANCH   1   2
BRANCH   1  71
ATOM     71  O   UNL A   1      32.325  30.193  25.401  1.00  0.00    -0.458 OA
BRANCH  71  72
ATOM     72  C   UNL A   1      31.436  29.185  25.221  1.00  0.00     0.341 C 
ATOM     73  O   UNL A   1      31.407  28.125  25.824  1.00  0.00    -0.246 OA
BRANCH  72  74
ATOM     74  C   UNL A   1      30.625  29.397  24.018  1.00  0.00     0.092 A 
ATOM     75  C   UNL A   1      29.909  30.612  24.062  1.00  0.00     0.020 A 
ATOM     76  C   UNL A   1      30.483  28.581  22.902  1.00  0.00     0.111 A 
ATOM     77  C   UNL A   1      29.012  30.952  23.060  1.00  0.00     0.021 A 
ATOM     78  N   UNL A   1      29.577  28.926  21.932  1.00  0.00    -0.249 NA
ATOM     79  C   UNL A   1      28.855  30.060  22.032  1.00  0.00     0.112 A 
BRANCH  76  80
ATOM     80  S   UNL A   1      31.228  27.075  22.349  1.00  0.00    -0.097 SA
BRANCH  80  81
ATOM     81  C   UNL A   1      32.876  26.789  22.971  1.00  0.00     0.157 C 
BRANCH  81  82
ATOM     82  C   UNL A   1      33.463  25.420  23.083  1.00  0.00     0.174 C 
ATOM     83  O   UNL A   1      34.165  25.005  22.153  1.00  0.00    -0.293 OA
BRANCH  82  84
ATOM     84  C   UNL A   1      33.549  24.658  24.361  1.00  0.00     0.037 A 
ATOM     85  C   UNL A   1      34.877  24.449  24.797  1.00  0.00     0.013 A 
ATOM     86  C   UNL A   1      32.514  24.155  25.154  1.00  0.00     0.051 A 
ATOM     87  C   UNL A   1      35.163  23.817  26.005  1.00  0.00     0.001 A 
ATOM     88  C   UNL A   1      32.810  23.538  26.379  1.00  0.00     0.021 A 
ATOM     89  Cl  UNL A   1      30.850  24.119  24.742  1.00  0.00    -0.084 Cl
ATOM     90  C   UNL A   1      34.124  23.382  26.810  1.00  0.00     0.002 A 
ENDBRANCH  82  84
ENDBRANCH  81  82
ENDBRANCH  80  81
ENDBRANCH  76  80
ENDBRANCH  72  74
ENDBRANCH  71  72
ENDBRANCH   1  71
TORSDOF 18
ENDMDL
MODEL 2
REMARK VINA RESULT:     -11.1      2.291      3.108
REMARK SMILES O=C(OCCOC(=O)c1cccnc1SCC(=O)c1ccccc1Cl)c1ccc(-c2c3nc(c(-c4cc(S(=O)(=O)[O-])ccc4F)c4ccc([nH]4)c(-c4cc(S(=O)(=O)[O-])ccc4F)c4nc(c(-c5cc(S(=O)(=O)[O-])ccc5F)c5ccc2[nH]5)C=C4)C=C3)cc1
REMARK SMILES IDX 5 1 4 2 3 3 2 4 1 5 26 6 27 7 88 8 28 9 87 10 29 11 30 12
REMARK SMILES IDX 31 13 81 14 32 15 86 16 80 17 82 18 33 19 85 20 79 21 78 22
REMARK SMILES IDX 34 24 66 25 46 26 65 27 47 28 50 29 64 30 83 31 48 32 49 33
REMARK SMILES IDX 63 35 84 36 51 37 35 38 36 39 44 40 37 41 43 42 45 43 42 44
REMARK SMILES IDX 38 45 39 46 40 47 41 48 67 49 68 50 76 51 69 52 75 53 77 54
REMARK SMILES IDX 74 55 70 56 71 57 72 58 73 59 52 60 53 61 61 62 54 63 60 64
REMARK SMILES IDX 62 65 59 66 55 67 56 68 57 69 58 70 6 71 7 72 8 73 9 74
REMARK SMILES IDX 10 75 14 76 11 77 13 78 12 79 15 80 16 81 17 82 18 83 19 84
REMARK SMILES IDX 20 85 24 86 21 87 23 88 25 89 22 90
REMARK H PARENT 82 23 50 34
REMARK Flexibility Score: inf
ROOT
ATOM      1  C   UNL A   1      33.640  28.708  25.033  1.00  0.00     0.275 C 
ENDROOT
BRANCH   1   2
ATOM      2  C   UNL A   1      32.673  29.376  26.013  1.00  0.00     0.275 C 
BRANCH   2   3
ATOM      3  O   UNL A   1      33.196  29.668  27.322  1.00  0.00    -0.458 OA
BRANCH   3   4
ATOM      4  C   UNL A   1      34.157  30.570  27.643  1.00  0.00     0.338 C 
ATOM      5  O   UNL A   1      33.956  31.768  27.453  1.00  0.00    -0.246 OA
BRANCH   4   6
ATOM      6  C   UNL A   1      35.520  30.124  28.037  1.00  0.00     0.060 A 
ATOM      7  C   UNL A   1      36.654  30.218  27.228  1.00  0.00     0.016 A 
ATOM      8  C   UNL A   1      35.654  29.592  29.323  1.00  0.00     0.016 A 
ATOM      9  C   UNL A   1      37.916  29.909  27.740  1.00  0.00     0.010 A 
ATOM     10  C   UNL A   1      36.916  29.315  29.853  1.00  0.00     0.010 A 
ATOM     11  C   UNL A   1      38.058  29.460  29.056  1.00  0.00    -0.014 A 
BRANCH  11  12
ATOM     12  C   UNL A   1      39.357  28.898  29.497  1.00  0.00     0.031 A 
ATOM     13  C   UNL A   1      40.041  29.579  30.649  1.00  0.00     0.074 A 
ATOM     14  C   UNL A   1      39.869  27.773  28.959  1.00  0.00     0.049 A 
ATOM     15  N   UNL A   1      41.104  29.205  31.308  1.00  0.00    -0.248 NA
ATOM     16  C   UNL A   1      39.421  30.814  31.159  1.00  0.00     0.031 C 
ATOM     17  C   UNL A   1      39.241  26.972  27.910  1.00  0.00     0.029 A 
ATOM     18  N   UNL A   1      41.041  27.106  29.217  1.00  0.00    -0.354 N 
ATOM     19  C   UNL A   1      41.235  30.120  32.345  1.00  0.00     0.074 A 
ATOM     20  C   UNL A   1      40.213  31.123  32.170  1.00  0.00     0.031 C 
ATOM     21  C   UNL A   1      40.070  25.972  27.556  1.00  0.00     0.029 A 
ATOM     22  C   UNL A   1      41.273  26.040  28.376  1.00  0.00     0.049 A 
ATOM     23  H   UNL A   1      41.660  27.367  29.937  1.00  0.00     0.167 HD
ATOM     24  C   UNL A   1      42.094  30.088  33.387  1.00  0.00     0.034 A 
ATOM     25  C   UNL A   1      42.336  25.215  28.287  1.00  0.00     0.034 A 
ATOM     26  C   UNL A   1      43.124  29.098  33.529  1.00  0.00     0.049 A 
ATOM     27  C   UNL A   1      43.405  25.324  29.349  1.00  0.00     0.074 A 
ATOM     28  C   UNL A   1      44.046  28.957  34.548  1.00  0.00     0.029 A 
ATOM     29  N   UNL A   1      43.386  28.095  32.605  1.00  0.00    -0.354 N 
ATOM     30  N   UNL A   1      43.460  26.140  30.378  1.00  0.00    -0.248 NA
ATOM     31  C   UNL A   1      44.518  24.369  29.280  1.00  0.00     0.031 C 
ATOM     32  C   UNL A   1      44.922  27.926  34.196  1.00  0.00     0.029 A 
ATOM     33  C   UNL A   1      44.493  27.366  33.001  1.00  0.00     0.049 A 
ATOM     34  H   UNL A   1      42.862  27.929  31.788  1.00  0.00     0.167 HD
ATOM     35  C   UNL A   1      44.573  25.747  31.115  1.00  0.00     0.074 A 
ATOM     36  C   UNL A   1      45.160  24.626  30.410  1.00  0.00     0.031 C 
ATOM     37  C   UNL A   1      45.057  26.253  32.279  1.00  0.00     0.034 A 
BRANCH  24  38
ATOM     38  C   UNL A   1      41.961  31.177  34.417  1.00  0.00     0.023 A 
ATOM     39  C   UNL A   1      40.898  31.190  35.341  1.00  0.00     0.031 A 
ATOM     40  C   UNL A   1      42.884  32.232  34.452  1.00  0.00     0.131 A 
ATOM     41  C   UNL A   1      40.758  32.269  36.225  1.00  0.00     0.055 A 
ATOM     42  C   UNL A   1      42.778  33.268  35.380  1.00  0.00     0.041 A 
ATOM     43  F   UNL A   1      43.895  32.284  33.569  1.00  0.00    -0.206 F 
ATOM     44  C   UNL A   1      41.706  33.295  36.267  1.00  0.00     0.022 A 
BRANCH  41  45
ATOM     45  S   UNL A   1      39.259  32.374  37.242  1.00  0.00     0.124 S 
ATOM     46  O   UNL A   1      39.818  32.428  38.589  1.00  0.00    -0.237 OA
ATOM     47  O   UNL A   1      38.636  33.602  36.760  1.00  0.00    -0.237 OA
ATOM     48  O   UNL A   1      38.540  31.143  36.920  1.00  0.00    -0.744 OA
ENDBRANCH  41  45
ENDBRANCH  24  38
BRANCH  25  49
ATOM     49  C   UNL A   1      42.466  24.227  27.172  1.00  0.00     0.023 A 
ATOM     50  C   UNL A   1      41.853  22.965  27.228  1.00  0.00     0.031 A 
ATOM     51  C   UNL A   1      43.310  24.496  26.078  1.00  0.00     0.131 A 
ATOM     52  C   UNL A   1      42.155  21.993  26.257  1.00  0.00     0.055 A 
ATOM     53  C   UNL A   1      43.568  23.543  25.089  1.00  0.00     0.041 A 
ATOM     54  F   UNL A   1      43.916  25.690  25.964  1.00  0.00    -0.206 F 
ATOM     55  C   UNL A   1      43.004  22.276  25.187  1.00  0.00     0.022 A 
BRANCH  52  56
ATOM     56  S   UNL A   1      41.521  20.307  26.489  1.00  0.00     0.124 S 
ATOM     57  O   UNL A   1      42.145  19.600  25.378  1.00  0.00    -0.237 OA
ATOM     58  O   UNL A   1      42.021  19.982  27.821  1.00  0.00    -0.237 OA
ATOM     59  O   UNL A   1      40.072  20.474  26.390  1.00  0.00    -0.744 OA
ENDBRANCH  52  56
ENDBRANCH  25  49
BRANCH  37  60
ATOM     60  C   UNL A   1      46.252  25.560  32.880  1.00  0.00     0.023 A 
ATOM     61  C   UNL A   1      46.107  24.497  33.786  1.00  0.00     0.031 A 
ATOM     62  C   UNL A   1      47.554  25.970  32.540  1.00  0.00     0.131 A 
ATOM     63  C   UNL A   1      47.242  23.921  34.369  1.00  0.00     0.055 A 
ATOM     64  C   UNL A   1      48.681  25.340  33.065  1.00  0.00     0.041 A 
ATOM     65  F   UNL A   1      47.750  26.983  31.681  1.00  0.00    -0.206 F 
ATOM     66  C   UNL A   1      48.529  24.318  33.997  1.00  0.00     0.022 A 
BRANCH  63  67
ATOM     67  S   UNL A   1      47.009  22.712  35.700  1.00  0.00     0.124 S 
ATOM     68  O   UNL A   1      47.785  21.577  35.212  1.00  0.00    -0.237 OA
ATOM     69  O   UNL A   1      47.559  23.410  36.856  1.00  0.00    -0.237 OA
ATOM     70  O   UNL A   1      45.562  22.508  35.728  1.00  0.00    -0.744 OA
ENDBRANCH  63  67
ENDBRANCH  37  60
ENDBRANCH  11  12
ENDBRANCH   4   6
ENDBRANCH   3   4
ENDBRANCH   2   3
ENDBRANCH   1   2
BRANCH   1  71
ATOM     71  O   UNL A   1      33.437  29.094  23.666  1.00  0.00    -0.458 OA
BRANCH  71  72
ATOM     72  C   UNL A   1      33.002  28.080  22.878  1.00  0.00     0.341 C 
ATOM     73  O   UNL A   1      33.664  27.455  22.066  1.00  0.00    -0.246 OA
BRANCH  72  74
ATOM     74  C   UNL A   1      31.541  27.957  22.924  1.00  0.00     0.092 A 
ATOM     75  C   UNL A   1      30.891  29.131  22.489  1.00  0.00     0.020 A 
ATOM     76  C   UNL A   1      30.766  26.878  23.330  1.00  0.00     0.111 A 
ATOM     77  C   UNL A   1      29.510  29.247  22.546  1.00  0.00     0.021 A 
ATOM     78  N   UNL A   1      29.404  27.020  23.397  1.00  0.00    -0.249 NA
ATOM     79  C   UNL A   1      28.811  28.178  23.040  1.00  0.00     0.112 A 
BRANCH  76  80
ATOM     80  S   UNL A   1      31.099  25.214  23.831  1.00  0.00    -0.097 SA
BRANCH  80  81
ATOM     81  C   UNL A   1      32.245  24.337  22.782  1.00  0.00     0.157 C 
BRANCH  81  82
ATOM     82  C   UNL A   1      33.035  23.164  23.263  1.00  0.00     0.174 C 
ATOM     83  O   UNL A   1      32.742  22.042  22.832  1.00  0.00    -0.293 OA
BRANCH  82  84
ATOM     84  C   UNL A   1      34.352  23.279  23.952  1.00  0.00     0.037 A 
ATOM     85  C   UNL A   1      35.444  22.920  23.128  1.00  0.00     0.013 A 
ATOM     86  C   UNL A   1      34.627  23.694  25.257  1.00  0.00     0.051 A 
ATOM     87  C   UNL A   1      36.761  23.028  23.567  1.00  0.00     0.001 A 
ATOM     88  C   UNL A   1      35.958  23.819  25.685  1.00  0.00     0.021 A 
ATOM     89  Cl  UNL A   1      33.471  23.995  26.487  1.00  0.00    -0.084 Cl
ATOM     90  C   UNL A   1      37.019  23.502  24.843  1.00  0.00     0.002 A 
ENDBRANCH  82  84
ENDBRANCH  81  82
ENDBRANCH  80  81
ENDBRANCH  76  80
ENDBRANCH  72  74
ENDBRANCH  71  72
ENDBRANCH   1  71
TORSDOF 18
ENDMDL
MODEL 3
REMARK VINA RESULT:     -11.1      4.642     10.350
REMARK SMILES O=C(OCCOC(=O)c1cccnc1SCC(=O)c1ccccc1Cl)c1ccc(-c2c3nc(c(-c4cc(S(=O)(=O)[O-])ccc4F)c4ccc([nH]4)c(-c4cc(S(=O)(=O)[O-])ccc4F)c4nc(c(-c5cc(S(=O)(=O)[O-])ccc5F)c5ccc2[nH]5)C=C4)C=C3)cc1
REMARK SMILES IDX 5 1 4 2 3 3 2 4 1 5 26 6 27 7 88 8 28 9 87 10 29 11 30 12
REMARK SMILES IDX 31 13 81 14 32 15 86 16 80 17 82 18 33 19 85 20 79 21 78 22
REMARK SMILES IDX 34 24 66 25 46 26 65 27 47 28 50 29 64 30 83 31 48 32 49 33
REMARK SMILES IDX 63 35 84 36 51 37 35 38 36 39 44 40 37 41 43 42 45 43 42 44
REMARK SMILES IDX 38 45 39 46 40 47 41 48 67 49 68 50 76 51 69 52 75 53 77 54
REMARK SMILES IDX 74 55 70 56 71 57 72 58 73 59 52 60 53 61 61 62 54 63 60 64
REMARK SMILES IDX 62 65 59 66 55 67 56 68 57 69 58 70 6 71 7 72 8 73 9 74
REMARK SMILES IDX 10 75 14 76 11 77 13 78 12 79 15 80 16 81 17 82 18 83 19 84
REMARK SMILES IDX 20 85 24 86 21 87 23 88 25 89 22 90
REMARK H PARENT 82 23 50 34
REMARK Flexibility Score: inf
ROOT
ATOM      1  C   UNL A   1      37.205  20.574  25.005  1.00  0.00     0.275 C 
ENDROOT
BRANCH   1   2
ATOM      2  C   UNL A   1      38.382  21.363  25.583  1.00  0.00     0.275 C 
BRANCH   2   3
ATOM      3  O   UNL A   1      39.583  20.613  25.843  1.00  0.00    -0.458 OA
BRANCH   3   4
ATOM      4  C   UNL A   1      40.606  20.957  26.665  1.00  0.00     0.338 C 
ATOM      5  O   UNL A   1      41.216  20.082  27.277  1.00  0.00    -0.246 OA
BRANCH   4   6
ATOM      6  C   UNL A   1      40.876  22.383  26.990  1.00  0.00     0.060 A 
ATOM      7  C   UNL A   1      40.524  23.464  26.182  1.00  0.00     0.016 A 
ATOM      8  C   UNL A   1      41.512  22.635  28.210  1.00  0.00     0.016 A 
ATOM      9  C   UNL A   1      40.687  24.774  26.640  1.00  0.00     0.010 A 
ATOM     10  C   UNL A   1      41.645  23.939  28.690  1.00  0.00     0.010 A 
ATOM     11  C   UNL A   1      41.244  25.022  27.898  1.00  0.00    -0.014 A 
BRANCH  11  12
ATOM     12  C   UNL A   1      41.641  26.403  28.258  1.00  0.00     0.031 A 
ATOM     13  C   UNL A   1      43.065  26.798  27.986  1.00  0.00     0.074 A 
ATOM     14  C   UNL A   1      40.754  27.305  28.724  1.00  0.00     0.049 A 
ATOM     15  N   UNL A   1      43.622  27.975  28.078  1.00  0.00    -0.248 NA
ATOM     16  C   UNL A   1      43.970  25.742  27.498  1.00  0.00     0.031 C 
ATOM     17  C   UNL A   1      39.327  27.063  28.928  1.00  0.00     0.029 A 
ATOM     18  N   UNL A   1      40.920  28.609  29.117  1.00  0.00    -0.354 N 
ATOM     19  C   UNL A   1      44.914  27.810  27.597  1.00  0.00     0.074 A 
ATOM     20  C   UNL A   1      45.096  26.407  27.314  1.00  0.00     0.031 C 
ATOM     21  C   UNL A   1      38.765  28.153  29.484  1.00  0.00     0.029 A 
ATOM     22  C   UNL A   1      39.784  29.182  29.646  1.00  0.00     0.049 A 
ATOM     23  H   UNL A   1      41.774  29.092  29.029  1.00  0.00     0.167 HD
ATOM     24  C   UNL A   1      45.846  28.758  27.354  1.00  0.00     0.034 A 
ATOM     25  C   UNL A   1      39.596  30.401  30.192  1.00  0.00     0.034 A 
ATOM     26  C   UNL A   1      45.658  30.146  27.670  1.00  0.00     0.049 A 
ATOM     27  C   UNL A   1      40.726  31.399  30.098  1.00  0.00     0.074 A 
ATOM     28  C   UNL A   1      46.525  31.201  27.459  1.00  0.00     0.029 A 
ATOM     29  N   UNL A   1      44.532  30.667  28.294  1.00  0.00    -0.354 N 
ATOM     30  N   UNL A   1      41.912  31.248  29.553  1.00  0.00    -0.248 NA
ATOM     31  C   UNL A   1      40.477  32.744  30.632  1.00  0.00     0.031 C 
ATOM     32  C   UNL A   1      45.963  32.342  28.037  1.00  0.00     0.029 A 
ATOM     33  C   UNL A   1      44.706  32.019  28.529  1.00  0.00     0.049 A 
ATOM     34  H   UNL A   1      43.730  30.150  28.535  1.00  0.00     0.167 HD
ATOM     35  C   UNL A   1      42.520  32.498  29.614  1.00  0.00     0.074 A 
ATOM     36  C   UNL A   1      41.571  33.387  30.252  1.00  0.00     0.031 C 
ATOM     37  C   UNL A   1      43.743  32.883  29.168  1.00  0.00     0.034 A 
BRANCH  24  38
ATOM     38  C   UNL A   1      47.146  28.301  26.752  1.00  0.00     0.023 A 
ATOM     39  C   UNL A   1      47.297  28.136  25.362  1.00  0.00     0.031 A 
ATOM     40  C   UNL A   1      48.237  27.992  27.579  1.00  0.00     0.131 A 
ATOM     41  C   UNL A   1      48.495  27.622  24.847  1.00  0.00     0.055 A 
ATOM     42  C   UNL A   1      49.451  27.546  27.055  1.00  0.00     0.041 A 
ATOM     43  F   UNL A   1      48.134  28.100  28.914  1.00  0.00    -0.206 F 
ATOM     44  C   UNL A   1      49.582  27.350  25.683  1.00  0.00     0.022 A 
BRANCH  41  45
ATOM     45  S   UNL A   1      48.578  27.204  23.084  1.00  0.00     0.124 S 
ATOM     46  O   UNL A   1      47.539  28.063  22.525  1.00  0.00    -0.237 OA
ATOM     47  O   UNL A   1      49.951  27.557  22.739  1.00  0.00    -0.237 OA
ATOM     48  O   UNL A   1      48.278  25.774  23.057  1.00  0.00    -0.744 OA
ENDBRANCH  41  45
ENDBRANCH  24  38
BRANCH  25  49
ATOM     49  C   UNL A   1      38.316  30.758  30.878  1.00  0.00     0.023 A 
ATOM     50  C   UNL A   1      37.272  31.412  30.202  1.00  0.00     0.031 A 
ATOM     51  C   UNL A   1      38.170  30.551  32.263  1.00  0.00     0.131 A 
ATOM     52  C   UNL A   1      36.170  31.905  30.922  1.00  0.00     0.055 A 
ATOM     53  C   UNL A   1      37.047  30.999  32.965  1.00  0.00     0.041 A 
ATOM     54  F   UNL A   1      39.130  29.922  32.961  1.00  0.00    -0.206 F 
ATOM     55  C   UNL A   1      36.049  31.699  32.297  1.00  0.00     0.022 A 
BRANCH  52  56
ATOM     56  S   UNL A   1      34.955  32.937  30.051  1.00  0.00     0.124 S 
ATOM     57  O   UNL A   1      34.375  31.984  29.112  1.00  0.00    -0.237 OA
ATOM     58  O   UNL A   1      34.092  33.368  31.145  1.00  0.00    -0.237 OA
ATOM     59  O   UNL A   1      35.773  33.988  29.450  1.00  0.00    -0.744 OA
ENDBRANCH  52  56
ENDBRANCH  25  49
BRANCH  37  60
ATOM     60  C   UNL A   1      44.097  34.340  29.312  1.00  0.00     0.023 A 
ATOM     61  C   UNL A   1      44.761  34.827  30.450  1.00  0.00     0.031 A 
ATOM     62  C   UNL A   1      43.765  35.253  28.295  1.00  0.00     0.131 A 
ATOM     63  C   UNL A   1      45.016  36.198  30.571  1.00  0.00     0.055 A 
ATOM     64  C   UNL A   1      44.091  36.604  28.388  1.00  0.00     0.041 A 
ATOM     65  F   UNL A   1      43.126  34.842  27.187  1.00  0.00    -0.206 F 
ATOM     66  C   UNL A   1      44.708  37.088  29.538  1.00  0.00     0.022 A 
BRANCH  63  67
ATOM     67  S   UNL A   1      45.665  36.818  32.146  1.00  0.00     0.124 S 
ATOM     68  O   UNL A   1      44.788  36.162  33.110  1.00  0.00    -0.237 OA
ATOM     69  O   UNL A   1      47.047  36.351  32.121  1.00  0.00    -0.237 OA
ATOM     70  O   UNL A   1      45.497  38.266  32.039  1.00  0.00    -0.744 OA
ENDBRANCH  63  67
ENDBRANCH  37  60
ENDBRANCH  11  12
ENDBRANCH   4   6
ENDBRANCH   3   4
ENDBRANCH   2   3
ENDBRANCH   1   2
BRANCH   1  71
ATOM     71  O   UNL A   1      36.028  21.366  24.788  1.00  0.00    -0.458 OA
BRANCH  71  72
ATOM     72  C   UNL A   1      34.874  20.696  25.032  1.00  0.00     0.341 C 
ATOM     73  O   UNL A   1      34.581  19.583  24.628  1.00  0.00    -0.246 OA
BRANCH  72  74
ATOM     74  C   UNL A   1      33.872  21.566  25.655  1.00  0.00     0.092 A 
ATOM     75  C   UNL A   1      34.053  21.679  27.049  1.00  0.00     0.020 A 
ATOM     76  C   UNL A   1      32.818  22.251  25.062  1.00  0.00     0.111 A 
ATOM     77  C   UNL A   1      33.152  22.384  27.834  1.00  0.00     0.021 A 
ATOM     78  N   UNL A   1      31.927  22.926  25.857  1.00  0.00    -0.249 NA
ATOM     79  C   UNL A   1      32.086  22.961  27.197  1.00  0.00     0.112 A 
BRANCH  76  80
ATOM     80  S   UNL A   1      32.266  22.506  23.401  1.00  0.00    -0.097 SA
BRANCH  80  81
ATOM     81  C   UNL A   1      33.379  23.463  22.387  1.00  0.00     0.157 C 
BRANCH  81  82
ATOM     82  C   UNL A   1      33.535  24.940  22.541  1.00  0.00     0.174 C 
ATOM     83  O   UNL A   1      33.655  25.627  21.520  1.00  0.00    -0.293 OA
BRANCH  82  84
ATOM     84  C   UNL A   1      33.221  25.679  23.797  1.00  0.00     0.037 A 
ATOM     85  C   UNL A   1      32.098  26.529  23.677  1.00  0.00     0.013 A 
ATOM     86  C   UNL A   1      33.870  25.624  25.033  1.00  0.00     0.051 A 
ATOM     87  C   UNL A   1      31.604  27.251  24.760  1.00  0.00     0.001 A 
ATOM     88  C   UNL A   1      33.354  26.340  26.125  1.00  0.00     0.021 A 
ATOM     89  Cl  UNL A   1      35.348  24.821  25.365  1.00  0.00    -0.084 Cl
ATOM     90  C   UNL A   1      32.222  27.137  25.995  1.00  0.00     0.002 A 
ENDBRANCH  82  84
ENDBRANCH  81  82
ENDBRANCH  80  81
ENDBRANCH  76  80
ENDBRANCH  72  74
ENDBRANCH  71  72
ENDBRANCH   1  71
TORSDOF 18
ENDMDL
