MODEL 1
REMARK VINA RESULT:     -12.5      0.000      0.000
REMARK SMILES CC(=O)Nc1cccc(NC(=O)N[C@H](C(=O)OCCOC(=O)c2ccc(-c3c4nc(c(-c5cc(S(=O)(=O)[O-])ccc5F)c5ccc([nH]5)c(-c5cc(S(=O)(=O)[O-])ccc5F)c5nc(c(-c6cc(S(=O)(=O)[O-])ccc6F)c6ccc3[nH]6)C=C5)C=C4)cc2)C(C)C)c1
REMARK SMILES IDX 18 1 17 2 15 3 16 4 14 5 13 6 10 7 11 8 12 10 9 12 5 13 6 14
REMARK SMILES IDX 89 15 7 16 8 17 4 18 1 19 2 20 3 21 86 23 87 24 88 25 19 26
REMARK SMILES IDX 20 27 21 28 22 29 23 30 24 31 85 32 25 33 84 34 26 35 27 36
REMARK SMILES IDX 28 37 78 38 29 39 83 40 77 41 79 42 30 43 82 44 76 45 75 46
REMARK SMILES IDX 31 48 63 49 43 50 62 51 44 52 47 53 61 54 80 55 45 56 46 57
REMARK SMILES IDX 60 59 81 60 48 61 32 62 33 63 41 64 34 65 40 66 42 67 39 68
REMARK SMILES IDX 35 69 36 70 37 71 38 72 64 73 65 74 73 75 66 76 72 77 74 78
REMARK SMILES IDX 71 79 67 80 68 81 69 82 70 83 49 84 50 85 58 86 51 87 57 88
REMARK SMILES IDX 59 89 56 90 52 91 53 92 54 93 55 94
REMARK H PARENT 10 9 13 11 4 22 79 47 47 58
REMARK Flexibility Score: inf
ROOT
ATOM      1  C   UNL A   1      31.715  28.183  26.705  1.00  0.00     0.274 C 
ENDROOT
BRANCH   1   2
ATOM      2  O   UNL A   1      31.314  27.077  25.871  1.00  0.00    -0.461 OA
BRANCH   2   3
ATOM      3  C   UNL A   1      32.304  26.280  25.364  1.00  0.00     0.329 C 
ATOM      4  O   UNL A   1      33.271  25.867  25.989  1.00  0.00    -0.250 OA
BRANCH   3   5
ATOM      5  C   UNL A   1      32.039  25.996  23.875  1.00  0.00     0.196 C 
BRANCH   5   6
ATOM      6  N   UNL A   1      33.077  26.667  23.100  1.00  0.00    -0.324 N 
ATOM      7  N   UNL A   1      32.187  28.689  22.194  1.00  0.00    -0.308 N 
ATOM      8  C   UNL A   1      33.168  27.803  22.415  1.00  0.00     0.319 C 
ATOM      9  H   UNL A   1      32.547  29.521  21.809  1.00  0.00     0.171 HD
ATOM     10  O   UNL A   1      34.291  28.113  22.000  1.00  0.00    -0.248 OA
ATOM     11  H   UNL A   1      33.916  26.152  23.079  1.00  0.00     0.166 HD
BRANCH   7  12
ATOM     12  C   UNL A   1      30.797  28.776  22.350  1.00  0.00     0.044 A 
ATOM     13  C   UNL A   1      28.811  30.135  22.110  1.00  0.00     0.043 A 
ATOM     14  C   UNL A   1      28.064  29.243  22.868  1.00  0.00     0.026 A 
ATOM     15  C   UNL A   1      30.185  29.948  21.921  1.00  0.00     0.052 A 
ATOM     16  C   UNL A   1      28.638  28.022  23.179  1.00  0.00     0.004 A 
ATOM     17  C   UNL A   1      29.965  27.771  22.818  1.00  0.00     0.026 A 
BRANCH  13  18
ATOM     18  N   UNL A   1      28.123  31.104  21.377  1.00  0.00    -0.326 N 
ATOM     19  C   UNL A   1      28.820  32.879  22.982  1.00  0.00     0.114 C 
ATOM     20  C   UNL A   1      28.110  32.439  21.717  1.00  0.00     0.221 C 
ATOM     21  O   UNL A   1      27.576  33.255  20.963  1.00  0.00    -0.275 OA
ATOM     22  H   UNL A   1      27.623  30.819  20.578  1.00  0.00     0.169 HD
ENDBRANCH  13  18
ENDBRANCH   7  12
ENDBRANCH   5   6
BRANCH   5  23
ATOM     23  C   UNL A   1      31.985  24.486  23.524  1.00  0.00     0.017 C 
ATOM     24  C   UNL A   1      30.545  23.997  23.329  1.00  0.00     0.010 C 
ATOM     25  C   UNL A   1      32.821  24.071  22.300  1.00  0.00     0.010 C 
ENDBRANCH   5  23
ENDBRANCH   3   5
ENDBRANCH   2   3
ENDBRANCH   1   2
BRANCH   1  26
ATOM     26  C   UNL A   1      31.693  29.478  25.899  1.00  0.00     0.275 C 
BRANCH  26  27
ATOM     27  O   UNL A   1      33.001  30.063  25.963  1.00  0.00    -0.458 OA
BRANCH  27  28
ATOM     28  C   UNL A   1      33.163  31.105  26.814  1.00  0.00     0.338 C 
ATOM     29  O   UNL A   1      32.362  31.990  27.053  1.00  0.00    -0.246 OA
BRANCH  28  30
ATOM     30  C   UNL A   1      34.467  30.956  27.497  1.00  0.00     0.060 A 
ATOM     31  C   UNL A   1      34.871  29.698  27.938  1.00  0.00     0.016 A 
ATOM     32  C   UNL A   1      35.245  32.071  27.801  1.00  0.00     0.016 A 
ATOM     33  C   UNL A   1      35.989  29.557  28.750  1.00  0.00     0.010 A 
ATOM     34  C   UNL A   1      36.456  31.901  28.488  1.00  0.00     0.010 A 
ATOM     35  C   UNL A   1      36.844  30.639  28.975  1.00  0.00    -0.014 A 
BRANCH  35  36
ATOM     36  C   UNL A   1      38.152  30.435  29.665  1.00  0.00     0.031 A 
ATOM     37  C   UNL A   1      39.219  29.581  29.038  1.00  0.00     0.074 A 
ATOM     38  C   UNL A   1      38.375  30.991  30.877  1.00  0.00     0.049 A 
ATOM     39  N   UNL A   1      40.265  29.023  29.591  1.00  0.00    -0.248 NA
ATOM     40  C   UNL A   1      39.079  29.303  27.601  1.00  0.00     0.031 C 
ATOM     41  C   UNL A   1      37.466  31.902  31.580  1.00  0.00     0.029 A 
ATOM     42  N   UNL A   1      39.437  30.869  31.741  1.00  0.00    -0.354 N 
ATOM     43  C   UNL A   1      40.870  28.269  28.591  1.00  0.00     0.074 A 
ATOM     44  C   UNL A   1      40.073  28.451  27.393  1.00  0.00     0.031 C 
ATOM     45  C   UNL A   1      38.023  32.287  32.735  1.00  0.00     0.029 A 
ATOM     46  C   UNL A   1      39.252  31.537  32.932  1.00  0.00     0.049 A 
ATOM     47  H   UNL A   1      40.250  30.355  31.530  1.00  0.00     0.167 HD
ATOM     48  C   UNL A   1      41.976  27.489  28.677  1.00  0.00     0.034 A 
ATOM     49  C   UNL A   1      39.932  31.488  34.093  1.00  0.00     0.034 A 
ATOM     50  C   UNL A   1      42.774  27.364  29.877  1.00  0.00     0.049 A 
ATOM     51  C   UNL A   1      41.103  30.552  34.196  1.00  0.00     0.074 A 
ATOM     52  C   UNL A   1      43.921  26.616  30.078  1.00  0.00     0.029 A 
ATOM     53  N   UNL A   1      42.509  28.010  31.079  1.00  0.00    -0.354 N 
ATOM     54  N   UNL A   1      41.607  29.761  33.279  1.00  0.00    -0.248 NA
ATOM     55  C   UNL A   1      41.776  30.481  35.498  1.00  0.00     0.031 C 
ATOM     56  C   UNL A   1      44.314  26.762  31.416  1.00  0.00     0.029 A 
ATOM     57  C   UNL A   1      43.452  27.655  32.032  1.00  0.00     0.049 A 
ATOM     58  H   UNL A   1      41.761  28.632  31.232  1.00  0.00     0.167 HD
ATOM     59  C   UNL A   1      42.660  29.094  33.896  1.00  0.00     0.074 A 
ATOM     60  C   UNL A   1      42.734  29.600  35.252  1.00  0.00     0.031 C 
ATOM     61  C   UNL A   1      43.489  28.147  33.389  1.00  0.00     0.034 A 
BRANCH  48  62
ATOM     62  C   UNL A   1      42.342  26.653  27.474  1.00  0.00     0.023 A 
ATOM     63  C   UNL A   1      41.971  25.304  27.351  1.00  0.00     0.031 A 
ATOM     64  C   UNL A   1      43.102  27.222  26.434  1.00  0.00     0.131 A 
ATOM     65  C   UNL A   1      42.415  24.552  26.251  1.00  0.00     0.055 A 
ATOM     66  C   UNL A   1      43.476  26.490  25.306  1.00  0.00     0.041 A 
ATOM     67  F   UNL A   1      43.507  28.500  26.504  1.00  0.00    -0.206 F 
ATOM     68  C   UNL A   1      43.144  25.143  25.215  1.00  0.00     0.022 A 
BRANCH  65  69
ATOM     69  S   UNL A   1      42.143  22.759  26.255  1.00  0.00     0.124 S 
ATOM     70  O   UNL A   1      42.683  22.374  24.953  1.00  0.00    -0.237 OA
ATOM     71  O   UNL A   1      42.910  22.327  27.417  1.00  0.00    -0.237 OA
ATOM     72  O   UNL A   1      40.692  22.631  26.381  1.00  0.00    -0.744 OA
ENDBRANCH  65  69
ENDBRANCH  48  62
BRANCH  49  73
ATOM     73  C   UNL A   1      39.449  32.252  35.280  1.00  0.00     0.023 A 
ATOM     74  C   UNL A   1      39.862  33.571  35.509  1.00  0.00     0.031 A 
ATOM     75  C   UNL A   1      38.571  31.663  36.211  1.00  0.00     0.131 A 
ATOM     76  C   UNL A   1      39.415  34.253  36.653  1.00  0.00     0.055 A 
ATOM     77  C   UNL A   1      38.083  32.365  37.313  1.00  0.00     0.041 A 
ATOM     78  F   UNL A   1      38.147  30.399  36.042  1.00  0.00    -0.206 F 
ATOM     79  C   UNL A   1      38.513  33.666  37.545  1.00  0.00     0.022 A 
BRANCH  76  80
ATOM     80  S   UNL A   1      40.088  35.901  36.999  1.00  0.00     0.124 S 
ATOM     81  O   UNL A   1      41.509  35.614  37.160  1.00  0.00    -0.237 OA
ATOM     82  O   UNL A   1      39.715  36.640  35.798  1.00  0.00    -0.237 OA
ATOM     83  O   UNL A   1      39.390  36.303  38.219  1.00  0.00    -0.744 OA
ENDBRANCH  76  80
ENDBRANCH  49  73
BRANCH  61  84
ATOM     84  C   UNL A   1      44.556  27.628  34.316  1.00  0.00     0.023 A 
ATOM     85  C   UNL A   1      44.338  26.497  35.124  1.00  0.00     0.031 A 
ATOM     86  C   UNL A   1      45.787  28.295  34.423  1.00  0.00     0.131 A 
ATOM     87  C   UNL A   1      45.317  26.102  36.047  1.00  0.00     0.055 A 
ATOM     88  C   UNL A   1      46.780  27.863  35.303  1.00  0.00     0.041 A 
ATOM     89  F   UNL A   1      46.043  29.382  33.678  1.00  0.00    -0.206 F 
ATOM     90  C   UNL A   1      46.542  26.768  36.130  1.00  0.00     0.022 A 
BRANCH  87  91
ATOM     91  S   UNL A   1      44.931  24.758  37.200  1.00  0.00     0.124 S 
ATOM     92  O   UNL A   1      44.842  23.608  36.305  1.00  0.00    -0.237 OA
ATOM     93  O   UNL A   1      46.079  24.777  38.101  1.00  0.00    -0.237 OA
ATOM     94  O   UNL A   1      43.666  25.175  37.802  1.00  0.00    -0.744 OA
ENDBRANCH  87  91
ENDBRANCH  61  84
ENDBRANCH  35  36
ENDBRANCH  28  30
ENDBRANCH  27  28
ENDBRANCH  26  27
ENDBRANCH   1  26
TORSDOF 18
ENDMDL
MODEL 2
REMARK VINA RESULT:     -12.4      5.716     10.726
REMARK SMILES CC(=O)Nc1cccc(NC(=O)N[C@H](C(=O)OCCOC(=O)c2ccc(-c3c4nc(c(-c5cc(S(=O)(=O)[O-])ccc5F)c5ccc([nH]5)c(-c5cc(S(=O)(=O)[O-])ccc5F)c5nc(c(-c6cc(S(=O)(=O)[O-])ccc6F)c6ccc3[nH]6)C=C5)C=C4)cc2)C(C)C)c1
REMARK SMILES IDX 18 1 17 2 15 3 16 4 14 5 13 6 10 7 11 8 12 10 9 12 5 13 6 14
REMARK SMILES IDX 89 15 7 16 8 17 4 18 1 19 2 20 3 21 86 23 87 24 88 25 19 26
REMARK SMILES IDX 20 27 21 28 22 29 23 30 24 31 85 32 25 33 84 34 26 35 27 36
REMARK SMILES IDX 28 37 78 38 29 39 83 40 77 41 79 42 30 43 82 44 76 45 75 46
REMARK SMILES IDX 31 48 63 49 43 50 62 51 44 52 47 53 61 54 80 55 45 56 46 57
REMARK SMILES IDX 60 59 81 60 48 61 32 62 33 63 41 64 34 65 40 66 42 67 39 68
REMARK SMILES IDX 35 69 36 70 37 71 38 72 64 73 65 74 73 75 66 76 72 77 74 78
REMARK SMILES IDX 71 79 67 80 68 81 69 82 70 83 49 84 50 85 58 86 51 87 57 88
REMARK SMILES IDX 59 89 56 90 52 91 53 92 54 93 55 94
REMARK H PARENT 10 9 13 11 4 22 79 47 47 58
REMARK Flexibility Score: inf
ROOT
ATOM      1  C   UNL A   1      36.153  22.524  23.547  1.00  0.00     0.274 C 
ENDROOT
BRANCH   1   2
ATOM      2  O   UNL A   1      34.861  23.131  23.341  1.00  0.00    -0.461 OA
BRANCH   2   3
ATOM      3  C   UNL A   1      34.375  23.932  24.338  1.00  0.00     0.329 C 
ATOM      4  O   UNL A   1      34.952  24.902  24.812  1.00  0.00    -0.250 OA
BRANCH   3   5
ATOM      5  C   UNL A   1      33.001  23.419  24.801  1.00  0.00     0.196 C 
BRANCH   5   6
ATOM      6  N   UNL A   1      33.062  23.217  26.244  1.00  0.00    -0.324 N 
ATOM      7  N   UNL A   1      33.064  20.873  26.701  1.00  0.00    -0.308 N 
ATOM      8  C   UNL A   1      33.118  22.164  27.056  1.00  0.00     0.319 C 
ATOM      9  H   UNL A   1      33.294  20.291  27.461  1.00  0.00     0.171 HD
ATOM     10  O   UNL A   1      33.313  22.397  28.255  1.00  0.00    -0.248 OA
ATOM     11  H   UNL A   1      33.063  24.067  26.740  1.00  0.00     0.166 HD
BRANCH   7  12
ATOM     12  C   UNL A   1      32.774  20.109  25.563  1.00  0.00     0.044 A 
ATOM     13  C   UNL A   1      32.587  17.899  24.598  1.00  0.00     0.043 A 
ATOM     14  C   UNL A   1      32.520  18.424  23.315  1.00  0.00     0.026 A 
ATOM     15  C   UNL A   1      32.797  18.726  25.708  1.00  0.00     0.052 A 
ATOM     16  C   UNL A   1      32.366  19.794  23.186  1.00  0.00     0.004 A 
ATOM     17  C   UNL A   1      32.388  20.602  24.327  1.00  0.00     0.026 A 
BRANCH  13  18
ATOM     18  N   UNL A   1      32.239  16.558  24.774  1.00  0.00    -0.326 N 
ATOM     19  C   UNL A   1      34.632  15.930  25.084  1.00  0.00     0.114 C 
ATOM     20  C   UNL A   1      33.160  15.568  25.040  1.00  0.00     0.221 C 
ATOM     21  O   UNL A   1      32.772  14.427  25.295  1.00  0.00    -0.275 OA
ATOM     22  H   UNL A   1      31.290  16.307  24.703  1.00  0.00     0.169 HD
ENDBRANCH  13  18
ENDBRANCH   7  12
ENDBRANCH   5   6
BRANCH   5  23
ATOM     23  C   UNL A   1      31.823  24.359  24.431  1.00  0.00     0.017 C 
ATOM     24  C   UNL A   1      30.944  23.764  23.325  1.00  0.00     0.010 C 
ATOM     25  C   UNL A   1      30.926  24.775  25.611  1.00  0.00     0.010 C 
ENDBRANCH   5  23
ENDBRANCH   3   5
ENDBRANCH   2   3
ENDBRANCH   1   2
BRANCH   1  26
ATOM     26  C   UNL A   1      36.047  21.415  24.589  1.00  0.00     0.275 C 
BRANCH  26  27
ATOM     27  O   UNL A   1      36.812  21.809  25.736  1.00  0.00    -0.458 OA
BRANCH  27  28
ATOM     28  C   UNL A   1      38.110  21.423  25.767  1.00  0.00     0.338 C 
ATOM     29  O   UNL A   1      38.578  20.383  25.339  1.00  0.00    -0.246 OA
BRANCH  28  30
ATOM     30  C   UNL A   1      38.916  22.524  26.338  1.00  0.00     0.060 A 
ATOM     31  C   UNL A   1      38.557  23.844  26.075  1.00  0.00     0.016 A 
ATOM     32  C   UNL A   1      40.087  22.260  27.044  1.00  0.00     0.016 A 
ATOM     33  C   UNL A   1      39.398  24.891  26.430  1.00  0.00     0.010 A 
ATOM     34  C   UNL A   1      40.852  23.327  27.536  1.00  0.00     0.010 A 
ATOM     35  C   UNL A   1      40.518  24.661  27.232  1.00  0.00    -0.014 A 
BRANCH  35  36
ATOM     36  C   UNL A   1      41.295  25.808  27.788  1.00  0.00     0.031 A 
ATOM     37  C   UNL A   1      40.621  26.835  28.657  1.00  0.00     0.074 A 
ATOM     38  C   UNL A   1      42.605  25.950  27.489  1.00  0.00     0.049 A 
ATOM     39  N   UNL A   1      41.013  28.044  28.965  1.00  0.00    -0.248 NA
ATOM     40  C   UNL A   1      39.324  26.457  29.238  1.00  0.00     0.031 C 
ATOM     41  C   UNL A   1      43.416  24.999  26.720  1.00  0.00     0.029 A 
ATOM     42  N   UNL A   1      43.493  26.956  27.790  1.00  0.00    -0.354 N 
ATOM     43  C   UNL A   1      39.983  28.599  29.717  1.00  0.00     0.074 A 
ATOM     44  C   UNL A   1      38.951  27.587  29.821  1.00  0.00     0.031 C 
ATOM     45  C   UNL A   1      44.678  25.441  26.649  1.00  0.00     0.029 A 
ATOM     46  C   UNL A   1      44.738  26.773  27.227  1.00  0.00     0.049 A 
ATOM     47  H   UNL A   1      43.263  27.730  28.352  1.00  0.00     0.167 HD
ATOM     48  C   UNL A   1      39.907  29.844  30.251  1.00  0.00     0.034 A 
ATOM     49  C   UNL A   1      45.786  27.609  27.099  1.00  0.00     0.034 A 
ATOM     50  C   UNL A   1      40.974  30.816  30.166  1.00  0.00     0.049 A 
ATOM     51  C   UNL A   1      45.650  29.010  27.621  1.00  0.00     0.074 A 
ATOM     52  C   UNL A   1      41.016  32.101  30.680  1.00  0.00     0.029 A 
ATOM     53  N   UNL A   1      42.192  30.607  29.529  1.00  0.00    -0.354 N 
ATOM     54  N   UNL A   1      44.633  29.565  28.236  1.00  0.00    -0.248 NA
ATOM     55  C   UNL A   1      46.791  29.907  27.402  1.00  0.00     0.031 C 
ATOM     56  C   UNL A   1      42.231  32.688  30.302  1.00  0.00     0.029 A 
ATOM     57  C   UNL A   1      42.977  31.748  29.611  1.00  0.00     0.049 A 
ATOM     58  H   UNL A   1      42.459  29.770  29.084  1.00  0.00     0.167 HD
ATOM     59  C   UNL A   1      45.012  30.880  28.480  1.00  0.00     0.074 A 
ATOM     60  C   UNL A   1      46.362  31.024  27.970  1.00  0.00     0.031 C 
ATOM     61  C   UNL A   1      44.308  31.880  29.067  1.00  0.00     0.034 A 
BRANCH  48  62
ATOM     62  C   UNL A   1      38.606  30.250  30.902  1.00  0.00     0.023 A 
ATOM     63  C   UNL A   1      37.593  30.927  30.204  1.00  0.00     0.031 A 
ATOM     64  C   UNL A   1      38.390  29.971  32.265  1.00  0.00     0.131 A 
ATOM     65  C   UNL A   1      36.441  31.359  30.883  1.00  0.00     0.055 A 
ATOM     66  C   UNL A   1      37.211  30.335  32.917  1.00  0.00     0.041 A 
ATOM     67  F   UNL A   1      39.331  29.347  32.992  1.00  0.00    -0.206 F 
ATOM     68  C   UNL A   1      36.233  31.045  32.229  1.00  0.00     0.022 A 
BRANCH  65  69
ATOM     69  S   UNL A   1      35.280  32.453  30.021  1.00  0.00     0.124 S 
ATOM     70  O   UNL A   1      36.147  33.566  29.642  1.00  0.00    -0.237 OA
ATOM     71  O   UNL A   1      34.807  31.611  28.928  1.00  0.00    -0.237 OA
ATOM     72  O   UNL A   1      34.283  32.770  31.042  1.00  0.00    -0.744 OA
ENDBRANCH  65  69
ENDBRANCH  48  62
BRANCH  49  73
ATOM     73  C   UNL A   1      46.999  27.181  26.343  1.00  0.00     0.023 A 
ATOM     74  C   UNL A   1      47.204  27.582  25.015  1.00  0.00     0.031 A 
ATOM     75  C   UNL A   1      47.968  26.352  26.939  1.00  0.00     0.131 A 
ATOM     76  C   UNL A   1      48.339  27.137  24.319  1.00  0.00     0.055 A 
ATOM     77  C   UNL A   1      49.124  25.961  26.263  1.00  0.00     0.041 A 
ATOM     78  F   UNL A   1      47.820  25.933  28.207  1.00  0.00    -0.206 F 
ATOM     79  C   UNL A   1      49.310  26.346  24.940  1.00  0.00     0.022 A 
BRANCH  76  80
ATOM     80  S   UNL A   1      48.495  27.547  22.560  1.00  0.00     0.124 S 
ATOM     81  O   UNL A   1      48.575  26.224  21.951  1.00  0.00    -0.237 OA
ATOM     82  O   UNL A   1      47.266  28.294  22.312  1.00  0.00    -0.237 OA
ATOM     83  O   UNL A   1      49.723  28.337  22.503  1.00  0.00    -0.744 OA
ENDBRANCH  76  80
ENDBRANCH  49  73
BRANCH  61  84
ATOM     84  C   UNL A   1      45.014  33.204  29.203  1.00  0.00     0.023 A 
ATOM     85  C   UNL A   1      44.850  34.221  28.246  1.00  0.00     0.031 A 
ATOM     86  C   UNL A   1      45.890  33.433  30.276  1.00  0.00     0.131 A 
ATOM     87  C   UNL A   1      45.600  35.402  28.352  1.00  0.00     0.055 A 
ATOM     88  C   UNL A   1      46.591  34.633  30.406  1.00  0.00     0.041 A 
ATOM     89  F   UNL A   1      46.085  32.491  31.212  1.00  0.00    -0.206 F 
ATOM     90  C   UNL A   1      46.456  35.620  29.434  1.00  0.00     0.022 A 
BRANCH  87  91
ATOM     91  S   UNL A   1      45.505  36.615  27.007  1.00  0.00     0.124 S 
ATOM     92  O   UNL A   1      46.110  35.884  25.898  1.00  0.00    -0.237 OA
ATOM     93  O   UNL A   1      44.070  36.859  26.903  1.00  0.00    -0.237 OA
ATOM     94  O   UNL A   1      46.290  37.743  27.508  1.00  0.00    -0.744 OA
ENDBRANCH  87  91
ENDBRANCH  61  84
ENDBRANCH  35  36
ENDBRANCH  28  30
ENDBRANCH  27  28
ENDBRANCH  26  27
ENDBRANCH   1  26
TORSDOF 18
ENDMDL
MODEL 3
REMARK VINA RESULT:     -12.2      2.468      4.559
REMARK SMILES CC(=O)Nc1cccc(NC(=O)N[C@H](C(=O)OCCOC(=O)c2ccc(-c3c4nc(c(-c5cc(S(=O)(=O)[O-])ccc5F)c5ccc([nH]5)c(-c5cc(S(=O)(=O)[O-])ccc5F)c5nc(c(-c6cc(S(=O)(=O)[O-])ccc6F)c6ccc3[nH]6)C=C5)C=C4)cc2)C(C)C)c1
REMARK SMILES IDX 18 1 17 2 15 3 16 4 14 5 13 6 10 7 11 8 12 10 9 12 5 13 6 14
REMARK SMILES IDX 89 15 7 16 8 17 4 18 1 19 2 20 3 21 86 23 87 24 88 25 19 26
REMARK SMILES IDX 20 27 21 28 22 29 23 30 24 31 85 32 25 33 84 34 26 35 27 36
REMARK SMILES IDX 28 37 78 38 29 39 83 40 77 41 79 42 30 43 82 44 76 45 75 46
REMARK SMILES IDX 31 48 63 49 43 50 62 51 44 52 47 53 61 54 80 55 45 56 46 57
REMARK SMILES IDX 60 59 81 60 48 61 32 62 33 63 41 64 34 65 40 66 42 67 39 68
REMARK SMILES IDX 35 69 36 70 37 71 38 72 64 73 65 74 73 75 66 76 72 77 74 78
REMARK SMILES IDX 71 79 67 80 68 81 69 82 70 83 49 84 50 85 58 86 51 87 57 88
REMARK SMILES IDX 59 89 56 90 52 91 53 92 54 93 55 94
REMARK H PARENT 10 9 13 11 4 22 79 47 47 58
REMARK Flexibility Score: inf
ROOT
ATOM      1  C   UNL A   1      32.013  28.411  24.465  1.00  0.00     0.274 C 
ENDROOT
BRANCH   1   2
ATOM      2  O   UNL A   1      32.482  27.257  25.192  1.00  0.00    -0.461 OA
BRANCH   2   3
ATOM      3  C   UNL A   1      31.585  26.619  26.005  1.00  0.00     0.329 C 
ATOM      4  O   UNL A   1      31.181  27.037  27.082  1.00  0.00    -0.250 OA
BRANCH   3   5
ATOM      5  C   UNL A   1      31.173  25.276  25.379  1.00  0.00     0.196 C 
BRANCH   5   6
ATOM      6  N   UNL A   1      30.211  24.641  26.273  1.00  0.00    -0.324 N 
ATOM      7  N   UNL A   1      30.995  22.456  26.834  1.00  0.00    -0.308 N 
ATOM      8  C   UNL A   1      30.131  23.478  26.914  1.00  0.00     0.319 C 
ATOM      9  H   UNL A   1      30.805  21.783  27.527  1.00  0.00     0.171 HD
ATOM     10  O   UNL A   1      29.205  23.353  27.724  1.00  0.00    -0.248 OA
ATOM     11  H   UNL A   1      29.430  25.215  26.447  1.00  0.00     0.166 HD
BRANCH   7  12
ATOM     12  C   UNL A   1      32.088  22.066  26.050  1.00  0.00     0.044 A 
ATOM     13  C   UNL A   1      32.927  20.574  24.341  1.00  0.00     0.043 A 
ATOM     14  C   UNL A   1      34.238  20.947  24.607  1.00  0.00     0.026 A 
ATOM     15  C   UNL A   1      31.866  21.065  25.110  1.00  0.00     0.052 A 
ATOM     16  C   UNL A   1      34.443  22.031  25.444  1.00  0.00     0.004 A 
ATOM     17  C   UNL A   1      33.349  22.639  26.067  1.00  0.00     0.026 A 
BRANCH  13  18
ATOM     18  N   UNL A   1      32.677  19.862  23.166  1.00  0.00    -0.326 N 
ATOM     19  C   UNL A   1      32.813  17.697  24.394  1.00  0.00     0.114 C 
ATOM     20  C   UNL A   1      32.578  18.488  23.123  1.00  0.00     0.221 C 
ATOM     21  O   UNL A   1      32.243  17.934  22.074  1.00  0.00    -0.275 OA
ATOM     22  H   UNL A   1      32.566  20.366  22.328  1.00  0.00     0.169 HD
ENDBRANCH  13  18
ENDBRANCH   7  12
ENDBRANCH   5   6
BRANCH   5  23
ATOM     23  C   UNL A   1      30.586  25.404  23.948  1.00  0.00     0.017 C 
ATOM     24  C   UNL A   1      30.539  24.053  23.227  1.00  0.00     0.010 C 
ATOM     25  C   UNL A   1      29.193  26.057  23.872  1.00  0.00     0.010 C 
ENDBRANCH   5  23
ENDBRANCH   3   5
ENDBRANCH   2   3
ENDBRANCH   1   2
BRANCH   1  26
ATOM     26  C   UNL A   1      31.835  29.590  25.417  1.00  0.00     0.275 C 
BRANCH  26  27
ATOM     27  O   UNL A   1      33.138  30.071  25.776  1.00  0.00    -0.458 OA
BRANCH  27  28
ATOM     28  C   UNL A   1      33.200  30.968  26.789  1.00  0.00     0.338 C 
ATOM     29  O   UNL A   1      32.318  31.723  27.158  1.00  0.00    -0.246 OA
BRANCH  28  30
ATOM     30  C   UNL A   1      34.511  30.831  27.460  1.00  0.00     0.060 A 
ATOM     31  C   UNL A   1      34.914  29.583  27.928  1.00  0.00     0.016 A 
ATOM     32  C   UNL A   1      35.298  31.950  27.723  1.00  0.00     0.016 A 
ATOM     33  C   UNL A   1      36.042  29.459  28.730  1.00  0.00     0.010 A 
ATOM     34  C   UNL A   1      36.517  31.792  28.399  1.00  0.00     0.010 A 
ATOM     35  C   UNL A   1      36.905  30.541  28.915  1.00  0.00    -0.014 A 
BRANCH  35  36
ATOM     36  C   UNL A   1      38.221  30.349  29.594  1.00  0.00     0.031 A 
ATOM     37  C   UNL A   1      39.272  29.466  28.981  1.00  0.00     0.074 A 
ATOM     38  C   UNL A   1      38.465  30.943  30.783  1.00  0.00     0.049 A 
ATOM     39  N   UNL A   1      40.321  28.917  29.538  1.00  0.00    -0.248 NA
ATOM     40  C   UNL A   1      39.110  29.141  27.555  1.00  0.00     0.031 C 
ATOM     41  C   UNL A   1      37.573  31.885  31.468  1.00  0.00     0.029 A 
ATOM     42  N   UNL A   1      39.538  30.841  31.636  1.00  0.00    -0.354 N 
ATOM     43  C   UNL A   1      40.906  28.125  28.555  1.00  0.00     0.074 A 
ATOM     44  C   UNL A   1      40.094  28.274  27.363  1.00  0.00     0.031 C 
ATOM     45  C   UNL A   1      38.149  32.303  32.602  1.00  0.00     0.029 A 
ATOM     46  C   UNL A   1      39.375  31.549  32.807  1.00  0.00     0.049 A 
ATOM     47  H   UNL A   1      40.343  30.313  31.432  1.00  0.00     0.167 HD
ATOM     48  C   UNL A   1      42.007  27.339  28.653  1.00  0.00     0.034 A 
ATOM     49  C   UNL A   1      40.071  31.532  33.960  1.00  0.00     0.034 A 
ATOM     50  C   UNL A   1      42.820  27.247  29.845  1.00  0.00     0.049 A 
ATOM     51  C   UNL A   1      41.235  30.591  34.078  1.00  0.00     0.074 A 
ATOM     52  C   UNL A   1      43.964  26.497  30.055  1.00  0.00     0.029 A 
ATOM     53  N   UNL A   1      42.577  27.935  31.029  1.00  0.00    -0.354 N 
ATOM     54  N   UNL A   1      41.720  29.765  33.181  1.00  0.00    -0.248 NA
ATOM     55  C   UNL A   1      41.925  30.557  35.372  1.00  0.00     0.031 C 
ATOM     56  C   UNL A   1      44.376  26.683  31.381  1.00  0.00     0.029 A 
ATOM     57  C   UNL A   1      43.531  27.603  31.980  1.00  0.00     0.049 A 
ATOM     58  H   UNL A   1      41.836  28.567  31.171  1.00  0.00     0.167 HD
ATOM     59  C   UNL A   1      42.776  29.110  33.805  1.00  0.00     0.074 A 
ATOM     60  C   UNL A   1      42.873  29.660  35.143  1.00  0.00     0.031 C 
ATOM     61  C   UNL A   1      43.590  28.139  33.318  1.00  0.00     0.034 A 
BRANCH  48  62
ATOM     62  C   UNL A   1      42.349  26.461  27.473  1.00  0.00     0.023 A 
ATOM     63  C   UNL A   1      41.914  25.129  27.372  1.00  0.00     0.031 A 
ATOM     64  C   UNL A   1      43.153  26.969  26.434  1.00  0.00     0.131 A 
ATOM     65  C   UNL A   1      42.336  24.333  26.294  1.00  0.00     0.055 A 
ATOM     66  C   UNL A   1      43.507  26.196  25.327  1.00  0.00     0.041 A 
ATOM     67  F   UNL A   1      43.619  28.227  26.484  1.00  0.00    -0.206 F 
ATOM     68  C   UNL A   1      43.110  24.865  25.259  1.00  0.00     0.022 A 
BRANCH  65  69
ATOM     69  S   UNL A   1      41.976  22.556  26.331  1.00  0.00     0.124 S 
ATOM     70  O   UNL A   1      40.515  22.549  26.282  1.00  0.00    -0.237 OA
ATOM     71  O   UNL A   1      42.657  22.072  25.136  1.00  0.00    -0.237 OA
ATOM     72  O   UNL A   1      42.551  22.114  27.600  1.00  0.00    -0.744 OA
ENDBRANCH  65  69
ENDBRANCH  48  62
BRANCH  49  73
ATOM     73  C   UNL A   1      39.610  32.339  35.127  1.00  0.00     0.023 A 
ATOM     74  C   UNL A   1      38.867  31.756  36.163  1.00  0.00     0.031 A 
ATOM     75  C   UNL A   1      39.899  33.714  35.215  1.00  0.00     0.131 A 
ATOM     76  C   UNL A   1      38.420  32.549  37.232  1.00  0.00     0.055 A 
ATOM     77  C   UNL A   1      39.504  34.485  36.309  1.00  0.00     0.041 A 
ATOM     78  F   UNL A   1      40.603  34.326  34.248  1.00  0.00    -0.206 F 
ATOM     79  C   UNL A   1      38.750  33.903  37.322  1.00  0.00     0.022 A 
BRANCH  76  80
ATOM     80  S   UNL A   1      37.334  31.797  38.474  1.00  0.00     0.124 S 
ATOM     81  O   UNL A   1      38.141  31.911  39.684  1.00  0.00    -0.237 OA
ATOM     82  O   UNL A   1      36.155  32.655  38.406  1.00  0.00    -0.237 OA
ATOM     83  O   UNL A   1      37.140  30.437  37.978  1.00  0.00    -0.744 OA
ENDBRANCH  76  80
ENDBRANCH  49  73
BRANCH  61  84
ATOM     84  C   UNL A   1      44.666  27.642  34.248  1.00  0.00     0.023 A 
ATOM     85  C   UNL A   1      44.465  26.513  35.062  1.00  0.00     0.031 A 
ATOM     86  C   UNL A   1      45.886  28.329  34.350  1.00  0.00     0.131 A 
ATOM     87  C   UNL A   1      45.451  26.138  35.987  1.00  0.00     0.055 A 
ATOM     88  C   UNL A   1      46.886  27.917  35.233  1.00  0.00     0.041 A 
ATOM     89  F   UNL A   1      46.124  29.416  33.599  1.00  0.00    -0.206 F 
ATOM     90  C   UNL A   1      46.666  26.823  36.065  1.00  0.00     0.022 A 
BRANCH  87  91
ATOM     91  S   UNL A   1      45.087  24.794  37.148  1.00  0.00     0.124 S 
ATOM     92  O   UNL A   1      44.374  25.497  38.210  1.00  0.00    -0.237 OA
ATOM     93  O   UNL A   1      44.286  23.884  36.335  1.00  0.00    -0.237 OA
ATOM     94  O   UNL A   1      46.410  24.292  37.516  1.00  0.00    -0.744 OA
ENDBRANCH  87  91
ENDBRANCH  61  84
ENDBRANCH  35  36
ENDBRANCH  28  30
ENDBRANCH  27  28
ENDBRANCH  26  27
ENDBRANCH   1  26
TORSDOF 18
ENDMDL
