MODEL 1
REMARK VINA RESULT:      -9.8      0.000      0.000
REMARK SMILES Cc1c(/C=C2/SC(=S)N(CCC(=O)OCCOC(=O)c3ccc(-c4c5nc(c(-c6cc(S(=O)(=O)[O-])ccc6F)c6ccc([nH]6)c(-c6cc(S(=O)(=O)[O-])ccc6F)c6nc(c(-c7cc(S(=O)(=O)[O-])ccc7F)c7ccc4[nH]7)C=C6)C=C5)cc3)C2=O)c(N2C[C@@H](C)C[C@H](C)C2)n(C)c(=O)c1C#N
REMARK SMILES IDX 15 1 14 2 12 3 13 4 11 5 10 6 9 7 4 8 5 9 6 10 83 11 7 12
REMARK SMILES IDX 84 13 8 14 3 15 1 16 2 17 98 18 85 19 96 20 94 21 97 22
REMARK SMILES IDX 95 23 99 24 100 25 86 26 87 27 93 28 88 29 91 30 89 31 90 32
REMARK SMILES IDX 92 33 16 34 17 35 18 36 19 37 20 38 21 39 82 40 22 41 81 42
REMARK SMILES IDX 23 43 24 44 25 45 75 46 26 47 80 48 74 49 76 50 27 51 79 52
REMARK SMILES IDX 73 53 72 54 28 56 60 57 40 58 59 59 41 60 44 61 58 62 77 63
REMARK SMILES IDX 42 64 43 65 57 67 78 68 45 69 29 70 30 71 38 72 31 73 37 74
REMARK SMILES IDX 39 75 36 76 32 77 33 78 34 79 35 80 61 81 62 82 70 83 63 84
REMARK SMILES IDX 69 85 71 86 68 87 64 88 65 89 66 90 67 91 46 92 47 93 55 94
REMARK SMILES IDX 48 95 54 96 56 97 53 98 49 99 50 100 51 101 52 102
REMARK H PARENT 76 55 44 66
REMARK Flexibility Score: inf
ROOT
ATOM      1  C   UNL A   1      49.328  25.741  34.839  1.00  0.00     0.274 C 
ENDROOT
BRANCH   1   2
ATOM      2  O   UNL A   1      50.538  24.981  34.979  1.00  0.00    -0.462 OA
BRANCH   2   3
ATOM      3  C   UNL A   1      50.628  23.821  34.291  1.00  0.00     0.307 C 
ATOM      4  O   UNL A   1      49.712  23.285  33.683  1.00  0.00    -0.252 OA
BRANCH   3   5
ATOM      5  C   UNL A   1      52.033  23.272  34.327  1.00  0.00     0.144 C 
BRANCH   5   6
ATOM      6  C   UNL A   1      52.479  22.787  35.710  1.00  0.00     0.139 C 
BRANCH   6   7
ATOM      7  N   UNL A   1      51.862  21.508  36.105  1.00  0.00    -0.292 N 
ATOM      8  C   UNL A   1      48.839  19.848  37.244  1.00  0.00     0.033 C 
ATOM      9  C   UNL A   1      50.112  20.158  36.940  1.00  0.00     0.081 C 
ATOM     10  S   UNL A   1      51.345  19.018  36.574  1.00  0.00    -0.054 SA
ATOM     11  C   UNL A   1      50.660  21.528  36.786  1.00  0.00     0.266 C 
ATOM     12  C   UNL A   1      52.419  20.262  35.916  1.00  0.00     0.148 C 
ATOM     13  O   UNL A   1      50.112  22.507  37.259  1.00  0.00    -0.268 OA
ATOM     14  S   UNL A   1      53.870  19.882  35.189  1.00  0.00    -0.052 S 
BRANCH   8  15
ATOM     15  C   UNL A   1      47.712  20.802  37.334  1.00  0.00     0.021 A 
ATOM     16  C   UNL A   1      47.360  20.516  34.815  1.00  0.00     0.047 C 
ATOM     17  C   UNL A   1      47.040  21.259  36.095  1.00  0.00    -0.017 A 
ATOM     18  C   UNL A   1      46.160  22.279  36.130  1.00  0.00     0.121 A 
ATOM     19  C   UNL A   1      47.261  21.248  38.549  1.00  0.00     0.118 A 
ATOM     20  C   UNL A   1      45.659  22.764  37.427  1.00  0.00     0.270 A 
ATOM     21  N   UNL A   1      46.180  22.153  38.568  1.00  0.00    -0.296 N 
ATOM     22  O   UNL A   1      44.789  23.634  37.446  1.00  0.00    -0.268 OA
ATOM     23  C   UNL A   1      45.595  22.590  39.825  1.00  0.00     0.155 C 
BRANCH  18  24
ATOM     24  C   UNL A   1      45.519  22.818  34.862  1.00  0.00     0.105 C 
ATOM     25  N   UNL A   1      44.986  23.264  33.810  1.00  0.00    -0.192 NA
ENDBRANCH  18  24
BRANCH  19  26
ATOM     26  N   UNL A   1      47.876  20.858  39.757  1.00  0.00    -0.357 N 
ATOM     27  C   UNL A   1      47.189  20.001  40.739  1.00  0.00     0.121 C 
ATOM     28  C   UNL A   1      49.099  21.486  40.269  1.00  0.00     0.121 C 
ATOM     29  C   UNL A   1      48.109  18.891  41.266  1.00  0.00     0.006 C 
ATOM     30  C   UNL A   1      50.097  20.394  40.686  1.00  0.00     0.006 C 
ATOM     31  C   UNL A   1      48.270  17.762  40.247  1.00  0.00     0.009 C 
ATOM     32  C   UNL A   1      49.463  19.455  41.725  1.00  0.00     0.010 C 
ATOM     33  C   UNL A   1      51.388  21.006  41.223  1.00  0.00     0.009 C 
ENDBRANCH  19  26
ENDBRANCH   8  15
ENDBRANCH   6   7
ENDBRANCH   5   6
ENDBRANCH   3   5
ENDBRANCH   2   3
ENDBRANCH   1   2
BRANCH   1  34
ATOM     34  C   UNL A   1      48.581  25.832  36.187  1.00  0.00     0.275 C 
BRANCH  34  35
ATOM     35  O   UNL A   1      47.717  26.956  36.294  1.00  0.00    -0.458 OA
BRANCH  35  36
ATOM     36  C   UNL A   1      46.535  26.697  36.891  1.00  0.00     0.338 C 
ATOM     37  O   UNL A   1      46.286  26.520  38.060  1.00  0.00    -0.246 OA
BRANCH  36  38
ATOM     38  C   UNL A   1      45.575  27.054  35.846  1.00  0.00     0.060 A 
ATOM     39  C   UNL A   1      45.956  28.031  34.918  1.00  0.00     0.016 A 
ATOM     40  C   UNL A   1      44.401  26.313  35.714  1.00  0.00     0.016 A 
ATOM     41  C   UNL A   1      45.119  28.315  33.860  1.00  0.00     0.010 A 
ATOM     42  C   UNL A   1      43.551  26.609  34.670  1.00  0.00     0.010 A 
ATOM     43  C   UNL A   1      43.892  27.647  33.788  1.00  0.00    -0.014 A 
BRANCH  43  44
ATOM     44  C   UNL A   1      42.816  28.243  33.000  1.00  0.00     0.031 A 
ATOM     45  C   UNL A   1      41.879  29.147  33.735  1.00  0.00     0.074 A 
ATOM     46  C   UNL A   1      42.693  27.940  31.703  1.00  0.00     0.049 A 
ATOM     47  N   UNL A   1      40.779  29.704  33.320  1.00  0.00    -0.248 NA
ATOM     48  C   UNL A   1      42.220  29.452  35.140  1.00  0.00     0.031 C 
ATOM     49  C   UNL A   1      43.612  27.090  30.949  1.00  0.00     0.029 A 
ATOM     50  N   UNL A   1      41.732  28.299  30.806  1.00  0.00    -0.354 N 
ATOM     51  C   UNL A   1      40.300  30.422  34.409  1.00  0.00     0.074 A 
ATOM     52  C   UNL A   1      41.193  30.192  35.517  1.00  0.00     0.031 C 
ATOM     53  C   UNL A   1      43.151  26.971  29.693  1.00  0.00     0.029 A 
ATOM     54  C   UNL A   1      41.893  27.707  29.579  1.00  0.00     0.049 A 
ATOM     55  H   UNL A   1      40.997  28.918  31.017  1.00  0.00     0.167 HD
ATOM     56  C   UNL A   1      39.210  31.215  34.458  1.00  0.00     0.034 A 
ATOM     57  C   UNL A   1      41.088  27.749  28.502  1.00  0.00     0.034 A 
ATOM     58  C   UNL A   1      38.334  31.381  33.334  1.00  0.00     0.049 A 
ATOM     59  C   UNL A   1      39.843  28.591  28.590  1.00  0.00     0.074 A 
ATOM     60  C   UNL A   1      37.180  32.133  33.245  1.00  0.00     0.029 A 
ATOM     61  N   UNL A   1      38.524  30.778  32.095  1.00  0.00    -0.354 N 
ATOM     62  N   UNL A   1      39.392  29.283  29.613  1.00  0.00    -0.248 NA
ATOM     63  C   UNL A   1      39.002  28.671  27.392  1.00  0.00     0.031 C 
ATOM     64  C   UNL A   1      36.651  31.950  31.967  1.00  0.00     0.029 A 
ATOM     65  C   UNL A   1      37.504  31.132  31.235  1.00  0.00     0.049 A 
ATOM     66  H   UNL A   1      39.276  30.185  31.865  1.00  0.00     0.167 HD
ATOM     67  C   UNL A   1      38.225  29.900  29.179  1.00  0.00     0.074 A 
ATOM     68  C   UNL A   1      38.049  29.505  27.793  1.00  0.00     0.031 C 
ATOM     69  C   UNL A   1      37.376  30.716  29.857  1.00  0.00     0.034 A 
BRANCH  56  70
ATOM     70  C   UNL A   1      38.920  31.937  35.746  1.00  0.00     0.023 A 
ATOM     71  C   UNL A   1      38.150  31.322  36.747  1.00  0.00     0.031 A 
ATOM     72  C   UNL A   1      39.377  33.250  35.967  1.00  0.00     0.131 A 
ATOM     73  C   UNL A   1      37.845  32.028  37.917  1.00  0.00     0.055 A 
ATOM     74  C   UNL A   1      39.101  33.935  37.149  1.00  0.00     0.041 A 
ATOM     75  F   UNL A   1      40.135  33.872  35.048  1.00  0.00    -0.206 F 
ATOM     76  C   UNL A   1      38.323  33.326  38.128  1.00  0.00     0.022 A 
BRANCH  73  77
ATOM     77  S   UNL A   1      36.797  31.298  39.205  1.00  0.00     0.124 S 
ATOM     78  O   UNL A   1      36.563  29.955  38.679  1.00  0.00    -0.237 OA
ATOM     79  O   UNL A   1      37.666  31.367  40.375  1.00  0.00    -0.237 OA
ATOM     80  O   UNL A   1      35.624  32.164  39.235  1.00  0.00    -0.744 OA
ENDBRANCH  73  77
ENDBRANCH  56  70
BRANCH  57  81
ATOM     81  C   UNL A   1      41.513  27.023  27.276  1.00  0.00     0.023 A 
ATOM     82  C   UNL A   1      41.428  25.620  27.203  1.00  0.00     0.031 A 
ATOM     83  C   UNL A   1      42.184  27.704  26.249  1.00  0.00     0.131 A 
ATOM     84  C   UNL A   1      42.078  24.939  26.164  1.00  0.00     0.055 A 
ATOM     85  C   UNL A   1      42.782  27.024  25.187  1.00  0.00     0.041 A 
ATOM     86  F   UNL A   1      42.304  29.040  26.291  1.00  0.00    -0.206 F 
ATOM     87  C   UNL A   1      42.745  25.634  25.151  1.00  0.00     0.022 A 
BRANCH  84  88
ATOM     88  S   UNL A   1      42.181  23.127  26.159  1.00  0.00     0.124 S 
ATOM     89  O   UNL A   1      40.776  22.738  26.220  1.00  0.00    -0.237 OA
ATOM     90  O   UNL A   1      42.850  22.874  24.885  1.00  0.00    -0.237 OA
ATOM     91  O   UNL A   1      42.967  22.824  27.350  1.00  0.00    -0.744 OA
ENDBRANCH  84  88
ENDBRANCH  57  81
BRANCH  69  92
ATOM     92  C   UNL A   1      36.176  31.252  29.124  1.00  0.00     0.023 A 
ATOM     93  C   UNL A   1      35.228  30.355  28.599  1.00  0.00     0.031 A 
ATOM     94  C   UNL A   1      36.075  32.612  28.792  1.00  0.00     0.131 A 
ATOM     95  C   UNL A   1      34.244  30.825  27.723  1.00  0.00     0.055 A 
ATOM     96  C   UNL A   1      35.064  33.083  27.956  1.00  0.00     0.041 A 
ATOM     97  F   UNL A   1      36.970  33.497  29.262  1.00  0.00    -0.206 F 
ATOM     98  C   UNL A   1      34.152  32.184  27.406  1.00  0.00     0.022 A 
BRANCH  95  99
ATOM     99  S   UNL A   1      33.106  29.679  26.901  1.00  0.00     0.124 S 
ATOM    100  O   UNL A   1      31.939  30.526  26.667  1.00  0.00    -0.237 OA
ATOM    101  O   UNL A   1      33.858  29.308  25.706  1.00  0.00    -0.237 OA
ATOM    102  O   UNL A   1      32.911  28.613  27.879  1.00  0.00    -0.744 OA
ENDBRANCH  95  99
ENDBRANCH  69  92
ENDBRANCH  43  44
ENDBRANCH  36  38
ENDBRANCH  35  36
ENDBRANCH  34  35
ENDBRANCH   1  34
TORSDOF 19
ENDMDL
MODEL 2
REMARK VINA RESULT:      -9.7      9.126     15.448
REMARK SMILES Cc1c(/C=C2/SC(=S)N(CCC(=O)OCCOC(=O)c3ccc(-c4c5nc(c(-c6cc(S(=O)(=O)[O-])ccc6F)c6ccc([nH]6)c(-c6cc(S(=O)(=O)[O-])ccc6F)c6nc(c(-c7cc(S(=O)(=O)[O-])ccc7F)c7ccc4[nH]7)C=C6)C=C5)cc3)C2=O)c(N2C[C@@H](C)C[C@H](C)C2)n(C)c(=O)c1C#N
REMARK SMILES IDX 15 1 14 2 12 3 13 4 11 5 10 6 9 7 4 8 5 9 6 10 83 11 7 12
REMARK SMILES IDX 84 13 8 14 3 15 1 16 2 17 98 18 85 19 96 20 94 21 97 22
REMARK SMILES IDX 95 23 99 24 100 25 86 26 87 27 93 28 88 29 91 30 89 31 90 32
REMARK SMILES IDX 92 33 16 34 17 35 18 36 19 37 20 38 21 39 82 40 22 41 81 42
REMARK SMILES IDX 23 43 24 44 25 45 75 46 26 47 80 48 74 49 76 50 27 51 79 52
REMARK SMILES IDX 73 53 72 54 28 56 60 57 40 58 59 59 41 60 44 61 58 62 77 63
REMARK SMILES IDX 42 64 43 65 57 67 78 68 45 69 29 70 30 71 38 72 31 73 37 74
REMARK SMILES IDX 39 75 36 76 32 77 33 78 34 79 35 80 61 81 62 82 70 83 63 84
REMARK SMILES IDX 69 85 71 86 68 87 64 88 65 89 66 90 67 91 46 92 47 93 55 94
REMARK SMILES IDX 48 95 54 96 56 97 53 98 49 99 50 100 51 101 52 102
REMARK H PARENT 76 55 44 66
REMARK Flexibility Score: inf
ROOT
ATOM      1  C   UNL A   1      48.599  35.364  26.644  1.00  0.00     0.274 C 
ENDROOT
BRANCH   1   2
ATOM      2  O   UNL A   1      49.273  36.594  26.951  1.00  0.00    -0.462 OA
BRANCH   2   3
ATOM      3  C   UNL A   1      49.308  36.979  28.246  1.00  0.00     0.307 C 
ATOM      4  O   UNL A   1      49.806  36.339  29.162  1.00  0.00    -0.252 OA
BRANCH   3   5
ATOM      5  C   UNL A   1      48.681  38.339  28.428  1.00  0.00     0.144 C 
BRANCH   5   6
ATOM      6  C   UNL A   1      48.934  39.305  27.265  1.00  0.00     0.139 C 
BRANCH   6   7
ATOM      7  N   UNL A   1      48.409  40.660  27.511  1.00  0.00    -0.292 N 
ATOM      8  C   UNL A   1      45.500  42.831  27.400  1.00  0.00     0.033 C 
ATOM      9  C   UNL A   1      46.752  42.343  27.460  1.00  0.00     0.081 C 
ATOM     10  S   UNL A   1      48.081  43.126  28.218  1.00  0.00    -0.054 SA
ATOM     11  C   UNL A   1      47.192  41.017  26.963  1.00  0.00     0.266 C 
ATOM     12  C   UNL A   1      49.069  41.657  28.196  1.00  0.00     0.148 C 
ATOM     13  O   UNL A   1      46.557  40.384  26.140  1.00  0.00    -0.268 OA
ATOM     14  S   UNL A   1      50.564  41.588  28.930  1.00  0.00    -0.052 S 
BRANCH   8  15
ATOM     15  C   UNL A   1      44.298  42.085  26.966  1.00  0.00     0.021 A 
ATOM     16  C   UNL A   1      44.735  42.904  24.581  1.00  0.00     0.047 C 
ATOM     17  C   UNL A   1      43.816  42.222  25.571  1.00  0.00    -0.017 A 
ATOM     18  C   UNL A   1      42.615  41.727  25.211  1.00  0.00     0.121 A 
ATOM     19  C   UNL A   1      43.640  41.246  27.827  1.00  0.00     0.118 A 
ATOM     20  C   UNL A   1      41.899  40.817  26.122  1.00  0.00     0.270 A 
ATOM     21  N   UNL A   1      42.503  40.560  27.353  1.00  0.00    -0.296 N 
ATOM     22  O   UNL A   1      40.848  40.301  25.747  1.00  0.00    -0.268 OA
ATOM     23  C   UNL A   1      41.818  39.586  28.186  1.00  0.00     0.155 C 
BRANCH  18  24
ATOM     24  C   UNL A   1      42.064  41.925  23.809  1.00  0.00     0.105 C 
ATOM     25  N   UNL A   1      41.607  42.089  22.645  1.00  0.00    -0.192 NA
ENDBRANCH  18  24
BRANCH  19  26
ATOM     26  N   UNL A   1      44.047  41.093  29.169  1.00  0.00    -0.357 N 
ATOM     27  C   UNL A   1      43.982  42.204  30.134  1.00  0.00     0.121 C 
ATOM     28  C   UNL A   1      44.822  39.940  29.641  1.00  0.00     0.121 C 
ATOM     29  C   UNL A   1      43.395  41.755  31.479  1.00  0.00     0.006 C 
ATOM     30  C   UNL A   1      44.180  39.384  30.922  1.00  0.00     0.006 C 
ATOM     31  C   UNL A   1      41.875  41.600  31.407  1.00  0.00     0.009 C 
ATOM     32  C   UNL A   1      44.084  40.481  31.995  1.00  0.00     0.010 C 
ATOM     33  C   UNL A   1      44.956  38.178  31.446  1.00  0.00     0.009 C 
ENDBRANCH  19  26
ENDBRANCH   8  15
ENDBRANCH   6   7
ENDBRANCH   5   6
ENDBRANCH   3   5
ENDBRANCH   2   3
ENDBRANCH   1   2
BRANCH   1  34
ATOM     34  C   UNL A   1      47.233  35.296  27.362  1.00  0.00     0.275 C 
BRANCH  34  35
ATOM     35  O   UNL A   1      46.226  36.102  26.764  1.00  0.00    -0.458 OA
BRANCH  35  36
ATOM     36  C   UNL A   1      45.170  35.410  26.285  1.00  0.00     0.338 C 
ATOM     37  O   UNL A   1      45.037  34.847  25.223  1.00  0.00    -0.246 OA
BRANCH  36  38
ATOM     38  C   UNL A   1      44.378  35.179  27.492  1.00  0.00     0.060 A 
ATOM     39  C   UNL A   1      43.943  36.299  28.210  1.00  0.00     0.016 A 
ATOM     40  C   UNL A   1      43.953  33.884  27.794  1.00  0.00     0.016 A 
ATOM     41  C   UNL A   1      43.106  36.121  29.292  1.00  0.00     0.010 A 
ATOM     42  C   UNL A   1      43.135  33.700  28.887  1.00  0.00     0.010 A 
ATOM     43  C   UNL A   1      42.767  34.815  29.658  1.00  0.00    -0.014 A 
BRANCH  43  44
ATOM     44  C   UNL A   1      42.307  34.568  31.023  1.00  0.00     0.031 A 
ATOM     45  C   UNL A   1      40.826  34.510  31.221  1.00  0.00     0.074 A 
ATOM     46  C   UNL A   1      43.195  34.441  32.014  1.00  0.00     0.049 A 
ATOM     47  N   UNL A   1      40.147  34.431  32.328  1.00  0.00    -0.248 NA
ATOM     48  C   UNL A   1      39.993  34.569  30.002  1.00  0.00     0.031 C 
ATOM     49  C   UNL A   1      44.647  34.457  31.847  1.00  0.00     0.029 A 
ATOM     50  N   UNL A   1      42.999  34.299  33.355  1.00  0.00    -0.354 N 
ATOM     51  C   UNL A   1      38.814  34.429  31.940  1.00  0.00     0.074 A 
ATOM     52  C   UNL A   1      38.771  34.568  30.506  1.00  0.00     0.031 C 
ATOM     53  C   UNL A   1      45.218  34.352  33.058  1.00  0.00     0.029 A 
ATOM     54  C   UNL A   1      44.167  34.299  34.073  1.00  0.00     0.049 A 
ATOM     55  H   UNL A   1      42.110  34.205  33.767  1.00  0.00     0.167 HD
ATOM     56  C   UNL A   1      37.726  34.306  32.728  1.00  0.00     0.034 A 
ATOM     57  C   UNL A   1      44.347  34.283  35.407  1.00  0.00     0.034 A 
ATOM     58  C   UNL A   1      37.823  34.205  34.156  1.00  0.00     0.049 A 
ATOM     59  C   UNL A   1      43.121  34.206  36.278  1.00  0.00     0.074 A 
ATOM     60  C   UNL A   1      36.807  34.100  35.083  1.00  0.00     0.029 A 
ATOM     61  N   UNL A   1      39.022  34.198  34.862  1.00  0.00    -0.354 N 
ATOM     62  N   UNL A   1      41.857  34.190  35.915  1.00  0.00    -0.248 NA
ATOM     63  C   UNL A   1      43.332  34.134  37.726  1.00  0.00     0.031 C 
ATOM     64  C   UNL A   1      37.389  34.072  36.351  1.00  0.00     0.029 A 
ATOM     65  C   UNL A   1      38.773  34.099  36.216  1.00  0.00     0.049 A 
ATOM     66  H   UNL A   1      39.917  34.255  34.455  1.00  0.00     0.167 HD
ATOM     67  C   UNL A   1      41.118  34.086  37.087  1.00  0.00     0.074 A 
ATOM     68  C   UNL A   1      42.084  34.030  38.171  1.00  0.00     0.031 C 
ATOM     69  C   UNL A   1      39.771  34.040  37.259  1.00  0.00     0.034 A 
BRANCH  56  70
ATOM     70  C   UNL A   1      36.375  34.279  32.067  1.00  0.00     0.023 A 
ATOM     71  C   UNL A   1      35.481  35.350  32.233  1.00  0.00     0.031 A 
ATOM     72  C   UNL A   1      35.958  33.175  31.300  1.00  0.00     0.131 A 
ATOM     73  C   UNL A   1      34.207  35.285  31.655  1.00  0.00     0.055 A 
ATOM     74  C   UNL A   1      34.702  33.131  30.695  1.00  0.00     0.041 A 
ATOM     75  F   UNL A   1      36.786  32.136  31.094  1.00  0.00    -0.206 F 
ATOM     76  C   UNL A   1      33.816  34.187  30.880  1.00  0.00     0.022 A 
BRANCH  73  77
ATOM     77  S   UNL A   1      32.998  36.613  31.901  1.00  0.00     0.124 S 
ATOM     78  O   UNL A   1      33.675  37.462  32.880  1.00  0.00    -0.237 OA
ATOM     79  O   UNL A   1      32.889  37.175  30.559  1.00  0.00    -0.237 OA
ATOM     80  O   UNL A   1      31.814  35.922  32.397  1.00  0.00    -0.744 OA
ENDBRANCH  73  77
ENDBRANCH  56  70
BRANCH  57  81
ATOM     81  C   UNL A   1      45.738  34.271  35.931  1.00  0.00     0.023 A 
ATOM     82  C   UNL A   1      46.464  35.468  36.077  1.00  0.00     0.031 A 
ATOM     83  C   UNL A   1      46.417  33.055  36.103  1.00  0.00     0.131 A 
ATOM     84  C   UNL A   1      47.846  35.417  36.308  1.00  0.00     0.055 A 
ATOM     85  C   UNL A   1      47.782  33.011  36.389  1.00  0.00     0.041 A 
ATOM     86  F   UNL A   1      45.765  31.891  35.953  1.00  0.00    -0.206 F 
ATOM     87  C   UNL A   1      48.507  34.196  36.474  1.00  0.00     0.022 A 
BRANCH  84  88
ATOM     88  S   UNL A   1      48.851  36.928  36.279  1.00  0.00     0.124 S 
ATOM     89  O   UNL A   1      50.108  36.472  36.866  1.00  0.00    -0.237 OA
ATOM     90  O   UNL A   1      48.895  37.225  34.850  1.00  0.00    -0.237 OA
ATOM     91  O   UNL A   1      48.085  37.866  37.091  1.00  0.00    -0.744 OA
ENDBRANCH  84  88
ENDBRANCH  57  81
BRANCH  69  92
ATOM     92  C   UNL A   1      39.242  33.919  38.662  1.00  0.00     0.023 A 
ATOM     93  C   UNL A   1      38.720  32.688  39.101  1.00  0.00     0.031 A 
ATOM     94  C   UNL A   1      39.088  35.048  39.480  1.00  0.00     0.131 A 
ATOM     95  C   UNL A   1      38.019  32.628  40.309  1.00  0.00     0.055 A 
ATOM     96  C   UNL A   1      38.429  34.973  40.706  1.00  0.00     0.041 A 
ATOM     97  F   UNL A   1      39.561  36.243  39.089  1.00  0.00    -0.206 F 
ATOM     98  C   UNL A   1      37.878  33.761  41.117  1.00  0.00     0.022 A 
BRANCH  95  99
ATOM     99  S   UNL A   1      37.194  31.101  40.830  1.00  0.00     0.124 S 
ATOM    100  O   UNL A   1      37.050  30.386  39.564  1.00  0.00    -0.237 OA
ATOM    101  O   UNL A   1      38.164  30.532  41.761  1.00  0.00    -0.237 OA
ATOM    102  O   UNL A   1      35.943  31.561  41.426  1.00  0.00    -0.744 OA
ENDBRANCH  95  99
ENDBRANCH  69  92
ENDBRANCH  43  44
ENDBRANCH  36  38
ENDBRANCH  35  36
ENDBRANCH  34  35
ENDBRANCH   1  34
TORSDOF 19
ENDMDL
MODEL 3
REMARK VINA RESULT:      -9.4      9.201     15.845
REMARK SMILES Cc1c(/C=C2/SC(=S)N(CCC(=O)OCCOC(=O)c3ccc(-c4c5nc(c(-c6cc(S(=O)(=O)[O-])ccc6F)c6ccc([nH]6)c(-c6cc(S(=O)(=O)[O-])ccc6F)c6nc(c(-c7cc(S(=O)(=O)[O-])ccc7F)c7ccc4[nH]7)C=C6)C=C5)cc3)C2=O)c(N2C[C@@H](C)C[C@H](C)C2)n(C)c(=O)c1C#N
REMARK SMILES IDX 15 1 14 2 12 3 13 4 11 5 10 6 9 7 4 8 5 9 6 10 83 11 7 12
REMARK SMILES IDX 84 13 8 14 3 15 1 16 2 17 98 18 85 19 96 20 94 21 97 22
REMARK SMILES IDX 95 23 99 24 100 25 86 26 87 27 93 28 88 29 91 30 89 31 90 32
REMARK SMILES IDX 92 33 16 34 17 35 18 36 19 37 20 38 21 39 82 40 22 41 81 42
REMARK SMILES IDX 23 43 24 44 25 45 75 46 26 47 80 48 74 49 76 50 27 51 79 52
REMARK SMILES IDX 73 53 72 54 28 56 60 57 40 58 59 59 41 60 44 61 58 62 77 63
REMARK SMILES IDX 42 64 43 65 57 67 78 68 45 69 29 70 30 71 38 72 31 73 37 74
REMARK SMILES IDX 39 75 36 76 32 77 33 78 34 79 35 80 61 81 62 82 70 83 63 84
REMARK SMILES IDX 69 85 71 86 68 87 64 88 65 89 66 90 67 91 46 92 47 93 55 94
REMARK SMILES IDX 48 95 54 96 56 97 53 98 49 99 50 100 51 101 52 102
REMARK H PARENT 76 55 44 66
REMARK Flexibility Score: inf
ROOT
ATOM      1  C   UNL A   1      43.148  42.362  32.027  1.00  0.00     0.274 C 
ENDROOT
BRANCH   1   2
ATOM      2  O   UNL A   1      44.557  42.299  31.756  1.00  0.00    -0.462 OA
BRANCH   2   3
ATOM      3  C   UNL A   1      45.062  43.189  30.874  1.00  0.00     0.307 C 
ATOM      4  O   UNL A   1      44.404  43.971  30.201  1.00  0.00    -0.252 OA
BRANCH   3   5
ATOM      5  C   UNL A   1      46.570  43.132  30.843  1.00  0.00     0.144 C 
BRANCH   5   6
ATOM      6  C   UNL A   1      47.151  41.756  31.182  1.00  0.00     0.139 C 
BRANCH   6   7
ATOM      7  N   UNL A   1      47.609  41.010  29.997  1.00  0.00    -0.292 N 
ATOM      8  C   UNL A   1      46.618  39.218  26.998  1.00  0.00     0.033 C 
ATOM      9  C   UNL A   1      47.297  39.710  28.049  1.00  0.00     0.081 C 
ATOM     10  S   UNL A   1      49.003  39.914  28.115  1.00  0.00    -0.054 SA
ATOM     11  C   UNL A   1      46.699  40.239  29.299  1.00  0.00     0.266 C 
ATOM     12  C   UNL A   1      48.909  40.950  29.547  1.00  0.00     0.148 C 
ATOM     13  O   UNL A   1      45.567  39.961  29.649  1.00  0.00    -0.268 OA
ATOM     14  S   UNL A   1      50.255  41.705  30.179  1.00  0.00    -0.052 S 
BRANCH   8  15
ATOM     15  C   UNL A   1      45.150  39.248  26.822  1.00  0.00     0.021 A 
ATOM     16  C   UNL A   1      45.025  37.009  28.054  1.00  0.00     0.047 C 
ATOM     17  C   UNL A   1      44.340  38.075  27.226  1.00  0.00    -0.017 A 
ATOM     18  C   UNL A   1      43.039  37.992  26.885  1.00  0.00     0.121 A 
ATOM     19  C   UNL A   1      44.523  40.358  26.317  1.00  0.00     0.118 A 
ATOM     20  C   UNL A   1      42.349  39.177  26.350  1.00  0.00     0.270 A 
ATOM     21  N   UNL A   1      43.120  40.327  26.178  1.00  0.00    -0.296 N 
ATOM     22  O   UNL A   1      41.141  39.116  26.126  1.00  0.00    -0.268 OA
ATOM     23  C   UNL A   1      42.388  41.502  25.737  1.00  0.00     0.155 C 
BRANCH  18  24
ATOM     24  C   UNL A   1      42.209  36.763  27.219  1.00  0.00     0.105 C 
ATOM     25  N   UNL A   1      41.521  35.743  27.495  1.00  0.00    -0.192 NA
ENDBRANCH  18  24
BRANCH  19  26
ATOM     26  N   UNL A   1      45.247  41.494  25.901  1.00  0.00    -0.357 N 
ATOM     27  C   UNL A   1      45.953  41.537  24.608  1.00  0.00     0.121 C 
ATOM     28  C   UNL A   1      45.602  42.591  26.808  1.00  0.00     0.121 C 
ATOM     29  C   UNL A   1      45.710  42.862  23.872  1.00  0.00     0.006 C 
ATOM     30  C   UNL A   1      45.247  43.934  26.148  1.00  0.00     0.006 C 
ATOM     31  C   UNL A   1      44.324  42.900  23.226  1.00  0.00     0.009 C 
ATOM     32  C   UNL A   1      45.956  44.069  24.791  1.00  0.00     0.010 C 
ATOM     33  C   UNL A   1      45.597  45.105  27.063  1.00  0.00     0.009 C 
ENDBRANCH  19  26
ENDBRANCH   8  15
ENDBRANCH   6   7
ENDBRANCH   5   6
ENDBRANCH   3   5
ENDBRANCH   2   3
ENDBRANCH   1   2
BRANCH   1  34
ATOM     34  C   UNL A   1      42.823  41.696  33.382  1.00  0.00     0.275 C 
BRANCH  34  35
ATOM     35  O   UNL A   1      42.755  40.277  33.325  1.00  0.00    -0.458 OA
BRANCH  35  36
ATOM     36  C   UNL A   1      43.662  39.644  34.098  1.00  0.00     0.338 C 
ATOM     37  O   UNL A   1      44.046  39.913  35.213  1.00  0.00    -0.246 OA
BRANCH  36  38
ATOM     38  C   UNL A   1      43.790  38.349  33.429  1.00  0.00     0.060 A 
ATOM     39  C   UNL A   1      43.741  38.332  32.030  1.00  0.00     0.016 A 
ATOM     40  C   UNL A   1      44.112  37.219  34.181  1.00  0.00     0.016 A 
ATOM     41  C   UNL A   1      43.964  37.144  31.365  1.00  0.00     0.010 A 
ATOM     42  C   UNL A   1      44.314  36.026  33.521  1.00  0.00     0.010 A 
ATOM     43  C   UNL A   1      44.180  35.991  32.124  1.00  0.00    -0.014 A 
BRANCH  43  44
ATOM     44  C   UNL A   1      43.943  34.689  31.503  1.00  0.00     0.031 A 
ATOM     45  C   UNL A   1      45.083  34.108  30.729  1.00  0.00     0.074 A 
ATOM     46  C   UNL A   1      42.747  34.104  31.617  1.00  0.00     0.049 A 
ATOM     47  N   UNL A   1      45.112  33.043  29.982  1.00  0.00    -0.248 NA
ATOM     48  C   UNL A   1      46.365  34.841  30.789  1.00  0.00     0.031 C 
ATOM     49  C   UNL A   1      41.627  34.627  32.395  1.00  0.00     0.029 A 
ATOM     50  N   UNL A   1      42.276  32.953  31.058  1.00  0.00    -0.354 N 
ATOM     51  C   UNL A   1      46.408  32.978  29.488  1.00  0.00     0.074 A 
ATOM     52  C   UNL A   1      47.124  34.133  29.971  1.00  0.00     0.031 C 
ATOM     53  C   UNL A   1      40.578  33.803  32.242  1.00  0.00     0.029 A 
ATOM     54  C   UNL A   1      40.952  32.725  31.331  1.00  0.00     0.049 A 
ATOM     55  H   UNL A   1      42.830  32.348  30.513  1.00  0.00     0.167 HD
ATOM     56  C   UNL A   1      46.946  32.018  28.708  1.00  0.00     0.034 A 
ATOM     57  C   UNL A   1      40.142  31.756  30.864  1.00  0.00     0.034 A 
ATOM     58  C   UNL A   1      46.178  30.906  28.225  1.00  0.00     0.049 A 
ATOM     59  C   UNL A   1      40.740  30.724  29.946  1.00  0.00     0.074 A 
ATOM     60  C   UNL A   1      46.583  29.871  27.408  1.00  0.00     0.029 A 
ATOM     61  N   UNL A   1      44.837  30.690  28.524  1.00  0.00    -0.354 N 
ATOM     62  N   UNL A   1      41.970  30.650  29.486  1.00  0.00    -0.248 NA
ATOM     63  C   UNL A   1      39.861  29.644  29.489  1.00  0.00     0.031 C 
ATOM     64  C   UNL A   1      45.476  29.053  27.178  1.00  0.00     0.029 A 
ATOM     65  C   UNL A   1      44.393  29.542  27.900  1.00  0.00     0.049 A 
ATOM     66  H   UNL A   1      44.286  31.271  29.097  1.00  0.00     0.167 HD
ATOM     67  C   UNL A   1      42.022  29.505  28.701  1.00  0.00     0.074 A 
ATOM     68  C   UNL A   1      40.698  28.912  28.761  1.00  0.00     0.031 C 
ATOM     69  C   UNL A   1      43.062  28.987  27.996  1.00  0.00     0.034 A 
BRANCH  56  70
ATOM     70  C   UNL A   1      48.400  32.140  28.340  1.00  0.00     0.023 A 
ATOM     71  C   UNL A   1      48.792  32.919  27.239  1.00  0.00     0.031 A 
ATOM     72  C   UNL A   1      49.396  31.453  29.060  1.00  0.00     0.131 A 
ATOM     73  C   UNL A   1      50.144  32.978  26.878  1.00  0.00     0.055 A 
ATOM     74  C   UNL A   1      50.745  31.544  28.719  1.00  0.00     0.041 A 
ATOM     75  F   UNL A   1      49.073  30.712  30.134  1.00  0.00    -0.206 F 
ATOM     76  C   UNL A   1      51.123  32.304  27.617  1.00  0.00     0.022 A 
BRANCH  73  77
ATOM     77  S   UNL A   1      50.685  33.916  25.424  1.00  0.00     0.124 S 
ATOM     78  O   UNL A   1      51.189  32.857  24.552  1.00  0.00    -0.237 OA
ATOM     79  O   UNL A   1      49.441  34.543  24.989  1.00  0.00    -0.237 OA
ATOM     80  O   UNL A   1      51.702  34.821  25.949  1.00  0.00    -0.744 OA
ENDBRANCH  73  77
ENDBRANCH  56  70
BRANCH  57  81
ATOM     81  C   UNL A   1      38.734  31.726  31.340  1.00  0.00     0.023 A 
ATOM     82  C   UNL A   1      37.724  32.424  30.650  1.00  0.00     0.031 A 
ATOM     83  C   UNL A   1      38.422  31.165  32.588  1.00  0.00     0.131 A 
ATOM     84  C   UNL A   1      36.473  32.610  31.254  1.00  0.00     0.055 A 
ATOM     85  C   UNL A   1      37.156  31.304  33.159  1.00  0.00     0.041 A 
ATOM     86  F   UNL A   1      39.361  30.508  33.286  1.00  0.00    -0.206 F 
ATOM     87  C   UNL A   1      36.181  32.045  32.500  1.00  0.00     0.022 A 
BRANCH  84  88
ATOM     88  S   UNL A   1      35.225  33.689  30.498  1.00  0.00     0.124 S 
ATOM     89  O   UNL A   1      34.960  34.648  31.567  1.00  0.00    -0.237 OA
ATOM     90  O   UNL A   1      35.951  34.216  29.345  1.00  0.00    -0.237 OA
ATOM     91  O   UNL A   1      34.128  32.780  30.186  1.00  0.00    -0.744 OA
ENDBRANCH  84  88
ENDBRANCH  57  81
BRANCH  69  92
ATOM     92  C   UNL A   1      42.830  27.714  27.229  1.00  0.00     0.023 A 
ATOM     93  C   UNL A   1      43.256  26.489  27.775  1.00  0.00     0.031 A 
ATOM     94  C   UNL A   1      42.367  27.737  25.904  1.00  0.00     0.131 A 
ATOM     95  C   UNL A   1      43.258  25.341  26.977  1.00  0.00     0.055 A 
ATOM     96  C   UNL A   1      42.326  26.580  25.128  1.00  0.00     0.041 A 
ATOM     97  F   UNL A   1      41.964  28.889  25.344  1.00  0.00    -0.206 F 
ATOM     98  C   UNL A   1      42.788  25.378  25.661  1.00  0.00     0.022 A 
BRANCH  95  99
ATOM     99  S   UNL A   1      43.950  23.782  27.592  1.00  0.00     0.124 S 
ATOM    100  O   UNL A   1      44.693  23.301  26.430  1.00  0.00    -0.237 OA
ATOM    101  O   UNL A   1      44.768  24.233  28.714  1.00  0.00    -0.237 OA
ATOM    102  O   UNL A   1      42.776  22.990  27.947  1.00  0.00    -0.744 OA
ENDBRANCH  95  99
ENDBRANCH  69  92
ENDBRANCH  43  44
ENDBRANCH  36  38
ENDBRANCH  35  36
ENDBRANCH  34  35
ENDBRANCH   1  34
TORSDOF 19
ENDMDL
