MODEL 1
REMARK VINA RESULT:     -12.2      0.000      0.000
REMARK SMILES Cc1ccc(S(=O)(=O)N(CC(=O)OCCOC(=O)c2ccc(-c3c4nc(c(-c5cc(S(=O)(=O)[O-])ccc5F)c5ccc([nH]5)c(-c5cc(S(=O)(=O)[O-])ccc5F)c5nc(c(-c6cc(S(=O)(=O)[O-])ccc6F)c6ccc3[nH]6)C=C5)C=C4)cc2)c2cc(Cl)cc(Cl)c2)cc1
REMARK SMILES IDX 14 1 13 2 11 3 12 4 10 5 9 6 6 7 7 8 8 9 5 10 1 11 2 12 3 13
REMARK SMILES IDX 91 14 4 15 90 16 82 17 83 18 89 19 84 20 87 21 85 22 86 23
REMARK SMILES IDX 88 24 15 25 16 26 17 27 18 28 19 29 20 30 81 31 21 32 80 33
REMARK SMILES IDX 22 34 23 35 24 36 74 37 25 38 79 39 73 40 75 41 26 42 78 43
REMARK SMILES IDX 72 44 71 45 27 47 59 48 39 49 58 50 40 51 43 52 57 53 76 54
REMARK SMILES IDX 41 55 42 56 56 58 77 59 44 60 28 61 29 62 37 63 30 64 36 65
REMARK SMILES IDX 38 66 35 67 31 68 32 69 33 70 34 71 60 72 61 73 69 74 62 75
REMARK SMILES IDX 68 76 70 77 67 78 63 79 64 80 65 81 66 82 45 83 46 84 54 85
REMARK SMILES IDX 47 86 53 87 55 88 52 89 48 90 49 91 50 92 51 93
REMARK H PARENT 75 46 43 57
REMARK Flexibility Score: inf
ROOT
ATOM      1  C   UNL A   1      33.555  29.453  26.683  1.00  0.00     0.274 C 
ENDROOT
BRANCH   1   2
ATOM      2  O   UNL A   1      34.322  28.431  26.047  1.00  0.00    -0.461 OA
BRANCH   2   3
ATOM      3  C   UNL A   1      33.674  27.398  25.448  1.00  0.00     0.326 C 
ATOM      4  O   UNL A   1      33.555  26.286  25.909  1.00  0.00    -0.250 OA
BRANCH   3   5
ATOM      5  C   UNL A   1      33.151  27.873  24.121  1.00  0.00     0.258 C 
BRANCH   5   6
ATOM      6  N   UNL A   1      32.091  27.195  23.312  1.00  0.00    -0.255 N 
BRANCH   6   7
ATOM      7  S   UNL A   1      32.760  26.196  22.072  1.00  0.00     0.264 S 
ATOM      8  O   UNL A   1      34.084  26.714  21.797  1.00  0.00    -0.201 OA
ATOM      9  O   UNL A   1      31.818  25.971  20.995  1.00  0.00    -0.201 OA
BRANCH   7  10
ATOM     10  C   UNL A   1      32.980  24.584  22.832  1.00  0.00     0.088 A 
ATOM     11  C   UNL A   1      33.339  20.665  24.585  1.00  0.00     0.044 C 
ATOM     12  C   UNL A   1      33.226  22.027  23.959  1.00  0.00    -0.051 A 
ATOM     13  C   UNL A   1      31.961  22.574  23.712  1.00  0.00     0.005 A 
ATOM     14  C   UNL A   1      34.369  22.782  23.653  1.00  0.00     0.005 A 
ATOM     15  C   UNL A   1      31.835  23.841  23.140  1.00  0.00     0.022 A 
ATOM     16  C   UNL A   1      34.251  24.064  23.101  1.00  0.00     0.022 A 
ENDBRANCH   7  10
ENDBRANCH   6   7
BRANCH   6  17
ATOM     17  C   UNL A   1      30.740  27.745  23.108  1.00  0.00     0.055 A 
ATOM     18  C   UNL A   1      30.472  28.948  22.442  1.00  0.00     0.047 A 
ATOM     19  C   UNL A   1      29.618  27.100  23.657  1.00  0.00     0.047 A 
ATOM     20  C   UNL A   1      29.177  29.484  22.341  1.00  0.00     0.044 A 
ATOM     21  C   UNL A   1      28.318  27.612  23.513  1.00  0.00     0.044 A 
ATOM     22  Cl  UNL A   1      28.926  30.992  21.538  1.00  0.00    -0.084 Cl
ATOM     23  C   UNL A   1      28.091  28.818  22.873  1.00  0.00     0.041 A 
ATOM     24  Cl  UNL A   1      26.974  26.722  24.122  1.00  0.00    -0.084 Cl
ENDBRANCH   6  17
ENDBRANCH   5   6
ENDBRANCH   3   5
ENDBRANCH   2   3
ENDBRANCH   1   2
BRANCH   1  25
ATOM     25  C   UNL A   1      34.424  30.607  27.232  1.00  0.00     0.275 C 
BRANCH  25  26
ATOM     26  O   UNL A   1      35.829  30.347  27.552  1.00  0.00    -0.458 OA
BRANCH  26  27
ATOM     27  C   UNL A   1      36.467  29.824  28.647  1.00  0.00     0.338 C 
ATOM     28  O   UNL A   1      35.886  29.680  29.717  1.00  0.00    -0.246 OA
BRANCH  27  29
ATOM     29  C   UNL A   1      37.724  29.105  28.407  1.00  0.00     0.060 A 
ATOM     30  C   UNL A   1      38.633  29.532  27.417  1.00  0.00     0.016 A 
ATOM     31  C   UNL A   1      38.090  28.139  29.310  1.00  0.00     0.016 A 
ATOM     32  C   UNL A   1      39.950  29.061  27.445  1.00  0.00     0.010 A 
ATOM     33  C   UNL A   1      39.419  27.942  29.531  1.00  0.00     0.010 A 
ATOM     34  C   UNL A   1      40.345  28.307  28.551  1.00  0.00    -0.014 A 
BRANCH  34  35
ATOM     35  C   UNL A   1      41.579  27.547  28.688  1.00  0.00     0.031 A 
ATOM     36  C   UNL A   1      41.760  26.195  28.151  1.00  0.00     0.074 A 
ATOM     37  C   UNL A   1      42.598  28.280  29.199  1.00  0.00     0.049 A 
ATOM     38  N   UNL A   1      42.401  25.255  28.755  1.00  0.00    -0.248 NA
ATOM     39  C   UNL A   1      41.243  25.800  26.840  1.00  0.00     0.031 C 
ATOM     40  C   UNL A   1      44.014  28.005  29.296  1.00  0.00     0.029 A 
ATOM     41  N   UNL A   1      42.479  29.516  29.844  1.00  0.00    -0.354 N 
ATOM     42  C   UNL A   1      42.699  24.314  27.791  1.00  0.00     0.074 A 
ATOM     43  C   UNL A   1      41.824  24.603  26.676  1.00  0.00     0.031 C 
ATOM     44  C   UNL A   1      44.532  28.824  30.240  1.00  0.00     0.029 A 
ATOM     45  C   UNL A   1      43.421  29.552  30.852  1.00  0.00     0.049 A 
ATOM     46  H   UNL A   1      41.839  30.230  29.621  1.00  0.00     0.167 HD
ATOM     47  C   UNL A   1      43.838  23.567  27.884  1.00  0.00     0.034 A 
ATOM     48  C   UNL A   1      43.004  29.518  32.155  1.00  0.00     0.034 A 
ATOM     49  C   UNL A   1      44.686  24.066  28.963  1.00  0.00     0.049 A 
ATOM     50  C   UNL A   1      43.487  28.237  32.786  1.00  0.00     0.074 A 
ATOM     51  C   UNL A   1      45.776  24.921  28.927  1.00  0.00     0.029 A 
ATOM     52  N   UNL A   1      44.270  24.009  30.287  1.00  0.00    -0.354 N 
ATOM     53  N   UNL A   1      43.708  27.140  32.113  1.00  0.00    -0.248 NA
ATOM     54  C   UNL A   1      43.806  28.114  34.201  1.00  0.00     0.031 C 
ATOM     55  C   UNL A   1      45.956  25.452  30.228  1.00  0.00     0.029 A 
ATOM     56  C   UNL A   1      44.993  24.901  31.056  1.00  0.00     0.049 A 
ATOM     57  H   UNL A   1      43.560  23.417  30.629  1.00  0.00     0.167 HD
ATOM     58  C   UNL A   1      44.295  26.222  32.936  1.00  0.00     0.074 A 
ATOM     59  C   UNL A   1      44.307  26.868  34.241  1.00  0.00     0.031 C 
ATOM     60  C   UNL A   1      44.762  25.020  32.483  1.00  0.00     0.034 A 
BRANCH  47  61
ATOM     61  C   UNL A   1      44.363  22.683  26.775  1.00  0.00     0.023 A 
ATOM     62  C   UNL A   1      43.766  21.429  26.532  1.00  0.00     0.031 A 
ATOM     63  C   UNL A   1      45.420  23.033  25.914  1.00  0.00     0.131 A 
ATOM     64  C   UNL A   1      44.258  20.553  25.549  1.00  0.00     0.055 A 
ATOM     65  C   UNL A   1      45.929  22.152  24.946  1.00  0.00     0.041 A 
ATOM     66  F   UNL A   1      45.985  24.251  25.969  1.00  0.00    -0.206 F 
ATOM     67  C   UNL A   1      45.354  20.899  24.766  1.00  0.00     0.022 A 
BRANCH  64  68
ATOM     68  S   UNL A   1      43.429  18.955  25.311  1.00  0.00     0.124 S 
ATOM     69  O   UNL A   1      43.925  18.546  24.001  1.00  0.00    -0.237 OA
ATOM     70  O   UNL A   1      43.909  18.183  26.451  1.00  0.00    -0.237 OA
ATOM     71  O   UNL A   1      42.008  19.299  25.353  1.00  0.00    -0.744 OA
ENDBRANCH  64  68
ENDBRANCH  47  61
BRANCH  48  72
ATOM     72  C   UNL A   1      41.668  30.165  32.426  1.00  0.00     0.023 A 
ATOM     73  C   UNL A   1      41.575  31.569  32.261  1.00  0.00     0.031 A 
ATOM     74  C   UNL A   1      40.461  29.453  32.502  1.00  0.00     0.131 A 
ATOM     75  C   UNL A   1      40.337  32.185  32.010  1.00  0.00     0.055 A 
ATOM     76  C   UNL A   1      39.218  30.089  32.332  1.00  0.00     0.041 A 
ATOM     77  F   UNL A   1      40.459  28.120  32.641  1.00  0.00    -0.206 F 
ATOM     78  C   UNL A   1      39.152  31.454  32.047  1.00  0.00     0.022 A 
BRANCH  75  79
ATOM     79  S   UNL A   1      40.349  33.882  31.348  1.00  0.00     0.124 S 
ATOM     80  O   UNL A   1      38.940  34.247  31.403  1.00  0.00    -0.237 OA
ATOM     81  O   UNL A   1      41.226  34.575  32.291  1.00  0.00    -0.237 OA
ATOM     82  O   UNL A   1      40.917  33.728  30.013  1.00  0.00    -0.744 OA
ENDBRANCH  75  79
ENDBRANCH  48  72
BRANCH  60  83
ATOM     83  C   UNL A   1      45.187  23.891  33.377  1.00  0.00     0.023 A 
ATOM     84  C   UNL A   1      46.432  23.884  34.009  1.00  0.00     0.031 A 
ATOM     85  C   UNL A   1      44.318  22.821  33.692  1.00  0.00     0.131 A 
ATOM     86  C   UNL A   1      46.835  22.795  34.788  1.00  0.00     0.055 A 
ATOM     87  C   UNL A   1      44.679  21.792  34.562  1.00  0.00     0.041 A 
ATOM     88  F   UNL A   1      43.083  22.734  33.176  1.00  0.00    -0.206 F 
ATOM     89  C   UNL A   1      45.958  21.757  35.095  1.00  0.00     0.022 A 
BRANCH  86  90
ATOM     90  S   UNL A   1      48.572  22.725  35.279  1.00  0.00     0.124 S 
ATOM     91  O   UNL A   1      48.873  24.139  35.495  1.00  0.00    -0.237 OA
ATOM     92  O   UNL A   1      48.525  21.899  36.481  1.00  0.00    -0.237 OA
ATOM     93  O   UNL A   1      49.230  22.117  34.125  1.00  0.00    -0.744 OA
ENDBRANCH  86  90
ENDBRANCH  60  83
ENDBRANCH  34  35
ENDBRANCH  27  29
ENDBRANCH  26  27
ENDBRANCH  25  26
ENDBRANCH   1  25
TORSDOF 18
ENDMDL
MODEL 2
REMARK VINA RESULT:     -12.2      4.127     10.312
REMARK SMILES Cc1ccc(S(=O)(=O)N(CC(=O)OCCOC(=O)c2ccc(-c3c4nc(c(-c5cc(S(=O)(=O)[O-])ccc5F)c5ccc([nH]5)c(-c5cc(S(=O)(=O)[O-])ccc5F)c5nc(c(-c6cc(S(=O)(=O)[O-])ccc6F)c6ccc3[nH]6)C=C5)C=C4)cc2)c2cc(Cl)cc(Cl)c2)cc1
REMARK SMILES IDX 14 1 13 2 11 3 12 4 10 5 9 6 6 7 7 8 8 9 5 10 1 11 2 12 3 13
REMARK SMILES IDX 91 14 4 15 90 16 82 17 83 18 89 19 84 20 87 21 85 22 86 23
REMARK SMILES IDX 88 24 15 25 16 26 17 27 18 28 19 29 20 30 81 31 21 32 80 33
REMARK SMILES IDX 22 34 23 35 24 36 74 37 25 38 79 39 73 40 75 41 26 42 78 43
REMARK SMILES IDX 72 44 71 45 27 47 59 48 39 49 58 50 40 51 43 52 57 53 76 54
REMARK SMILES IDX 41 55 42 56 56 58 77 59 44 60 28 61 29 62 37 63 30 64 36 65
REMARK SMILES IDX 38 66 35 67 31 68 32 69 33 70 34 71 60 72 61 73 69 74 62 75
REMARK SMILES IDX 68 76 70 77 67 78 63 79 64 80 65 81 66 82 45 83 46 84 54 85
REMARK SMILES IDX 47 86 53 87 55 88 52 89 48 90 49 91 50 92 51 93
REMARK H PARENT 75 46 43 57
REMARK Flexibility Score: inf
ROOT
ATOM      1  C   UNL A   1      36.204  22.367  25.302  1.00  0.00     0.274 C 
ENDROOT
BRANCH   1   2
ATOM      2  O   UNL A   1      35.350  21.515  26.064  1.00  0.00    -0.461 OA
BRANCH   2   3
ATOM      3  C   UNL A   1      34.329  22.068  26.770  1.00  0.00     0.326 C 
ATOM      4  O   UNL A   1      33.627  21.480  27.561  1.00  0.00    -0.250 OA
BRANCH   3   5
ATOM      5  C   UNL A   1      34.220  23.518  26.387  1.00  0.00     0.258 C 
BRANCH   5   6
ATOM      6  N   UNL A   1      33.180  24.101  25.483  1.00  0.00    -0.255 N 
BRANCH   6   7
ATOM      7  S   UNL A   1      31.865  24.791  26.365  1.00  0.00     0.264 S 
ATOM      8  O   UNL A   1      31.876  24.168  27.673  1.00  0.00    -0.201 OA
ATOM      9  O   UNL A   1      30.650  24.830  25.577  1.00  0.00    -0.201 OA
BRANCH   7  10
ATOM     10  C   UNL A   1      32.311  26.514  26.606  1.00  0.00     0.088 A 
ATOM     11  C   UNL A   1      33.501  30.631  27.039  1.00  0.00     0.044 C 
ATOM     12  C   UNL A   1      33.069  29.200  26.878  1.00  0.00    -0.051 A 
ATOM     13  C   UNL A   1      33.955  28.266  26.327  1.00  0.00     0.005 A 
ATOM     14  C   UNL A   1      31.805  28.771  27.311  1.00  0.00     0.005 A 
ATOM     15  C   UNL A   1      33.575  26.931  26.178  1.00  0.00     0.022 A 
ATOM     16  C   UNL A   1      31.426  27.428  27.187  1.00  0.00     0.022 A 
ENDBRANCH   7  10
ENDBRANCH   6   7
BRANCH   6  17
ATOM     17  C   UNL A   1      32.923  23.621  24.114  1.00  0.00     0.055 A 
ATOM     18  C   UNL A   1      32.597  22.297  23.793  1.00  0.00     0.047 A 
ATOM     19  C   UNL A   1      33.071  24.486  23.017  1.00  0.00     0.047 A 
ATOM     20  C   UNL A   1      32.443  21.856  22.467  1.00  0.00     0.044 A 
ATOM     21  C   UNL A   1      32.868  24.056  21.694  1.00  0.00     0.044 A 
ATOM     22  Cl  UNL A   1      32.077  20.200  22.144  1.00  0.00    -0.084 Cl
ATOM     23  C   UNL A   1      32.574  22.734  21.409  1.00  0.00     0.041 A 
ATOM     24  Cl  UNL A   1      32.965  25.190  20.400  1.00  0.00    -0.084 Cl
ENDBRANCH   6  17
ENDBRANCH   5   6
ENDBRANCH   3   5
ENDBRANCH   2   3
ENDBRANCH   1   2
BRANCH   1  25
ATOM     25  C   UNL A   1      37.694  22.231  25.689  1.00  0.00     0.275 C 
BRANCH  25  26
ATOM     26  O   UNL A   1      38.414  23.414  26.166  1.00  0.00    -0.458 OA
BRANCH  26  27
ATOM     27  C   UNL A   1      39.663  23.608  26.697  1.00  0.00     0.338 C 
ATOM     28  O   UNL A   1      40.606  22.883  26.397  1.00  0.00    -0.246 OA
BRANCH  27  29
ATOM     29  C   UNL A   1      39.925  24.907  27.330  1.00  0.00     0.060 A 
ATOM     30  C   UNL A   1      40.342  26.018  26.569  1.00  0.00     0.016 A 
ATOM     31  C   UNL A   1      39.549  25.067  28.639  1.00  0.00     0.016 A 
ATOM     32  C   UNL A   1      40.244  27.301  27.118  1.00  0.00     0.010 A 
ATOM     33  C   UNL A   1      39.152  26.307  29.042  1.00  0.00     0.010 A 
ATOM     34  C   UNL A   1      39.588  27.434  28.342  1.00  0.00    -0.014 A 
BRANCH  34  35
ATOM     35  C   UNL A   1      39.558  28.619  29.187  1.00  0.00     0.031 A 
ATOM     36  C   UNL A   1      38.546  29.673  29.066  1.00  0.00     0.074 A 
ATOM     37  C   UNL A   1      40.444  28.562  30.210  1.00  0.00     0.049 A 
ATOM     38  N   UNL A   1      38.792  30.931  29.189  1.00  0.00    -0.248 NA
ATOM     39  C   UNL A   1      37.134  29.376  28.820  1.00  0.00     0.031 C 
ATOM     40  C   UNL A   1      40.597  29.389  31.386  1.00  0.00     0.029 A 
ATOM     41  N   UNL A   1      41.515  27.667  30.322  1.00  0.00    -0.354 N 
ATOM     42  C   UNL A   1      37.575  31.539  29.420  1.00  0.00     0.074 A 
ATOM     43  C   UNL A   1      36.573  30.578  29.013  1.00  0.00     0.031 C 
ATOM     44  C   UNL A   1      41.848  29.203  31.866  1.00  0.00     0.029 A 
ATOM     45  C   UNL A   1      42.559  28.340  30.922  1.00  0.00     0.049 A 
ATOM     46  H   UNL A   1      41.522  26.728  30.026  1.00  0.00     0.167 HD
ATOM     47  C   UNL A   1      37.498  32.661  30.194  1.00  0.00     0.034 A 
ATOM     48  C   UNL A   1      43.673  28.634  30.185  1.00  0.00     0.034 A 
ATOM     49  C   UNL A   1      38.783  32.924  30.836  1.00  0.00     0.049 A 
ATOM     50  C   UNL A   1      43.787  30.130  30.049  1.00  0.00     0.074 A 
ATOM     51  C   UNL A   1      39.233  32.610  32.109  1.00  0.00     0.029 A 
ATOM     52  N   UNL A   1      39.908  33.243  30.086  1.00  0.00    -0.354 N 
ATOM     53  N   UNL A   1      42.760  30.937  30.081  1.00  0.00    -0.248 NA
ATOM     54  C   UNL A   1      45.058  30.828  29.923  1.00  0.00     0.031 C 
ATOM     55  C   UNL A   1      40.648  32.653  32.094  1.00  0.00     0.029 A 
ATOM     56  C   UNL A   1      41.056  33.017  30.822  1.00  0.00     0.049 A 
ATOM     57  H   UNL A   1      39.890  33.583  29.162  1.00  0.00     0.167 HD
ATOM     58  C   UNL A   1      43.207  32.227  30.104  1.00  0.00     0.074 A 
ATOM     59  C   UNL A   1      44.652  32.108  29.973  1.00  0.00     0.031 C 
ATOM     60  C   UNL A   1      42.368  33.294  30.269  1.00  0.00     0.034 A 
BRANCH  47  61
ATOM     61  C   UNL A   1      36.201  33.261  30.688  1.00  0.00     0.023 A 
ATOM     62  C   UNL A   1      35.410  34.040  29.817  1.00  0.00     0.031 A 
ATOM     63  C   UNL A   1      35.684  33.078  31.984  1.00  0.00     0.131 A 
ATOM     64  C   UNL A   1      34.227  34.662  30.251  1.00  0.00     0.055 A 
ATOM     65  C   UNL A   1      34.513  33.716  32.427  1.00  0.00     0.041 A 
ATOM     66  F   UNL A   1      36.285  32.257  32.860  1.00  0.00    -0.206 F 
ATOM     67  C   UNL A   1      33.783  34.523  31.561  1.00  0.00     0.022 A 
BRANCH  64  68
ATOM     68  S   UNL A   1      33.275  35.651  29.061  1.00  0.00     0.124 S 
ATOM     69  O   UNL A   1      34.330  36.250  28.249  1.00  0.00    -0.237 OA
ATOM     70  O   UNL A   1      32.453  34.641  28.406  1.00  0.00    -0.237 OA
ATOM     71  O   UNL A   1      32.541  36.589  29.909  1.00  0.00    -0.744 OA
ENDBRANCH  64  68
ENDBRANCH  47  61
BRANCH  48  72
ATOM     72  C   UNL A   1      44.015  27.640  29.102  1.00  0.00     0.023 A 
ATOM     73  C   UNL A   1      44.247  26.298  29.493  1.00  0.00     0.031 A 
ATOM     74  C   UNL A   1      43.795  27.873  27.735  1.00  0.00     0.131 A 
ATOM     75  C   UNL A   1      44.088  25.242  28.581  1.00  0.00     0.055 A 
ATOM     76  C   UNL A   1      43.719  26.817  26.810  1.00  0.00     0.041 A 
ATOM     77  F   UNL A   1      43.551  29.110  27.281  1.00  0.00    -0.206 F 
ATOM     78  C   UNL A   1      43.827  25.491  27.235  1.00  0.00     0.022 A 
BRANCH  75  79
ATOM     79  S   UNL A   1      43.937  23.554  29.248  1.00  0.00     0.124 S 
ATOM     80  O   UNL A   1      44.774  22.784  28.338  1.00  0.00    -0.237 OA
ATOM     81  O   UNL A   1      44.448  23.713  30.609  1.00  0.00    -0.237 OA
ATOM     82  O   UNL A   1      42.504  23.284  29.181  1.00  0.00    -0.744 OA
ENDBRANCH  75  79
ENDBRANCH  48  72
BRANCH  60  83
ATOM     83  C   UNL A   1      42.773  34.724  30.059  1.00  0.00     0.023 A 
ATOM     84  C   UNL A   1      42.551  35.380  28.846  1.00  0.00     0.031 A 
ATOM     85  C   UNL A   1      43.320  35.505  31.103  1.00  0.00     0.131 A 
ATOM     86  C   UNL A   1      42.992  36.692  28.650  1.00  0.00     0.055 A 
ATOM     87  C   UNL A   1      43.654  36.849  30.939  1.00  0.00     0.041 A 
ATOM     88  F   UNL A   1      43.548  34.998  32.324  1.00  0.00    -0.206 F 
ATOM     89  C   UNL A   1      43.517  37.446  29.696  1.00  0.00     0.022 A 
BRANCH  86  90
ATOM     90  S   UNL A   1      42.964  37.331  26.960  1.00  0.00     0.124 S 
ATOM     91  O   UNL A   1      41.857  38.282  27.023  1.00  0.00    -0.237 OA
ATOM     92  O   UNL A   1      44.294  37.917  26.824  1.00  0.00    -0.237 OA
ATOM     93  O   UNL A   1      42.718  36.141  26.149  1.00  0.00    -0.744 OA
ENDBRANCH  86  90
ENDBRANCH  60  83
ENDBRANCH  34  35
ENDBRANCH  27  29
ENDBRANCH  26  27
ENDBRANCH  25  26
ENDBRANCH   1  25
TORSDOF 18
ENDMDL
MODEL 3
REMARK VINA RESULT:     -12.2      4.432      9.885
REMARK SMILES Cc1ccc(S(=O)(=O)N(CC(=O)OCCOC(=O)c2ccc(-c3c4nc(c(-c5cc(S(=O)(=O)[O-])ccc5F)c5ccc([nH]5)c(-c5cc(S(=O)(=O)[O-])ccc5F)c5nc(c(-c6cc(S(=O)(=O)[O-])ccc6F)c6ccc3[nH]6)C=C5)C=C4)cc2)c2cc(Cl)cc(Cl)c2)cc1
REMARK SMILES IDX 14 1 13 2 11 3 12 4 10 5 9 6 6 7 7 8 8 9 5 10 1 11 2 12 3 13
REMARK SMILES IDX 91 14 4 15 90 16 82 17 83 18 89 19 84 20 87 21 85 22 86 23
REMARK SMILES IDX 88 24 15 25 16 26 17 27 18 28 19 29 20 30 81 31 21 32 80 33
REMARK SMILES IDX 22 34 23 35 24 36 74 37 25 38 79 39 73 40 75 41 26 42 78 43
REMARK SMILES IDX 72 44 71 45 27 47 59 48 39 49 58 50 40 51 43 52 57 53 76 54
REMARK SMILES IDX 41 55 42 56 56 58 77 59 44 60 28 61 29 62 37 63 30 64 36 65
REMARK SMILES IDX 38 66 35 67 31 68 32 69 33 70 34 71 60 72 61 73 69 74 62 75
REMARK SMILES IDX 68 76 70 77 67 78 63 79 64 80 65 81 66 82 45 83 46 84 54 85
REMARK SMILES IDX 47 86 53 87 55 88 52 89 48 90 49 91 50 92 51 93
REMARK H PARENT 75 46 43 57
REMARK Flexibility Score: inf
ROOT
ATOM      1  C   UNL A   1      36.568  21.689  25.486  1.00  0.00     0.274 C 
ENDROOT
BRANCH   1   2
ATOM      2  O   UNL A   1      36.128  22.954  24.992  1.00  0.00    -0.461 OA
BRANCH   2   3
ATOM      3  C   UNL A   1      35.887  23.094  23.662  1.00  0.00     0.326 C 
ATOM      4  O   UNL A   1      36.734  23.183  22.804  1.00  0.00    -0.250 OA
BRANCH   3   5
ATOM      5  C   UNL A   1      34.399  23.132  23.453  1.00  0.00     0.258 C 
BRANCH   5   6
ATOM      6  N   UNL A   1      33.416  23.842  24.330  1.00  0.00    -0.255 N 
BRANCH   6   7
ATOM      7  S   UNL A   1      31.899  23.019  24.402  1.00  0.00     0.264 S 
ATOM      8  O   UNL A   1      31.146  23.441  23.240  1.00  0.00    -0.201 OA
ATOM      9  O   UNL A   1      31.312  23.087  25.725  1.00  0.00    -0.201 OA
BRANCH   7  10
ATOM     10  C   UNL A   1      32.292  21.283  24.165  1.00  0.00     0.088 A 
ATOM     11  C   UNL A   1      33.207  17.091  23.783  1.00  0.00     0.044 C 
ATOM     12  C   UNL A   1      32.869  18.550  23.909  1.00  0.00    -0.051 A 
ATOM     13  C   UNL A   1      33.088  19.210  25.125  1.00  0.00     0.005 A 
ATOM     14  C   UNL A   1      32.376  19.278  22.815  1.00  0.00     0.005 A 
ATOM     15  C   UNL A   1      32.789  20.567  25.259  1.00  0.00     0.022 A 
ATOM     16  C   UNL A   1      32.097  20.646  22.935  1.00  0.00     0.022 A 
ENDBRANCH   7  10
ENDBRANCH   6   7
BRANCH   6  17
ATOM     17  C   UNL A   1      33.431  25.295  24.567  1.00  0.00     0.055 A 
ATOM     18  C   UNL A   1      33.095  25.897  25.787  1.00  0.00     0.047 A 
ATOM     19  C   UNL A   1      33.723  26.185  23.519  1.00  0.00     0.047 A 
ATOM     20  C   UNL A   1      33.037  27.292  25.951  1.00  0.00     0.044 A 
ATOM     21  C   UNL A   1      33.713  27.579  23.698  1.00  0.00     0.044 A 
ATOM     22  Cl  UNL A   1      32.579  27.964  27.475  1.00  0.00    -0.084 Cl
ATOM     23  C   UNL A   1      33.349  28.142  24.909  1.00  0.00     0.041 A 
ATOM     24  Cl  UNL A   1      34.178  28.613  22.400  1.00  0.00    -0.084 Cl
ENDBRANCH   6  17
ENDBRANCH   5   6
ENDBRANCH   3   5
ENDBRANCH   2   3
ENDBRANCH   1   2
BRANCH   1  25
ATOM     25  C   UNL A   1      38.030  21.711  25.985  1.00  0.00     0.275 C 
BRANCH  25  26
ATOM     26  O   UNL A   1      38.655  22.998  26.297  1.00  0.00    -0.458 OA
BRANCH  26  27
ATOM     27  C   UNL A   1      39.942  23.380  26.570  1.00  0.00     0.338 C 
ATOM     28  O   UNL A   1      40.901  22.809  26.063  1.00  0.00    -0.246 OA
BRANCH  27  29
ATOM     29  C   UNL A   1      40.131  24.705  27.176  1.00  0.00     0.060 A 
ATOM     30  C   UNL A   1      40.610  25.793  26.418  1.00  0.00     0.016 A 
ATOM     31  C   UNL A   1      39.629  24.908  28.437  1.00  0.00     0.016 A 
ATOM     32  C   UNL A   1      40.449  27.094  26.907  1.00  0.00     0.010 A 
ATOM     33  C   UNL A   1      39.185  26.156  28.754  1.00  0.00     0.010 A 
ATOM     34  C   UNL A   1      39.676  27.263  28.057  1.00  0.00    -0.014 A 
BRANCH  34  35
ATOM     35  C   UNL A   1      39.554  28.476  28.851  1.00  0.00     0.031 A 
ATOM     36  C   UNL A   1      38.625  29.563  28.529  1.00  0.00     0.074 A 
ATOM     37  C   UNL A   1      40.251  28.422  30.012  1.00  0.00     0.049 A 
ATOM     38  N   UNL A   1      38.900  30.815  28.657  1.00  0.00    -0.248 NA
ATOM     39  C   UNL A   1      37.263  29.312  28.054  1.00  0.00     0.031 C 
ATOM     40  C   UNL A   1      40.239  29.284  31.173  1.00  0.00     0.029 A 
ATOM     41  N   UNL A   1      41.248  27.491  30.330  1.00  0.00    -0.354 N 
ATOM     42  C   UNL A   1      37.689  31.476  28.660  1.00  0.00     0.074 A 
ATOM     43  C   UNL A   1      36.730  30.539  28.115  1.00  0.00     0.031 C 
ATOM     44  C   UNL A   1      41.380  29.067  31.864  1.00  0.00     0.029 A 
ATOM     45  C   UNL A   1      42.204  28.146  31.080  1.00  0.00     0.049 A 
ATOM     46  H   UNL A   1      41.264  26.543  30.066  1.00  0.00     0.167 HD
ATOM     47  C   UNL A   1      37.531  32.626  29.377  1.00  0.00     0.034 A 
ATOM     48  C   UNL A   1      43.438  28.371  30.536  1.00  0.00     0.034 A 
ATOM     49  C   UNL A   1      38.698  32.863  30.222  1.00  0.00     0.049 A 
ATOM     50  C   UNL A   1      43.637  29.857  30.380  1.00  0.00     0.074 A 
ATOM     51  C   UNL A   1      38.912  32.577  31.561  1.00  0.00     0.029 A 
ATOM     52  N   UNL A   1      39.946  33.113  29.666  1.00  0.00    -0.354 N 
ATOM     53  N   UNL A   1      42.656  30.702  30.213  1.00  0.00    -0.248 NA
ATOM     54  C   UNL A   1      44.941  30.501  30.453  1.00  0.00     0.031 C 
ATOM     55  C   UNL A   1      40.310  32.566  31.787  1.00  0.00     0.029 A 
ATOM     56  C   UNL A   1      40.942  32.870  30.594  1.00  0.00     0.049 A 
ATOM     57  H   UNL A   1      40.100  33.420  28.743  1.00  0.00     0.167 HD
ATOM     58  C   UNL A   1      43.148  31.975  30.276  1.00  0.00     0.074 A 
ATOM     59  C   UNL A   1      44.588  31.796  30.396  1.00  0.00     0.031 C 
ATOM     60  C   UNL A   1      42.340  33.077  30.264  1.00  0.00     0.034 A 
BRANCH  47  61
ATOM     61  C   UNL A   1      36.196  33.292  29.625  1.00  0.00     0.023 A 
ATOM     62  C   UNL A   1      35.790  33.585  30.944  1.00  0.00     0.031 A 
ATOM     63  C   UNL A   1      35.304  33.685  28.610  1.00  0.00     0.131 A 
ATOM     64  C   UNL A   1      34.535  34.152  31.222  1.00  0.00     0.055 A 
ATOM     65  C   UNL A   1      34.039  34.232  28.886  1.00  0.00     0.041 A 
ATOM     66  F   UNL A   1      35.635  33.571  27.313  1.00  0.00    -0.206 F 
ATOM     67  C   UNL A   1      33.644  34.458  30.199  1.00  0.00     0.022 A 
BRANCH  64  68
ATOM     68  S   UNL A   1      34.094  34.488  32.952  1.00  0.00     0.124 S 
ATOM     69  O   UNL A   1      32.690  34.871  32.841  1.00  0.00    -0.237 OA
ATOM     70  O   UNL A   1      34.363  33.207  33.595  1.00  0.00    -0.237 OA
ATOM     71  O   UNL A   1      35.001  35.571  33.330  1.00  0.00    -0.744 OA
ENDBRANCH  64  68
ENDBRANCH  47  61
BRANCH  48  72
ATOM     72  C   UNL A   1      43.915  27.327  29.556  1.00  0.00     0.023 A 
ATOM     73  C   UNL A   1      43.859  27.649  28.177  1.00  0.00     0.031 A 
ATOM     74  C   UNL A   1      44.700  26.222  29.918  1.00  0.00     0.131 A 
ATOM     75  C   UNL A   1      44.691  26.998  27.250  1.00  0.00     0.055 A 
ATOM     76  C   UNL A   1      45.468  25.520  28.972  1.00  0.00     0.041 A 
ATOM     77  F   UNL A   1      44.821  25.858  31.203  1.00  0.00    -0.206 F 
ATOM     78  C   UNL A   1      45.497  25.930  27.637  1.00  0.00     0.022 A 
BRANCH  75  79
ATOM     79  S   UNL A   1      44.911  27.769  25.614  1.00  0.00     0.124 S 
ATOM     80  O   UNL A   1      45.355  29.112  25.962  1.00  0.00    -0.237 OA
ATOM     81  O   UNL A   1      45.913  26.902  24.997  1.00  0.00    -0.237 OA
ATOM     82  O   UNL A   1      43.587  27.672  25.007  1.00  0.00    -0.744 OA
ENDBRANCH  75  79
ENDBRANCH  48  72
BRANCH  60  83
ATOM     83  C   UNL A   1      42.836  34.482  30.087  1.00  0.00     0.023 A 
ATOM     84  C   UNL A   1      42.609  35.199  28.909  1.00  0.00     0.031 A 
ATOM     85  C   UNL A   1      43.482  35.183  31.131  1.00  0.00     0.131 A 
ATOM     86  C   UNL A   1      43.133  36.483  28.739  1.00  0.00     0.055 A 
ATOM     87  C   UNL A   1      43.902  36.507  31.000  1.00  0.00     0.041 A 
ATOM     88  F   UNL A   1      43.726  34.616  32.322  1.00  0.00    -0.206 F 
ATOM     89  C   UNL A   1      43.755  37.159  29.786  1.00  0.00     0.022 A 
BRANCH  86  90
ATOM     90  S   UNL A   1      43.078  37.187  27.076  1.00  0.00     0.124 S 
ATOM     91  O   UNL A   1      42.878  35.992  26.258  1.00  0.00    -0.237 OA
ATOM     92  O   UNL A   1      41.939  38.096  27.157  1.00  0.00    -0.237 OA
ATOM     93  O   UNL A   1      44.383  37.828  26.932  1.00  0.00    -0.744 OA
ENDBRANCH  86  90
ENDBRANCH  60  83
ENDBRANCH  34  35
ENDBRANCH  27  29
ENDBRANCH  26  27
ENDBRANCH  25  26
ENDBRANCH   1  25
TORSDOF 18
ENDMDL
