MODEL 1
REMARK VINA RESULT:     -10.8      0.000      0.000
REMARK SMILES CCOC(=O)[C@@H](C)Oc1ccc(Br)cc1/C=C/C(=O)OCCOC(=O)c1ccc(-c2c3nc(c(-c4cc(S(=O)(=O)[O-])ccc4F)c4ccc([nH]4)c(-c4cc(S(=O)(=O)[O-])ccc4F)c4nc(c(-c5cc(S(=O)(=O)[O-])ccc5F)c5ccc2[nH]5)C=C4)C=C3)cc1
REMARK SMILES IDX 20 1 18 2 19 3 17 4 16 5 15 6 9 7 10 8 11 9 14 10 12 11
REMARK SMILES IDX 13 12 8 13 6 14 7 15 4 16 5 17 3 18 2 19 1 20 21 21 22 22
REMARK SMILES IDX 23 23 24 24 25 25 26 26 27 27 88 28 28 29 87 30 29 31 30 32
REMARK SMILES IDX 31 33 81 34 32 35 86 36 80 37 82 38 33 39 85 40 79 41 78 42
REMARK SMILES IDX 34 44 66 45 46 46 65 47 47 48 50 49 64 50 83 51 48 52 49 53
REMARK SMILES IDX 63 55 84 56 51 57 35 58 36 59 44 60 37 61 43 62 45 63 42 64
REMARK SMILES IDX 38 65 39 66 40 67 41 68 67 69 68 70 76 71 69 72 75 73 77 74
REMARK SMILES IDX 74 75 70 76 71 77 72 78 73 79 52 80 53 81 61 82 54 83 60 84
REMARK SMILES IDX 62 85 59 86 55 87 56 88 57 89 58 90
REMARK H PARENT 82 43 50 54
REMARK Flexibility Score: inf
ROOT
ATOM      1  O   UNL A   1      34.716  22.821  25.209  1.00  0.00    -0.459 OA
ENDROOT
BRANCH   1   2
ATOM      2  C   UNL A   1      34.837  23.746  24.228  1.00  0.00     0.330 C 
ATOM      3  O   UNL A   1      35.200  23.534  23.081  1.00  0.00    -0.247 OA
BRANCH   2   4
ATOM      4  C   UNL A   1      34.430  25.096  24.659  1.00  0.00     0.094 C 
ATOM      5  C   UNL A   1      33.371  25.410  25.423  1.00  0.00     0.019 C 
BRANCH   5   6
ATOM      6  C   UNL A   1      33.059  26.821  25.708  1.00  0.00     0.018 A 
ATOM      7  C   UNL A   1      31.822  27.395  25.373  1.00  0.00     0.127 A 
ATOM      8  C   UNL A   1      31.500  28.671  25.846  1.00  0.00     0.048 A 
ATOM      9  C   UNL A   1      32.452  29.445  26.509  1.00  0.00     0.019 A 
ATOM     10  C   UNL A   1      34.020  27.619  26.355  1.00  0.00     0.027 A 
ATOM     11  C   UNL A   1      33.719  28.924  26.738  1.00  0.00     0.018 A 
ATOM     12  Br  UNL A   1      35.022  29.974  27.612  1.00  0.00    -0.051 Br
BRANCH   7  13
ATOM     13  O   UNL A   1      30.912  26.659  24.657  1.00  0.00    -0.478 OA
BRANCH  13  14
ATOM     14  C   UNL A   1      30.767  27.028  23.274  1.00  0.00     0.279 C 
ATOM     15  C   UNL A   1      32.031  27.654  22.673  1.00  0.00     0.066 C 
BRANCH  14  16
ATOM     16  C   UNL A   1      29.471  27.778  22.922  1.00  0.00     0.347 C 
ATOM     17  O   UNL A   1      28.377  27.509  23.407  1.00  0.00    -0.248 OA
BRANCH  16  18
ATOM     18  O   UNL A   1      29.704  28.840  22.097  1.00  0.00    -0.463 OA
BRANCH  18  19
ATOM     19  C   UNL A   1      28.775  29.932  22.188  1.00  0.00     0.229 C 
ATOM     20  C   UNL A   1      29.105  30.812  23.373  1.00  0.00     0.049 C 
ENDBRANCH  18  19
ENDBRANCH  16  18
ENDBRANCH  14  16
ENDBRANCH  13  14
ENDBRANCH   7  13
ENDBRANCH   5   6
ENDBRANCH   2   4
ENDBRANCH   1   2
BRANCH   1  21
ATOM     21  C   UNL A   1      34.674  21.453  24.764  1.00  0.00     0.275 C 
BRANCH  21  22
ATOM     22  C   UNL A   1      36.016  20.752  24.991  1.00  0.00     0.275 C 
BRANCH  22  23
ATOM     23  O   UNL A   1      36.841  21.448  25.944  1.00  0.00    -0.458 OA
BRANCH  23  24
ATOM     24  C   UNL A   1      38.176  21.267  25.785  1.00  0.00     0.338 C 
ATOM     25  O   UNL A   1      38.725  20.334  25.224  1.00  0.00    -0.246 OA
BRANCH  24  26
ATOM     26  C   UNL A   1      38.910  22.438  26.300  1.00  0.00     0.060 A 
ATOM     27  C   UNL A   1      38.394  23.708  26.024  1.00  0.00     0.016 A 
ATOM     28  C   UNL A   1      40.126  22.302  26.976  1.00  0.00     0.016 A 
ATOM     29  C   UNL A   1      39.095  24.848  26.414  1.00  0.00     0.010 A 
ATOM     30  C   UNL A   1      40.827  23.448  27.368  1.00  0.00     0.010 A 
ATOM     31  C   UNL A   1      40.324  24.729  27.078  1.00  0.00    -0.014 A 
BRANCH  31  32
ATOM     32  C   UNL A   1      41.100  25.947  27.420  1.00  0.00     0.031 A 
ATOM     33  C   UNL A   1      40.478  27.017  28.275  1.00  0.00     0.074 A 
ATOM     34  C   UNL A   1      42.367  26.083  26.984  1.00  0.00     0.049 A 
ATOM     35  N   UNL A   1      40.974  28.164  28.660  1.00  0.00    -0.248 NA
ATOM     36  C   UNL A   1      39.115  26.756  28.758  1.00  0.00     0.031 C 
ATOM     37  C   UNL A   1      43.088  25.097  26.179  1.00  0.00     0.029 A 
ATOM     38  N   UNL A   1      43.271  27.100  27.159  1.00  0.00    -0.354 N 
ATOM     39  C   UNL A   1      39.985  28.768  29.428  1.00  0.00     0.074 A 
ATOM     40  C   UNL A   1      38.847  27.870  29.421  1.00  0.00     0.031 C 
ATOM     41  C   UNL A   1      44.326  25.556  25.933  1.00  0.00     0.029 A 
ATOM     42  C   UNL A   1      44.473  26.883  26.525  1.00  0.00     0.049 A 
ATOM     43  H   UNL A   1      43.079  27.908  27.687  1.00  0.00     0.167 HD
ATOM     44  C   UNL A   1      40.026  29.955  30.086  1.00  0.00     0.034 A 
ATOM     45  C   UNL A   1      45.558  27.676  26.414  1.00  0.00     0.034 A 
ATOM     46  C   UNL A   1      41.164  30.844  30.074  1.00  0.00     0.049 A 
ATOM     47  C   UNL A   1      45.548  29.028  27.083  1.00  0.00     0.074 A 
ATOM     48  C   UNL A   1      41.315  32.064  30.712  1.00  0.00     0.029 A 
ATOM     49  N   UNL A   1      42.345  30.618  29.376  1.00  0.00    -0.354 N 
ATOM     50  N   UNL A   1      44.606  29.586  27.807  1.00  0.00    -0.248 NA
ATOM     51  C   UNL A   1      46.752  29.855  26.919  1.00  0.00     0.031 C 
ATOM     52  C   UNL A   1      42.555  32.603  30.349  1.00  0.00     0.029 A 
ATOM     53  C   UNL A   1      43.212  31.688  29.542  1.00  0.00     0.049 A 
ATOM     54  H   UNL A   1      42.537  29.814  28.842  1.00  0.00     0.167 HD
ATOM     55  C   UNL A   1      45.117  30.818  28.209  1.00  0.00     0.074 A 
ATOM     56  C   UNL A   1      46.452  30.914  27.656  1.00  0.00     0.031 C 
ATOM     57  C   UNL A   1      44.536  31.779  28.972  1.00  0.00     0.034 A 
BRANCH  44  58
ATOM     58  C   UNL A   1      38.780  30.377  30.828  1.00  0.00     0.023 A 
ATOM     59  C   UNL A   1      37.850  31.270  30.268  1.00  0.00     0.031 A 
ATOM     60  C   UNL A   1      38.537  29.906  32.131  1.00  0.00     0.131 A 
ATOM     61  C   UNL A   1      36.761  31.719  31.032  1.00  0.00     0.055 A 
ATOM     62  C   UNL A   1      37.410  30.297  32.858  1.00  0.00     0.041 A 
ATOM     63  F   UNL A   1      39.400  29.069  32.727  1.00  0.00    -0.206 F 
ATOM     64  C   UNL A   1      36.523  31.222  32.315  1.00  0.00     0.022 A 
BRANCH  61  65
ATOM     65  S   UNL A   1      35.744  33.074  30.382  1.00  0.00     0.124 S 
ATOM     66  O   UNL A   1      34.394  32.550  30.577  1.00  0.00    -0.237 OA
ATOM     67  O   UNL A   1      36.125  34.193  31.234  1.00  0.00    -0.237 OA
ATOM     68  O   UNL A   1      36.165  33.180  28.986  1.00  0.00    -0.744 OA
ENDBRANCH  61  65
ENDBRANCH  44  58
BRANCH  45  69
ATOM     69  C   UNL A   1      46.732  27.236  25.608  1.00  0.00     0.023 A 
ATOM     70  C   UNL A   1      46.955  27.736  24.316  1.00  0.00     0.031 A 
ATOM     71  C   UNL A   1      47.623  26.268  26.105  1.00  0.00     0.131 A 
ATOM     72  C   UNL A   1      48.017  27.237  23.547  1.00  0.00     0.055 A 
ATOM     73  C   UNL A   1      48.709  25.811  25.356  1.00  0.00     0.041 A 
ATOM     74  F   UNL A   1      47.454  25.756  27.334  1.00  0.00    -0.206 F 
ATOM     75  C   UNL A   1      48.904  26.287  24.064  1.00  0.00     0.022 A 
BRANCH  72  76
ATOM     76  S   UNL A   1      48.180  27.785  21.826  1.00  0.00     0.124 S 
ATOM     77  O   UNL A   1      49.341  28.666  21.902  1.00  0.00    -0.237 OA
ATOM     78  O   UNL A   1      48.379  26.522  21.122  1.00  0.00    -0.237 OA
ATOM     79  O   UNL A   1      46.908  28.451  21.558  1.00  0.00    -0.744 OA
ENDBRANCH  72  76
ENDBRANCH  45  69
BRANCH  57  80
ATOM     80  C   UNL A   1      45.370  32.999  29.284  1.00  0.00     0.023 A 
ATOM     81  C   UNL A   1      45.254  34.187  28.541  1.00  0.00     0.031 A 
ATOM     82  C   UNL A   1      46.308  32.962  30.332  1.00  0.00     0.131 A 
ATOM     83  C   UNL A   1      46.101  35.271  28.820  1.00  0.00     0.055 A 
ATOM     84  C   UNL A   1      47.109  34.062  30.640  1.00  0.00     0.041 A 
ATOM     85  F   UNL A   1      46.462  31.853  31.072  1.00  0.00    -0.206 F 
ATOM     86  C   UNL A   1      47.017  35.221  29.873  1.00  0.00     0.022 A 
BRANCH  83  87
ATOM     87  S   UNL A   1      46.050  36.721  27.731  1.00  0.00     0.124 S 
ATOM     88  O   UNL A   1      45.663  37.782  28.654  1.00  0.00    -0.237 OA
ATOM     89  O   UNL A   1      47.417  36.782  27.225  1.00  0.00    -0.237 OA
ATOM     90  O   UNL A   1      45.040  36.367  26.736  1.00  0.00    -0.744 OA
ENDBRANCH  83  87
ENDBRANCH  57  80
ENDBRANCH  31  32
ENDBRANCH  24  26
ENDBRANCH  23  24
ENDBRANCH  22  23
ENDBRANCH  21  22
ENDBRANCH   1  21
TORSDOF 20
ENDMDL
MODEL 2
REMARK VINA RESULT:     -10.7      1.328      7.629
REMARK SMILES CCOC(=O)[C@@H](C)Oc1ccc(Br)cc1/C=C/C(=O)OCCOC(=O)c1ccc(-c2c3nc(c(-c4cc(S(=O)(=O)[O-])ccc4F)c4ccc([nH]4)c(-c4cc(S(=O)(=O)[O-])ccc4F)c4nc(c(-c5cc(S(=O)(=O)[O-])ccc5F)c5ccc2[nH]5)C=C4)C=C3)cc1
REMARK SMILES IDX 20 1 18 2 19 3 17 4 16 5 15 6 9 7 10 8 11 9 14 10 12 11
REMARK SMILES IDX 13 12 8 13 6 14 7 15 4 16 5 17 3 18 2 19 1 20 21 21 22 22
REMARK SMILES IDX 23 23 24 24 25 25 26 26 27 27 88 28 28 29 87 30 29 31 30 32
REMARK SMILES IDX 31 33 81 34 32 35 86 36 80 37 82 38 33 39 85 40 79 41 78 42
REMARK SMILES IDX 34 44 66 45 46 46 65 47 47 48 50 49 64 50 83 51 48 52 49 53
REMARK SMILES IDX 63 55 84 56 51 57 35 58 36 59 44 60 37 61 43 62 45 63 42 64
REMARK SMILES IDX 38 65 39 66 40 67 41 68 67 69 68 70 76 71 69 72 75 73 77 74
REMARK SMILES IDX 74 75 70 76 71 77 72 78 73 79 52 80 53 81 61 82 54 83 60 84
REMARK SMILES IDX 62 85 59 86 55 87 56 88 57 89 58 90
REMARK H PARENT 82 43 50 54
REMARK Flexibility Score: inf
ROOT
ATOM      1  O   UNL A   1      34.613  22.528  26.383  1.00  0.00    -0.459 OA
ENDROOT
BRANCH   1   2
ATOM      2  C   UNL A   1      33.593  23.058  25.669  1.00  0.00     0.330 C 
ATOM      3  O   UNL A   1      32.773  22.433  25.013  1.00  0.00    -0.247 OA
BRANCH   2   4
ATOM      4  C   UNL A   1      33.511  24.525  25.785  1.00  0.00     0.094 C 
ATOM      5  C   UNL A   1      32.429  25.289  25.569  1.00  0.00     0.019 C 
BRANCH   5   6
ATOM      6  C   UNL A   1      32.529  26.756  25.660  1.00  0.00     0.018 A 
ATOM      7  C   UNL A   1      31.532  27.606  25.155  1.00  0.00     0.127 A 
ATOM      8  C   UNL A   1      31.575  28.973  25.447  1.00  0.00     0.048 A 
ATOM      9  C   UNL A   1      32.678  29.529  26.096  1.00  0.00     0.019 A 
ATOM     10  C   UNL A   1      33.649  27.329  26.290  1.00  0.00     0.027 A 
ATOM     11  C   UNL A   1      33.724  28.705  26.491  1.00  0.00     0.018 A 
ATOM     12  Br  UNL A   1      35.234  29.452  27.346  1.00  0.00    -0.051 Br
BRANCH   7  13
ATOM     13  O   UNL A   1      30.482  27.069  24.454  1.00  0.00    -0.478 OA
BRANCH  13  14
ATOM     14  C   UNL A   1      30.489  27.322  23.038  1.00  0.00     0.279 C 
ATOM     15  C   UNL A   1      31.857  27.095  22.383  1.00  0.00     0.066 C 
BRANCH  14  16
ATOM     16  C   UNL A   1      29.791  28.619  22.594  1.00  0.00     0.347 C 
ATOM     17  O   UNL A   1      30.252  29.385  21.755  1.00  0.00    -0.248 OA
BRANCH  16  18
ATOM     18  O   UNL A   1      28.558  28.754  23.162  1.00  0.00    -0.463 OA
BRANCH  18  19
ATOM     19  C   UNL A   1      27.708  29.768  22.604  1.00  0.00     0.229 C 
ATOM     20  C   UNL A   1      27.663  30.979  23.508  1.00  0.00     0.049 C 
ENDBRANCH  18  19
ENDBRANCH  16  18
ENDBRANCH  14  16
ENDBRANCH  13  14
ENDBRANCH   7  13
ENDBRANCH   5   6
ENDBRANCH   2   4
ENDBRANCH   1   2
BRANCH   1  21
ATOM     21  C   UNL A   1      35.932  22.861  25.913  1.00  0.00     0.275 C 
BRANCH  21  22
ATOM     22  C   UNL A   1      36.787  21.605  25.719  1.00  0.00     0.275 C 
BRANCH  22  23
ATOM     23  O   UNL A   1      38.100  21.912  25.216  1.00  0.00    -0.458 OA
BRANCH  23  24
ATOM     24  C   UNL A   1      39.114  21.697  26.091  1.00  0.00     0.338 C 
ATOM     25  O   UNL A   1      39.654  20.631  26.334  1.00  0.00    -0.246 OA
BRANCH  24  26
ATOM     26  C   UNL A   1      39.576  22.978  26.657  1.00  0.00     0.060 A 
ATOM     27  C   UNL A   1      39.160  24.158  26.032  1.00  0.00     0.016 A 
ATOM     28  C   UNL A   1      40.464  23.026  27.735  1.00  0.00     0.016 A 
ATOM     29  C   UNL A   1      39.638  25.390  26.474  1.00  0.00     0.010 A 
ATOM     30  C   UNL A   1      40.941  24.265  28.178  1.00  0.00     0.010 A 
ATOM     31  C   UNL A   1      40.542  25.454  27.543  1.00  0.00    -0.014 A 
BRANCH  31  32
ATOM     32  C   UNL A   1      41.105  26.764  27.957  1.00  0.00     0.031 A 
ATOM     33  C   UNL A   1      42.545  27.087  27.667  1.00  0.00     0.074 A 
ATOM     34  C   UNL A   1      40.320  27.671  28.569  1.00  0.00     0.049 A 
ATOM     35  N   UNL A   1      43.233  28.157  27.972  1.00  0.00    -0.248 NA
ATOM     36  C   UNL A   1      43.309  26.064  26.939  1.00  0.00     0.031 C 
ATOM     37  C   UNL A   1      38.900  27.486  28.870  1.00  0.00     0.029 A 
ATOM     38  N   UNL A   1      40.603  28.926  29.045  1.00  0.00    -0.354 N 
ATOM     39  C   UNL A   1      44.514  27.940  27.476  1.00  0.00     0.074 A 
ATOM     40  C   UNL A   1      44.512  26.616  26.884  1.00  0.00     0.031 C 
ATOM     41  C   UNL A   1      38.435  28.590  29.476  1.00  0.00     0.029 A 
ATOM     42  C   UNL A   1      39.529  29.543  29.645  1.00  0.00     0.049 A 
ATOM     43  H   UNL A   1      41.489  29.347  28.964  1.00  0.00     0.167 HD
ATOM     44  C   UNL A   1      45.588  28.770  27.504  1.00  0.00     0.034 A 
ATOM     45  C   UNL A   1      39.445  30.730  30.279  1.00  0.00     0.034 A 
ATOM     46  C   UNL A   1      45.577  30.081  28.108  1.00  0.00     0.049 A 
ATOM     47  C   UNL A   1      40.674  31.599  30.372  1.00  0.00     0.074 A 
ATOM     48  C   UNL A   1      46.605  31.007  28.184  1.00  0.00     0.029 A 
ATOM     49  N   UNL A   1      44.487  30.652  28.755  1.00  0.00    -0.354 N 
ATOM     50  N   UNL A   1      41.879  31.382  29.899  1.00  0.00    -0.248 NA
ATOM     51  C   UNL A   1      40.529  32.876  31.084  1.00  0.00     0.031 C 
ATOM     52  C   UNL A   1      46.158  32.104  28.930  1.00  0.00     0.029 A 
ATOM     53  C   UNL A   1      44.829  31.898  29.259  1.00  0.00     0.049 A 
ATOM     54  H   UNL A   1      43.602  30.231  28.842  1.00  0.00     0.167 HD
ATOM     55  C   UNL A   1      42.627  32.508  30.231  1.00  0.00     0.074 A 
ATOM     56  C   UNL A   1      41.734  33.406  30.934  1.00  0.00     0.031 C 
ATOM     57  C   UNL A   1      43.932  32.779  29.973  1.00  0.00     0.034 A 
BRANCH  44  58
ATOM     58  C   UNL A   1      46.875  28.253  26.907  1.00  0.00     0.023 A 
ATOM     59  C   UNL A   1      47.106  28.263  25.520  1.00  0.00     0.031 A 
ATOM     60  C   UNL A   1      47.873  27.708  27.735  1.00  0.00     0.131 A 
ATOM     61  C   UNL A   1      48.269  27.675  24.998  1.00  0.00     0.055 A 
ATOM     62  C   UNL A   1      49.063  27.195  27.216  1.00  0.00     0.041 A 
ATOM     63  F   UNL A   1      47.701  27.651  29.065  1.00  0.00    -0.206 F 
ATOM     64  C   UNL A   1      49.259  27.161  25.838  1.00  0.00     0.022 A 
BRANCH  61  65
ATOM     65  S   UNL A   1      48.403  27.458  23.202  1.00  0.00     0.124 S 
ATOM     66  O   UNL A   1      47.225  28.180  22.728  1.00  0.00    -0.237 OA
ATOM     67  O   UNL A   1      49.691  28.071  22.905  1.00  0.00    -0.237 OA
ATOM     68  O   UNL A   1      48.346  26.008  23.026  1.00  0.00    -0.744 OA
ENDBRANCH  61  65
ENDBRANCH  44  58
BRANCH  45  69
ATOM     69  C   UNL A   1      38.165  31.156  30.912  1.00  0.00     0.023 A 
ATOM     70  C   UNL A   1      37.179  31.830  30.176  1.00  0.00     0.031 A 
ATOM     71  C   UNL A   1      37.932  30.937  32.282  1.00  0.00     0.131 A 
ATOM     72  C   UNL A   1      36.023  32.299  30.820  1.00  0.00     0.055 A 
ATOM     73  C   UNL A   1      36.758  31.360  32.908  1.00  0.00     0.041 A 
ATOM     74  F   UNL A   1      38.845  30.300  33.032  1.00  0.00    -0.206 F 
ATOM     75  C   UNL A   1      35.801  32.056  32.178  1.00  0.00     0.022 A 
BRANCH  72  76
ATOM     76  S   UNL A   1      34.846  33.304  29.875  1.00  0.00     0.124 S 
ATOM     77  O   UNL A   1      34.040  33.896  30.936  1.00  0.00    -0.237 OA
ATOM     78  O   UNL A   1      35.733  34.216  29.158  1.00  0.00    -0.237 OA
ATOM     79  O   UNL A   1      34.155  32.325  29.038  1.00  0.00    -0.744 OA
ENDBRANCH  72  76
ENDBRANCH  45  69
BRANCH  57  80
ATOM     80  C   UNL A   1      44.452  34.123  30.421  1.00  0.00     0.023 A 
ATOM     81  C   UNL A   1      44.307  35.276  29.628  1.00  0.00     0.031 A 
ATOM     82  C   UNL A   1      45.120  34.247  31.653  1.00  0.00     0.131 A 
ATOM     83  C   UNL A   1      44.871  36.490  30.051  1.00  0.00     0.055 A 
ATOM     84  C   UNL A   1      45.629  35.469  32.093  1.00  0.00     0.041 A 
ATOM     85  F   UNL A   1      45.288  33.180  32.448  1.00  0.00    -0.206 F 
ATOM     86  C   UNL A   1      45.517  36.597  31.284  1.00  0.00     0.022 A 
BRANCH  83  87
ATOM     87  S   UNL A   1      44.822  37.913  28.926  1.00  0.00     0.124 S 
ATOM     88  O   UNL A   1      43.399  38.237  28.907  1.00  0.00    -0.237 OA
ATOM     89  O   UNL A   1      45.686  38.875  29.600  1.00  0.00    -0.237 OA
ATOM     90  O   UNL A   1      45.352  37.378  27.673  1.00  0.00    -0.744 OA
ENDBRANCH  83  87
ENDBRANCH  57  80
ENDBRANCH  31  32
ENDBRANCH  24  26
ENDBRANCH  23  24
ENDBRANCH  22  23
ENDBRANCH  21  22
ENDBRANCH   1  21
TORSDOF 20
ENDMDL
MODEL 3
REMARK VINA RESULT:     -10.3      2.305      2.583
REMARK SMILES CCOC(=O)[C@@H](C)Oc1ccc(Br)cc1/C=C/C(=O)OCCOC(=O)c1ccc(-c2c3nc(c(-c4cc(S(=O)(=O)[O-])ccc4F)c4ccc([nH]4)c(-c4cc(S(=O)(=O)[O-])ccc4F)c4nc(c(-c5cc(S(=O)(=O)[O-])ccc5F)c5ccc2[nH]5)C=C4)C=C3)cc1
REMARK SMILES IDX 20 1 18 2 19 3 17 4 16 5 15 6 9 7 10 8 11 9 14 10 12 11
REMARK SMILES IDX 13 12 8 13 6 14 7 15 4 16 5 17 3 18 2 19 1 20 21 21 22 22
REMARK SMILES IDX 23 23 24 24 25 25 26 26 27 27 88 28 28 29 87 30 29 31 30 32
REMARK SMILES IDX 31 33 81 34 32 35 86 36 80 37 82 38 33 39 85 40 79 41 78 42
REMARK SMILES IDX 34 44 66 45 46 46 65 47 47 48 50 49 64 50 83 51 48 52 49 53
REMARK SMILES IDX 63 55 84 56 51 57 35 58 36 59 44 60 37 61 43 62 45 63 42 64
REMARK SMILES IDX 38 65 39 66 40 67 41 68 67 69 68 70 76 71 69 72 75 73 77 74
REMARK SMILES IDX 74 75 70 76 71 77 72 78 73 79 52 80 53 81 61 82 54 83 60 84
REMARK SMILES IDX 62 85 59 86 55 87 56 88 57 89 58 90
REMARK H PARENT 82 43 50 54
REMARK Flexibility Score: inf
ROOT
ATOM      1  O   UNL A   1      34.187  21.971  24.268  1.00  0.00    -0.459 OA
ENDROOT
BRANCH   1   2
ATOM      2  C   UNL A   1      34.541  23.181  23.776  1.00  0.00     0.330 C 
ATOM      3  O   UNL A   1      35.185  23.383  22.757  1.00  0.00    -0.247 OA
BRANCH   2   4
ATOM      4  C   UNL A   1      34.021  24.302  24.580  1.00  0.00     0.094 C 
ATOM      5  C   UNL A   1      33.793  25.556  24.156  1.00  0.00     0.019 C 
BRANCH   5   6
ATOM      6  C   UNL A   1      33.336  26.584  25.107  1.00  0.00     0.018 A 
ATOM      7  C   UNL A   1      31.975  26.794  25.383  1.00  0.00     0.127 A 
ATOM      8  C   UNL A   1      31.604  27.635  26.437  1.00  0.00     0.048 A 
ATOM      9  C   UNL A   1      32.560  28.393  27.113  1.00  0.00     0.019 A 
ATOM     10  C   UNL A   1      34.290  27.373  25.776  1.00  0.00     0.027 A 
ATOM     11  C   UNL A   1      33.899  28.277  26.760  1.00  0.00     0.018 A 
ATOM     12  Br  UNL A   1      35.197  29.320  27.652  1.00  0.00    -0.051 Br
BRANCH   7  13
ATOM     13  O   UNL A   1      31.030  26.102  24.669  1.00  0.00    -0.478 OA
BRANCH  13  14
ATOM     14  C   UNL A   1      30.106  26.911  23.919  1.00  0.00     0.279 C 
ATOM     15  C   UNL A   1      28.672  26.368  23.928  1.00  0.00     0.066 C 
BRANCH  14  16
ATOM     16  C   UNL A   1      30.595  27.359  22.531  1.00  0.00     0.347 C 
ATOM     17  O   UNL A   1      31.480  26.785  21.904  1.00  0.00    -0.248 OA
BRANCH  16  18
ATOM     18  O   UNL A   1      29.856  28.396  22.040  1.00  0.00    -0.463 OA
BRANCH  18  19
ATOM     19  C   UNL A   1      30.094  29.683  22.633  1.00  0.00     0.229 C 
ATOM     20  C   UNL A   1      28.809  30.258  23.184  1.00  0.00     0.049 C 
ENDBRANCH  18  19
ENDBRANCH  16  18
ENDBRANCH  14  16
ENDBRANCH  13  14
ENDBRANCH   7  13
ENDBRANCH   5   6
ENDBRANCH   2   4
ENDBRANCH   1   2
BRANCH   1  21
ATOM     21  C   UNL A   1      34.872  21.571  25.469  1.00  0.00     0.275 C 
BRANCH  21  22
ATOM     22  C   UNL A   1      36.240  20.962  25.154  1.00  0.00     0.275 C 
BRANCH  22  23
ATOM     23  O   UNL A   1      37.292  21.945  25.174  1.00  0.00    -0.458 OA
BRANCH  23  24
ATOM     24  C   UNL A   1      38.421  21.562  25.821  1.00  0.00     0.338 C 
ATOM     25  O   UNL A   1      38.902  20.442  25.850  1.00  0.00    -0.246 OA
BRANCH  24  26
ATOM     26  C   UNL A   1      39.083  22.736  26.422  1.00  0.00     0.060 A 
ATOM     27  C   UNL A   1      38.603  24.003  26.081  1.00  0.00     0.016 A 
ATOM     28  C   UNL A   1      40.205  22.603  27.245  1.00  0.00     0.016 A 
ATOM     29  C   UNL A   1      39.248  25.146  26.554  1.00  0.00     0.010 A 
ATOM     30  C   UNL A   1      40.850  23.751  27.719  1.00  0.00     0.010 A 
ATOM     31  C   UNL A   1      40.384  25.030  27.366  1.00  0.00    -0.014 A 
BRANCH  31  32
ATOM     32  C   UNL A   1      41.109  26.251  27.801  1.00  0.00     0.031 A 
ATOM     33  C   UNL A   1      40.375  27.336  28.540  1.00  0.00     0.074 A 
ATOM     34  C   UNL A   1      42.427  26.375  27.555  1.00  0.00     0.049 A 
ATOM     35  N   UNL A   1      40.815  28.487  28.977  1.00  0.00    -0.248 NA
ATOM     36  C   UNL A   1      38.954  27.087  28.822  1.00  0.00     0.031 C 
ATOM     37  C   UNL A   1      43.253  25.373  26.879  1.00  0.00     0.029 A 
ATOM     38  N   UNL A   1      43.302  27.391  27.845  1.00  0.00    -0.354 N 
ATOM     39  C   UNL A   1      39.728  29.107  29.583  1.00  0.00     0.074 A 
ATOM     40  C   UNL A   1      38.598  28.213  29.422  1.00  0.00     0.031 C 
ATOM     41  C   UNL A   1      44.516  25.824  26.810  1.00  0.00     0.029 A 
ATOM     42  C   UNL A   1      44.582  27.160  27.397  1.00  0.00     0.049 A 
ATOM     43  H   UNL A   1      43.039  28.207  28.328  1.00  0.00     0.167 HD
ATOM     44  C   UNL A   1      39.680  30.303  30.222  1.00  0.00     0.034 A 
ATOM     45  C   UNL A   1      45.676  27.947  27.436  1.00  0.00     0.034 A 
ATOM     46  C   UNL A   1      40.812  31.187  30.364  1.00  0.00     0.049 A 
ATOM     47  C   UNL A   1      45.577  29.309  28.076  1.00  0.00     0.074 A 
ATOM     48  C   UNL A   1      40.875  32.417  31.000  1.00  0.00     0.029 A 
ATOM     49  N   UNL A   1      42.081  30.946  29.850  1.00  0.00    -0.354 N 
ATOM     50  N   UNL A   1      44.543  29.882  28.646  1.00  0.00    -0.248 NA
ATOM     51  C   UNL A   1      46.796  30.129  28.079  1.00  0.00     0.031 C 
ATOM     52  C   UNL A   1      42.158  32.945  30.814  1.00  0.00     0.029 A 
ATOM     53  C   UNL A   1      42.921  32.015  30.127  1.00  0.00     0.049 A 
ATOM     54  H   UNL A   1      42.345  30.133  29.362  1.00  0.00     0.167 HD
ATOM     55  C   UNL A   1      44.995  31.118  29.100  1.00  0.00     0.074 A 
ATOM     56  C   UNL A   1      46.398  31.200  28.749  1.00  0.00     0.031 C 
ATOM     57  C   UNL A   1      44.315  32.093  29.755  1.00  0.00     0.034 A 
BRANCH  44  58
ATOM     58  C   UNL A   1      38.340  30.741  30.767  1.00  0.00     0.023 A 
ATOM     59  C   UNL A   1      37.469  31.557  30.024  1.00  0.00     0.031 A 
ATOM     60  C   UNL A   1      37.945  30.366  32.063  1.00  0.00     0.131 A 
ATOM     61  C   UNL A   1      36.283  32.029  30.608  1.00  0.00     0.055 A 
ATOM     62  C   UNL A   1      36.727  30.775  32.610  1.00  0.00     0.041 A 
ATOM     63  F   UNL A   1      38.744  29.605  32.828  1.00  0.00    -0.206 F 
ATOM     64  C   UNL A   1      35.895  31.626  31.888  1.00  0.00     0.022 A 
BRANCH  61  65
ATOM     65  S   UNL A   1      35.326  33.295  29.728  1.00  0.00     0.124 S 
ATOM     66  O   UNL A   1      34.611  33.941  30.825  1.00  0.00    -0.237 OA
ATOM     67  O   UNL A   1      36.366  34.089  29.087  1.00  0.00    -0.237 OA
ATOM     68  O   UNL A   1      34.484  32.519  28.819  1.00  0.00    -0.744 OA
ENDBRANCH  61  65
ENDBRANCH  44  58
BRANCH  45  69
ATOM     69  C   UNL A   1      46.954  27.490  26.817  1.00  0.00     0.023 A 
ATOM     70  C   UNL A   1      47.911  26.785  27.563  1.00  0.00     0.031 A 
ATOM     71  C   UNL A   1      47.256  27.800  25.479  1.00  0.00     0.131 A 
ATOM     72  C   UNL A   1      49.141  26.447  26.980  1.00  0.00     0.055 A 
ATOM     73  C   UNL A   1      48.461  27.417  24.887  1.00  0.00     0.041 A 
ATOM     74  F   UNL A   1      46.376  28.476  24.723  1.00  0.00    -0.206 F 
ATOM     75  C   UNL A   1      49.417  26.747  25.642  1.00  0.00     0.022 A 
BRANCH  72  76
ATOM     76  S   UNL A   1      50.415  25.679  28.017  1.00  0.00     0.124 S 
ATOM     77  O   UNL A   1      50.030  26.134  29.348  1.00  0.00    -0.237 OA
ATOM     78  O   UNL A   1      50.215  24.259  27.742  1.00  0.00    -0.237 OA
ATOM     79  O   UNL A   1      51.661  26.241  27.501  1.00  0.00    -0.744 OA
ENDBRANCH  72  76
ENDBRANCH  45  69
BRANCH  57  80
ATOM     80  C   UNL A   1      45.101  33.313  30.169  1.00  0.00     0.023 A 
ATOM     81  C   UNL A   1      45.758  33.388  31.411  1.00  0.00     0.031 A 
ATOM     82  C   UNL A   1      45.177  34.427  29.313  1.00  0.00     0.131 A 
ATOM     83  C   UNL A   1      46.415  34.570  31.784  1.00  0.00     0.055 A 
ATOM     84  C   UNL A   1      45.880  35.579  29.667  1.00  0.00     0.041 A 
ATOM     85  F   UNL A   1      44.568  34.411  28.117  1.00  0.00    -0.206 F 
ATOM     86  C   UNL A   1      46.492  35.661  30.914  1.00  0.00     0.022 A 
BRANCH  83  87
ATOM     87  S   UNL A   1      47.097  34.697  33.460  1.00  0.00     0.124 S 
ATOM     88  O   UNL A   1      48.171  33.709  33.428  1.00  0.00    -0.237 OA
ATOM     89  O   UNL A   1      47.516  36.093  33.523  1.00  0.00    -0.237 OA
ATOM     90  O   UNL A   1      45.965  34.353  34.318  1.00  0.00    -0.744 OA
ENDBRANCH  83  87
ENDBRANCH  57  80
ENDBRANCH  31  32
ENDBRANCH  24  26
ENDBRANCH  23  24
ENDBRANCH  22  23
ENDBRANCH  21  22
ENDBRANCH   1  21
TORSDOF 20
ENDMDL
