MODEL 1
REMARK VINA RESULT:     -11.7      0.000      0.000
REMARK SMILES Cc1cc(OCC(C)(C)C(=O)OCCOC(=O)c2ccc(-c3c4nc(c(-c5cc(S(=O)(=O)[O-])ccc5F)c5ccc([nH]5)c(-c5cc(S(=O)(=O)[O-])ccc5F)c5nc(c(-c6cc(S(=O)(=O)[O-])ccc6F)c6ccc3[nH]6)C=C5)C=C4)cc2)cc(C(C)C)c1
REMARK SMILES IDX 13 1 12 2 10 3 11 4 7 5 8 6 9 7 6 8 5 9 4 10 1 11 2 12 3 13
REMARK SMILES IDX 86 14 82 15 81 16 83 17 84 18 85 19 14 20 15 21 16 22 17 23
REMARK SMILES IDX 18 24 19 25 80 26 20 27 79 28 21 29 22 30 23 31 73 32 24 33
REMARK SMILES IDX 78 34 72 35 74 36 25 37 77 38 71 39 70 40 26 42 58 43 38 44
REMARK SMILES IDX 57 45 39 46 42 47 56 48 75 49 40 50 41 51 55 53 76 54 43 55
REMARK SMILES IDX 27 56 28 57 36 58 29 59 35 60 37 61 34 62 30 63 31 64 32 65
REMARK SMILES IDX 33 66 59 67 60 68 68 69 61 70 67 71 69 72 66 73 62 74 63 75
REMARK SMILES IDX 64 76 65 77 44 78 45 79 53 80 46 81 52 82 54 83 51 84 47 85
REMARK SMILES IDX 48 86 49 87 50 88
REMARK H PARENT 74 41 42 52
REMARK Flexibility Score: inf
ROOT
ATOM      1  C   UNL A   1      33.047  29.586  26.146  1.00  0.00     0.274 C 
ENDROOT
BRANCH   1   2
ATOM      2  O   UNL A   1      32.921  28.424  25.304  1.00  0.00    -0.462 OA
BRANCH   2   3
ATOM      3  C   UNL A   1      31.763  27.738  25.556  1.00  0.00     0.315 C 
ATOM      4  O   UNL A   1      31.326  27.592  26.693  1.00  0.00    -0.251 OA
BRANCH   3   5
ATOM      5  C   UNL A   1      31.184  26.977  24.358  1.00  0.00     0.096 C 
ATOM      6  C   UNL A   1      30.319  28.011  23.616  1.00  0.00     0.027 C 
ATOM      7  C   UNL A   1      30.213  25.913  24.910  1.00  0.00     0.027 C 
BRANCH   5   8
ATOM      8  C   UNL A   1      32.194  26.263  23.406  1.00  0.00     0.247 C 
BRANCH   8   9
ATOM      9  O   UNL A   1      31.941  24.930  22.950  1.00  0.00    -0.492 OA
BRANCH   9  10
ATOM     10  C   UNL A   1      32.806  23.887  23.135  1.00  0.00     0.119 A 
ATOM     11  C   UNL A   1      32.360  20.275  24.353  1.00  0.00     0.044 C 
ATOM     12  C   UNL A   1      32.990  21.578  23.954  1.00  0.00    -0.047 A 
ATOM     13  C   UNL A   1      32.232  22.649  23.450  1.00  0.00     0.049 A 
ATOM     14  C   UNL A   1      34.338  21.794  24.218  1.00  0.00     0.007 A 
ATOM     15  C   UNL A   1      34.946  22.998  23.852  1.00  0.00    -0.042 A 
ATOM     16  C   UNL A   1      34.181  23.990  23.213  1.00  0.00     0.050 A 
BRANCH  15  17
ATOM     17  C   UNL A   1      36.367  23.269  24.303  1.00  0.00     0.013 C 
ATOM     18  C   UNL A   1      36.423  23.883  25.700  1.00  0.00     0.012 C 
ATOM     19  C   UNL A   1      37.191  21.978  24.227  1.00  0.00     0.012 C 
ENDBRANCH  15  17
ENDBRANCH   9  10
ENDBRANCH   8   9
ENDBRANCH   5   8
ENDBRANCH   3   5
ENDBRANCH   2   3
ENDBRANCH   1   2
BRANCH   1  20
ATOM     20  C   UNL A   1      34.120  29.485  27.239  1.00  0.00     0.275 C 
BRANCH  20  21
ATOM     21  O   UNL A   1      34.813  30.686  27.660  1.00  0.00    -0.458 OA
BRANCH  21  22
ATOM     22  C   UNL A   1      35.721  30.778  28.662  1.00  0.00     0.338 C 
ATOM     23  O   UNL A   1      35.507  31.483  29.647  1.00  0.00    -0.246 OA
BRANCH  22  24
ATOM     24  C   UNL A   1      36.891  29.886  28.574  1.00  0.00     0.060 A 
ATOM     25  C   UNL A   1      37.770  30.062  27.499  1.00  0.00     0.016 A 
ATOM     26  C   UNL A   1      37.215  29.032  29.627  1.00  0.00     0.016 A 
ATOM     27  C   UNL A   1      39.053  29.524  27.560  1.00  0.00     0.010 A 
ATOM     28  C   UNL A   1      38.501  28.529  29.703  1.00  0.00     0.010 A 
ATOM     29  C   UNL A   1      39.436  28.803  28.690  1.00  0.00    -0.014 A 
BRANCH  29  30
ATOM     30  C   UNL A   1      40.697  28.074  28.755  1.00  0.00     0.031 A 
ATOM     31  C   UNL A   1      40.868  26.659  28.352  1.00  0.00     0.074 A 
ATOM     32  C   UNL A   1      41.711  28.792  29.282  1.00  0.00     0.049 A 
ATOM     33  N   UNL A   1      41.734  25.850  28.872  1.00  0.00    -0.248 NA
ATOM     34  C   UNL A   1      40.050  26.012  27.330  1.00  0.00     0.031 C 
ATOM     35  C   UNL A   1      43.120  28.466  29.373  1.00  0.00     0.029 A 
ATOM     36  N   UNL A   1      41.568  29.931  30.082  1.00  0.00    -0.354 N 
ATOM     37  C   UNL A   1      41.784  24.721  28.077  1.00  0.00     0.074 A 
ATOM     38  C   UNL A   1      40.635  24.813  27.214  1.00  0.00     0.031 C 
ATOM     39  C   UNL A   1      43.638  29.160  30.404  1.00  0.00     0.029 A 
ATOM     40  C   UNL A   1      42.523  29.813  31.084  1.00  0.00     0.049 A 
ATOM     41  H   UNL A   1      40.924  30.665  29.960  1.00  0.00     0.167 HD
ATOM     42  C   UNL A   1      42.895  23.928  28.087  1.00  0.00     0.034 A 
ATOM     43  C   UNL A   1      42.188  29.663  32.398  1.00  0.00     0.034 A 
ATOM     44  C   UNL A   1      43.877  24.435  29.030  1.00  0.00     0.049 A 
ATOM     45  C   UNL A   1      42.841  28.412  32.959  1.00  0.00     0.074 A 
ATOM     46  C   UNL A   1      44.960  25.280  28.858  1.00  0.00     0.029 A 
ATOM     47  N   UNL A   1      43.619  24.381  30.394  1.00  0.00    -0.354 N 
ATOM     48  N   UNL A   1      43.063  27.317  32.277  1.00  0.00    -0.248 NA
ATOM     49  C   UNL A   1      43.375  28.352  34.313  1.00  0.00     0.031 C 
ATOM     50  C   UNL A   1      45.301  25.807  30.127  1.00  0.00     0.029 A 
ATOM     51  C   UNL A   1      44.453  25.248  31.068  1.00  0.00     0.049 A 
ATOM     52  H   UNL A   1      42.939  23.808  30.816  1.00  0.00     0.167 HD
ATOM     53  C   UNL A   1      43.865  26.478  33.023  1.00  0.00     0.074 A 
ATOM     54  C   UNL A   1      43.994  27.159  34.302  1.00  0.00     0.031 C 
ATOM     55  C   UNL A   1      44.429  25.335  32.517  1.00  0.00     0.034 A 
BRANCH  42  56
ATOM     56  C   UNL A   1      43.239  22.945  26.990  1.00  0.00     0.023 A 
ATOM     57  C   UNL A   1      42.686  21.644  27.033  1.00  0.00     0.031 A 
ATOM     58  C   UNL A   1      44.113  23.198  25.919  1.00  0.00     0.131 A 
ATOM     59  C   UNL A   1      43.073  20.643  26.124  1.00  0.00     0.055 A 
ATOM     60  C   UNL A   1      44.521  22.194  25.025  1.00  0.00     0.041 A 
ATOM     61  F   UNL A   1      44.588  24.433  25.688  1.00  0.00    -0.206 F 
ATOM     62  C   UNL A   1      44.014  20.903  25.134  1.00  0.00     0.022 A 
BRANCH  59  63
ATOM     63  S   UNL A   1      42.343  18.986  26.278  1.00  0.00     0.124 S 
ATOM     64  O   UNL A   1      40.982  19.200  25.797  1.00  0.00    -0.237 OA
ATOM     65  O   UNL A   1      43.212  18.184  25.423  1.00  0.00    -0.237 OA
ATOM     66  O   UNL A   1      42.451  18.698  27.708  1.00  0.00    -0.744 OA
ENDBRANCH  59  63
ENDBRANCH  42  56
BRANCH  43  67
ATOM     67  C   UNL A   1      40.845  30.203  32.803  1.00  0.00     0.023 A 
ATOM     68  C   UNL A   1      40.603  31.596  32.786  1.00  0.00     0.031 A 
ATOM     69  C   UNL A   1      39.723  29.376  32.924  1.00  0.00     0.131 A 
ATOM     70  C   UNL A   1      39.286  32.102  32.790  1.00  0.00     0.055 A 
ATOM     71  C   UNL A   1      38.416  29.886  32.968  1.00  0.00     0.041 A 
ATOM     72  F   UNL A   1      39.872  28.050  32.905  1.00  0.00    -0.206 F 
ATOM     73  C   UNL A   1      38.189  31.251  32.866  1.00  0.00     0.022 A 
BRANCH  70  74
ATOM     74  S   UNL A   1      39.009  33.878  32.521  1.00  0.00     0.124 S 
ATOM     75  O   UNL A   1      38.153  33.872  31.340  1.00  0.00    -0.237 OA
ATOM     76  O   UNL A   1      38.375  34.289  33.771  1.00  0.00    -0.237 OA
ATOM     77  O   UNL A   1      40.354  34.408  32.315  1.00  0.00    -0.744 OA
ENDBRANCH  70  74
ENDBRANCH  43  67
BRANCH  55  78
ATOM     78  C   UNL A   1      45.176  24.258  33.288  1.00  0.00     0.023 A 
ATOM     79  C   UNL A   1      46.501  24.394  33.714  1.00  0.00     0.031 A 
ATOM     80  C   UNL A   1      44.532  23.054  33.688  1.00  0.00     0.131 A 
ATOM     81  C   UNL A   1      47.157  23.356  34.399  1.00  0.00     0.055 A 
ATOM     82  C   UNL A   1      45.162  22.058  34.440  1.00  0.00     0.041 A 
ATOM     83  F   UNL A   1      43.253  22.791  33.387  1.00  0.00    -0.206 F 
ATOM     84  C   UNL A   1      46.493  22.195  34.785  1.00  0.00     0.022 A 
BRANCH  81  85
ATOM     85  S   UNL A   1      48.930  23.537  34.713  1.00  0.00     0.124 S 
ATOM     86  O   UNL A   1      48.943  23.951  36.114  1.00  0.00    -0.237 OA
ATOM     87  O   UNL A   1      49.432  22.193  34.446  1.00  0.00    -0.237 OA
ATOM     88  O   UNL A   1      49.349  24.560  33.758  1.00  0.00    -0.744 OA
ENDBRANCH  81  85
ENDBRANCH  55  78
ENDBRANCH  29  30
ENDBRANCH  22  24
ENDBRANCH  21  22
ENDBRANCH  20  21
ENDBRANCH   1  20
TORSDOF 18
ENDMDL
MODEL 2
REMARK VINA RESULT:     -11.6      4.003     10.409
REMARK SMILES Cc1cc(OCC(C)(C)C(=O)OCCOC(=O)c2ccc(-c3c4nc(c(-c5cc(S(=O)(=O)[O-])ccc5F)c5ccc([nH]5)c(-c5cc(S(=O)(=O)[O-])ccc5F)c5nc(c(-c6cc(S(=O)(=O)[O-])ccc6F)c6ccc3[nH]6)C=C5)C=C4)cc2)cc(C(C)C)c1
REMARK SMILES IDX 13 1 12 2 10 3 11 4 7 5 8 6 9 7 6 8 5 9 4 10 1 11 2 12 3 13
REMARK SMILES IDX 86 14 82 15 81 16 83 17 84 18 85 19 14 20 15 21 16 22 17 23
REMARK SMILES IDX 18 24 19 25 80 26 20 27 79 28 21 29 22 30 23 31 73 32 24 33
REMARK SMILES IDX 78 34 72 35 74 36 25 37 77 38 71 39 70 40 26 42 58 43 38 44
REMARK SMILES IDX 57 45 39 46 42 47 56 48 75 49 40 50 41 51 55 53 76 54 43 55
REMARK SMILES IDX 27 56 28 57 36 58 29 59 35 60 37 61 34 62 30 63 31 64 32 65
REMARK SMILES IDX 33 66 59 67 60 68 68 69 61 70 67 71 69 72 66 73 62 74 63 75
REMARK SMILES IDX 64 76 65 77 44 78 45 79 53 80 46 81 52 82 54 83 51 84 47 85
REMARK SMILES IDX 48 86 49 87 50 88
REMARK H PARENT 74 41 42 52
REMARK Flexibility Score: inf
ROOT
ATOM      1  C   UNL A   1      37.407  21.560  24.641  1.00  0.00     0.274 C 
ENDROOT
BRANCH   1   2
ATOM      2  O   UNL A   1      36.417  22.575  24.384  1.00  0.00    -0.462 OA
BRANCH   2   3
ATOM      3  C   UNL A   1      35.182  22.208  24.849  1.00  0.00     0.315 C 
ATOM      4  O   UNL A   1      34.712  21.094  24.639  1.00  0.00    -0.251 OA
BRANCH   3   5
ATOM      5  C   UNL A   1      34.345  23.347  25.440  1.00  0.00     0.096 C 
ATOM      6  C   UNL A   1      35.292  24.560  25.466  1.00  0.00     0.027 C 
ATOM      7  C   UNL A   1      34.053  22.991  26.913  1.00  0.00     0.027 C 
BRANCH   5   8
ATOM      8  C   UNL A   1      32.987  23.675  24.744  1.00  0.00     0.247 C 
BRANCH   8   9
ATOM      9  O   UNL A   1      31.864  24.112  25.516  1.00  0.00    -0.492 OA
BRANCH   9  10
ATOM     10  C   UNL A   1      31.460  25.417  25.599  1.00  0.00     0.119 A 
ATOM     11  C   UNL A   1      29.782  27.820  23.123  1.00  0.00     0.044 C 
ATOM     12  C   UNL A   1      30.510  27.289  24.324  1.00  0.00    -0.047 A 
ATOM     13  C   UNL A   1      30.728  25.913  24.514  1.00  0.00     0.049 A 
ATOM     14  C   UNL A   1      31.113  28.178  25.205  1.00  0.00     0.007 A 
ATOM     15  C   UNL A   1      31.793  27.705  26.331  1.00  0.00    -0.042 A 
ATOM     16  C   UNL A   1      31.861  26.320  26.564  1.00  0.00     0.050 A 
BRANCH  15  17
ATOM     17  C   UNL A   1      32.580  28.684  27.178  1.00  0.00     0.013 C 
ATOM     18  C   UNL A   1      34.088  28.512  27.011  1.00  0.00     0.012 C 
ATOM     19  C   UNL A   1      32.143  30.119  26.855  1.00  0.00     0.012 C 
ENDBRANCH  15  17
ENDBRANCH   9  10
ENDBRANCH   8   9
ENDBRANCH   5   8
ENDBRANCH   3   5
ENDBRANCH   2   3
ENDBRANCH   1   2
BRANCH   1  20
ATOM     20  C   UNL A   1      38.413  21.898  25.750  1.00  0.00     0.275 C 
BRANCH  20  21
ATOM     21  O   UNL A   1      38.536  23.271  26.196  1.00  0.00    -0.458 OA
BRANCH  21  22
ATOM     22  C   UNL A   1      39.622  23.828  26.786  1.00  0.00     0.338 C 
ATOM     23  O   UNL A   1      40.732  23.307  26.689  1.00  0.00    -0.246 OA
BRANCH  22  24
ATOM     24  C   UNL A   1      39.425  25.149  27.411  1.00  0.00     0.060 A 
ATOM     25  C   UNL A   1      38.895  25.188  28.705  1.00  0.00     0.016 A 
ATOM     26  C   UNL A   1      39.933  26.301  26.813  1.00  0.00     0.016 A 
ATOM     27  C   UNL A   1      39.033  26.341  29.474  1.00  0.00     0.010 A 
ATOM     28  C   UNL A   1      40.101  27.433  27.589  1.00  0.00     0.010 A 
ATOM     29  C   UNL A   1      39.687  27.445  28.932  1.00  0.00    -0.014 A 
BRANCH  29  30
ATOM     30  C   UNL A   1      39.724  28.736  29.612  1.00  0.00     0.031 A 
ATOM     31  C   UNL A   1      38.683  29.782  29.481  1.00  0.00     0.074 A 
ATOM     32  C   UNL A   1      40.842  28.931  30.342  1.00  0.00     0.049 A 
ATOM     33  N   UNL A   1      38.906  31.052  29.581  1.00  0.00    -0.248 NA
ATOM     34  C   UNL A   1      37.282  29.486  29.196  1.00  0.00     0.031 C 
ATOM     35  C   UNL A   1      41.168  30.007  31.257  1.00  0.00     0.029 A 
ATOM     36  N   UNL A   1      42.047  28.237  30.182  1.00  0.00    -0.354 N 
ATOM     37  C   UNL A   1      37.683  31.687  29.671  1.00  0.00     0.074 A 
ATOM     38  C   UNL A   1      36.710  30.693  29.297  1.00  0.00     0.031 C 
ATOM     39  C   UNL A   1      42.510  30.099  31.324  1.00  0.00     0.029 A 
ATOM     40  C   UNL A   1      43.052  29.186  30.321  1.00  0.00     0.049 A 
ATOM     41  H   UNL A   1      42.159  27.275  30.007  1.00  0.00     0.167 HD
ATOM     42  C   UNL A   1      37.595  32.924  30.243  1.00  0.00     0.034 A 
ATOM     43  C   UNL A   1      43.883  29.526  29.295  1.00  0.00     0.034 A 
ATOM     44  C   UNL A   1      38.909  33.393  30.649  1.00  0.00     0.049 A 
ATOM     45  C   UNL A   1      43.828  31.025  29.059  1.00  0.00     0.074 A 
ATOM     46  C   UNL A   1      39.578  33.309  31.859  1.00  0.00     0.029 A 
ATOM     47  N   UNL A   1      39.854  33.720  29.686  1.00  0.00    -0.354 N 
ATOM     48  N   UNL A   1      42.763  31.768  29.229  1.00  0.00    -0.248 NA
ATOM     49  C   UNL A   1      45.007  31.803  28.704  1.00  0.00     0.031 C 
ATOM     50  C   UNL A   1      40.956  33.503  31.603  1.00  0.00     0.029 A 
ATOM     51  C   UNL A   1      41.114  33.747  30.249  1.00  0.00     0.049 A 
ATOM     52  H   UNL A   1      39.655  33.904  28.740  1.00  0.00     0.167 HD
ATOM     53  C   UNL A   1      43.125  33.096  29.147  1.00  0.00     0.074 A 
ATOM     54  C   UNL A   1      44.531  33.057  28.777  1.00  0.00     0.031 C 
ATOM     55  C   UNL A   1      42.276  34.125  29.466  1.00  0.00     0.034 A 
BRANCH  42  56
ATOM     56  C   UNL A   1      36.309  33.519  30.772  1.00  0.00     0.023 A 
ATOM     57  C   UNL A   1      35.422  34.151  29.872  1.00  0.00     0.031 A 
ATOM     58  C   UNL A   1      35.919  33.535  32.122  1.00  0.00     0.131 A 
ATOM     59  C   UNL A   1      34.281  34.843  30.316  1.00  0.00     0.055 A 
ATOM     60  C   UNL A   1      34.793  34.247  32.573  1.00  0.00     0.041 A 
ATOM     61  F   UNL A   1      36.602  32.847  33.051  1.00  0.00    -0.206 F 
ATOM     62  C   UNL A   1      33.977  34.921  31.671  1.00  0.00     0.022 A 
BRANCH  59  63
ATOM     63  S   UNL A   1      33.218  35.664  29.093  1.00  0.00     0.124 S 
ATOM     64  O   UNL A   1      32.646  34.533  28.369  1.00  0.00    -0.237 OA
ATOM     65  O   UNL A   1      32.299  36.420  29.938  1.00  0.00    -0.237 OA
ATOM     66  O   UNL A   1      34.154  36.478  28.320  1.00  0.00    -0.744 OA
ENDBRANCH  59  63
ENDBRANCH  42  56
BRANCH  43  67
ATOM     67  C   UNL A   1      44.080  28.483  28.231  1.00  0.00     0.023 A 
ATOM     68  C   UNL A   1      44.557  27.197  28.574  1.00  0.00     0.031 A 
ATOM     69  C   UNL A   1      43.541  28.626  26.947  1.00  0.00     0.131 A 
ATOM     70  C   UNL A   1      44.398  26.106  27.694  1.00  0.00     0.055 A 
ATOM     71  C   UNL A   1      43.421  27.546  26.059  1.00  0.00     0.041 A 
ATOM     72  F   UNL A   1      43.034  29.801  26.569  1.00  0.00    -0.206 F 
ATOM     73  C   UNL A   1      43.817  26.272  26.441  1.00  0.00     0.022 A 
BRANCH  70  74
ATOM     74  S   UNL A   1      44.799  24.428  28.265  1.00  0.00     0.124 S 
ATOM     75  O   UNL A   1      44.058  24.354  29.519  1.00  0.00    -0.237 OA
ATOM     76  O   UNL A   1      44.298  23.597  27.174  1.00  0.00    -0.237 OA
ATOM     77  O   UNL A   1      46.253  24.450  28.399  1.00  0.00    -0.744 OA
ENDBRANCH  70  74
ENDBRANCH  43  67
BRANCH  55  78
ATOM     78  C   UNL A   1      42.508  35.612  29.246  1.00  0.00     0.023 A 
ATOM     79  C   UNL A   1      43.346  36.388  30.053  1.00  0.00     0.031 A 
ATOM     80  C   UNL A   1      41.928  36.297  28.142  1.00  0.00     0.131 A 
ATOM     81  C   UNL A   1      43.505  37.767  29.826  1.00  0.00     0.055 A 
ATOM     82  C   UNL A   1      42.152  37.649  27.871  1.00  0.00     0.041 A 
ATOM     83  F   UNL A   1      41.129  35.683  27.258  1.00  0.00    -0.206 F 
ATOM     84  C   UNL A   1      42.931  38.402  28.728  1.00  0.00     0.022 A 
BRANCH  81  85
ATOM     85  S   UNL A   1      44.431  38.725  31.051  1.00  0.00     0.124 S 
ATOM     86  O   UNL A   1      43.687  39.982  31.070  1.00  0.00    -0.237 OA
ATOM     87  O   UNL A   1      44.310  37.900  32.247  1.00  0.00    -0.237 OA
ATOM     88  O   UNL A   1      45.775  38.807  30.483  1.00  0.00    -0.744 OA
ENDBRANCH  81  85
ENDBRANCH  55  78
ENDBRANCH  29  30
ENDBRANCH  22  24
ENDBRANCH  21  22
ENDBRANCH  20  21
ENDBRANCH   1  20
TORSDOF 18
ENDMDL
MODEL 3
REMARK VINA RESULT:     -11.4      4.240     10.277
REMARK SMILES Cc1cc(OCC(C)(C)C(=O)OCCOC(=O)c2ccc(-c3c4nc(c(-c5cc(S(=O)(=O)[O-])ccc5F)c5ccc([nH]5)c(-c5cc(S(=O)(=O)[O-])ccc5F)c5nc(c(-c6cc(S(=O)(=O)[O-])ccc6F)c6ccc3[nH]6)C=C5)C=C4)cc2)cc(C(C)C)c1
REMARK SMILES IDX 13 1 12 2 10 3 11 4 7 5 8 6 9 7 6 8 5 9 4 10 1 11 2 12 3 13
REMARK SMILES IDX 86 14 82 15 81 16 83 17 84 18 85 19 14 20 15 21 16 22 17 23
REMARK SMILES IDX 18 24 19 25 80 26 20 27 79 28 21 29 22 30 23 31 73 32 24 33
REMARK SMILES IDX 78 34 72 35 74 36 25 37 77 38 71 39 70 40 26 42 58 43 38 44
REMARK SMILES IDX 57 45 39 46 42 47 56 48 75 49 40 50 41 51 55 53 76 54 43 55
REMARK SMILES IDX 27 56 28 57 36 58 29 59 35 60 37 61 34 62 30 63 31 64 32 65
REMARK SMILES IDX 33 66 59 67 60 68 68 69 61 70 67 71 69 72 66 73 62 74 63 75
REMARK SMILES IDX 64 76 65 77 44 78 45 79 53 80 46 81 52 82 54 83 51 84 47 85
REMARK SMILES IDX 48 86 49 87 50 88
REMARK H PARENT 74 41 42 52
REMARK Flexibility Score: inf
ROOT
ATOM      1  C   UNL A   1      36.594  22.190  24.745  1.00  0.00     0.274 C 
ENDROOT
BRANCH   1   2
ATOM      2  O   UNL A   1      35.188  22.451  24.565  1.00  0.00    -0.462 OA
BRANCH   2   3
ATOM      3  C   UNL A   1      34.509  22.414  25.754  1.00  0.00     0.315 C 
ATOM      4  O   UNL A   1      34.903  21.753  26.709  1.00  0.00    -0.251 OA
BRANCH   3   5
ATOM      5  C   UNL A   1      33.121  23.063  25.730  1.00  0.00     0.096 C 
ATOM      6  C   UNL A   1      33.331  24.417  25.029  1.00  0.00     0.027 C 
ATOM      7  C   UNL A   1      32.734  23.384  27.189  1.00  0.00     0.027 C 
BRANCH   5   8
ATOM      8  C   UNL A   1      31.957  22.243  25.091  1.00  0.00     0.247 C 
BRANCH   8   9
ATOM      9  O   UNL A   1      31.760  20.870  25.444  1.00  0.00    -0.492 OA
BRANCH   9  10
ATOM     10  C   UNL A   1      32.388  19.826  24.821  1.00  0.00     0.119 A 
ATOM     11  C   UNL A   1      32.227  18.395  21.264  1.00  0.00     0.044 C 
ATOM     12  C   UNL A   1      32.510  18.540  22.732  1.00  0.00    -0.047 A 
ATOM     13  C   UNL A   1      32.183  19.709  23.441  1.00  0.00     0.049 A 
ATOM     14  C   UNL A   1      32.976  17.445  23.449  1.00  0.00     0.007 A 
ATOM     15  C   UNL A   1      33.249  17.559  24.815  1.00  0.00    -0.042 A 
ATOM     16  C   UNL A   1      33.048  18.793  25.458  1.00  0.00     0.050 A 
BRANCH  15  17
ATOM     17  C   UNL A   1      33.593  16.310  25.601  1.00  0.00     0.013 C 
ATOM     18  C   UNL A   1      32.551  15.208  25.423  1.00  0.00     0.012 C 
ATOM     19  C   UNL A   1      34.994  15.821  25.212  1.00  0.00     0.012 C 
ENDBRANCH  15  17
ENDBRANCH   9  10
ENDBRANCH   8   9
ENDBRANCH   5   8
ENDBRANCH   3   5
ENDBRANCH   2   3
ENDBRANCH   1   2
BRANCH   1  20
ATOM     20  C   UNL A   1      37.444  23.418  25.096  1.00  0.00     0.275 C 
BRANCH  20  21
ATOM     21  O   UNL A   1      38.049  23.504  26.410  1.00  0.00    -0.458 OA
BRANCH  21  22
ATOM     22  C   UNL A   1      39.356  23.746  26.677  1.00  0.00     0.338 C 
ATOM     23  O   UNL A   1      40.243  23.053  26.179  1.00  0.00    -0.246 OA
BRANCH  22  24
ATOM     24  C   UNL A   1      39.653  24.957  27.463  1.00  0.00     0.060 A 
ATOM     25  C   UNL A   1      40.211  26.052  26.795  1.00  0.00     0.016 A 
ATOM     26  C   UNL A   1      39.212  25.074  28.781  1.00  0.00     0.016 A 
ATOM     27  C   UNL A   1      40.165  27.316  27.380  1.00  0.00     0.010 A 
ATOM     28  C   UNL A   1      39.135  26.335  29.345  1.00  0.00     0.010 A 
ATOM     29  C   UNL A   1      39.576  27.463  28.634  1.00  0.00    -0.014 A 
BRANCH  29  30
ATOM     30  C   UNL A   1      39.638  28.717  29.378  1.00  0.00     0.031 A 
ATOM     31  C   UNL A   1      38.625  29.794  29.291  1.00  0.00     0.074 A 
ATOM     32  C   UNL A   1      40.754  28.847  30.126  1.00  0.00     0.049 A 
ATOM     33  N   UNL A   1      38.878  31.051  29.457  1.00  0.00    -0.248 NA
ATOM     34  C   UNL A   1      37.220  29.548  28.980  1.00  0.00     0.031 C 
ATOM     35  C   UNL A   1      41.098  29.867  31.096  1.00  0.00     0.029 A 
ATOM     36  N   UNL A   1      41.943  28.133  29.941  1.00  0.00    -0.354 N 
ATOM     37  C   UNL A   1      37.669  31.711  29.569  1.00  0.00     0.074 A 
ATOM     38  C   UNL A   1      36.676  30.762  29.138  1.00  0.00     0.031 C 
ATOM     39  C   UNL A   1      42.440  29.922  31.178  1.00  0.00     0.029 A 
ATOM     40  C   UNL A   1      42.970  29.048  30.136  1.00  0.00     0.049 A 
ATOM     41  H   UNL A   1      42.033  27.178  29.719  1.00  0.00     0.167 HD
ATOM     42  C   UNL A   1      37.607  32.920  30.202  1.00  0.00     0.034 A 
ATOM     43  C   UNL A   1      43.818  29.417  29.134  1.00  0.00     0.034 A 
ATOM     44  C   UNL A   1      38.928  33.335  30.641  1.00  0.00     0.049 A 
ATOM     45  C   UNL A   1      43.802  30.928  28.974  1.00  0.00     0.074 A 
ATOM     46  C   UNL A   1      39.584  33.174  31.851  1.00  0.00     0.029 A 
ATOM     47  N   UNL A   1      39.890  33.686  29.703  1.00  0.00    -0.354 N 
ATOM     48  N   UNL A   1      42.754  31.688  29.172  1.00  0.00    -0.248 NA
ATOM     49  C   UNL A   1      45.003  31.692  28.668  1.00  0.00     0.031 C 
ATOM     50  C   UNL A   1      40.968  33.346  31.616  1.00  0.00     0.029 A 
ATOM     51  C   UNL A   1      41.144  33.654  30.277  1.00  0.00     0.049 A 
ATOM     52  H   UNL A   1      39.704  33.922  28.766  1.00  0.00     0.167 HD
ATOM     53  C   UNL A   1      43.149  33.009  29.161  1.00  0.00     0.074 A 
ATOM     54  C   UNL A   1      44.557  32.953  28.800  1.00  0.00     0.031 C 
ATOM     55  C   UNL A   1      42.323  34.041  29.524  1.00  0.00     0.034 A 
BRANCH  42  56
ATOM     56  C   UNL A   1      36.331  33.519  30.750  1.00  0.00     0.023 A 
ATOM     57  C   UNL A   1      35.443  34.175  29.866  1.00  0.00     0.031 A 
ATOM     58  C   UNL A   1      35.951  33.519  32.103  1.00  0.00     0.131 A 
ATOM     59  C   UNL A   1      34.314  34.871  30.330  1.00  0.00     0.055 A 
ATOM     60  C   UNL A   1      34.837  34.235  32.573  1.00  0.00     0.041 A 
ATOM     61  F   UNL A   1      36.634  32.809  33.015  1.00  0.00    -0.206 F 
ATOM     62  C   UNL A   1      34.020  34.931  31.688  1.00  0.00     0.022 A 
BRANCH  59  63
ATOM     63  S   UNL A   1      33.249  35.722  29.128  1.00  0.00     0.124 S 
ATOM     64  O   UNL A   1      32.437  36.579  29.984  1.00  0.00    -0.237 OA
ATOM     65  O   UNL A   1      34.222  36.397  28.275  1.00  0.00    -0.237 OA
ATOM     66  O   UNL A   1      32.521  34.629  28.485  1.00  0.00    -0.744 OA
ENDBRANCH  59  63
ENDBRANCH  42  56
BRANCH  43  67
ATOM     67  C   UNL A   1      43.999  28.424  28.021  1.00  0.00     0.023 A 
ATOM     68  C   UNL A   1      44.402  27.100  28.307  1.00  0.00     0.031 A 
ATOM     69  C   UNL A   1      43.510  28.663  26.732  1.00  0.00     0.131 A 
ATOM     70  C   UNL A   1      44.220  26.067  27.364  1.00  0.00     0.055 A 
ATOM     71  C   UNL A   1      43.367  27.640  25.782  1.00  0.00     0.041 A 
ATOM     72  F   UNL A   1      43.072  29.880  26.404  1.00  0.00    -0.206 F 
ATOM     73  C   UNL A   1      43.688  26.328  26.105  1.00  0.00     0.022 A 
BRANCH  70  74
ATOM     74  S   UNL A   1      44.521  24.343  27.853  1.00  0.00     0.124 S 
ATOM     75  O   UNL A   1      45.083  23.778  26.632  1.00  0.00    -0.237 OA
ATOM     76  O   UNL A   1      45.444  24.493  28.975  1.00  0.00    -0.237 OA
ATOM     77  O   UNL A   1      43.194  23.852  28.216  1.00  0.00    -0.744 OA
ENDBRANCH  70  74
ENDBRANCH  43  67
BRANCH  55  78
ATOM     78  C   UNL A   1      42.593  35.531  29.381  1.00  0.00     0.023 A 
ATOM     79  C   UNL A   1      43.438  36.246  30.236  1.00  0.00     0.031 A 
ATOM     80  C   UNL A   1      42.045  36.283  28.305  1.00  0.00     0.131 A 
ATOM     81  C   UNL A   1      43.633  37.630  30.080  1.00  0.00     0.055 A 
ATOM     82  C   UNL A   1      42.305  37.642  28.104  1.00  0.00     0.041 A 
ATOM     83  F   UNL A   1      41.244  35.734  27.381  1.00  0.00    -0.206 F 
ATOM     84  C   UNL A   1      43.091  38.332  29.007  1.00  0.00     0.022 A 
BRANCH  81  85
ATOM     85  S   UNL A   1      44.565  38.504  31.362  1.00  0.00     0.124 S 
ATOM     86  O   UNL A   1      44.552  39.875  30.857  1.00  0.00    -0.237 OA
ATOM     87  O   UNL A   1      43.758  38.260  32.553  1.00  0.00    -0.237 OA
ATOM     88  O   UNL A   1      45.871  37.849  31.349  1.00  0.00    -0.744 OA
ENDBRANCH  81  85
ENDBRANCH  55  78
ENDBRANCH  29  30
ENDBRANCH  22  24
ENDBRANCH  21  22
ENDBRANCH  20  21
ENDBRANCH   1  20
TORSDOF 18
ENDMDL
