MODEL 1
REMARK VINA RESULT:     -10.9      0.000      0.000
REMARK SMILES C[C@@H](C(=O)OCCOC(=O)c1ccc(-c2c3nc(c(-c4cc(S(=O)(=O)[O-])ccc4F)c4ccc([nH]4)c(-c4cc(S(=O)(=O)[O-])ccc4F)c4nc(c(-c5cc(S(=O)(=O)[O-])ccc5F)c5ccc2[nH]5)C=C4)C=C3)cc1)c1cccc(C(=O)c2ccccc2)c1
REMARK SMILES IDX 6 1 5 2 3 3 4 4 2 5 1 6 74 7 75 8 87 9 76 10 78 11 77 12
REMARK SMILES IDX 79 13 80 14 81 15 82 16 86 17 83 18 85 19 84 20 7 21 8 22
REMARK SMILES IDX 9 23 10 24 11 25 12 26 73 27 13 28 72 29 14 30 15 31 16 32
REMARK SMILES IDX 66 33 17 34 71 35 65 36 67 37 18 38 70 39 64 40 63 41 19 43
REMARK SMILES IDX 51 44 31 45 50 46 32 47 35 48 49 49 68 50 33 51 34 52 48 54
REMARK SMILES IDX 69 55 36 56 20 57 21 58 29 59 22 60 28 61 30 62 27 63 23 64
REMARK SMILES IDX 24 65 25 66 26 67 52 68 53 69 61 70 54 71 60 72 62 73 59 74
REMARK SMILES IDX 55 75 56 76 57 77 58 78 37 79 38 80 46 81 39 82 45 83 47 84
REMARK SMILES IDX 44 85 40 86 41 87 42 88 43 89
REMARK H PARENT 67 42 35 53
REMARK Flexibility Score: inf
ROOT
ATOM      1  C   UNL A   1      33.456  35.132  28.787  1.00  0.00     0.274 C 
ENDROOT
BRANCH   1   2
ATOM      2  O   UNL A   1      32.806  35.206  30.071  1.00  0.00    -0.462 OA
BRANCH   2   3
ATOM      3  C   UNL A   1      33.019  36.335  30.805  1.00  0.00     0.313 C 
ATOM      4  O   UNL A   1      33.143  37.454  30.319  1.00  0.00    -0.252 OA
BRANCH   3   5
ATOM      5  C   UNL A   1      33.163  36.040  32.304  1.00  0.00     0.126 C 
ATOM      6  C   UNL A   1      33.316  37.304  33.160  1.00  0.00     0.025 C 
BRANCH   5   7
ATOM      7  C   UNL A   1      34.237  34.989  32.587  1.00  0.00    -0.033 A 
ATOM      8  C   UNL A   1      33.879  33.630  32.621  1.00  0.00     0.004 A 
ATOM      9  C   UNL A   1      35.589  35.323  32.784  1.00  0.00     0.016 A 
ATOM     10  C   UNL A   1      34.832  32.640  32.869  1.00  0.00     0.001 A 
ATOM     11  C   UNL A   1      36.546  34.336  33.075  1.00  0.00     0.023 A 
ATOM     12  C   UNL A   1      36.160  32.992  33.104  1.00  0.00     0.012 A 
BRANCH  11  13
ATOM     13  C   UNL A   1      37.989  34.657  33.252  1.00  0.00     0.193 C 
ATOM     14  O   UNL A   1      38.375  35.021  34.359  1.00  0.00    -0.289 OA
BRANCH  13  15
ATOM     15  C   UNL A   1      38.980  34.510  32.153  1.00  0.00     0.022 A 
ATOM     16  C   UNL A   1      40.332  34.377  32.491  1.00  0.00     0.012 A 
ATOM     17  C   UNL A   1      38.609  34.531  30.802  1.00  0.00     0.012 A 
ATOM     18  C   UNL A   1      41.294  34.197  31.498  1.00  0.00     0.001 A 
ATOM     19  C   UNL A   1      39.572  34.338  29.809  1.00  0.00     0.001 A 
ATOM     20  C   UNL A   1      40.910  34.159  30.158  1.00  0.00     0.000 A 
ENDBRANCH  13  15
ENDBRANCH  11  13
ENDBRANCH   5   7
ENDBRANCH   3   5
ENDBRANCH   2   3
ENDBRANCH   1   2
BRANCH   1  21
ATOM     21  C   UNL A   1      33.051  33.850  28.066  1.00  0.00     0.275 C 
BRANCH  21  22
ATOM     22  O   UNL A   1      34.234  33.162  27.627  1.00  0.00    -0.458 OA
BRANCH  22  23
ATOM     23  C   UNL A   1      34.135  31.816  27.533  1.00  0.00     0.338 C 
ATOM     24  O   UNL A   1      33.166  31.167  27.183  1.00  0.00    -0.246 OA
BRANCH  23  25
ATOM     25  C   UNL A   1      35.425  31.217  27.908  1.00  0.00     0.060 A 
ATOM     26  C   UNL A   1      35.482  29.860  28.213  1.00  0.00     0.016 A 
ATOM     27  C   UNL A   1      36.554  32.021  28.068  1.00  0.00     0.016 A 
ATOM     28  C   UNL A   1      36.640  29.325  28.771  1.00  0.00     0.010 A 
ATOM     29  C   UNL A   1      37.746  31.453  28.540  1.00  0.00     0.010 A 
ATOM     30  C   UNL A   1      37.792  30.106  28.942  1.00  0.00    -0.014 A 
BRANCH  30  31
ATOM     31  C   UNL A   1      39.003  29.525  29.599  1.00  0.00     0.031 A 
ATOM     32  C   UNL A   1      39.402  29.968  30.987  1.00  0.00     0.074 A 
ATOM     33  C   UNL A   1      39.725  28.564  28.987  1.00  0.00     0.049 A 
ATOM     34  N   UNL A   1      40.492  29.705  31.666  1.00  0.00    -0.248 NA
ATOM     35  C   UNL A   1      38.459  30.842  31.695  1.00  0.00     0.031 C 
ATOM     36  C   UNL A   1      39.430  27.989  27.672  1.00  0.00     0.029 A 
ATOM     37  N   UNL A   1      40.845  27.883  29.398  1.00  0.00    -0.354 N 
ATOM     38  C   UNL A   1      40.375  30.402  32.865  1.00  0.00     0.074 A 
ATOM     39  C   UNL A   1      39.120  31.122  32.809  1.00  0.00     0.031 C 
ATOM     40  C   UNL A   1      40.305  27.005  27.415  1.00  0.00     0.029 A 
ATOM     41  C   UNL A   1      41.284  26.943  28.495  1.00  0.00     0.049 A 
ATOM     42  H   UNL A   1      41.292  28.052  30.259  1.00  0.00     0.167 HD
ATOM     43  C   UNL A   1      41.231  30.442  33.916  1.00  0.00     0.034 A 
ATOM     44  C   UNL A   1      42.373  26.148  28.506  1.00  0.00     0.034 A 
ATOM     45  C   UNL A   1      42.464  29.696  33.980  1.00  0.00     0.049 A 
ATOM     46  C   UNL A   1      43.347  26.259  29.647  1.00  0.00     0.074 A 
ATOM     47  C   UNL A   1      43.420  29.688  34.982  1.00  0.00     0.029 A 
ATOM     48  N   UNL A   1      42.908  28.811  33.005  1.00  0.00    -0.354 N 
ATOM     49  N   UNL A   1      43.283  27.015  30.717  1.00  0.00    -0.248 NA
ATOM     50  C   UNL A   1      44.556  25.429  29.565  1.00  0.00     0.031 C 
ATOM     51  C   UNL A   1      44.465  28.842  34.589  1.00  0.00     0.029 A 
ATOM     52  C   UNL A   1      44.133  28.273  33.370  1.00  0.00     0.049 A 
ATOM     53  H   UNL A   1      42.423  28.597  32.176  1.00  0.00     0.167 HD
ATOM     54  C   UNL A   1      44.446  26.754  31.434  1.00  0.00     0.074 A 
ATOM     55  C   UNL A   1      45.180  25.753  30.688  1.00  0.00     0.031 C 
ATOM     56  C   UNL A   1      44.871  27.301  32.601  1.00  0.00     0.034 A 
BRANCH  43  57
ATOM     57  C   UNL A   1      40.899  31.385  35.047  1.00  0.00     0.023 A 
ATOM     58  C   UNL A   1      39.790  31.191  35.890  1.00  0.00     0.031 A 
ATOM     59  C   UNL A   1      41.702  32.520  35.263  1.00  0.00     0.131 A 
ATOM     60  C   UNL A   1      39.486  32.148  36.872  1.00  0.00     0.055 A 
ATOM     61  C   UNL A   1      41.435  33.430  36.286  1.00  0.00     0.041 A 
ATOM     62  F   UNL A   1      42.758  32.770  34.471  1.00  0.00    -0.206 F 
ATOM     63  C   UNL A   1      40.315  33.251  37.093  1.00  0.00     0.022 A 
BRANCH  60  64
ATOM     64  S   UNL A   1      37.930  31.998  37.794  1.00  0.00     0.124 S 
ATOM     65  O   UNL A   1      37.111  33.031  37.163  1.00  0.00    -0.237 OA
ATOM     66  O   UNL A   1      37.536  30.618  37.536  1.00  0.00    -0.237 OA
ATOM     67  O   UNL A   1      38.318  32.284  39.174  1.00  0.00    -0.744 OA
ENDBRANCH  60  64
ENDBRANCH  43  57
BRANCH  44  68
ATOM     68  C   UNL A   1      42.646  25.239  27.357  1.00  0.00     0.023 A 
ATOM     69  C   UNL A   1      42.170  23.919  27.345  1.00  0.00     0.031 A 
ATOM     70  C   UNL A   1      43.407  25.679  26.259  1.00  0.00     0.131 A 
ATOM     71  C   UNL A   1      42.477  23.078  26.262  1.00  0.00     0.055 A 
ATOM     72  C   UNL A   1      43.669  24.856  25.165  1.00  0.00     0.041 A 
ATOM     73  F   UNL A   1      43.887  26.933  26.224  1.00  0.00    -0.206 F 
ATOM     74  C   UNL A   1      43.209  23.543  25.166  1.00  0.00     0.022 A 
BRANCH  71  75
ATOM     75  S   UNL A   1      41.944  21.345  26.322  1.00  0.00     0.124 S 
ATOM     76  O   UNL A   1      42.239  20.990  27.705  1.00  0.00    -0.237 OA
ATOM     77  O   UNL A   1      40.530  21.447  25.972  1.00  0.00    -0.237 OA
ATOM     78  O   UNL A   1      42.784  20.695  25.318  1.00  0.00    -0.744 OA
ENDBRANCH  71  75
ENDBRANCH  44  68
BRANCH  56  79
ATOM     79  C   UNL A   1      46.188  26.807  33.141  1.00  0.00     0.023 A 
ATOM     80  C   UNL A   1      46.268  25.647  33.932  1.00  0.00     0.031 A 
ATOM     81  C   UNL A   1      47.373  27.514  32.875  1.00  0.00     0.131 A 
ATOM     82  C   UNL A   1      47.503  25.253  34.468  1.00  0.00     0.055 A 
ATOM     83  C   UNL A   1      48.606  27.091  33.373  1.00  0.00     0.041 A 
ATOM     84  F   UNL A   1      47.350  28.628  32.126  1.00  0.00    -0.206 F 
ATOM     85  C   UNL A   1      48.674  25.961  34.184  1.00  0.00     0.022 A 
BRANCH  82  86
ATOM     86  S   UNL A   1      47.549  23.841  35.607  1.00  0.00     0.124 S 
ATOM     87  O   UNL A   1      48.876  23.972  36.202  1.00  0.00    -0.237 OA
ATOM     88  O   UNL A   1      46.423  24.116  36.493  1.00  0.00    -0.237 OA
ATOM     89  O   UNL A   1      47.377  22.686  34.729  1.00  0.00    -0.744 OA
ENDBRANCH  82  86
ENDBRANCH  56  79
ENDBRANCH  30  31
ENDBRANCH  23  25
ENDBRANCH  22  23
ENDBRANCH  21  22
ENDBRANCH   1  21
TORSDOF 17
ENDMDL
MODEL 2
REMARK VINA RESULT:     -10.7      5.543      9.728
REMARK SMILES C[C@@H](C(=O)OCCOC(=O)c1ccc(-c2c3nc(c(-c4cc(S(=O)(=O)[O-])ccc4F)c4ccc([nH]4)c(-c4cc(S(=O)(=O)[O-])ccc4F)c4nc(c(-c5cc(S(=O)(=O)[O-])ccc5F)c5ccc2[nH]5)C=C4)C=C3)cc1)c1cccc(C(=O)c2ccccc2)c1
REMARK SMILES IDX 6 1 5 2 3 3 4 4 2 5 1 6 74 7 75 8 87 9 76 10 78 11 77 12
REMARK SMILES IDX 79 13 80 14 81 15 82 16 86 17 83 18 85 19 84 20 7 21 8 22
REMARK SMILES IDX 9 23 10 24 11 25 12 26 73 27 13 28 72 29 14 30 15 31 16 32
REMARK SMILES IDX 66 33 17 34 71 35 65 36 67 37 18 38 70 39 64 40 63 41 19 43
REMARK SMILES IDX 51 44 31 45 50 46 32 47 35 48 49 49 68 50 33 51 34 52 48 54
REMARK SMILES IDX 69 55 36 56 20 57 21 58 29 59 22 60 28 61 30 62 27 63 23 64
REMARK SMILES IDX 24 65 25 66 26 67 52 68 53 69 61 70 54 71 60 72 62 73 59 74
REMARK SMILES IDX 55 75 56 76 57 77 58 78 37 79 38 80 46 81 39 82 45 83 47 84
REMARK SMILES IDX 44 85 40 86 41 87 42 88 43 89
REMARK H PARENT 67 42 35 53
REMARK Flexibility Score: inf
ROOT
ATOM      1  C   UNL A   1      35.190  21.580  26.233  1.00  0.00     0.274 C 
ENDROOT
BRANCH   1   2
ATOM      2  O   UNL A   1      34.670  22.689  25.473  1.00  0.00    -0.462 OA
BRANCH   2   3
ATOM      3  C   UNL A   1      33.740  22.400  24.519  1.00  0.00     0.313 C 
ATOM      4  O   UNL A   1      32.770  21.675  24.707  1.00  0.00    -0.252 OA
BRANCH   3   5
ATOM      5  C   UNL A   1      34.084  23.023  23.159  1.00  0.00     0.126 C 
ATOM      6  C   UNL A   1      35.575  23.349  23.000  1.00  0.00     0.025 C 
BRANCH   5   7
ATOM      7  C   UNL A   1      33.171  24.200  22.814  1.00  0.00    -0.033 A 
ATOM      8  C   UNL A   1      33.104  24.653  21.485  1.00  0.00     0.004 A 
ATOM      9  C   UNL A   1      32.362  24.836  23.772  1.00  0.00     0.016 A 
ATOM     10  C   UNL A   1      32.276  25.720  21.129  1.00  0.00     0.001 A 
ATOM     11  C   UNL A   1      31.559  25.937  23.430  1.00  0.00     0.023 A 
ATOM     12  C   UNL A   1      31.513  26.366  22.099  1.00  0.00     0.012 A 
BRANCH  11  13
ATOM     13  C   UNL A   1      30.665  26.606  24.415  1.00  0.00     0.193 C 
ATOM     14  O   UNL A   1      29.484  26.273  24.453  1.00  0.00    -0.289 OA
BRANCH  13  15
ATOM     15  C   UNL A   1      31.161  27.627  25.377  1.00  0.00     0.022 A 
ATOM     16  C   UNL A   1      31.421  28.917  24.900  1.00  0.00     0.012 A 
ATOM     17  C   UNL A   1      31.401  27.331  26.725  1.00  0.00     0.012 A 
ATOM     18  C   UNL A   1      31.849  29.918  25.771  1.00  0.00     0.001 A 
ATOM     19  C   UNL A   1      31.817  28.338  27.598  1.00  0.00     0.001 A 
ATOM     20  C   UNL A   1      32.029  29.632  27.124  1.00  0.00     0.000 A 
ENDBRANCH  13  15
ENDBRANCH  11  13
ENDBRANCH   5   7
ENDBRANCH   3   5
ENDBRANCH   2   3
ENDBRANCH   1   2
BRANCH   1  21
ATOM     21  C   UNL A   1      36.101  20.724  25.359  1.00  0.00     0.275 C 
BRANCH  21  22
ATOM     22  O   UNL A   1      37.271  21.483  25.012  1.00  0.00    -0.458 OA
BRANCH  22  23
ATOM     23  C   UNL A   1      38.420  21.113  25.624  1.00  0.00     0.338 C 
ATOM     24  O   UNL A   1      38.910  19.999  25.667  1.00  0.00    -0.246 OA
BRANCH  23  25
ATOM     25  C   UNL A   1      39.036  22.299  26.238  1.00  0.00     0.060 A 
ATOM     26  C   UNL A   1      38.515  23.558  25.960  1.00  0.00     0.016 A 
ATOM     27  C   UNL A   1      40.200  22.172  26.997  1.00  0.00     0.016 A 
ATOM     28  C   UNL A   1      39.210  24.697  26.356  1.00  0.00     0.010 A 
ATOM     29  C   UNL A   1      40.842  23.323  27.475  1.00  0.00     0.010 A 
ATOM     30  C   UNL A   1      40.381  24.604  27.122  1.00  0.00    -0.014 A 
BRANCH  30  31
ATOM     31  C   UNL A   1      41.142  25.839  27.484  1.00  0.00     0.031 A 
ATOM     32  C   UNL A   1      40.520  26.880  28.386  1.00  0.00     0.074 A 
ATOM     33  C   UNL A   1      42.409  26.018  27.057  1.00  0.00     0.049 A 
ATOM     34  N   UNL A   1      40.947  28.080  28.693  1.00  0.00    -0.248 NA
ATOM     35  C   UNL A   1      39.235  26.530  29.004  1.00  0.00     0.031 C 
ATOM     36  C   UNL A   1      43.167  25.075  26.231  1.00  0.00     0.029 A 
ATOM     37  N   UNL A   1      43.294  27.047  27.274  1.00  0.00    -0.354 N 
ATOM     38  C   UNL A   1      39.970  28.635  29.516  1.00  0.00     0.074 A 
ATOM     39  C   UNL A   1      38.916  27.649  29.637  1.00  0.00     0.031 C 
ATOM     40  C   UNL A   1      44.416  25.538  26.067  1.00  0.00     0.029 A 
ATOM     41  C   UNL A   1      44.522  26.855  26.685  1.00  0.00     0.049 A 
ATOM     42  H   UNL A   1      43.069  27.846  27.804  1.00  0.00     0.167 HD
ATOM     43  C   UNL A   1      39.950  29.851  30.115  1.00  0.00     0.034 A 
ATOM     44  C   UNL A   1      45.601  27.660  26.610  1.00  0.00     0.034 A 
ATOM     45  C   UNL A   1      41.019  30.816  30.017  1.00  0.00     0.049 A 
ATOM     46  C   UNL A   1      45.532  29.033  27.221  1.00  0.00     0.074 A 
ATOM     47  C   UNL A   1      41.087  32.089  30.558  1.00  0.00     0.029 A 
ATOM     48  N   UNL A   1      42.217  30.608  29.344  1.00  0.00    -0.354 N 
ATOM     49  N   UNL A   1      44.552  29.590  27.892  1.00  0.00    -0.248 NA
ATOM     50  C   UNL A   1      46.706  29.896  27.036  1.00  0.00     0.031 C 
ATOM     51  C   UNL A   1      42.300  32.670  30.166  1.00  0.00     0.029 A 
ATOM     52  C   UNL A   1      43.017  31.738  29.434  1.00  0.00     0.049 A 
ATOM     53  H   UNL A   1      42.461  29.780  28.873  1.00  0.00     0.167 HD
ATOM     54  C   UNL A   1      44.991  30.873  28.206  1.00  0.00     0.074 A 
ATOM     55  C   UNL A   1      46.333  30.997  27.674  1.00  0.00     0.031 C 
ATOM     56  C   UNL A   1      44.339  31.860  28.870  1.00  0.00     0.034 A 
BRANCH  43  57
ATOM     57  C   UNL A   1      38.697  30.236  30.863  1.00  0.00     0.023 A 
ATOM     58  C   UNL A   1      37.644  30.943  30.256  1.00  0.00     0.031 A 
ATOM     59  C   UNL A   1      38.573  29.907  32.226  1.00  0.00     0.131 A 
ATOM     60  C   UNL A   1      36.539  31.344  31.026  1.00  0.00     0.055 A 
ATOM     61  C   UNL A   1      37.441  30.247  32.967  1.00  0.00     0.041 A 
ATOM     62  F   UNL A   1      39.559  29.256  32.863  1.00  0.00    -0.206 F 
ATOM     63  C   UNL A   1      36.419  30.978  32.370  1.00  0.00     0.022 A 
BRANCH  60  64
ATOM     64  S   UNL A   1      35.303  32.447  30.283  1.00  0.00     0.124 S 
ATOM     65  O   UNL A   1      36.124  33.592  29.895  1.00  0.00    -0.237 OA
ATOM     66  O   UNL A   1      34.769  31.640  29.193  1.00  0.00    -0.237 OA
ATOM     67  O   UNL A   1      34.371  32.706  31.379  1.00  0.00    -0.744 OA
ENDBRANCH  60  64
ENDBRANCH  43  57
BRANCH  44  68
ATOM     68  C   UNL A   1      46.808  27.222  25.854  1.00  0.00     0.023 A 
ATOM     69  C   UNL A   1      47.021  27.629  24.527  1.00  0.00     0.031 A 
ATOM     70  C   UNL A   1      47.758  26.373  26.448  1.00  0.00     0.131 A 
ATOM     71  C   UNL A   1      48.152  27.168  23.832  1.00  0.00     0.055 A 
ATOM     72  C   UNL A   1      48.902  25.956  25.769  1.00  0.00     0.041 A 
ATOM     73  F   UNL A   1      47.598  25.955  27.714  1.00  0.00    -0.206 F 
ATOM     74  C   UNL A   1      49.101  26.349  24.449  1.00  0.00     0.022 A 
BRANCH  71  75
ATOM     75  S   UNL A   1      48.348  27.619  22.086  1.00  0.00     0.124 S 
ATOM     76  O   UNL A   1      47.086  28.297  21.809  1.00  0.00    -0.237 OA
ATOM     77  O   UNL A   1      49.537  28.464  22.119  1.00  0.00    -0.237 OA
ATOM     78  O   UNL A   1      48.523  26.330  21.419  1.00  0.00    -0.744 OA
ENDBRANCH  71  75
ENDBRANCH  44  68
BRANCH  56  79
ATOM     79  C   UNL A   1      45.085  33.155  29.062  1.00  0.00     0.023 A 
ATOM     80  C   UNL A   1      44.899  34.244  28.192  1.00  0.00     0.031 A 
ATOM     81  C   UNL A   1      46.003  33.295  30.116  1.00  0.00     0.131 A 
ATOM     82  C   UNL A   1      45.657  35.412  28.365  1.00  0.00     0.055 A 
ATOM     83  C   UNL A   1      46.721  34.475  30.311  1.00  0.00     0.041 A 
ATOM     84  F   UNL A   1      46.218  32.284  30.973  1.00  0.00    -0.206 F 
ATOM     85  C   UNL A   1      46.558  35.538  29.426  1.00  0.00     0.022 A 
BRANCH  82  86
ATOM     86  S   UNL A   1      45.506  36.740  27.139  1.00  0.00     0.124 S 
ATOM     87  O   UNL A   1      44.077  36.721  26.841  1.00  0.00    -0.237 OA
ATOM     88  O   UNL A   1      45.988  37.904  27.876  1.00  0.00    -0.237 OA
ATOM     89  O   UNL A   1      46.371  36.299  26.046  1.00  0.00    -0.744 OA
ENDBRANCH  82  86
ENDBRANCH  56  79
ENDBRANCH  30  31
ENDBRANCH  23  25
ENDBRANCH  22  23
ENDBRANCH  21  22
ENDBRANCH   1  21
TORSDOF 17
ENDMDL
MODEL 3
REMARK VINA RESULT:     -10.4      3.606     10.049
REMARK SMILES C[C@@H](C(=O)OCCOC(=O)c1ccc(-c2c3nc(c(-c4cc(S(=O)(=O)[O-])ccc4F)c4ccc([nH]4)c(-c4cc(S(=O)(=O)[O-])ccc4F)c4nc(c(-c5cc(S(=O)(=O)[O-])ccc5F)c5ccc2[nH]5)C=C4)C=C3)cc1)c1cccc(C(=O)c2ccccc2)c1
REMARK SMILES IDX 6 1 5 2 3 3 4 4 2 5 1 6 74 7 75 8 87 9 76 10 78 11 77 12
REMARK SMILES IDX 79 13 80 14 81 15 82 16 86 17 83 18 85 19 84 20 7 21 8 22
REMARK SMILES IDX 9 23 10 24 11 25 12 26 73 27 13 28 72 29 14 30 15 31 16 32
REMARK SMILES IDX 66 33 17 34 71 35 65 36 67 37 18 38 70 39 64 40 63 41 19 43
REMARK SMILES IDX 51 44 31 45 50 46 32 47 35 48 49 49 68 50 33 51 34 52 48 54
REMARK SMILES IDX 69 55 36 56 20 57 21 58 29 59 22 60 28 61 30 62 27 63 23 64
REMARK SMILES IDX 24 65 25 66 26 67 52 68 53 69 61 70 54 71 60 72 62 73 59 74
REMARK SMILES IDX 55 75 56 76 57 77 58 78 37 79 38 80 46 81 39 82 45 83 47 84
REMARK SMILES IDX 44 85 40 86 41 87 42 88 43 89
REMARK H PARENT 67 42 35 53
REMARK Flexibility Score: inf
ROOT
ATOM      1  C   UNL A   1      32.156  29.428  24.863  1.00  0.00     0.274 C 
ENDROOT
BRANCH   1   2
ATOM      2  O   UNL A   1      31.200  28.350  24.865  1.00  0.00    -0.462 OA
BRANCH   2   3
ATOM      3  C   UNL A   1      30.390  28.242  23.773  1.00  0.00     0.313 C 
ATOM      4  O   UNL A   1      29.989  29.200  23.123  1.00  0.00    -0.252 OA
BRANCH   3   5
ATOM      5  C   UNL A   1      29.976  26.791  23.494  1.00  0.00     0.126 C 
ATOM      6  C   UNL A   1      29.364  26.088  24.713  1.00  0.00     0.025 C 
BRANCH   5   7
ATOM      7  C   UNL A   1      31.096  25.985  22.835  1.00  0.00    -0.033 A 
ATOM      8  C   UNL A   1      31.563  26.365  21.565  1.00  0.00     0.004 A 
ATOM      9  C   UNL A   1      31.709  24.887  23.465  1.00  0.00     0.016 A 
ATOM     10  C   UNL A   1      32.589  25.659  20.934  1.00  0.00     0.001 A 
ATOM     11  C   UNL A   1      32.713  24.147  22.819  1.00  0.00     0.023 A 
ATOM     12  C   UNL A   1      33.156  24.548  21.554  1.00  0.00     0.012 A 
BRANCH  11  13
ATOM     13  C   UNL A   1      33.404  23.003  23.475  1.00  0.00     0.193 C 
ATOM     14  O   UNL A   1      32.851  21.907  23.473  1.00  0.00    -0.289 OA
BRANCH  13  15
ATOM     15  C   UNL A   1      34.752  23.132  24.092  1.00  0.00     0.022 A 
ATOM     16  C   UNL A   1      34.842  23.662  25.384  1.00  0.00     0.012 A 
ATOM     17  C   UNL A   1      35.923  22.773  23.414  1.00  0.00     0.012 A 
ATOM     18  C   UNL A   1      36.079  23.766  26.020  1.00  0.00     0.001 A 
ATOM     19  C   UNL A   1      37.160  22.866  24.056  1.00  0.00     0.001 A 
ATOM     20  C   UNL A   1      37.235  23.350  25.361  1.00  0.00     0.000 A 
ENDBRANCH  13  15
ENDBRANCH  11  13
ENDBRANCH   5   7
ENDBRANCH   3   5
ENDBRANCH   2   3
ENDBRANCH   1   2
BRANCH   1  21
ATOM     21  C   UNL A   1      31.756  30.486  25.887  1.00  0.00     0.275 C 
BRANCH  21  22
ATOM     22  O   UNL A   1      32.640  30.406  27.018  1.00  0.00    -0.458 OA
BRANCH  22  23
ATOM     23  C   UNL A   1      33.332  31.531  27.309  1.00  0.00     0.338 C 
ATOM     24  O   UNL A   1      32.944  32.683  27.224  1.00  0.00    -0.246 OA
BRANCH  23  25
ATOM     25  C   UNL A   1      34.672  31.156  27.787  1.00  0.00     0.060 A 
ATOM     26  C   UNL A   1      34.936  29.827  28.098  1.00  0.00     0.016 A 
ATOM     27  C   UNL A   1      35.630  32.139  28.034  1.00  0.00     0.016 A 
ATOM     28  C   UNL A   1      36.119  29.490  28.749  1.00  0.00     0.010 A 
ATOM     29  C   UNL A   1      36.860  31.778  28.601  1.00  0.00     0.010 A 
ATOM     30  C   UNL A   1      37.104  30.455  29.010  1.00  0.00    -0.014 A 
BRANCH  30  31
ATOM     31  C   UNL A   1      38.341  30.081  29.763  1.00  0.00     0.031 A 
ATOM     32  C   UNL A   1      39.362  29.158  29.140  1.00  0.00     0.074 A 
ATOM     33  C   UNL A   1      38.588  30.601  30.983  1.00  0.00     0.049 A 
ATOM     34  N   UNL A   1      40.414  28.594  29.679  1.00  0.00    -0.248 NA
ATOM     35  C   UNL A   1      39.155  28.806  27.730  1.00  0.00     0.031 C 
ATOM     36  C   UNL A   1      37.728  31.553  31.690  1.00  0.00     0.029 A 
ATOM     37  N   UNL A   1      39.647  30.420  31.839  1.00  0.00    -0.354 N 
ATOM     38  C   UNL A   1      40.977  27.801  28.682  1.00  0.00     0.074 A 
ATOM     39  C   UNL A   1      40.132  27.937  27.514  1.00  0.00     0.031 C 
ATOM     40  C   UNL A   1      38.322  31.917  32.837  1.00  0.00     0.029 A 
ATOM     41  C   UNL A   1      39.554  31.152  32.999  1.00  0.00     0.049 A 
ATOM     42  H   UNL A   1      40.403  29.821  31.639  1.00  0.00     0.167 HD
ATOM     43  C   UNL A   1      42.092  27.031  28.732  1.00  0.00     0.034 A 
ATOM     44  C   UNL A   1      40.342  31.180  34.092  1.00  0.00     0.034 A 
ATOM     45  C   UNL A   1      42.949  26.927  29.888  1.00  0.00     0.049 A 
ATOM     46  C   UNL A   1      41.535  30.266  34.157  1.00  0.00     0.074 A 
ATOM     47  C   UNL A   1      44.084  26.152  30.057  1.00  0.00     0.029 A 
ATOM     48  N   UNL A   1      42.773  27.632  31.073  1.00  0.00    -0.354 N 
ATOM     49  N   UNL A   1      41.984  29.430  33.251  1.00  0.00    -0.248 NA
ATOM     50  C   UNL A   1      42.309  30.279  35.405  1.00  0.00     0.031 C 
ATOM     51  C   UNL A   1      44.561  26.347  31.360  1.00  0.00     0.029 A 
ATOM     52  C   UNL A   1      43.762  27.290  31.983  1.00  0.00     0.049 A 
ATOM     53  H   UNL A   1      42.051  28.279  31.241  1.00  0.00     0.167 HD
ATOM     54  C   UNL A   1      43.092  28.813  33.823  1.00  0.00     0.074 A 
ATOM     55  C   UNL A   1      43.258  29.392  35.141  1.00  0.00     0.031 C 
ATOM     56  C   UNL A   1      43.896  27.850  33.306  1.00  0.00     0.034 A 
BRANCH  43  57
ATOM     57  C   UNL A   1      42.402  26.179  27.525  1.00  0.00     0.023 A 
ATOM     58  C   UNL A   1      41.979  24.843  27.416  1.00  0.00     0.031 A 
ATOM     59  C   UNL A   1      43.165  26.719  26.472  1.00  0.00     0.131 A 
ATOM     60  C   UNL A   1      42.369  24.077  26.305  1.00  0.00     0.055 A 
ATOM     61  C   UNL A   1      43.489  25.972  25.338  1.00  0.00     0.041 A 
ATOM     62  F   UNL A   1      43.619  27.981  26.535  1.00  0.00    -0.206 F 
ATOM     63  C   UNL A   1      43.098  24.640  25.255  1.00  0.00     0.022 A 
BRANCH  60  64
ATOM     64  S   UNL A   1      42.006  22.298  26.293  1.00  0.00     0.124 S 
ATOM     65  O   UNL A   1      42.834  21.835  25.181  1.00  0.00    -0.237 OA
ATOM     66  O   UNL A   1      42.425  21.877  27.625  1.00  0.00    -0.237 OA
ATOM     67  O   UNL A   1      40.566  22.242  26.049  1.00  0.00    -0.744 OA
ENDBRANCH  60  64
ENDBRANCH  43  57
BRANCH  44  68
ATOM     68  C   UNL A   1      39.980  32.042  35.253  1.00  0.00     0.023 A 
ATOM     69  C   UNL A   1      39.075  31.600  36.232  1.00  0.00     0.031 A 
ATOM     70  C   UNL A   1      40.523  33.331  35.387  1.00  0.00     0.131 A 
ATOM     71  C   UNL A   1      38.728  32.452  37.293  1.00  0.00     0.055 A 
ATOM     72  C   UNL A   1      40.212  34.155  36.468  1.00  0.00     0.041 A 
ATOM     73  F   UNL A   1      41.391  33.801  34.476  1.00  0.00    -0.206 F 
ATOM     74  C   UNL A   1      39.303  33.719  37.426  1.00  0.00     0.022 A 
BRANCH  71  75
ATOM     75  S   UNL A   1      37.475  31.900  38.484  1.00  0.00     0.124 S 
ATOM     76  O   UNL A   1      37.235  30.528  38.049  1.00  0.00    -0.237 OA
ATOM     77  O   UNL A   1      38.172  32.057  39.757  1.00  0.00    -0.237 OA
ATOM     78  O   UNL A   1      36.367  32.827  38.267  1.00  0.00    -0.744 OA
ENDBRANCH  71  75
ENDBRANCH  44  68
BRANCH  56  79
ATOM     79  C   UNL A   1      45.033  27.378  34.174  1.00  0.00     0.023 A 
ATOM     80  C   UNL A   1      44.891  26.272  35.031  1.00  0.00     0.031 A 
ATOM     81  C   UNL A   1      46.266  28.051  34.156  1.00  0.00     0.131 A 
ATOM     82  C   UNL A   1      45.951  25.900  35.871  1.00  0.00     0.055 A 
ATOM     83  C   UNL A   1      47.333  27.648  34.959  1.00  0.00     0.041 A 
ATOM     84  F   UNL A   1      46.452  29.113  33.356  1.00  0.00    -0.206 F 
ATOM     85  C   UNL A   1      47.175  26.574  35.831  1.00  0.00     0.022 A 
BRANCH  82  86
ATOM     86  S   UNL A   1      45.687  24.567  37.073  1.00  0.00     0.124 S 
ATOM     87  O   UNL A   1      45.130  23.507  36.237  1.00  0.00    -0.237 OA
ATOM     88  O   UNL A   1      47.034  24.334  37.584  1.00  0.00    -0.237 OA
ATOM     89  O   UNL A   1      44.753  25.151  38.033  1.00  0.00    -0.744 OA
ENDBRANCH  82  86
ENDBRANCH  56  79
ENDBRANCH  30  31
ENDBRANCH  23  25
ENDBRANCH  22  23
ENDBRANCH  21  22
ENDBRANCH   1  21
TORSDOF 17
ENDMDL
