MODEL 1
REMARK VINA RESULT:     -10.4      0.000      0.000
REMARK SMILES CC(C)(C)[NH2+]Cc1cc(C(=O)OCCOC(=O)c2ccc(-c3c4nc(c(-c5cc(S(=O)(=O)[O-])ccc5F)c5ccc([nH]5)c(-c5cc(S(=O)(=O)[O-])ccc5F)c5nc(c(-c6cc(S(=O)(=O)[O-])ccc6F)c6ccc3[nH]6)C=C5)C=C4)cc2)cs1
REMARK SMILES IDX 13 1 12 2 10 3 11 4 9 5 7 6 8 7 82 8 81 9 6 10 5 11 2 14
REMARK SMILES IDX 1 15 3 16 4 17 14 18 15 19 16 20 17 21 18 22 19 23 80 24
REMARK SMILES IDX 20 25 79 26 21 27 22 28 23 29 73 30 24 31 78 32 72 33 74 34
REMARK SMILES IDX 25 35 77 36 71 37 70 38 26 40 58 41 38 42 57 43 39 44 42 45
REMARK SMILES IDX 56 46 75 47 40 48 41 49 55 51 76 52 43 53 27 54 28 55 36 56
REMARK SMILES IDX 29 57 35 58 37 59 34 60 30 61 31 62 32 63 33 64 59 65 60 66
REMARK SMILES IDX 68 67 61 68 67 69 69 70 66 71 62 72 63 73 64 74 65 75 44 76
REMARK SMILES IDX 45 77 53 78 46 79 52 80 54 81 51 82 47 83 48 84 49 85 50 86
REMARK H PARENT 5 12 5 13 74 39 42 50
REMARK Flexibility Score: inf
ROOT
ATOM      1  C   UNL A   1      30.986  29.975  24.608  1.00  0.00     0.275 C 
ENDROOT
BRANCH   1   2
ATOM      2  O   UNL A   1      31.465  29.304  23.432  1.00  0.00    -0.458 OA
BRANCH   2   3
ATOM      3  C   UNL A   1      30.529  28.669  22.663  1.00  0.00     0.339 C 
ATOM      4  O   UNL A   1      29.674  29.232  22.002  1.00  0.00    -0.246 OA
BRANCH   3   5
ATOM      5  C   UNL A   1      30.636  27.217  22.775  1.00  0.00     0.071 A 
ATOM      6  C   UNL A   1      31.745  25.192  22.618  1.00  0.00     0.060 A 
ATOM      7  C   UNL A   1      31.436  26.362  21.952  1.00  0.00     0.037 A 
ATOM      8  S   UNL A   1      30.556  24.865  23.811  1.00  0.00    -0.142 S 
ATOM      9  C   UNL A   1      29.948  26.463  23.709  1.00  0.00     0.081 A 
BRANCH   6  10
ATOM     10  C   UNL A   1      32.902  24.263  22.424  1.00  0.00     0.308 C 
BRANCH  10  11
ATOM     11  N   UNL A   1      34.127  24.675  23.122  1.00  0.00    -0.338 N 
ATOM     12  H   UNL A   1      34.889  24.587  22.450  1.00  0.00     0.347 HD
ATOM     13  H   UNL A   1      33.893  25.609  23.459  1.00  0.00     0.347 HD
BRANCH  11  14
ATOM     14  C   UNL A   1      34.564  23.982  24.347  1.00  0.00     0.088 C 
ATOM     15  C   UNL A   1      36.034  23.537  24.311  1.00  0.00     0.078 C 
ATOM     16  C   UNL A   1      33.701  22.769  24.745  1.00  0.00     0.078 C 
ATOM     17  C   UNL A   1      34.388  25.026  25.468  1.00  0.00     0.078 C 
ENDBRANCH  11  14
ENDBRANCH  10  11
ENDBRANCH   6  10
ENDBRANCH   3   5
ENDBRANCH   2   3
ENDBRANCH   1   2
BRANCH   1  18
ATOM     18  C   UNL A   1      31.784  29.546  25.840  1.00  0.00     0.275 C 
BRANCH  18  19
ATOM     19  O   UNL A   1      33.074  30.182  25.864  1.00  0.00    -0.458 OA
BRANCH  19  20
ATOM     20  C   UNL A   1      33.236  31.103  26.847  1.00  0.00     0.338 C 
ATOM     21  O   UNL A   1      32.408  31.901  27.252  1.00  0.00    -0.246 OA
BRANCH  20  22
ATOM     22  C   UNL A   1      34.534  30.884  27.500  1.00  0.00     0.060 A 
ATOM     23  C   UNL A   1      34.890  29.571  27.808  1.00  0.00     0.016 A 
ATOM     24  C   UNL A   1      35.354  31.944  27.883  1.00  0.00     0.016 A 
ATOM     25  C   UNL A   1      36.064  29.297  28.491  1.00  0.00     0.010 A 
ATOM     26  C   UNL A   1      36.543  31.670  28.569  1.00  0.00     0.010 A 
ATOM     27  C   UNL A   1      36.901  30.345  28.884  1.00  0.00    -0.014 A 
BRANCH  27  28
ATOM     28  C   UNL A   1      38.094  30.034  29.707  1.00  0.00     0.031 A 
ATOM     29  C   UNL A   1      39.161  29.139  29.147  1.00  0.00     0.074 A 
ATOM     30  C   UNL A   1      38.250  30.610  30.915  1.00  0.00     0.049 A 
ATOM     31  N   UNL A   1      40.223  28.649  29.729  1.00  0.00    -0.248 NA
ATOM     32  C   UNL A   1      39.001  28.737  27.743  1.00  0.00     0.031 C 
ATOM     33  C   UNL A   1      37.319  31.567  31.518  1.00  0.00     0.029 A 
ATOM     34  N   UNL A   1      39.249  30.484  31.846  1.00  0.00    -0.354 N 
ATOM     35  C   UNL A   1      40.840  27.847  28.776  1.00  0.00     0.074 A 
ATOM     36  C   UNL A   1      40.018  27.905  27.585  1.00  0.00     0.031 C 
ATOM     37  C   UNL A   1      37.800  31.951  32.711  1.00  0.00     0.029 A 
ATOM     38  C   UNL A   1      39.027  31.213  32.991  1.00  0.00     0.049 A 
ATOM     39  H   UNL A   1      40.048  29.927  31.707  1.00  0.00     0.167 HD
ATOM     40  C   UNL A   1      41.987  27.130  28.891  1.00  0.00     0.034 A 
ATOM     41  C   UNL A   1      39.711  31.246  34.152  1.00  0.00     0.034 A 
ATOM     42  C   UNL A   1      42.794  27.109  30.088  1.00  0.00     0.049 A 
ATOM     43  C   UNL A   1      40.937  30.379  34.288  1.00  0.00     0.074 A 
ATOM     44  C   UNL A   1      43.971  26.421  30.325  1.00  0.00     0.029 A 
ATOM     45  N   UNL A   1      42.505  27.812  31.254  1.00  0.00    -0.354 N 
ATOM     46  N   UNL A   1      41.481  29.575  33.403  1.00  0.00    -0.248 NA
ATOM     47  C   UNL A   1      41.635  30.418  35.578  1.00  0.00     0.031 C 
ATOM     48  C   UNL A   1      44.354  26.649  31.652  1.00  0.00     0.029 A 
ATOM     49  C   UNL A   1      43.463  27.547  32.222  1.00  0.00     0.049 A 
ATOM     50  H   UNL A   1      41.733  28.410  31.375  1.00  0.00     0.167 HD
ATOM     51  C   UNL A   1      42.597  29.024  34.026  1.00  0.00     0.074 A 
ATOM     52  C   UNL A   1      42.657  29.606  35.354  1.00  0.00     0.031 C 
ATOM     53  C   UNL A   1      43.494  28.123  33.548  1.00  0.00     0.034 A 
BRANCH  40  54
ATOM     54  C   UNL A   1      42.374  26.255  27.722  1.00  0.00     0.023 A 
ATOM     55  C   UNL A   1      41.873  24.950  27.562  1.00  0.00     0.031 A 
ATOM     56  C   UNL A   1      43.311  26.716  26.779  1.00  0.00     0.131 A 
ATOM     57  C   UNL A   1      42.376  24.127  26.542  1.00  0.00     0.055 A 
ATOM     58  C   UNL A   1      43.742  25.923  25.715  1.00  0.00     0.041 A 
ATOM     59  F   UNL A   1      43.845  27.943  26.890  1.00  0.00    -0.206 F 
ATOM     60  C   UNL A   1      43.289  24.612  25.602  1.00  0.00     0.022 A 
BRANCH  57  61
ATOM     61  S   UNL A   1      41.953  22.362  26.563  1.00  0.00     0.124 S 
ATOM     62  O   UNL A   1      42.659  21.874  25.382  1.00  0.00    -0.237 OA
ATOM     63  O   UNL A   1      42.484  21.926  27.850  1.00  0.00    -0.237 OA
ATOM     64  O   UNL A   1      40.496  22.357  26.455  1.00  0.00    -0.744 OA
ENDBRANCH  57  61
ENDBRANCH  40  54
BRANCH  41  65
ATOM     65  C   UNL A   1      39.214  32.064  35.296  1.00  0.00     0.023 A 
ATOM     66  C   UNL A   1      39.684  33.366  35.524  1.00  0.00     0.031 A 
ATOM     67  C   UNL A   1      38.272  31.537  36.200  1.00  0.00     0.131 A 
ATOM     68  C   UNL A   1      39.236  34.086  36.644  1.00  0.00     0.055 A 
ATOM     69  C   UNL A   1      37.787  32.277  37.279  1.00  0.00     0.041 A 
ATOM     70  F   UNL A   1      37.791  30.294  36.033  1.00  0.00    -0.206 F 
ATOM     71  C   UNL A   1      38.278  33.556  37.512  1.00  0.00     0.022 A 
BRANCH  68  72
ATOM     72  S   UNL A   1      39.976  35.704  36.993  1.00  0.00     0.124 S 
ATOM     73  O   UNL A   1      41.380  35.356  37.176  1.00  0.00    -0.237 OA
ATOM     74  O   UNL A   1      39.652  36.455  35.785  1.00  0.00    -0.237 OA
ATOM     75  O   UNL A   1      39.279  36.143  38.202  1.00  0.00    -0.744 OA
ENDBRANCH  68  72
ENDBRANCH  41  65
BRANCH  53  76
ATOM     76  C   UNL A   1      44.635  27.748  34.461  1.00  0.00     0.023 A 
ATOM     77  C   UNL A   1      44.537  26.677  35.366  1.00  0.00     0.031 A 
ATOM     78  C   UNL A   1      45.832  28.486  34.434  1.00  0.00     0.131 A 
ATOM     79  C   UNL A   1      45.595  26.410  36.248  1.00  0.00     0.055 A 
ATOM     80  C   UNL A   1      46.905  28.177  35.269  1.00  0.00     0.041 A 
ATOM     81  F   UNL A   1      45.978  29.521  33.591  1.00  0.00    -0.206 F 
ATOM     82  C   UNL A   1      46.785  27.142  36.194  1.00  0.00     0.022 A 
BRANCH  79  83
ATOM     83  S   UNL A   1      45.361  25.156  37.536  1.00  0.00     0.124 S 
ATOM     84  O   UNL A   1      44.744  24.065  36.790  1.00  0.00    -0.237 OA
ATOM     85  O   UNL A   1      46.726  24.921  37.996  1.00  0.00    -0.237 OA
ATOM     86  O   UNL A   1      44.487  25.816  38.505  1.00  0.00    -0.744 OA
ENDBRANCH  79  83
ENDBRANCH  53  76
ENDBRANCH  27  28
ENDBRANCH  20  22
ENDBRANCH  19  20
ENDBRANCH  18  19
ENDBRANCH   1  18
TORSDOF 17
ENDMDL
MODEL 2
REMARK VINA RESULT:     -10.4      5.336     10.266
REMARK SMILES CC(C)(C)[NH2+]Cc1cc(C(=O)OCCOC(=O)c2ccc(-c3c4nc(c(-c5cc(S(=O)(=O)[O-])ccc5F)c5ccc([nH]5)c(-c5cc(S(=O)(=O)[O-])ccc5F)c5nc(c(-c6cc(S(=O)(=O)[O-])ccc6F)c6ccc3[nH]6)C=C5)C=C4)cc2)cs1
REMARK SMILES IDX 13 1 12 2 10 3 11 4 9 5 7 6 8 7 82 8 81 9 6 10 5 11 2 14
REMARK SMILES IDX 1 15 3 16 4 17 14 18 15 19 16 20 17 21 18 22 19 23 80 24
REMARK SMILES IDX 20 25 79 26 21 27 22 28 23 29 73 30 24 31 78 32 72 33 74 34
REMARK SMILES IDX 25 35 77 36 71 37 70 38 26 40 58 41 38 42 57 43 39 44 42 45
REMARK SMILES IDX 56 46 75 47 40 48 41 49 55 51 76 52 43 53 27 54 28 55 36 56
REMARK SMILES IDX 29 57 35 58 37 59 34 60 30 61 31 62 32 63 33 64 59 65 60 66
REMARK SMILES IDX 68 67 61 68 67 69 69 70 66 71 62 72 63 73 64 74 65 75 44 76
REMARK SMILES IDX 45 77 53 78 46 79 52 80 54 81 51 82 47 83 48 84 49 85 50 86
REMARK H PARENT 5 12 5 13 74 39 42 50
REMARK Flexibility Score: inf
ROOT
ATOM      1  C   UNL A   1      35.670  21.056  24.678  1.00  0.00     0.275 C 
ENDROOT
BRANCH   1   2
ATOM      2  O   UNL A   1      35.034  21.511  25.882  1.00  0.00    -0.458 OA
BRANCH   2   3
ATOM      3  C   UNL A   1      33.700  21.234  26.014  1.00  0.00     0.339 C 
ATOM      4  O   UNL A   1      33.227  20.115  26.098  1.00  0.00    -0.246 OA
BRANCH   3   5
ATOM      5  C   UNL A   1      32.892  22.451  25.983  1.00  0.00     0.071 A 
ATOM      6  C   UNL A   1      32.537  24.706  25.606  1.00  0.00     0.060 A 
ATOM      7  C   UNL A   1      33.359  23.783  26.222  1.00  0.00     0.037 A 
ATOM      8  S   UNL A   1      30.964  24.051  25.410  1.00  0.00    -0.142 S 
ATOM      9  C   UNL A   1      31.534  22.467  25.724  1.00  0.00     0.081 A 
BRANCH   6  10
ATOM     10  C   UNL A   1      32.847  26.093  25.135  1.00  0.00     0.308 C 
BRANCH  10  11
ATOM     11  N   UNL A   1      31.867  27.102  25.557  1.00  0.00    -0.338 N 
ATOM     12  H   UNL A   1      31.421  27.449  24.708  1.00  0.00     0.347 HD
ATOM     13  H   UNL A   1      31.290  26.594  26.226  1.00  0.00     0.347 HD
BRANCH  11  14
ATOM     14  C   UNL A   1      32.292  28.288  26.323  1.00  0.00     0.088 C 
ATOM     15  C   UNL A   1      31.869  29.618  25.682  1.00  0.00     0.078 C 
ATOM     16  C   UNL A   1      33.802  28.354  26.625  1.00  0.00     0.078 C 
ATOM     17  C   UNL A   1      31.583  28.145  27.685  1.00  0.00     0.078 C 
ENDBRANCH  11  14
ENDBRANCH  10  11
ENDBRANCH   6  10
ENDBRANCH   3   5
ENDBRANCH   2   3
ENDBRANCH   1   2
BRANCH   1  18
ATOM     18  C   UNL A   1      37.126  20.676  24.945  1.00  0.00     0.275 C 
BRANCH  18  19
ATOM     19  O   UNL A   1      37.704  21.523  25.953  1.00  0.00    -0.458 OA
BRANCH  19  20
ATOM     20  C   UNL A   1      39.025  21.320  26.179  1.00  0.00     0.338 C 
ATOM     21  O   UNL A   1      39.685  20.345  25.861  1.00  0.00    -0.246 OA
BRANCH  20  22
ATOM     22  C   UNL A   1      39.615  22.552  26.723  1.00  0.00     0.060 A 
ATOM     23  C   UNL A   1      39.185  23.765  26.186  1.00  0.00     0.016 A 
ATOM     24  C   UNL A   1      40.628  22.522  27.679  1.00  0.00     0.016 A 
ATOM     25  C   UNL A   1      39.751  24.960  26.598  1.00  0.00     0.010 A 
ATOM     26  C   UNL A   1      41.199  23.729  28.101  1.00  0.00     0.010 A 
ATOM     27  C   UNL A   1      40.769  24.956  27.556  1.00  0.00    -0.014 A 
BRANCH  27  28
ATOM     28  C   UNL A   1      41.432  26.236  27.899  1.00  0.00     0.031 A 
ATOM     29  C   UNL A   1      40.676  27.269  28.684  1.00  0.00     0.074 A 
ATOM     30  C   UNL A   1      42.723  26.437  27.572  1.00  0.00     0.049 A 
ATOM     31  N   UNL A   1      41.018  28.491  28.993  1.00  0.00    -0.248 NA
ATOM     32  C   UNL A   1      39.351  26.868  29.177  1.00  0.00     0.031 C 
ATOM     33  C   UNL A   1      43.580  25.464  26.890  1.00  0.00     0.029 A 
ATOM     34  N   UNL A   1      43.543  27.517  27.778  1.00  0.00    -0.354 N 
ATOM     35  C   UNL A   1      39.936  29.023  29.684  1.00  0.00     0.074 A 
ATOM     36  C   UNL A   1      38.920  27.992  29.729  1.00  0.00     0.031 C 
ATOM     37  C   UNL A   1      44.808  25.988  26.748  1.00  0.00     0.029 A 
ATOM     38  C   UNL A   1      44.805  27.356  27.255  1.00  0.00     0.049 A 
ATOM     39  H   UNL A   1      43.256  28.329  28.254  1.00  0.00     0.167 HD
ATOM     40  C   UNL A   1      39.808  30.260  30.228  1.00  0.00     0.034 A 
ATOM     41  C   UNL A   1      45.827  28.229  27.154  1.00  0.00     0.034 A 
ATOM     42  C   UNL A   1      40.848  31.259  30.181  1.00  0.00     0.049 A 
ATOM     43  C   UNL A   1      45.635  29.624  27.692  1.00  0.00     0.074 A 
ATOM     44  C   UNL A   1      40.835  32.546  30.692  1.00  0.00     0.029 A 
ATOM     45  N   UNL A   1      42.094  31.084  29.588  1.00  0.00    -0.354 N 
ATOM     46  N   UNL A   1      44.585  30.141  28.290  1.00  0.00    -0.248 NA
ATOM     47  C   UNL A   1      46.758  30.554  27.535  1.00  0.00     0.031 C 
ATOM     48  C   UNL A   1      42.039  33.169  30.346  1.00  0.00     0.029 A 
ATOM     49  C   UNL A   1      42.843  32.248  29.690  1.00  0.00     0.049 A 
ATOM     50  H   UNL A   1      42.401  30.254  29.156  1.00  0.00     0.167 HD
ATOM     51  C   UNL A   1      44.931  31.454  28.596  1.00  0.00     0.074 A 
ATOM     52  C   UNL A   1      46.293  31.640  28.134  1.00  0.00     0.031 C 
ATOM     53  C   UNL A   1      44.194  32.419  29.205  1.00  0.00     0.034 A 
BRANCH  40  54
ATOM     54  C   UNL A   1      38.470  30.612  30.835  1.00  0.00     0.023 A 
ATOM     55  C   UNL A   1      37.443  31.220  30.091  1.00  0.00     0.031 A 
ATOM     56  C   UNL A   1      38.239  30.386  32.205  1.00  0.00     0.131 A 
ATOM     57  C   UNL A   1      36.276  31.660  30.735  1.00  0.00     0.055 A 
ATOM     58  C   UNL A   1      37.041  30.747  32.822  1.00  0.00     0.041 A 
ATOM     59  F   UNL A   1      39.188  29.832  32.975  1.00  0.00    -0.206 F 
ATOM     60  C   UNL A   1      36.057  31.405  32.091  1.00  0.00     0.022 A 
BRANCH  57  61
ATOM     61  S   UNL A   1      35.125  32.722  29.818  1.00  0.00     0.124 S 
ATOM     62  O   UNL A   1      36.025  33.737  29.278  1.00  0.00    -0.237 OA
ATOM     63  O   UNL A   1      34.549  31.798  28.848  1.00  0.00    -0.237 OA
ATOM     64  O   UNL A   1      34.205  33.200  30.847  1.00  0.00    -0.744 OA
ENDBRANCH  57  61
ENDBRANCH  40  54
BRANCH  41  65
ATOM     65  C   UNL A   1      47.085  27.838  26.457  1.00  0.00     0.023 A 
ATOM     66  C   UNL A   1      47.227  27.975  25.068  1.00  0.00     0.031 A 
ATOM     67  C   UNL A   1      48.164  27.289  27.177  1.00  0.00     0.131 A 
ATOM     68  C   UNL A   1      48.406  27.543  24.438  1.00  0.00     0.055 A 
ATOM     69  C   UNL A   1      49.355  26.913  26.554  1.00  0.00     0.041 A 
ATOM     70  F   UNL A   1      48.082  27.129  28.508  1.00  0.00    -0.206 F 
ATOM     71  C   UNL A   1      49.477  27.029  25.175  1.00  0.00     0.022 A 
BRANCH  68  72
ATOM     72  S   UNL A   1      48.497  27.596  22.628  1.00  0.00     0.124 S 
ATOM     73  O   UNL A   1      47.273  28.312  22.290  1.00  0.00    -0.237 OA
ATOM     74  O   UNL A   1      49.746  28.316  22.407  1.00  0.00    -0.237 OA
ATOM     75  O   UNL A   1      48.519  26.184  22.248  1.00  0.00    -0.744 OA
ENDBRANCH  68  72
ENDBRANCH  41  65
BRANCH  53  76
ATOM     76  C   UNL A   1      44.870  33.748  29.437  1.00  0.00     0.023 A 
ATOM     77  C   UNL A   1      44.722  34.820  28.540  1.00  0.00     0.031 A 
ATOM     78  C   UNL A   1      45.689  33.936  30.564  1.00  0.00     0.131 A 
ATOM     79  C   UNL A   1      45.428  36.013  28.756  1.00  0.00     0.055 A 
ATOM     80  C   UNL A   1      46.339  35.145  30.808  1.00  0.00     0.041 A 
ATOM     81  F   UNL A   1      45.868  32.943  31.451  1.00  0.00    -0.206 F 
ATOM     82  C   UNL A   1      46.222  36.188  29.893  1.00  0.00     0.022 A 
BRANCH  79  83
ATOM     83  S   UNL A   1      45.375  37.301  27.480  1.00  0.00     0.124 S 
ATOM     84  O   UNL A   1      45.634  38.508  28.257  1.00  0.00    -0.237 OA
ATOM     85  O   UNL A   1      46.440  36.886  26.573  1.00  0.00    -0.237 OA
ATOM     86  O   UNL A   1      44.022  37.191  26.937  1.00  0.00    -0.744 OA
ENDBRANCH  79  83
ENDBRANCH  53  76
ENDBRANCH  27  28
ENDBRANCH  20  22
ENDBRANCH  19  20
ENDBRANCH  18  19
ENDBRANCH   1  18
TORSDOF 17
ENDMDL
MODEL 3
REMARK VINA RESULT:     -10.3      1.820      2.316
REMARK SMILES CC(C)(C)[NH2+]Cc1cc(C(=O)OCCOC(=O)c2ccc(-c3c4nc(c(-c5cc(S(=O)(=O)[O-])ccc5F)c5ccc([nH]5)c(-c5cc(S(=O)(=O)[O-])ccc5F)c5nc(c(-c6cc(S(=O)(=O)[O-])ccc6F)c6ccc3[nH]6)C=C5)C=C4)cc2)cs1
REMARK SMILES IDX 13 1 12 2 10 3 11 4 9 5 7 6 8 7 82 8 81 9 6 10 5 11 2 14
REMARK SMILES IDX 1 15 3 16 4 17 14 18 15 19 16 20 17 21 18 22 19 23 80 24
REMARK SMILES IDX 20 25 79 26 21 27 22 28 23 29 73 30 24 31 78 32 72 33 74 34
REMARK SMILES IDX 25 35 77 36 71 37 70 38 26 40 58 41 38 42 57 43 39 44 42 45
REMARK SMILES IDX 56 46 75 47 40 48 41 49 55 51 76 52 43 53 27 54 28 55 36 56
REMARK SMILES IDX 29 57 35 58 37 59 34 60 30 61 31 62 32 63 33 64 59 65 60 66
REMARK SMILES IDX 68 67 61 68 67 69 69 70 66 71 62 72 63 73 64 74 65 75 44 76
REMARK SMILES IDX 45 77 53 78 46 79 52 80 54 81 51 82 47 83 48 84 49 85 50 86
REMARK H PARENT 5 12 5 13 74 39 42 50
REMARK Flexibility Score: inf
ROOT
ATOM      1  C   UNL A   1      31.962  28.677  25.184  1.00  0.00     0.275 C 
ENDROOT
BRANCH   1   2
ATOM      2  O   UNL A   1      32.199  27.799  26.294  1.00  0.00    -0.458 OA
BRANCH   2   3
ATOM      3  C   UNL A   1      31.429  26.670  26.359  1.00  0.00     0.339 C 
ATOM      4  O   UNL A   1      30.308  26.619  26.833  1.00  0.00    -0.246 OA
BRANCH   3   5
ATOM      5  C   UNL A   1      32.139  25.503  25.840  1.00  0.00     0.071 A 
ATOM      6  C   UNL A   1      33.682  23.783  25.955  1.00  0.00     0.060 A 
ATOM      7  C   UNL A   1      33.493  25.140  26.128  1.00  0.00     0.037 A 
ATOM      8  S   UNL A   1      32.533  23.169  24.838  1.00  0.00    -0.142 S 
ATOM      9  C   UNL A   1      31.579  24.585  24.970  1.00  0.00     0.081 A 
BRANCH   6  10
ATOM     10  C   UNL A   1      34.692  22.874  26.582  1.00  0.00     0.308 C 
BRANCH  10  11
ATOM     11  N   UNL A   1      36.001  22.879  25.916  1.00  0.00    -0.338 N 
ATOM     12  H   UNL A   1      36.086  23.781  25.447  1.00  0.00     0.347 HD
ATOM     13  H   UNL A   1      36.646  22.675  26.679  1.00  0.00     0.347 HD
BRANCH  11  14
ATOM     14  C   UNL A   1      36.339  21.852  24.915  1.00  0.00     0.088 C 
ATOM     15  C   UNL A   1      35.378  20.653  24.916  1.00  0.00     0.078 C 
ATOM     16  C   UNL A   1      37.781  21.317  25.000  1.00  0.00     0.078 C 
ATOM     17  C   UNL A   1      36.225  22.578  23.559  1.00  0.00     0.078 C 
ENDBRANCH  11  14
ENDBRANCH  10  11
ENDBRANCH   6  10
ENDBRANCH   3   5
ENDBRANCH   2   3
ENDBRANCH   1   2
BRANCH   1  18
ATOM     18  C   UNL A   1      32.494  30.080  25.479  1.00  0.00     0.275 C 
BRANCH  18  19
ATOM     19  O   UNL A   1      32.570  30.314  26.896  1.00  0.00    -0.458 OA
BRANCH  19  20
ATOM     20  C   UNL A   1      33.170  31.478  27.249  1.00  0.00     0.338 C 
ATOM     21  O   UNL A   1      32.677  32.592  27.240  1.00  0.00    -0.246 OA
BRANCH  20  22
ATOM     22  C   UNL A   1      34.487  31.182  27.831  1.00  0.00     0.060 A 
ATOM     23  C   UNL A   1      34.713  29.885  28.291  1.00  0.00     0.016 A 
ATOM     24  C   UNL A   1      35.455  32.170  28.002  1.00  0.00     0.016 A 
ATOM     25  C   UNL A   1      35.903  29.555  28.919  1.00  0.00     0.010 A 
ATOM     26  C   UNL A   1      36.661  31.838  28.631  1.00  0.00     0.010 A 
ATOM     27  C   UNL A   1      36.889  30.529  29.101  1.00  0.00    -0.014 A 
BRANCH  27  28
ATOM     28  C   UNL A   1      38.106  30.178  29.871  1.00  0.00     0.031 A 
ATOM     29  C   UNL A   1      39.112  29.242  29.268  1.00  0.00     0.074 A 
ATOM     30  C   UNL A   1      38.338  30.753  31.067  1.00  0.00     0.049 A 
ATOM     31  N   UNL A   1      40.181  28.715  29.804  1.00  0.00    -0.248 NA
ATOM     32  C   UNL A   1      38.873  28.840  27.875  1.00  0.00     0.031 C 
ATOM     33  C   UNL A   1      37.472  31.747  31.706  1.00  0.00     0.029 A 
ATOM     34  N   UNL A   1      39.373  30.595  31.952  1.00  0.00    -0.354 N 
ATOM     35  C   UNL A   1      40.724  27.887  28.828  1.00  0.00     0.074 A 
ATOM     36  C   UNL A   1      39.851  27.970  27.675  1.00  0.00     0.031 C 
ATOM     37  C   UNL A   1      38.021  32.119  32.873  1.00  0.00     0.029 A 
ATOM     38  C   UNL A   1      39.231  31.337  33.101  1.00  0.00     0.049 A 
ATOM     39  H   UNL A   1      40.144  30.008  31.780  1.00  0.00     0.167 HD
ATOM     40  C   UNL A   1      41.848  27.129  28.895  1.00  0.00     0.034 A 
ATOM     41  C   UNL A   1      39.968  31.349  34.230  1.00  0.00     0.034 A 
ATOM     42  C   UNL A   1      42.707  27.083  30.054  1.00  0.00     0.049 A 
ATOM     43  C   UNL A   1      41.167  30.439  34.315  1.00  0.00     0.074 A 
ATOM     44  C   UNL A   1      43.868  26.353  30.242  1.00  0.00     0.029 A 
ATOM     45  N   UNL A   1      42.499  27.801  31.228  1.00  0.00    -0.354 N 
ATOM     46  N   UNL A   1      41.640  29.610  33.411  1.00  0.00    -0.248 NA
ATOM     47  C   UNL A   1      41.924  30.457  35.571  1.00  0.00     0.031 C 
ATOM     48  C   UNL A   1      44.319  26.573  31.548  1.00  0.00     0.029 A 
ATOM     49  C   UNL A   1      43.489  27.505  32.153  1.00  0.00     0.049 A 
ATOM     50  H   UNL A   1      41.755  28.429  31.380  1.00  0.00     0.167 HD
ATOM     51  C   UNL A   1      42.762  29.022  33.986  1.00  0.00     0.074 A 
ATOM     52  C   UNL A   1      42.904  29.607  35.305  1.00  0.00     0.031 C 
ATOM     53  C   UNL A   1      43.602  28.086  33.472  1.00  0.00     0.034 A 
BRANCH  40  54
ATOM     54  C   UNL A   1      42.148  26.234  27.715  1.00  0.00     0.023 A 
ATOM     55  C   UNL A   1      41.694  24.905  27.645  1.00  0.00     0.031 A 
ATOM     56  C   UNL A   1      42.957  26.706  26.665  1.00  0.00     0.131 A 
ATOM     57  C   UNL A   1      42.124  24.072  26.599  1.00  0.00     0.055 A 
ATOM     58  C   UNL A   1      43.309  25.899  25.582  1.00  0.00     0.041 A 
ATOM     59  F   UNL A   1      43.442  27.957  26.685  1.00  0.00    -0.206 F 
ATOM     60  C   UNL A   1      42.907  24.567  25.554  1.00  0.00     0.022 A 
BRANCH  57  61
ATOM     61  S   UNL A   1      41.788  22.292  26.713  1.00  0.00     0.124 S 
ATOM     62  O   UNL A   1      42.719  21.882  27.760  1.00  0.00    -0.237 OA
ATOM     63  O   UNL A   1      40.373  22.261  27.068  1.00  0.00    -0.237 OA
ATOM     64  O   UNL A   1      42.107  21.797  25.376  1.00  0.00    -0.744 OA
ENDBRANCH  57  61
ENDBRANCH  40  54
BRANCH  41  65
ATOM     65  C   UNL A   1      39.555  32.190  35.389  1.00  0.00     0.023 A 
ATOM     66  C   UNL A   1      38.771  31.670  36.430  1.00  0.00     0.031 A 
ATOM     67  C   UNL A   1      39.921  33.549  35.458  1.00  0.00     0.131 A 
ATOM     68  C   UNL A   1      38.353  32.507  37.478  1.00  0.00     0.055 A 
ATOM     69  C   UNL A   1      39.550  34.362  36.529  1.00  0.00     0.041 A 
ATOM     70  F   UNL A   1      40.667  34.101  34.487  1.00  0.00    -0.206 F 
ATOM     71  C   UNL A   1      38.752  33.844  37.542  1.00  0.00     0.022 A 
BRANCH  68  72
ATOM     72  S   UNL A   1      37.217  31.842  38.725  1.00  0.00     0.124 S 
ATOM     73  O   UNL A   1      37.984  32.023  39.952  1.00  0.00    -0.237 OA
ATOM     74  O   UNL A   1      36.050  32.701  38.563  1.00  0.00    -0.237 OA
ATOM     75  O   UNL A   1      37.027  30.453  38.306  1.00  0.00    -0.744 OA
ENDBRANCH  68  72
ENDBRANCH  41  65
BRANCH  53  76
ATOM     76  C   UNL A   1      44.770  27.673  34.335  1.00  0.00     0.023 A 
ATOM     77  C   UNL A   1      44.688  26.583  35.219  1.00  0.00     0.031 A 
ATOM     78  C   UNL A   1      45.976  28.393  34.280  1.00  0.00     0.131 A 
ATOM     79  C   UNL A   1      45.772  26.281  36.055  1.00  0.00     0.055 A 
ATOM     80  C   UNL A   1      47.074  28.049  35.069  1.00  0.00     0.041 A 
ATOM     81  F   UNL A   1      46.108  29.444  33.455  1.00  0.00    -0.206 F 
ATOM     82  C   UNL A   1      46.971  26.995  35.974  1.00  0.00     0.022 A 
BRANCH  79  83
ATOM     83  S   UNL A   1      45.565  25.001  37.323  1.00  0.00     0.124 S 
ATOM     84  O   UNL A   1      46.816  25.105  38.067  1.00  0.00    -0.237 OA
ATOM     85  O   UNL A   1      44.366  25.448  38.026  1.00  0.00    -0.237 OA
ATOM     86  O   UNL A   1      45.405  23.771  36.549  1.00  0.00    -0.744 OA
ENDBRANCH  79  83
ENDBRANCH  53  76
ENDBRANCH  27  28
ENDBRANCH  20  22
ENDBRANCH  19  20
ENDBRANCH  18  19
ENDBRANCH   1  18
TORSDOF 17
ENDMDL
