MODEL 1
REMARK VINA RESULT:     -10.0      0.000      0.000
REMARK SMILES COC(=O)c1ccc([C@H]2Nc3c(C(=O)OCCOC(=O)c4ccc(-c5c6nc(c(-c7cc(S(=O)(=O)[O-])ccc7F)c7ccc([nH]7)c(-c7cc(S(=O)(=O)[O-])ccc7F)c7nc(c(-c8cc(S(=O)(=O)[O-])ccc8F)c8ccc5[nH]8)C=C7)C=C6)cc4)cccc3[C@H]3[C@H]4CC[C@H](C4)[C@H]32)cc1
REMARK SMILES IDX 16 1 15 2 13 3 14 4 12 5 9 6 10 7 94 8 11 9 88 11 92 12
REMARK SMILES IDX 87 13 89 14 91 15 93 16 84 17 86 18 90 19 85 20 8 21 5 22
REMARK SMILES IDX 6 23 96 24 7 25 95 26 3 27 4 28 2 29 1 30 17 31 18 32 19 33
REMARK SMILES IDX 20 34 21 35 22 36 83 37 23 38 82 39 24 40 25 41 26 42 76 43
REMARK SMILES IDX 27 44 81 45 75 46 77 47 28 48 80 49 74 50 73 51 29 53 61 54
REMARK SMILES IDX 41 55 60 56 42 57 45 58 59 59 78 60 43 61 44 62 58 64 79 65
REMARK SMILES IDX 46 66 30 67 31 68 39 69 32 70 38 71 40 72 37 73 33 74 34 75
REMARK SMILES IDX 35 76 36 77 62 78 63 79 71 80 64 81 70 82 72 83 69 84 65 85
REMARK SMILES IDX 66 86 67 87 68 88 47 89 48 90 56 91 49 92 55 93 57 94 54 95
REMARK SMILES IDX 50 96 51 97 52 98 53 99
REMARK H PARENT 10 10 77 52 45 63
REMARK Flexibility Score: inf
ROOT
ATOM      1  C   UNL A   1      35.152  34.417  28.999  1.00  0.00     0.275 C 
ENDROOT
BRANCH   1   2
ATOM      2  O   UNL A   1      35.830  33.818  30.120  1.00  0.00    -0.458 OA
BRANCH   2   3
ATOM      3  C   UNL A   1      35.061  33.405  31.163  1.00  0.00     0.340 C 
ATOM      4  O   UNL A   1      33.941  33.792  31.448  1.00  0.00    -0.246 OA
BRANCH   3   5
ATOM      5  C   UNL A   1      35.898  32.508  31.980  1.00  0.00     0.083 A 
ATOM      6  C   UNL A   1      38.097  34.642  34.047  1.00  0.00     0.113 C 
ATOM      7  N   UNL A   1      36.754  34.274  33.499  1.00  0.00    -0.377 N 
ATOM      8  C   UNL A   1      38.235  33.819  35.364  1.00  0.00     0.027 C 
ATOM      9  C   UNL A   1      36.615  32.928  33.111  1.00  0.00     0.053 A 
ATOM     10  H   UNL A   1      36.020  34.925  33.416  1.00  0.00     0.161 HD
ATOM     11  C   UNL A   1      37.592  32.402  35.323  1.00  0.00     0.030 C 
ATOM     12  C   UNL A   1      39.508  33.587  36.221  1.00  0.00    -0.005 C 
ATOM     13  C   UNL A   1      37.185  31.947  33.947  1.00  0.00    -0.020 A 
ATOM     14  C   UNL A   1      38.523  31.566  36.226  1.00  0.00    -0.003 C 
ATOM     15  C   UNL A   1      40.574  32.638  35.648  1.00  0.00     0.004 C 
ATOM     16  C   UNL A   1      38.920  32.617  37.276  1.00  0.00     0.008 C 
ATOM     17  C   UNL A   1      35.956  31.171  31.561  1.00  0.00     0.018 A 
ATOM     18  C   UNL A   1      37.203  30.607  33.543  1.00  0.00     0.006 A 
ATOM     19  C   UNL A   1      39.868  31.291  35.549  1.00  0.00     0.004 C 
ATOM     20  C   UNL A   1      36.639  30.230  32.325  1.00  0.00     0.001 A 
BRANCH   6  21
ATOM     21  C   UNL A   1      39.146  34.625  32.930  1.00  0.00    -0.025 A 
ATOM     22  C   UNL A   1      41.035  34.177  30.882  1.00  0.00     0.060 A 
ATOM     23  C   UNL A   1      39.692  34.321  30.557  1.00  0.00     0.016 A 
ATOM     24  C   UNL A   1      41.458  34.464  32.181  1.00  0.00     0.016 A 
ATOM     25  C   UNL A   1      38.767  34.559  31.574  1.00  0.00     0.007 A 
ATOM     26  C   UNL A   1      40.513  34.754  33.178  1.00  0.00     0.007 A 
BRANCH  22  27
ATOM     27  C   UNL A   1      41.950  33.660  29.842  1.00  0.00     0.337 C 
ATOM     28  O   UNL A   1      42.403  32.528  29.820  1.00  0.00    -0.246 OA
BRANCH  27  29
ATOM     29  O   UNL A   1      42.333  34.701  29.057  1.00  0.00    -0.465 OA
ATOM     30  C   UNL A   1      43.426  34.430  28.179  1.00  0.00     0.282 C 
ENDBRANCH  27  29
ENDBRANCH  22  27
ENDBRANCH   6  21
ENDBRANCH   3   5
ENDBRANCH   2   3
ENDBRANCH   1   2
BRANCH   1  31
ATOM     31  C   UNL A   1      34.704  33.338  28.019  1.00  0.00     0.275 C 
BRANCH  31  32
ATOM     32  O   UNL A   1      35.840  32.523  27.696  1.00  0.00    -0.458 OA
BRANCH  32  33
ATOM     33  C   UNL A   1      35.663  31.189  27.818  1.00  0.00     0.338 C 
ATOM     34  O   UNL A   1      34.735  30.519  27.404  1.00  0.00    -0.246 OA
BRANCH  33  35
ATOM     35  C   UNL A   1      36.827  30.618  28.512  1.00  0.00     0.060 A 
ATOM     36  C   UNL A   1      37.919  31.435  28.785  1.00  0.00     0.016 A 
ATOM     37  C   UNL A   1      36.902  29.247  28.747  1.00  0.00     0.016 A 
ATOM     38  C   UNL A   1      39.131  30.864  29.166  1.00  0.00     0.010 A 
ATOM     39  C   UNL A   1      38.088  28.697  29.250  1.00  0.00     0.010 A 
ATOM     40  C   UNL A   1      39.240  29.488  29.413  1.00  0.00    -0.014 A 
BRANCH  40  41
ATOM     41  C   UNL A   1      40.558  28.875  29.771  1.00  0.00     0.031 A 
ATOM     42  C   UNL A   1      41.346  29.404  30.947  1.00  0.00     0.074 A 
ATOM     43  C   UNL A   1      41.050  27.827  29.076  1.00  0.00     0.049 A 
ATOM     44  N   UNL A   1      42.595  29.189  31.277  1.00  0.00    -0.248 NA
ATOM     45  C   UNL A   1      40.639  30.313  31.863  1.00  0.00     0.031 C 
ATOM     46  C   UNL A   1      40.379  27.153  27.964  1.00  0.00     0.029 A 
ATOM     47  N   UNL A   1      42.230  27.134  29.211  1.00  0.00    -0.354 N 
ATOM     48  C   UNL A   1      42.846  29.996  32.384  1.00  0.00     0.074 A 
ATOM     49  C   UNL A   1      41.614  30.702  32.671  1.00  0.00     0.031 C 
ATOM     50  C   UNL A   1      41.122  26.113  27.561  1.00  0.00     0.029 A 
ATOM     51  C   UNL A   1      42.385  26.125  28.286  1.00  0.00     0.049 A 
ATOM     52  H   UNL A   1      42.902  27.340  29.902  1.00  0.00     0.167 HD
ATOM     53  C   UNL A   1      43.999  30.139  33.087  1.00  0.00     0.034 A 
ATOM     54  C   UNL A   1      43.441  25.338  28.000  1.00  0.00     0.034 A 
ATOM     55  C   UNL A   1      45.197  29.374  32.828  1.00  0.00     0.049 A 
ATOM     56  C   UNL A   1      44.722  25.538  28.763  1.00  0.00     0.074 A 
ATOM     57  C   UNL A   1      46.416  29.429  33.482  1.00  0.00     0.029 A 
ATOM     58  N   UNL A   1      45.323  28.399  31.845  1.00  0.00    -0.354 N 
ATOM     59  N   UNL A   1      44.982  26.386  29.730  1.00  0.00    -0.248 NA
ATOM     60  C   UNL A   1      45.859  24.694  28.377  1.00  0.00     0.031 C 
ATOM     61  C   UNL A   1      47.293  28.531  32.863  1.00  0.00     0.029 A 
ATOM     62  C   UNL A   1      46.602  27.861  31.867  1.00  0.00     0.049 A 
ATOM     63  H   UNL A   1      44.609  28.129  31.224  1.00  0.00     0.167 HD
ATOM     64  C   UNL A   1      46.312  26.168  30.077  1.00  0.00     0.074 A 
ATOM     65  C   UNL A   1      46.790  25.094  29.230  1.00  0.00     0.031 C 
ATOM     66  C   UNL A   1      47.070  26.801  31.008  1.00  0.00     0.034 A 
BRANCH  53  67
ATOM     67  C   UNL A   1      44.044  31.207  34.156  1.00  0.00     0.023 A 
ATOM     68  C   UNL A   1      43.994  30.904  35.527  1.00  0.00     0.031 A 
ATOM     69  C   UNL A   1      44.125  32.563  33.786  1.00  0.00     0.131 A 
ATOM     70  C   UNL A   1      43.957  31.943  36.472  1.00  0.00     0.055 A 
ATOM     71  C   UNL A   1      44.167  33.587  34.733  1.00  0.00     0.041 A 
ATOM     72  F   UNL A   1      44.154  32.917  32.491  1.00  0.00    -0.206 F 
ATOM     73  C   UNL A   1      44.069  33.281  36.087  1.00  0.00     0.022 A 
BRANCH  70  74
ATOM     74  S   UNL A   1      43.622  31.527  38.206  1.00  0.00     0.124 S 
ATOM     75  O   UNL A   1      44.248  30.212  38.322  1.00  0.00    -0.237 OA
ATOM     76  O   UNL A   1      44.281  32.612  38.924  1.00  0.00    -0.237 OA
ATOM     77  O   UNL A   1      42.162  31.523  38.283  1.00  0.00    -0.744 OA
ENDBRANCH  70  74
ENDBRANCH  53  67
BRANCH  54  78
ATOM     78  C   UNL A   1      43.363  24.355  26.878  1.00  0.00     0.023 A 
ATOM     79  C   UNL A   1      42.704  23.126  27.030  1.00  0.00     0.031 A 
ATOM     80  C   UNL A   1      43.972  24.627  25.638  1.00  0.00     0.131 A 
ATOM     81  C   UNL A   1      42.695  22.204  25.972  1.00  0.00     0.055 A 
ATOM     82  C   UNL A   1      43.904  23.735  24.568  1.00  0.00     0.041 A 
ATOM     83  F   UNL A   1      44.626  25.783  25.441  1.00  0.00    -0.206 F 
ATOM     84  C   UNL A   1      43.270  22.509  24.735  1.00  0.00     0.022 A 
BRANCH  81  85
ATOM     85  S   UNL A   1      41.990  20.557  26.259  1.00  0.00     0.124 S 
ATOM     86  O   UNL A   1      40.569  20.800  26.039  1.00  0.00    -0.237 OA
ATOM     87  O   UNL A   1      42.666  19.755  25.245  1.00  0.00    -0.237 OA
ATOM     88  O   UNL A   1      42.366  20.261  27.640  1.00  0.00    -0.744 OA
ENDBRANCH  81  85
ENDBRANCH  54  78
BRANCH  66  89
ATOM     89  C   UNL A   1      48.484  26.306  31.181  1.00  0.00     0.023 A 
ATOM     90  C   UNL A   1      48.800  25.279  32.087  1.00  0.00     0.031 A 
ATOM     91  C   UNL A   1      49.530  26.891  30.447  1.00  0.00     0.131 A 
ATOM     92  C   UNL A   1      50.140  24.907  32.278  1.00  0.00     0.055 A 
ATOM     93  C   UNL A   1      50.853  26.479  30.601  1.00  0.00     0.041 A 
ATOM     94  F   UNL A   1      49.281  27.877  29.570  1.00  0.00    -0.206 F 
ATOM     95  C   UNL A   1      51.167  25.490  31.530  1.00  0.00     0.022 A 
BRANCH  92  96
ATOM     96  S   UNL A   1      50.535  23.712  33.583  1.00  0.00     0.124 S 
ATOM     97  O   UNL A   1      49.309  23.708  34.374  1.00  0.00    -0.237 OA
ATOM     98  O   UNL A   1      50.807  22.496  32.822  1.00  0.00    -0.237 OA
ATOM     99  O   UNL A   1      51.698  24.299  34.246  1.00  0.00    -0.744 OA
ENDBRANCH  92  96
ENDBRANCH  66  89
ENDBRANCH  40  41
ENDBRANCH  33  35
ENDBRANCH  32  33
ENDBRANCH  31  32
ENDBRANCH   1  31
TORSDOF 17
ENDMDL
MODEL 2
REMARK VINA RESULT:      -9.5      1.856      3.426
REMARK SMILES COC(=O)c1ccc([C@H]2Nc3c(C(=O)OCCOC(=O)c4ccc(-c5c6nc(c(-c7cc(S(=O)(=O)[O-])ccc7F)c7ccc([nH]7)c(-c7cc(S(=O)(=O)[O-])ccc7F)c7nc(c(-c8cc(S(=O)(=O)[O-])ccc8F)c8ccc5[nH]8)C=C7)C=C6)cc4)cccc3[C@H]3[C@H]4CC[C@H](C4)[C@H]32)cc1
REMARK SMILES IDX 16 1 15 2 13 3 14 4 12 5 9 6 10 7 94 8 11 9 88 11 92 12
REMARK SMILES IDX 87 13 89 14 91 15 93 16 84 17 86 18 90 19 85 20 8 21 5 22
REMARK SMILES IDX 6 23 96 24 7 25 95 26 3 27 4 28 2 29 1 30 17 31 18 32 19 33
REMARK SMILES IDX 20 34 21 35 22 36 83 37 23 38 82 39 24 40 25 41 26 42 76 43
REMARK SMILES IDX 27 44 81 45 75 46 77 47 28 48 80 49 74 50 73 51 29 53 61 54
REMARK SMILES IDX 41 55 60 56 42 57 45 58 59 59 78 60 43 61 44 62 58 64 79 65
REMARK SMILES IDX 46 66 30 67 31 68 39 69 32 70 38 71 40 72 37 73 33 74 34 75
REMARK SMILES IDX 35 76 36 77 62 78 63 79 71 80 64 81 70 82 72 83 69 84 65 85
REMARK SMILES IDX 66 86 67 87 68 88 47 89 48 90 56 91 49 92 55 93 57 94 54 95
REMARK SMILES IDX 50 96 51 97 52 98 53 99
REMARK H PARENT 10 10 77 52 45 63
REMARK Flexibility Score: inf
ROOT
ATOM      1  C   UNL A   1      36.140  33.650  28.449  1.00  0.00     0.275 C 
ENDROOT
BRANCH   1   2
ATOM      2  O   UNL A   1      36.694  33.131  29.674  1.00  0.00    -0.458 OA
BRANCH   2   3
ATOM      3  C   UNL A   1      38.016  32.811  29.673  1.00  0.00     0.340 C 
ATOM      4  O   UNL A   1      38.600  32.108  28.867  1.00  0.00    -0.246 OA
BRANCH   3   5
ATOM      5  C   UNL A   1      38.586  33.353  30.920  1.00  0.00     0.083 A 
ATOM      6  C   UNL A   1      36.491  32.125  33.706  1.00  0.00     0.113 C 
ATOM      7  N   UNL A   1      37.272  31.906  32.448  1.00  0.00    -0.377 N 
ATOM      8  C   UNL A   1      37.524  31.945  34.858  1.00  0.00     0.027 C 
ATOM      9  C   UNL A   1      38.277  32.857  32.195  1.00  0.00     0.053 A 
ATOM     10  H   UNL A   1      37.095  31.151  31.840  1.00  0.00     0.161 HD
ATOM     11  C   UNL A   1      38.958  32.458  34.540  1.00  0.00     0.030 C 
ATOM     12  C   UNL A   1      37.360  32.308  36.359  1.00  0.00    -0.005 C 
ATOM     13  C   UNL A   1      39.055  33.288  33.289  1.00  0.00    -0.020 A 
ATOM     14  C   UNL A   1      39.462  32.967  35.908  1.00  0.00    -0.003 C 
ATOM     15  C   UNL A   1      37.382  33.803  36.723  1.00  0.00     0.004 C 
ATOM     16  C   UNL A   1      38.786  31.959  36.853  1.00  0.00     0.008 C 
ATOM     17  C   UNL A   1      39.476  34.426  30.773  1.00  0.00     0.018 A 
ATOM     18  C   UNL A   1      39.973  34.333  33.127  1.00  0.00     0.006 A 
ATOM     19  C   UNL A   1      38.773  34.272  36.314  1.00  0.00     0.004 C 
ATOM     20  C   UNL A   1      40.140  34.938  31.883  1.00  0.00     0.001 A 
BRANCH   6  21
ATOM     21  C   UNL A   1      35.596  33.361  33.563  1.00  0.00    -0.025 A 
ATOM     22  C   UNL A   1      34.002  35.590  32.888  1.00  0.00     0.060 A 
ATOM     23  C   UNL A   1      33.421  34.330  32.970  1.00  0.00     0.016 A 
ATOM     24  C   UNL A   1      35.309  35.770  33.343  1.00  0.00     0.016 A 
ATOM     25  C   UNL A   1      34.212  33.237  33.322  1.00  0.00     0.007 A 
ATOM     26  C   UNL A   1      36.071  34.660  33.742  1.00  0.00     0.007 A 
BRANCH  22  27
ATOM     27  C   UNL A   1      33.221  36.675  32.258  1.00  0.00     0.337 C 
ATOM     28  O   UNL A   1      33.185  37.826  32.660  1.00  0.00    -0.246 OA
BRANCH  27  29
ATOM     29  O   UNL A   1      32.425  36.127  31.303  1.00  0.00    -0.465 OA
ATOM     30  C   UNL A   1      33.037  35.960  30.023  1.00  0.00     0.282 C 
ENDBRANCH  27  29
ENDBRANCH  22  27
ENDBRANCH   6  21
ENDBRANCH   3   5
ENDBRANCH   2   3
ENDBRANCH   1   2
BRANCH   1  31
ATOM     31  C   UNL A   1      34.817  32.960  28.137  1.00  0.00     0.275 C 
BRANCH  31  32
ATOM     32  O   UNL A   1      34.799  31.694  28.812  1.00  0.00    -0.458 OA
BRANCH  32  33
ATOM     33  C   UNL A   1      34.806  30.601  28.017  1.00  0.00     0.338 C 
ATOM     34  O   UNL A   1      33.988  30.289  27.172  1.00  0.00    -0.246 OA
BRANCH  33  35
ATOM     35  C   UNL A   1      36.026  29.826  28.289  1.00  0.00     0.060 A 
ATOM     36  C   UNL A   1      36.268  29.377  29.583  1.00  0.00     0.016 A 
ATOM     37  C   UNL A   1      36.999  29.680  27.303  1.00  0.00     0.016 A 
ATOM     38  C   UNL A   1      37.533  28.907  29.926  1.00  0.00     0.010 A 
ATOM     39  C   UNL A   1      38.228  29.089  27.628  1.00  0.00     0.010 A 
ATOM     40  C   UNL A   1      38.535  28.746  28.958  1.00  0.00    -0.014 A 
BRANCH  40  41
ATOM     41  C   UNL A   1      39.908  28.289  29.343  1.00  0.00     0.031 A 
ATOM     42  C   UNL A   1      40.645  28.970  30.474  1.00  0.00     0.074 A 
ATOM     43  C   UNL A   1      40.498  27.250  28.714  1.00  0.00     0.049 A 
ATOM     44  N   UNL A   1      41.910  28.899  30.805  1.00  0.00    -0.248 NA
ATOM     45  C   UNL A   1      39.855  29.864  31.335  1.00  0.00     0.031 C 
ATOM     46  C   UNL A   1      39.892  26.441  27.655  1.00  0.00     0.029 A 
ATOM     47  N   UNL A   1      41.740  26.685  28.882  1.00  0.00    -0.354 N 
ATOM     48  C   UNL A   1      42.085  29.798  31.854  1.00  0.00     0.074 A 
ATOM     49  C   UNL A   1      40.791  30.399  32.106  1.00  0.00     0.031 C 
ATOM     50  C   UNL A   1      40.731  25.454  27.314  1.00  0.00     0.029 A 
ATOM     51  C   UNL A   1      41.989  25.637  28.025  1.00  0.00     0.049 A 
ATOM     52  H   UNL A   1      42.391  27.001  29.551  1.00  0.00     0.167 HD
ATOM     53  C   UNL A   1      43.220  30.099  32.534  1.00  0.00     0.034 A 
ATOM     54  C   UNL A   1      43.116  24.939  27.781  1.00  0.00     0.034 A 
ATOM     55  C   UNL A   1      44.487  29.439  32.314  1.00  0.00     0.049 A 
ATOM     56  C   UNL A   1      44.375  25.312  28.516  1.00  0.00     0.074 A 
ATOM     57  C   UNL A   1      45.696  29.655  32.952  1.00  0.00     0.029 A 
ATOM     58  N   UNL A   1      44.703  28.417  31.398  1.00  0.00    -0.354 N 
ATOM     59  N   UNL A   1      44.554  26.244  29.423  1.00  0.00    -0.248 NA
ATOM     60  C   UNL A   1      45.587  24.559  28.176  1.00  0.00     0.031 C 
ATOM     61  C   UNL A   1      46.654  28.808  32.385  1.00  0.00     0.029 A 
ATOM     62  C   UNL A   1      46.029  28.008  31.443  1.00  0.00     0.049 A 
ATOM     63  H   UNL A   1      44.017  28.039  30.803  1.00  0.00     0.167 HD
ATOM     64  C   UNL A   1      45.899  26.180  29.770  1.00  0.00     0.074 A 
ATOM     65  C   UNL A   1      46.478  25.103  28.992  1.00  0.00     0.031 C 
ATOM     66  C   UNL A   1      46.595  26.945  30.650  1.00  0.00     0.034 A 
BRANCH  53  67
ATOM     67  C   UNL A   1      43.165  31.235  33.530  1.00  0.00     0.023 A 
ATOM     68  C   UNL A   1      43.317  32.580  33.151  1.00  0.00     0.031 A 
ATOM     69  C   UNL A   1      42.970  30.958  34.896  1.00  0.00     0.131 A 
ATOM     70  C   UNL A   1      43.339  33.585  34.131  1.00  0.00     0.055 A 
ATOM     71  C   UNL A   1      42.914  31.970  35.857  1.00  0.00     0.041 A 
ATOM     72  F   UNL A   1      42.839  29.692  35.324  1.00  0.00    -0.206 F 
ATOM     73  C   UNL A   1      43.113  33.293  35.478  1.00  0.00     0.022 A 
BRANCH  70  74
ATOM     74  S   UNL A   1      43.804  35.269  33.637  1.00  0.00     0.124 S 
ATOM     75  O   UNL A   1      42.819  36.071  34.358  1.00  0.00    -0.237 OA
ATOM     76  O   UNL A   1      45.179  35.368  34.114  1.00  0.00    -0.237 OA
ATOM     77  O   UNL A   1      43.646  35.257  32.184  1.00  0.00    -0.744 OA
ENDBRANCH  70  74
ENDBRANCH  53  67
BRANCH  54  78
ATOM     78  C   UNL A   1      43.131  23.881  26.726  1.00  0.00     0.023 A 
ATOM     79  C   UNL A   1      42.517  22.636  26.934  1.00  0.00     0.031 A 
ATOM     80  C   UNL A   1      43.786  24.095  25.499  1.00  0.00     0.131 A 
ATOM     81  C   UNL A   1      42.594  21.646  25.943  1.00  0.00     0.055 A 
ATOM     82  C   UNL A   1      43.804  23.132  24.491  1.00  0.00     0.041 A 
ATOM     83  F   UNL A   1      44.400  25.264  25.251  1.00  0.00    -0.206 F 
ATOM     84  C   UNL A   1      43.213  21.893  24.714  1.00  0.00     0.022 A 
BRANCH  81  85
ATOM     85  S   UNL A   1      41.944  19.993  26.311  1.00  0.00     0.124 S 
ATOM     86  O   UNL A   1      40.506  20.209  26.205  1.00  0.00    -0.237 OA
ATOM     87  O   UNL A   1      42.550  19.185  25.258  1.00  0.00    -0.237 OA
ATOM     88  O   UNL A   1      42.437  19.726  27.661  1.00  0.00    -0.744 OA
ENDBRANCH  81  85
ENDBRANCH  54  78
BRANCH  66  89
ATOM     89  C   UNL A   1      48.051  26.601  30.841  1.00  0.00     0.023 A 
ATOM     90  C   UNL A   1      48.461  25.587  31.724  1.00  0.00     0.031 A 
ATOM     91  C   UNL A   1      49.041  27.321  30.150  1.00  0.00     0.131 A 
ATOM     92  C   UNL A   1      49.829  25.358  31.935  1.00  0.00     0.055 A 
ATOM     93  C   UNL A   1      50.399  27.051  30.324  1.00  0.00     0.041 A 
ATOM     94  F   UNL A   1      48.703  28.301  29.298  1.00  0.00    -0.206 F 
ATOM     95  C   UNL A   1      50.800  26.073  31.229  1.00  0.00     0.022 A 
BRANCH  92  96
ATOM     96  S   UNL A   1      50.326  24.171  33.213  1.00  0.00     0.124 S 
ATOM     97  O   UNL A   1      50.886  23.084  32.417  1.00  0.00    -0.237 OA
ATOM     98  O   UNL A   1      51.283  24.942  34.001  1.00  0.00    -0.237 OA
ATOM     99  O   UNL A   1      49.073  23.857  33.897  1.00  0.00    -0.744 OA
ENDBRANCH  92  96
ENDBRANCH  66  89
ENDBRANCH  40  41
ENDBRANCH  33  35
ENDBRANCH  32  33
ENDBRANCH  31  32
ENDBRANCH   1  31
TORSDOF 17
ENDMDL
MODEL 3
REMARK VINA RESULT:      -9.3      5.666     10.226
REMARK SMILES COC(=O)c1ccc([C@H]2Nc3c(C(=O)OCCOC(=O)c4ccc(-c5c6nc(c(-c7cc(S(=O)(=O)[O-])ccc7F)c7ccc([nH]7)c(-c7cc(S(=O)(=O)[O-])ccc7F)c7nc(c(-c8cc(S(=O)(=O)[O-])ccc8F)c8ccc5[nH]8)C=C7)C=C6)cc4)cccc3[C@H]3[C@H]4CC[C@H](C4)[C@H]32)cc1
REMARK SMILES IDX 16 1 15 2 13 3 14 4 12 5 9 6 10 7 94 8 11 9 88 11 92 12
REMARK SMILES IDX 87 13 89 14 91 15 93 16 84 17 86 18 90 19 85 20 8 21 5 22
REMARK SMILES IDX 6 23 96 24 7 25 95 26 3 27 4 28 2 29 1 30 17 31 18 32 19 33
REMARK SMILES IDX 20 34 21 35 22 36 83 37 23 38 82 39 24 40 25 41 26 42 76 43
REMARK SMILES IDX 27 44 81 45 75 46 77 47 28 48 80 49 74 50 73 51 29 53 61 54
REMARK SMILES IDX 41 55 60 56 42 57 45 58 59 59 78 60 43 61 44 62 58 64 79 65
REMARK SMILES IDX 46 66 30 67 31 68 39 69 32 70 38 71 40 72 37 73 33 74 34 75
REMARK SMILES IDX 35 76 36 77 62 78 63 79 71 80 64 81 70 82 72 83 69 84 65 85
REMARK SMILES IDX 66 86 67 87 68 88 47 89 48 90 56 91 49 92 55 93 57 94 54 95
REMARK SMILES IDX 50 96 51 97 52 98 53 99
REMARK H PARENT 10 10 77 52 45 63
REMARK Flexibility Score: inf
ROOT
ATOM      1  C   UNL A   1      33.984  21.872  25.018  1.00  0.00     0.275 C 
ENDROOT
BRANCH   1   2
ATOM      2  O   UNL A   1      33.164  21.892  23.833  1.00  0.00    -0.458 OA
BRANCH   2   3
ATOM      3  C   UNL A   1      32.209  22.857  23.754  1.00  0.00     0.340 C 
ATOM      4  O   UNL A   1      31.020  22.698  23.536  1.00  0.00    -0.246 OA
BRANCH   3   5
ATOM      5  C   UNL A   1      32.907  24.154  23.830  1.00  0.00     0.083 A 
ATOM      6  C   UNL A   1      31.044  26.260  26.228  1.00  0.00     0.113 C 
ATOM      7  N   UNL A   1      31.699  24.973  25.837  1.00  0.00    -0.377 N 
ATOM      8  C   UNL A   1      32.173  27.101  26.896  1.00  0.00     0.027 C 
ATOM      9  C   UNL A   1      32.703  25.087  24.858  1.00  0.00     0.053 A 
ATOM     10  H   UNL A   1      31.446  24.108  26.235  1.00  0.00     0.161 HD
ATOM     11  C   UNL A   1      33.586  26.917  26.270  1.00  0.00     0.030 C 
ATOM     12  C   UNL A   1      32.159  28.610  27.259  1.00  0.00    -0.005 C 
ATOM     13  C   UNL A   1      33.591  26.178  24.959  1.00  0.00    -0.020 A 
ATOM     14  C   UNL A   1      34.228  28.312  26.431  1.00  0.00    -0.003 C 
ATOM     15  C   UNL A   1      32.256  29.611  26.094  1.00  0.00     0.004 C 
ATOM     16  C   UNL A   1      33.615  28.754  27.770  1.00  0.00     0.008 C 
ATOM     17  C   UNL A   1      33.809  24.428  22.792  1.00  0.00     0.018 A 
ATOM     18  C   UNL A   1      34.518  26.423  23.939  1.00  0.00     0.006 A 
ATOM     19  C   UNL A   1      33.616  29.330  25.466  1.00  0.00     0.004 C 
ATOM     20  C   UNL A   1      34.587  25.581  22.831  1.00  0.00     0.001 A 
BRANCH   6  21
ATOM     21  C   UNL A   1      30.175  26.781  25.079  1.00  0.00    -0.025 A 
ATOM     22  C   UNL A   1      28.493  28.066  23.212  1.00  0.00     0.060 A 
ATOM     23  C   UNL A   1      29.850  28.365  23.233  1.00  0.00     0.016 A 
ATOM     24  C   UNL A   1      28.020  26.989  23.962  1.00  0.00     0.016 A 
ATOM     25  C   UNL A   1      30.677  27.712  24.147  1.00  0.00     0.007 A 
ATOM     26  C   UNL A   1      28.883  26.312  24.838  1.00  0.00     0.007 A 
BRANCH  22  27
ATOM     27  C   UNL A   1      27.599  28.951  22.436  1.00  0.00     0.337 C 
ATOM     28  O   UNL A   1      26.384  28.972  22.541  1.00  0.00    -0.246 OA
BRANCH  27  29
ATOM     29  O   UNL A   1      28.339  29.573  21.481  1.00  0.00    -0.465 OA
ATOM     30  C   UNL A   1      27.876  30.869  21.100  1.00  0.00     0.282 C 
ENDBRANCH  27  29
ENDBRANCH  22  27
ENDBRANCH   6  21
ENDBRANCH   3   5
ENDBRANCH   2   3
ENDBRANCH   1   2
BRANCH   1  31
ATOM     31  C   UNL A   1      35.414  21.480  24.660  1.00  0.00     0.275 C 
BRANCH  31  32
ATOM     32  O   UNL A   1      36.270  21.862  25.747  1.00  0.00    -0.458 OA
BRANCH  32  33
ATOM     33  C   UNL A   1      37.520  21.349  25.720  1.00  0.00     0.338 C 
ATOM     34  O   UNL A   1      37.847  20.189  25.553  1.00  0.00    -0.246 OA
BRANCH  33  35
ATOM     35  C   UNL A   1      38.486  22.447  25.878  1.00  0.00     0.060 A 
ATOM     36  C   UNL A   1      39.699  22.195  26.512  1.00  0.00     0.016 A 
ATOM     37  C   UNL A   1      38.129  23.751  25.542  1.00  0.00     0.016 A 
ATOM     38  C   UNL A   1      40.492  23.258  26.933  1.00  0.00     0.010 A 
ATOM     39  C   UNL A   1      38.994  24.806  25.859  1.00  0.00     0.010 A 
ATOM     40  C   UNL A   1      40.163  24.583  26.610  1.00  0.00    -0.014 A 
BRANCH  40  41
ATOM     41  C   UNL A   1      40.993  25.724  27.111  1.00  0.00     0.031 A 
ATOM     42  C   UNL A   1      40.418  26.698  28.114  1.00  0.00     0.074 A 
ATOM     43  C   UNL A   1      42.270  25.887  26.702  1.00  0.00     0.049 A 
ATOM     44  N   UNL A   1      40.866  27.871  28.487  1.00  0.00    -0.248 NA
ATOM     45  C   UNL A   1      39.162  26.305  28.771  1.00  0.00     0.031 C 
ATOM     46  C   UNL A   1      42.994  24.995  25.797  1.00  0.00     0.029 A 
ATOM     47  N   UNL A   1      43.193  26.861  27.006  1.00  0.00    -0.354 N 
ATOM     48  C   UNL A   1      39.908  28.391  29.353  1.00  0.00     0.074 A 
ATOM     49  C   UNL A   1      38.857  27.400  29.455  1.00  0.00     0.031 C 
ATOM     50  C   UNL A   1      44.258  25.422  25.669  1.00  0.00     0.029 A 
ATOM     51  C   UNL A   1      44.400  26.692  26.366  1.00  0.00     0.049 A 
ATOM     52  H   UNL A   1      43.008  27.607  27.622  1.00  0.00     0.167 HD
ATOM     53  C   UNL A   1      39.905  29.587  29.996  1.00  0.00     0.034 A 
ATOM     54  C   UNL A   1      45.481  27.494  26.286  1.00  0.00     0.034 A 
ATOM     55  C   UNL A   1      40.996  30.533  29.937  1.00  0.00     0.049 A 
ATOM     56  C   UNL A   1      45.444  28.832  26.973  1.00  0.00     0.074 A 
ATOM     57  C   UNL A   1      41.104  31.767  30.556  1.00  0.00     0.029 A 
ATOM     58  N   UNL A   1      42.178  30.342  29.233  1.00  0.00    -0.354 N 
ATOM     59  N   UNL A   1      44.485  29.362  27.695  1.00  0.00    -0.248 NA
ATOM     60  C   UNL A   1      46.623  29.690  26.812  1.00  0.00     0.031 C 
ATOM     61  C   UNL A   1      42.322  32.345  30.182  1.00  0.00     0.029 A 
ATOM     62  C   UNL A   1      43.010  31.442  29.389  1.00  0.00     0.049 A 
ATOM     63  H   UNL A   1      42.395  29.543  28.701  1.00  0.00     0.167 HD
ATOM     64  C   UNL A   1      44.952  30.614  28.083  1.00  0.00     0.074 A 
ATOM     65  C   UNL A   1      46.286  30.747  27.535  1.00  0.00     0.031 C 
ATOM     66  C   UNL A   1      44.332  31.568  28.824  1.00  0.00     0.034 A 
BRANCH  53  67
ATOM     67  C   UNL A   1      38.659  29.972  30.761  1.00  0.00     0.023 A 
ATOM     68  C   UNL A   1      37.651  30.779  30.205  1.00  0.00     0.031 A 
ATOM     69  C   UNL A   1      38.489  29.532  32.087  1.00  0.00     0.131 A 
ATOM     70  C   UNL A   1      36.556  31.172  30.991  1.00  0.00     0.055 A 
ATOM     71  C   UNL A   1      37.359  29.861  32.837  1.00  0.00     0.041 A 
ATOM     72  F   UNL A   1      39.427  28.776  32.681  1.00  0.00    -0.206 F 
ATOM     73  C   UNL A   1      36.390  30.699  32.295  1.00  0.00     0.022 A 
BRANCH  70  74
ATOM     74  S   UNL A   1      35.420  32.424  30.332  1.00  0.00     0.124 S 
ATOM     75  O   UNL A   1      34.385  32.456  31.363  1.00  0.00    -0.237 OA
ATOM     76  O   UNL A   1      36.270  33.606  30.246  1.00  0.00    -0.237 OA
ATOM     77  O   UNL A   1      34.996  31.863  29.050  1.00  0.00    -0.744 OA
ENDBRANCH  70  74
ENDBRANCH  53  67
BRANCH  54  78
ATOM     78  C   UNL A   1      46.652  27.095  25.449  1.00  0.00     0.023 A 
ATOM     79  C   UNL A   1      46.869  27.663  24.184  1.00  0.00     0.031 A 
ATOM     80  C   UNL A   1      47.560  26.118  25.897  1.00  0.00     0.131 A 
ATOM     81  C   UNL A   1      47.950  27.228  23.401  1.00  0.00     0.055 A 
ATOM     82  C   UNL A   1      48.670  25.736  25.143  1.00  0.00     0.041 A 
ATOM     83  F   UNL A   1      47.393  25.533  27.095  1.00  0.00    -0.206 F 
ATOM     84  C   UNL A   1      48.864  26.287  23.881  1.00  0.00     0.022 A 
BRANCH  81  85
ATOM     85  S   UNL A   1      48.102  27.851  21.704  1.00  0.00     0.124 S 
ATOM     86  O   UNL A   1      48.320  26.620  20.955  1.00  0.00    -0.237 OA
ATOM     87  O   UNL A   1      46.813  28.504  21.502  1.00  0.00    -0.237 OA
ATOM     88  O   UNL A   1      49.251  28.751  21.773  1.00  0.00    -0.744 OA
ENDBRANCH  81  85
ENDBRANCH  54  78
BRANCH  66  89
ATOM     89  C   UNL A   1      45.122  32.819  29.115  1.00  0.00     0.023 A 
ATOM     90  C   UNL A   1      45.038  33.954  28.290  1.00  0.00     0.031 A 
ATOM     91  C   UNL A   1      45.991  32.862  30.218  1.00  0.00     0.131 A 
ATOM     92  C   UNL A   1      45.854  35.066  28.550  1.00  0.00     0.055 A 
ATOM     93  C   UNL A   1      46.760  33.991  30.503  1.00  0.00     0.041 A 
ATOM     94  F   UNL A   1      46.110  31.804  31.035  1.00  0.00    -0.206 F 
ATOM     95  C   UNL A   1      46.703  35.097  29.659  1.00  0.00     0.022 A 
BRANCH  92  96
ATOM     96  S   UNL A   1      45.858  36.440  27.366  1.00  0.00     0.124 S 
ATOM     97  O   UNL A   1      46.905  36.035  26.434  1.00  0.00    -0.237 OA
ATOM     98  O   UNL A   1      44.494  36.408  26.846  1.00  0.00    -0.237 OA
ATOM     99  O   UNL A   1      46.178  37.603  28.192  1.00  0.00    -0.744 OA
ENDBRANCH  92  96
ENDBRANCH  66  89
ENDBRANCH  40  41
ENDBRANCH  33  35
ENDBRANCH  32  33
ENDBRANCH  31  32
ENDBRANCH   1  31
TORSDOF 17
ENDMDL
