MODEL 1
REMARK VINA RESULT:     -12.3      0.000      0.000
REMARK SMILES C/C(=N\NC(N)=S)c1nnn(-c2ccc(C(=O)OCCOC(=O)c3ccc(-c4c5nc(c(-c6cc(S(=O)(=O)[O-])ccc6F)c6ccc([nH]6)c(-c6cc(S(=O)(=O)[O-])ccc6F)c6nc(c(-c7cc(S(=O)(=O)[O-])ccc7F)c7ccc4[nH]7)C=C6)C=C5)cc3)cc2)c1C
REMARK SMILES IDX 19 1 18 2 16 3 17 4 15 5 12 6 13 7 88 8 14 9 87 10 11 11
REMARK SMILES IDX 8 12 9 13 89 14 10 15 90 16 2 17 1 18 3 19 4 20 5 22 7 23
REMARK SMILES IDX 6 24 20 27 21 28 22 29 23 30 24 31 25 32 86 33 26 34 85 35
REMARK SMILES IDX 27 36 28 37 29 38 79 39 30 40 84 41 78 42 80 43 31 44 83 45
REMARK SMILES IDX 77 46 76 47 32 49 64 50 44 51 63 52 45 53 48 54 62 55 81 56
REMARK SMILES IDX 46 57 47 58 61 60 82 61 49 62 33 63 34 64 42 65 35 66 41 67
REMARK SMILES IDX 43 68 40 69 36 70 37 71 38 72 39 73 65 74 66 75 74 76 67 77
REMARK SMILES IDX 73 78 75 79 72 80 68 81 69 82 70 83 71 84 50 85 51 86 59 87
REMARK SMILES IDX 52 88 58 89 60 90 57 91 53 92 54 93 55 94 56 95
REMARK H PARENT 4 21 6 25 6 26 80 48 48 59
REMARK Flexibility Score: inf
ROOT
ATOM      1  C   UNL A   1      39.707  21.454  26.441  1.00  0.00     0.275 C 
ENDROOT
BRANCH   1   2
ATOM      2  O   UNL A   1      38.554  21.918  25.718  1.00  0.00    -0.458 OA
BRANCH   2   3
ATOM      3  C   UNL A   1      37.810  20.974  25.085  1.00  0.00     0.338 C 
ATOM      4  O   UNL A   1      38.072  19.783  25.000  1.00  0.00    -0.246 OA
BRANCH   3   5
ATOM      5  C   UNL A   1      36.567  21.580  24.540  1.00  0.00     0.060 A 
ATOM      6  C   UNL A   1      34.296  22.958  23.742  1.00  0.00     0.067 A 
ATOM      7  C   UNL A   1      35.521  23.278  23.150  1.00  0.00     0.029 A 
ATOM      8  C   UNL A   1      34.174  21.861  24.600  1.00  0.00     0.029 A 
ATOM      9  C   UNL A   1      36.665  22.597  23.573  1.00  0.00     0.018 A 
ATOM     10  C   UNL A   1      35.310  21.166  24.991  1.00  0.00     0.018 A 
BRANCH   6  11
ATOM     11  N   UNL A   1      33.229  23.872  23.656  1.00  0.00    -0.217 N 
ATOM     12  C   UNL A   1      31.988  25.642  23.913  1.00  0.00     0.132 A 
ATOM     13  N   UNL A   1      31.658  25.042  22.727  1.00  0.00    -0.128 NA
ATOM     14  C   UNL A   1      33.009  24.939  24.518  1.00  0.00     0.071 A 
ATOM     15  N   UNL A   1      32.473  24.012  22.546  1.00  0.00    -0.061 NA
ATOM     16  C   UNL A   1      33.875  25.294  25.668  1.00  0.00     0.069 C 
BRANCH  12  17
ATOM     17  C   UNL A   1      31.491  26.954  24.273  1.00  0.00     0.087 C 
ATOM     18  C   UNL A   1      31.038  27.115  25.701  1.00  0.00     0.071 C 
ATOM     19  N   UNL A   1      31.516  27.849  23.329  1.00  0.00    -0.176 NA
BRANCH  19  20
ATOM     20  N   UNL A   1      31.164  29.144  23.565  1.00  0.00    -0.254 N 
ATOM     21  H   UNL A   1      31.582  29.567  24.348  1.00  0.00     0.193 HD
BRANCH  20  22
ATOM     22  C   UNL A   1      30.295  29.939  22.845  1.00  0.00     0.184 C 
ATOM     23  S   UNL A   1      28.922  30.735  23.343  1.00  0.00    -0.040 S 
BRANCH  22  24
ATOM     24  N   UNL A   1      30.674  30.053  21.535  1.00  0.00    -0.375 N 
ATOM     25  H   UNL A   1      31.614  30.235  21.307  1.00  0.00     0.159 HD
ATOM     26  H   UNL A   1      30.005  29.953  20.818  1.00  0.00     0.159 HD
ENDBRANCH  22  24
ENDBRANCH  20  22
ENDBRANCH  19  20
ENDBRANCH  12  17
ENDBRANCH   6  11
ENDBRANCH   3   5
ENDBRANCH   2   3
ENDBRANCH   1   2
BRANCH   1  27
ATOM     27  C   UNL A   1      40.799  22.516  26.472  1.00  0.00     0.275 C 
BRANCH  27  28
ATOM     28  O   UNL A   1      40.290  23.730  27.017  1.00  0.00    -0.458 OA
BRANCH  28  29
ATOM     29  C   UNL A   1      40.847  24.856  26.513  1.00  0.00     0.338 C 
ATOM     30  O   UNL A   1      41.847  24.935  25.819  1.00  0.00    -0.246 OA
BRANCH  29  31
ATOM     31  C   UNL A   1      40.159  26.022  27.066  1.00  0.00     0.060 A 
ATOM     32  C   UNL A   1      40.510  27.273  26.544  1.00  0.00     0.016 A 
ATOM     33  C   UNL A   1      39.491  25.877  28.288  1.00  0.00     0.016 A 
ATOM     34  C   UNL A   1      40.405  28.372  27.366  1.00  0.00     0.010 A 
ATOM     35  C   UNL A   1      39.417  26.965  29.114  1.00  0.00     0.010 A 
ATOM     36  C   UNL A   1      39.961  28.171  28.673  1.00  0.00    -0.014 A 
BRANCH  36  37
ATOM     37  C   UNL A   1      40.074  29.256  29.622  1.00  0.00     0.031 A 
ATOM     38  C   UNL A   1      38.838  30.051  29.760  1.00  0.00     0.074 A 
ATOM     39  C   UNL A   1      41.152  29.344  30.425  1.00  0.00     0.049 A 
ATOM     40  N   UNL A   1      38.660  31.307  29.524  1.00  0.00    -0.248 NA
ATOM     41  C   UNL A   1      37.592  29.312  30.033  1.00  0.00     0.031 C 
ATOM     42  C   UNL A   1      42.255  28.384  30.548  1.00  0.00     0.029 A 
ATOM     43  N   UNL A   1      41.404  30.228  31.424  1.00  0.00    -0.354 N 
ATOM     44  C   UNL A   1      37.330  31.555  29.845  1.00  0.00     0.074 A 
ATOM     45  C   UNL A   1      36.684  30.276  29.904  1.00  0.00     0.031 C 
ATOM     46  C   UNL A   1      42.893  28.596  31.721  1.00  0.00     0.029 A 
ATOM     47  C   UNL A   1      42.317  29.765  32.365  1.00  0.00     0.049 A 
ATOM     48  H   UNL A   1      40.979  31.114  31.477  1.00  0.00     0.167 HD
ATOM     49  C   UNL A   1      36.928  32.767  30.313  1.00  0.00     0.034 A 
ATOM     50  C   UNL A   1      42.486  30.238  33.629  1.00  0.00     0.034 A 
ATOM     51  C   UNL A   1      37.907  33.788  30.015  1.00  0.00     0.049 A 
ATOM     52  C   UNL A   1      41.872  31.593  33.671  1.00  0.00     0.074 A 
ATOM     53  C   UNL A   1      38.477  34.262  28.848  1.00  0.00     0.029 A 
ATOM     54  N   UNL A   1      38.734  34.216  31.030  1.00  0.00    -0.354 N 
ATOM     55  N   UNL A   1      42.319  32.609  32.983  1.00  0.00    -0.248 NA
ATOM     56  C   UNL A   1      40.476  31.700  34.077  1.00  0.00     0.031 C 
ATOM     57  C   UNL A   1      39.844  34.500  29.177  1.00  0.00     0.029 A 
ATOM     58  C   UNL A   1      40.017  34.230  30.535  1.00  0.00     0.049 A 
ATOM     59  H   UNL A   1      38.458  34.466  31.942  1.00  0.00     0.167 HD
ATOM     60  C   UNL A   1      41.187  33.254  32.507  1.00  0.00     0.074 A 
ATOM     61  C   UNL A   1      40.083  32.712  33.297  1.00  0.00     0.031 C 
ATOM     62  C   UNL A   1      41.202  33.939  31.322  1.00  0.00     0.034 A 
BRANCH  49  63
ATOM     63  C   UNL A   1      35.842  32.957  31.348  1.00  0.00     0.023 A 
ATOM     64  C   UNL A   1      34.780  33.810  31.003  1.00  0.00     0.031 A 
ATOM     65  C   UNL A   1      35.917  32.597  32.716  1.00  0.00     0.131 A 
ATOM     66  C   UNL A   1      33.933  34.344  31.988  1.00  0.00     0.055 A 
ATOM     67  C   UNL A   1      35.024  33.069  33.680  1.00  0.00     0.041 A 
ATOM     68  F   UNL A   1      36.905  31.852  33.224  1.00  0.00    -0.206 F 
ATOM     69  C   UNL A   1      34.046  33.977  33.326  1.00  0.00     0.022 A 
BRANCH  66  70
ATOM     70  S   UNL A   1      32.811  35.680  31.514  1.00  0.00     0.124 S 
ATOM     71  O   UNL A   1      32.532  35.352  30.120  1.00  0.00    -0.237 OA
ATOM     72  O   UNL A   1      31.711  35.493  32.455  1.00  0.00    -0.237 OA
ATOM     73  O   UNL A   1      33.613  36.883  31.721  1.00  0.00    -0.744 OA
ENDBRANCH  66  70
ENDBRANCH  49  63
BRANCH  50  74
ATOM     74  C   UNL A   1      42.785  29.415  34.835  1.00  0.00     0.023 A 
ATOM     75  C   UNL A   1      41.999  28.313  35.229  1.00  0.00     0.031 A 
ATOM     76  C   UNL A   1      44.007  29.598  35.526  1.00  0.00     0.131 A 
ATOM     77  C   UNL A   1      42.435  27.468  36.279  1.00  0.00     0.055 A 
ATOM     78  C   UNL A   1      44.424  28.771  36.571  1.00  0.00     0.041 A 
ATOM     79  F   UNL A   1      44.882  30.544  35.153  1.00  0.00    -0.206 F 
ATOM     80  C   UNL A   1      43.639  27.697  36.950  1.00  0.00     0.022 A 
BRANCH  77  81
ATOM     81  S   UNL A   1      41.471  25.991  36.738  1.00  0.00     0.124 S 
ATOM     82  O   UNL A   1      40.555  26.516  37.743  1.00  0.00    -0.237 OA
ATOM     83  O   UNL A   1      40.879  25.596  35.464  1.00  0.00    -0.237 OA
ATOM     84  O   UNL A   1      42.483  25.067  37.252  1.00  0.00    -0.744 OA
ENDBRANCH  77  81
ENDBRANCH  50  74
BRANCH  62  85
ATOM     85  C   UNL A   1      42.541  34.208  30.660  1.00  0.00     0.023 A 
ATOM     86  C   UNL A   1      43.058  33.476  29.566  1.00  0.00     0.031 A 
ATOM     87  C   UNL A   1      43.249  35.351  31.072  1.00  0.00     0.131 A 
ATOM     88  C   UNL A   1      44.246  33.893  28.935  1.00  0.00     0.055 A 
ATOM     89  C   UNL A   1      44.414  35.772  30.431  1.00  0.00     0.041 A 
ATOM     90  F   UNL A   1      42.793  36.108  32.083  1.00  0.00    -0.206 F 
ATOM     91  C   UNL A   1      44.921  35.042  29.363  1.00  0.00     0.022 A 
BRANCH  88  92
ATOM     92  S   UNL A   1      44.946  32.943  27.547  1.00  0.00     0.124 S 
ATOM     93  O   UNL A   1      46.331  32.726  27.945  1.00  0.00    -0.237 OA
ATOM     94  O   UNL A   1      44.094  31.757  27.515  1.00  0.00    -0.237 OA
ATOM     95  O   UNL A   1      44.777  33.841  26.402  1.00  0.00    -0.744 OA
ENDBRANCH  88  92
ENDBRANCH  62  85
ENDBRANCH  36  37
ENDBRANCH  29  31
ENDBRANCH  28  29
ENDBRANCH  27  28
ENDBRANCH   1  27
TORSDOF 19
ENDMDL
MODEL 2
REMARK VINA RESULT:     -12.3      4.391     10.552
REMARK SMILES C/C(=N\NC(N)=S)c1nnn(-c2ccc(C(=O)OCCOC(=O)c3ccc(-c4c5nc(c(-c6cc(S(=O)(=O)[O-])ccc6F)c6ccc([nH]6)c(-c6cc(S(=O)(=O)[O-])ccc6F)c6nc(c(-c7cc(S(=O)(=O)[O-])ccc7F)c7ccc4[nH]7)C=C6)C=C5)cc3)cc2)c1C
REMARK SMILES IDX 19 1 18 2 16 3 17 4 15 5 12 6 13 7 88 8 14 9 87 10 11 11
REMARK SMILES IDX 8 12 9 13 89 14 10 15 90 16 2 17 1 18 3 19 4 20 5 22 7 23
REMARK SMILES IDX 6 24 20 27 21 28 22 29 23 30 24 31 25 32 86 33 26 34 85 35
REMARK SMILES IDX 27 36 28 37 29 38 79 39 30 40 84 41 78 42 80 43 31 44 83 45
REMARK SMILES IDX 77 46 76 47 32 49 64 50 44 51 63 52 45 53 48 54 62 55 81 56
REMARK SMILES IDX 46 57 47 58 61 60 82 61 49 62 33 63 34 64 42 65 35 66 41 67
REMARK SMILES IDX 43 68 40 69 36 70 37 71 38 72 39 73 65 74 66 75 74 76 67 77
REMARK SMILES IDX 73 78 75 79 72 80 68 81 69 82 70 83 71 84 50 85 51 86 59 87
REMARK SMILES IDX 52 88 58 89 60 90 57 91 53 92 54 93 55 94 56 95
REMARK H PARENT 4 21 6 25 6 26 80 48 48 59
REMARK Flexibility Score: inf
ROOT
ATOM      1  C   UNL A   1      34.070  32.192  28.010  1.00  0.00     0.275 C 
ENDROOT
BRANCH   1   2
ATOM      2  O   UNL A   1      33.438  30.982  27.560  1.00  0.00    -0.458 OA
BRANCH   2   3
ATOM      3  C   UNL A   1      32.237  31.115  26.939  1.00  0.00     0.338 C 
ATOM      4  O   UNL A   1      31.621  32.158  26.770  1.00  0.00    -0.246 OA
BRANCH   3   5
ATOM      5  C   UNL A   1      31.778  29.800  26.421  1.00  0.00     0.060 A 
ATOM      6  C   UNL A   1      31.244  27.273  25.409  1.00  0.00     0.067 A 
ATOM      7  C   UNL A   1      31.490  27.413  26.778  1.00  0.00     0.029 A 
ATOM      8  C   UNL A   1      31.106  28.393  24.582  1.00  0.00     0.029 A 
ATOM      9  C   UNL A   1      31.782  28.685  27.277  1.00  0.00     0.018 A 
ATOM     10  C   UNL A   1      31.364  29.658  25.092  1.00  0.00     0.018 A 
BRANCH   6  11
ATOM     11  N   UNL A   1      31.357  26.003  24.814  1.00  0.00    -0.217 N 
ATOM     12  C   UNL A   1      32.163  24.109  24.104  1.00  0.00     0.132 A 
ATOM     13  N   UNL A   1      30.820  23.961  24.324  1.00  0.00    -0.128 NA
ATOM     14  C   UNL A   1      32.546  25.392  24.435  1.00  0.00     0.071 A 
ATOM     15  N   UNL A   1      30.357  25.095  24.830  1.00  0.00    -0.061 NA
ATOM     16  C   UNL A   1      33.896  25.982  24.609  1.00  0.00     0.069 C 
BRANCH  12  17
ATOM     17  C   UNL A   1      33.026  22.979  23.829  1.00  0.00     0.087 C 
ATOM     18  C   UNL A   1      33.668  22.959  22.467  1.00  0.00     0.071 C 
ATOM     19  N   UNL A   1      33.166  22.124  24.799  1.00  0.00    -0.176 NA
BRANCH  19  20
ATOM     20  N   UNL A   1      34.021  21.068  24.701  1.00  0.00    -0.254 N 
ATOM     21  H   UNL A   1      33.655  20.256  24.282  1.00  0.00     0.193 HD
BRANCH  20  22
ATOM     22  C   UNL A   1      35.336  20.989  25.113  1.00  0.00     0.184 C 
ATOM     23  S   UNL A   1      36.356  22.188  25.648  1.00  0.00    -0.040 S 
BRANCH  22  24
ATOM     24  N   UNL A   1      35.815  19.708  25.052  1.00  0.00    -0.375 N 
ATOM     25  H   UNL A   1      35.485  19.091  24.359  1.00  0.00     0.159 HD
ATOM     26  H   UNL A   1      36.489  19.402  25.701  1.00  0.00     0.159 HD
ENDBRANCH  22  24
ENDBRANCH  20  22
ENDBRANCH  19  20
ENDBRANCH  12  17
ENDBRANCH   6  11
ENDBRANCH   3   5
ENDBRANCH   2   3
ENDBRANCH   1   2
BRANCH   1  27
ATOM     27  C   UNL A   1      35.582  32.023  28.089  1.00  0.00     0.275 C 
BRANCH  27  28
ATOM     28  O   UNL A   1      35.920  30.642  28.188  1.00  0.00    -0.458 OA
BRANCH  28  29
ATOM     29  C   UNL A   1      36.711  30.324  29.239  1.00  0.00     0.338 C 
ATOM     30  O   UNL A   1      36.782  30.906  30.307  1.00  0.00    -0.246 OA
BRANCH  29  31
ATOM     31  C   UNL A   1      37.620  29.247  28.847  1.00  0.00     0.060 A 
ATOM     32  C   UNL A   1      38.011  28.351  29.850  1.00  0.00     0.016 A 
ATOM     33  C   UNL A   1      38.317  29.376  27.640  1.00  0.00     0.016 A 
ATOM     34  C   UNL A   1      39.246  27.754  29.741  1.00  0.00     0.010 A 
ATOM     35  C   UNL A   1      39.558  28.807  27.549  1.00  0.00     0.010 A 
ATOM     36  C   UNL A   1      40.037  28.084  28.642  1.00  0.00    -0.014 A 
BRANCH  36  37
ATOM     37  C   UNL A   1      41.421  27.667  28.629  1.00  0.00     0.031 A 
ATOM     38  C   UNL A   1      41.644  26.377  27.945  1.00  0.00     0.074 A 
ATOM     39  C   UNL A   1      42.389  28.517  29.024  1.00  0.00     0.049 A 
ATOM     40  N   UNL A   1      42.127  25.284  28.430  1.00  0.00    -0.248 NA
ATOM     41  C   UNL A   1      41.096  26.237  26.583  1.00  0.00     0.031 C 
ATOM     42  C   UNL A   1      42.239  29.927  29.403  1.00  0.00     0.029 A 
ATOM     43  N   UNL A   1      43.735  28.347  29.010  1.00  0.00    -0.354 N 
ATOM     44  C   UNL A   1      42.155  24.392  27.364  1.00  0.00     0.074 A 
ATOM     45  C   UNL A   1      41.296  24.941  26.355  1.00  0.00     0.031 C 
ATOM     46  C   UNL A   1      43.443  30.536  29.318  1.00  0.00     0.029 A 
ATOM     47  C   UNL A   1      44.451  29.539  28.994  1.00  0.00     0.049 A 
ATOM     48  H   UNL A   1      44.165  27.462  29.009  1.00  0.00     0.167 HD
ATOM     49  C   UNL A   1      43.098  23.416  27.281  1.00  0.00     0.034 A 
ATOM     50  C   UNL A   1      45.746  29.700  28.613  1.00  0.00     0.034 A 
ATOM     51  C   UNL A   1      43.714  23.181  28.567  1.00  0.00     0.049 A 
ATOM     52  C   UNL A   1      46.383  28.355  28.660  1.00  0.00     0.074 A 
ATOM     53  C   UNL A   1      43.235  22.817  29.811  1.00  0.00     0.029 A 
ATOM     54  N   UNL A   1      44.971  23.698  28.793  1.00  0.00    -0.354 N 
ATOM     55  N   UNL A   1      46.550  27.675  29.763  1.00  0.00    -0.248 NA
ATOM     56  C   UNL A   1      46.378  27.552  27.444  1.00  0.00     0.031 C 
ATOM     57  C   UNL A   1      43.998  23.585  30.739  1.00  0.00     0.029 A 
ATOM     58  C   UNL A   1      44.945  24.316  30.020  1.00  0.00     0.049 A 
ATOM     59  H   UNL A   1      45.746  23.636  28.187  1.00  0.00     0.167 HD
ATOM     60  C   UNL A   1      46.238  26.364  29.433  1.00  0.00     0.074 A 
ATOM     61  C   UNL A   1      46.243  26.331  27.972  1.00  0.00     0.031 C 
ATOM     62  C   UNL A   1      45.713  25.502  30.358  1.00  0.00     0.034 A 
BRANCH  49  63
ATOM     63  C   UNL A   1      43.713  22.940  25.984  1.00  0.00     0.023 A 
ATOM     64  C   UNL A   1      43.810  21.550  25.800  1.00  0.00     0.031 A 
ATOM     65  C   UNL A   1      44.448  23.731  25.067  1.00  0.00     0.131 A 
ATOM     66  C   UNL A   1      44.675  21.008  24.835  1.00  0.00     0.055 A 
ATOM     67  C   UNL A   1      45.247  23.187  24.059  1.00  0.00     0.041 A 
ATOM     68  F   UNL A   1      44.522  25.064  25.144  1.00  0.00    -0.206 F 
ATOM     69  C   UNL A   1      45.393  21.817  23.960  1.00  0.00     0.022 A 
BRANCH  66  70
ATOM     70  S   UNL A   1      44.994  19.229  24.882  1.00  0.00     0.124 S 
ATOM     71  O   UNL A   1      44.981  18.888  23.463  1.00  0.00    -0.237 OA
ATOM     72  O   UNL A   1      46.292  19.178  25.546  1.00  0.00    -0.237 OA
ATOM     73  O   UNL A   1      43.873  18.705  25.658  1.00  0.00    -0.744 OA
ENDBRANCH  66  70
ENDBRANCH  49  63
BRANCH  50  74
ATOM     74  C   UNL A   1      46.295  30.861  27.856  1.00  0.00     0.023 A 
ATOM     75  C   UNL A   1      45.514  31.656  26.993  1.00  0.00     0.031 A 
ATOM     76  C   UNL A   1      47.600  31.331  28.139  1.00  0.00     0.131 A 
ATOM     77  C   UNL A   1      46.051  32.846  26.442  1.00  0.00     0.055 A 
ATOM     78  C   UNL A   1      48.130  32.496  27.580  1.00  0.00     0.041 A 
ATOM     79  F   UNL A   1      48.383  30.713  29.037  1.00  0.00    -0.206 F 
ATOM     80  C   UNL A   1      47.353  33.263  26.731  1.00  0.00     0.022 A 
BRANCH  77  81
ATOM     81  S   UNL A   1      45.021  33.927  25.397  1.00  0.00     0.124 S 
ATOM     82  O   UNL A   1      46.021  34.685  24.653  1.00  0.00    -0.237 OA
ATOM     83  O   UNL A   1      44.236  32.965  24.631  1.00  0.00    -0.237 OA
ATOM     84  O   UNL A   1      44.252  34.710  26.365  1.00  0.00    -0.744 OA
ENDBRANCH  77  81
ENDBRANCH  50  74
BRANCH  62  85
ATOM     85  C   UNL A   1      45.718  25.917  31.817  1.00  0.00     0.023 A 
ATOM     86  C   UNL A   1      44.577  26.342  32.535  1.00  0.00     0.031 A 
ATOM     87  C   UNL A   1      46.910  25.731  32.539  1.00  0.00     0.131 A 
ATOM     88  C   UNL A   1      44.660  26.572  33.922  1.00  0.00     0.055 A 
ATOM     89  C   UNL A   1      46.983  25.941  33.916  1.00  0.00     0.041 A 
ATOM     90  F   UNL A   1      48.020  25.297  31.922  1.00  0.00    -0.206 F 
ATOM     91  C   UNL A   1      45.859  26.368  34.614  1.00  0.00     0.022 A 
BRANCH  88  92
ATOM     92  S   UNL A   1      43.208  27.154  34.858  1.00  0.00     0.124 S 
ATOM     93  O   UNL A   1      42.798  25.980  35.619  1.00  0.00    -0.237 OA
ATOM     94  O   UNL A   1      43.756  28.263  35.635  1.00  0.00    -0.237 OA
ATOM     95  O   UNL A   1      42.267  27.556  33.809  1.00  0.00    -0.744 OA
ENDBRANCH  88  92
ENDBRANCH  62  85
ENDBRANCH  36  37
ENDBRANCH  29  31
ENDBRANCH  28  29
ENDBRANCH  27  28
ENDBRANCH   1  27
TORSDOF 19
ENDMDL
MODEL 3
REMARK VINA RESULT:     -12.0      3.944      5.278
REMARK SMILES C/C(=N\NC(N)=S)c1nnn(-c2ccc(C(=O)OCCOC(=O)c3ccc(-c4c5nc(c(-c6cc(S(=O)(=O)[O-])ccc6F)c6ccc([nH]6)c(-c6cc(S(=O)(=O)[O-])ccc6F)c6nc(c(-c7cc(S(=O)(=O)[O-])ccc7F)c7ccc4[nH]7)C=C6)C=C5)cc3)cc2)c1C
REMARK SMILES IDX 19 1 18 2 16 3 17 4 15 5 12 6 13 7 88 8 14 9 87 10 11 11
REMARK SMILES IDX 8 12 9 13 89 14 10 15 90 16 2 17 1 18 3 19 4 20 5 22 7 23
REMARK SMILES IDX 6 24 20 27 21 28 22 29 23 30 24 31 25 32 86 33 26 34 85 35
REMARK SMILES IDX 27 36 28 37 29 38 79 39 30 40 84 41 78 42 80 43 31 44 83 45
REMARK SMILES IDX 77 46 76 47 32 49 64 50 44 51 63 52 45 53 48 54 62 55 81 56
REMARK SMILES IDX 46 57 47 58 61 60 82 61 49 62 33 63 34 64 42 65 35 66 41 67
REMARK SMILES IDX 43 68 40 69 36 70 37 71 38 72 39 73 65 74 66 75 74 76 67 77
REMARK SMILES IDX 73 78 75 79 72 80 68 81 69 82 70 83 71 84 50 85 51 86 59 87
REMARK SMILES IDX 52 88 58 89 60 90 57 91 53 92 54 93 55 94 56 95
REMARK H PARENT 4 21 6 25 6 26 80 48 48 59
REMARK Flexibility Score: inf
ROOT
ATOM      1  C   UNL A   1      36.785  21.330  24.757  1.00  0.00     0.275 C 
ENDROOT
BRANCH   1   2
ATOM      2  O   UNL A   1      35.667  21.005  25.599  1.00  0.00    -0.458 OA
BRANCH   2   3
ATOM      3  C   UNL A   1      34.497  20.713  24.974  1.00  0.00     0.338 C 
ATOM      4  O   UNL A   1      34.053  19.596  24.752  1.00  0.00    -0.246 OA
BRANCH   3   5
ATOM      5  C   UNL A   1      33.770  21.965  24.633  1.00  0.00     0.060 A 
ATOM      6  C   UNL A   1      32.685  24.384  23.820  1.00  0.00     0.067 A 
ATOM      7  C   UNL A   1      32.526  23.264  22.999  1.00  0.00     0.029 A 
ATOM      8  C   UNL A   1      33.235  24.268  25.101  1.00  0.00     0.029 A 
ATOM      9  C   UNL A   1      33.096  22.054  23.403  1.00  0.00     0.018 A 
ATOM     10  C   UNL A   1      33.769  23.054  25.510  1.00  0.00     0.018 A 
BRANCH   6  11
ATOM     11  N   UNL A   1      32.501  25.670  23.277  1.00  0.00    -0.217 N 
ATOM     12  C   UNL A   1      31.723  27.667  22.892  1.00  0.00     0.132 A 
ATOM     13  N   UNL A   1      33.045  27.634  22.538  1.00  0.00    -0.128 NA
ATOM     14  C   UNL A   1      31.350  26.438  23.396  1.00  0.00     0.071 A 
ATOM     15  N   UNL A   1      33.526  26.438  22.852  1.00  0.00    -0.061 NA
ATOM     16  C   UNL A   1      30.126  26.027  24.127  1.00  0.00     0.069 C 
BRANCH  12  17
ATOM     17  C   UNL A   1      30.975  28.905  22.953  1.00  0.00     0.087 C 
ATOM     18  C   UNL A   1      30.810  29.505  24.325  1.00  0.00     0.071 C 
ATOM     19  N   UNL A   1      30.552  29.370  21.814  1.00  0.00    -0.176 NA
BRANCH  19  20
ATOM     20  N   UNL A   1      29.917  30.571  21.725  1.00  0.00    -0.254 N 
ATOM     21  H   UNL A   1      30.471  31.329  21.432  1.00  0.00     0.193 HD
BRANCH  20  22
ATOM     22  C   UNL A   1      28.595  30.863  21.995  1.00  0.00     0.184 C 
ATOM     23  S   UNL A   1      27.943  31.901  23.119  1.00  0.00    -0.040 S 
BRANCH  22  24
ATOM     24  N   UNL A   1      27.743  30.166  21.182  1.00  0.00    -0.375 N 
ATOM     25  H   UNL A   1      28.101  29.543  20.509  1.00  0.00     0.159 HD
ATOM     26  H   UNL A   1      26.769  30.287  21.269  1.00  0.00     0.159 HD
ENDBRANCH  22  24
ENDBRANCH  20  22
ENDBRANCH  19  20
ENDBRANCH  12  17
ENDBRANCH   6  11
ENDBRANCH   3   5
ENDBRANCH   2   3
ENDBRANCH   1   2
BRANCH   1  27
ATOM     27  C   UNL A   1      37.938  20.360  24.978  1.00  0.00     0.275 C 
BRANCH  27  28
ATOM     28  O   UNL A   1      38.979  20.990  25.720  1.00  0.00    -0.458 OA
BRANCH  28  29
ATOM     29  C   UNL A   1      40.084  20.232  25.906  1.00  0.00     0.338 C 
ATOM     30  O   UNL A   1      40.201  19.038  25.688  1.00  0.00    -0.246 OA
BRANCH  29  31
ATOM     31  C   UNL A   1      41.107  21.031  26.580  1.00  0.00     0.060 A 
ATOM     32  C   UNL A   1      41.040  21.097  27.977  1.00  0.00     0.016 A 
ATOM     33  C   UNL A   1      41.839  21.948  25.817  1.00  0.00     0.016 A 
ATOM     34  C   UNL A   1      41.514  22.232  28.596  1.00  0.00     0.010 A 
ATOM     35  C   UNL A   1      42.280  23.089  26.430  1.00  0.00     0.010 A 
ATOM     36  C   UNL A   1      42.025  23.250  27.792  1.00  0.00    -0.014 A 
BRANCH  36  37
ATOM     37  C   UNL A   1      42.299  24.538  28.388  1.00  0.00     0.031 A 
ATOM     38  C   UNL A   1      41.267  25.555  28.099  1.00  0.00     0.074 A 
ATOM     39  C   UNL A   1      43.296  24.673  29.285  1.00  0.00     0.049 A 
ATOM     40  N   UNL A   1      41.399  26.680  27.482  1.00  0.00    -0.248 NA
ATOM     41  C   UNL A   1      39.868  25.190  28.385  1.00  0.00     0.031 C 
ATOM     42  C   UNL A   1      44.139  23.611  29.849  1.00  0.00     0.029 A 
ATOM     43  N   UNL A   1      43.655  25.764  30.007  1.00  0.00    -0.354 N 
ATOM     44  C   UNL A   1      40.138  27.264  27.511  1.00  0.00     0.074 A 
ATOM     45  C   UNL A   1      39.216  26.216  27.843  1.00  0.00     0.031 C 
ATOM     46  C   UNL A   1      44.705  24.060  30.991  1.00  0.00     0.029 A 
ATOM     47  C   UNL A   1      44.356  25.461  31.170  1.00  0.00     0.049 A 
ATOM     48  H   UNL A   1      43.439  26.684  29.734  1.00  0.00     0.167 HD
ATOM     49  C   UNL A   1      39.982  28.614  27.538  1.00  0.00     0.034 A 
ATOM     50  C   UNL A   1      44.519  26.270  32.250  1.00  0.00     0.034 A 
ATOM     51  C   UNL A   1      41.189  29.283  27.106  1.00  0.00     0.049 A 
ATOM     52  C   UNL A   1      44.225  27.658  31.801  1.00  0.00     0.074 A 
ATOM     53  C   UNL A   1      41.948  29.245  25.953  1.00  0.00     0.029 A 
ATOM     54  N   UNL A   1      42.001  29.848  28.065  1.00  0.00    -0.354 N 
ATOM     55  N   UNL A   1      44.948  28.300  30.922  1.00  0.00    -0.248 NA
ATOM     56  C   UNL A   1      42.860  28.150  31.942  1.00  0.00     0.031 C 
ATOM     57  C   UNL A   1      43.300  29.313  26.400  1.00  0.00     0.029 A 
ATOM     58  C   UNL A   1      43.291  29.462  27.788  1.00  0.00     0.049 A 
ATOM     59  H   UNL A   1      41.712  30.422  28.811  1.00  0.00     0.167 HD
ATOM     60  C   UNL A   1      44.037  28.961  30.112  1.00  0.00     0.074 A 
ATOM     61  C   UNL A   1      42.776  28.917  30.850  1.00  0.00     0.031 C 
ATOM     62  C   UNL A   1      44.308  29.218  28.795  1.00  0.00     0.034 A 
BRANCH  49  63
ATOM     63  C   UNL A   1      38.882  29.325  28.295  1.00  0.00     0.023 A 
ATOM     64  C   UNL A   1      39.028  29.413  29.690  1.00  0.00     0.031 A 
ATOM     65  C   UNL A   1      37.602  29.660  27.791  1.00  0.00     0.131 A 
ATOM     66  C   UNL A   1      37.929  29.708  30.513  1.00  0.00     0.055 A 
ATOM     67  C   UNL A   1      36.532  30.029  28.609  1.00  0.00     0.041 A 
ATOM     68  F   UNL A   1      37.274  29.561  26.498  1.00  0.00    -0.206 F 
ATOM     69  C   UNL A   1      36.681  30.019  29.983  1.00  0.00     0.022 A 
BRANCH  66  70
ATOM     70  S   UNL A   1      38.116  29.479  32.298  1.00  0.00     0.124 S 
ATOM     71  O   UNL A   1      37.522  30.706  32.817  1.00  0.00    -0.237 OA
ATOM     72  O   UNL A   1      37.361  28.250  32.519  1.00  0.00    -0.237 OA
ATOM     73  O   UNL A   1      39.562  29.365  32.473  1.00  0.00    -0.744 OA
ENDBRANCH  66  70
ENDBRANCH  49  63
BRANCH  50  74
ATOM     74  C   UNL A   1      44.518  25.832  33.675  1.00  0.00     0.023 A 
ATOM     75  C   UNL A   1      43.453  26.092  34.560  1.00  0.00     0.031 A 
ATOM     76  C   UNL A   1      45.524  24.951  34.140  1.00  0.00     0.131 A 
ATOM     77  C   UNL A   1      43.436  25.499  35.847  1.00  0.00     0.055 A 
ATOM     78  C   UNL A   1      45.511  24.382  35.415  1.00  0.00     0.041 A 
ATOM     79  F   UNL A   1      46.520  24.545  33.337  1.00  0.00    -0.206 F 
ATOM     80  C   UNL A   1      44.461  24.651  36.274  1.00  0.00     0.022 A 
BRANCH  77  81
ATOM     81  S   UNL A   1      42.021  25.757  36.965  1.00  0.00     0.124 S 
ATOM     82  O   UNL A   1      41.251  26.777  36.263  1.00  0.00    -0.237 OA
ATOM     83  O   UNL A   1      41.427  24.426  37.031  1.00  0.00    -0.237 OA
ATOM     84  O   UNL A   1      42.645  26.209  38.210  1.00  0.00    -0.744 OA
ENDBRANCH  77  81
ENDBRANCH  50  74
BRANCH  62  85
ATOM     85  C   UNL A   1      45.724  29.005  28.294  1.00  0.00     0.023 A 
ATOM     86  C   UNL A   1      46.254  27.758  27.888  1.00  0.00     0.031 A 
ATOM     87  C   UNL A   1      46.517  30.147  28.088  1.00  0.00     0.131 A 
ATOM     88  C   UNL A   1      47.536  27.690  27.308  1.00  0.00     0.055 A 
ATOM     89  C   UNL A   1      47.777  30.078  27.494  1.00  0.00     0.041 A 
ATOM     90  F   UNL A   1      46.058  31.365  28.421  1.00  0.00    -0.206 F 
ATOM     91  C   UNL A   1      48.295  28.848  27.106  1.00  0.00     0.022 A 
BRANCH  88  92
ATOM     92  S   UNL A   1      48.249  26.088  26.811  1.00  0.00     0.124 S 
ATOM     93  O   UNL A   1      47.816  25.179  27.865  1.00  0.00    -0.237 OA
ATOM     94  O   UNL A   1      47.655  25.873  25.495  1.00  0.00    -0.237 OA
ATOM     95  O   UNL A   1      49.690  26.351  26.790  1.00  0.00    -0.744 OA
ENDBRANCH  88  92
ENDBRANCH  62  85
ENDBRANCH  36  37
ENDBRANCH  29  31
ENDBRANCH  28  29
ENDBRANCH  27  28
ENDBRANCH   1  27
TORSDOF 19
ENDMDL
