MODEL 1
REMARK VINA RESULT:     -10.9      0.000      0.000
REMARK SMILES CCc1ccsc1Cn1cccc1C(=O)OCCOC(=O)c1ccc(-c2c3nc(c(-c4cc(S(=O)(=O)[O-])ccc4F)c4ccc([nH]4)c(-c4cc(S(=O)(=O)[O-])ccc4F)c4nc(c(-c5cc(S(=O)(=O)[O-])ccc5F)c5ccc2[nH]5)C=C4)C=C3)cc1
REMARK SMILES IDX 17 1 16 2 14 3 15 4 13 5 9 6 10 7 11 8 12 9 8 10 7 11 3 12
REMARK SMILES IDX 4 13 5 14 6 15 2 16 1 17 18 18 19 19 20 20 21 21 22 22 23 23
REMARK SMILES IDX 84 24 24 25 83 26 25 27 26 28 27 29 77 30 28 31 82 32 76 33
REMARK SMILES IDX 78 34 29 35 81 36 75 37 74 38 30 40 62 41 42 42 61 43 43 44
REMARK SMILES IDX 46 45 60 46 79 47 44 48 45 49 59 51 80 52 47 53 31 54 32 55
REMARK SMILES IDX 40 56 33 57 39 58 41 59 38 60 34 61 35 62 36 63 37 64 63 65
REMARK SMILES IDX 64 66 72 67 65 68 71 69 73 70 70 71 66 72 67 73 68 74 69 75
REMARK SMILES IDX 48 76 49 77 57 78 50 79 56 80 58 81 55 82 51 83 52 84 53 85
REMARK SMILES IDX 54 86
REMARK H PARENT 78 39 46 50
REMARK Flexibility Score: inf
ROOT
ATOM      1  C   UNL A   1      40.616  20.858  26.095  1.00  0.00     0.275 C 
ENDROOT
BRANCH   1   2
ATOM      2  O   UNL A   1      41.942  20.570  26.593  1.00  0.00    -0.457 OA
BRANCH   2   3
ATOM      3  C   UNL A   1      42.685  19.718  25.842  1.00  0.00     0.355 C 
ATOM      4  O   UNL A   1      42.294  18.597  25.516  1.00  0.00    -0.244 OA
BRANCH   3   5
ATOM      5  C   UNL A   1      43.941  20.296  25.382  1.00  0.00     0.127 A 
ATOM      6  N   UNL A   1      44.289  21.579  24.947  1.00  0.00    -0.337 N 
ATOM      7  C   UNL A   1      45.662  21.603  24.749  1.00  0.00     0.087 A 
ATOM      8  C   UNL A   1      46.165  20.334  24.861  1.00  0.00     0.020 A 
ATOM      9  C   UNL A   1      45.096  19.520  25.256  1.00  0.00     0.035 A 
BRANCH   6  10
ATOM     10  C   UNL A   1      43.467  22.807  24.940  1.00  0.00     0.169 C 
BRANCH  10  11
ATOM     11  C   UNL A   1      43.850  23.887  25.953  1.00  0.00     0.027 A 
ATOM     12  C   UNL A   1      43.777  23.957  27.351  1.00  0.00    -0.033 A 
ATOM     13  C   UNL A   1      44.267  25.229  27.833  1.00  0.00     0.016 A 
ATOM     14  C   UNL A   1      44.769  26.035  26.847  1.00  0.00     0.065 A 
ATOM     15  S   UNL A   1      44.722  25.265  25.341  1.00  0.00    -0.147 S 
BRANCH  12  16
ATOM     16  C   UNL A   1      43.274  22.980  28.388  1.00  0.00     0.033 C 
ATOM     17  C   UNL A   1      43.678  23.209  29.817  1.00  0.00     0.009 C 
ENDBRANCH  12  16
ENDBRANCH  10  11
ENDBRANCH   6  10
ENDBRANCH   3   5
ENDBRANCH   2   3
ENDBRANCH   1   2
BRANCH   1  18
ATOM     18  C   UNL A   1      39.914  21.979  26.869  1.00  0.00     0.275 C 
BRANCH  18  19
ATOM     19  O   UNL A   1      40.387  23.281  26.522  1.00  0.00    -0.458 OA
BRANCH  19  20
ATOM     20  C   UNL A   1      39.502  24.251  26.845  1.00  0.00     0.338 C 
ATOM     21  O   UNL A   1      38.309  24.275  26.584  1.00  0.00    -0.246 OA
BRANCH  20  22
ATOM     22  C   UNL A   1      40.171  25.440  27.351  1.00  0.00     0.060 A 
ATOM     23  C   UNL A   1      40.116  25.645  28.734  1.00  0.00     0.016 A 
ATOM     24  C   UNL A   1      40.458  26.467  26.444  1.00  0.00     0.016 A 
ATOM     25  C   UNL A   1      40.222  26.932  29.210  1.00  0.00     0.010 A 
ATOM     26  C   UNL A   1      40.530  27.758  26.918  1.00  0.00     0.010 A 
ATOM     27  C   UNL A   1      40.381  27.979  28.294  1.00  0.00    -0.014 A 
BRANCH  27  28
ATOM     28  C   UNL A   1      40.646  29.314  28.838  1.00  0.00     0.031 A 
ATOM     29  C   UNL A   1      39.254  29.967  29.205  1.00  0.00     0.074 A 
ATOM     30  C   UNL A   1      41.981  29.661  28.857  1.00  0.00     0.049 A 
ATOM     31  N   UNL A   1      38.891  31.206  29.331  1.00  0.00    -0.248 NA
ATOM     32  C   UNL A   1      38.054  29.077  29.390  1.00  0.00     0.031 C 
ATOM     33  C   UNL A   1      43.135  28.804  28.445  1.00  0.00     0.029 A 
ATOM     34  N   UNL A   1      42.662  30.796  29.221  1.00  0.00    -0.354 N 
ATOM     35  C   UNL A   1      37.572  31.223  29.870  1.00  0.00     0.074 A 
ATOM     36  C   UNL A   1      37.068  29.896  29.757  1.00  0.00     0.031 C 
ATOM     37  C   UNL A   1      44.312  29.485  28.479  1.00  0.00     0.029 A 
ATOM     38  C   UNL A   1      44.071  30.841  28.928  1.00  0.00     0.049 A 
ATOM     39  H   UNL A   1      42.207  31.549  29.663  1.00  0.00     0.167 HD
ATOM     40  C   UNL A   1      37.036  32.307  30.507  1.00  0.00     0.034 A 
ATOM     41  C   UNL A   1      44.912  31.935  28.992  1.00  0.00     0.034 A 
ATOM     42  C   UNL A   1      37.958  33.380  30.427  1.00  0.00     0.049 A 
ATOM     43  C   UNL A   1      43.996  32.950  29.531  1.00  0.00     0.074 A 
ATOM     44  C   UNL A   1      38.236  34.293  29.453  1.00  0.00     0.029 A 
ATOM     45  N   UNL A   1      38.922  33.441  31.400  1.00  0.00    -0.354 N 
ATOM     46  N   UNL A   1      43.570  33.002  30.754  1.00  0.00    -0.248 NA
ATOM     47  C   UNL A   1      43.389  33.880  28.576  1.00  0.00     0.031 C 
ATOM     48  C   UNL A   1      39.611  34.541  29.634  1.00  0.00     0.029 A 
ATOM     49  C   UNL A   1      40.064  33.895  30.792  1.00  0.00     0.049 A 
ATOM     50  H   UNL A   1      38.814  33.206  32.350  1.00  0.00     0.167 HD
ATOM     51  C   UNL A   1      42.447  33.782  30.660  1.00  0.00     0.074 A 
ATOM     52  C   UNL A   1      42.558  34.501  29.405  1.00  0.00     0.031 C 
ATOM     53  C   UNL A   1      41.327  33.484  31.367  1.00  0.00     0.034 A 
BRANCH  40  54
ATOM     54  C   UNL A   1      35.847  32.545  31.408  1.00  0.00     0.023 A 
ATOM     55  C   UNL A   1      34.819  33.358  30.858  1.00  0.00     0.031 A 
ATOM     56  C   UNL A   1      35.828  32.382  32.796  1.00  0.00     0.131 A 
ATOM     57  C   UNL A   1      33.975  34.127  31.664  1.00  0.00     0.055 A 
ATOM     58  C   UNL A   1      34.914  33.084  33.604  1.00  0.00     0.041 A 
ATOM     59  F   UNL A   1      36.736  31.621  33.422  1.00  0.00    -0.206 F 
ATOM     60  C   UNL A   1      34.018  34.000  33.045  1.00  0.00     0.022 A 
BRANCH  57  61
ATOM     61  S   UNL A   1      33.002  35.437  30.861  1.00  0.00     0.124 S 
ATOM     62  O   UNL A   1      33.938  36.555  30.853  1.00  0.00    -0.237 OA
ATOM     63  O   UNL A   1      32.707  34.844  29.560  1.00  0.00    -0.237 OA
ATOM     64  O   UNL A   1      31.850  35.595  31.746  1.00  0.00    -0.744 OA
ENDBRANCH  57  61
ENDBRANCH  40  54
BRANCH  41  65
ATOM     65  C   UNL A   1      46.301  32.488  28.601  1.00  0.00     0.023 A 
ATOM     66  C   UNL A   1      46.685  33.182  27.436  1.00  0.00     0.031 A 
ATOM     67  C   UNL A   1      47.363  32.375  29.570  1.00  0.00     0.131 A 
ATOM     68  C   UNL A   1      47.988  33.788  27.348  1.00  0.00     0.055 A 
ATOM     69  C   UNL A   1      48.578  33.060  29.526  1.00  0.00     0.041 A 
ATOM     70  F   UNL A   1      47.274  31.570  30.638  1.00  0.00    -0.206 F 
ATOM     71  C   UNL A   1      48.891  33.795  28.416  1.00  0.00     0.022 A 
BRANCH  68  72
ATOM     72  S   UNL A   1      48.582  34.589  25.818  1.00  0.00     0.124 S 
ATOM     73  O   UNL A   1      49.009  35.895  26.306  1.00  0.00    -0.237 OA
ATOM     74  O   UNL A   1      49.637  33.688  25.371  1.00  0.00    -0.237 OA
ATOM     75  O   UNL A   1      47.395  34.614  24.958  1.00  0.00    -0.744 OA
ENDBRANCH  68  72
ENDBRANCH  41  65
BRANCH  53  76
ATOM     76  C   UNL A   1      41.518  32.442  32.484  1.00  0.00     0.023 A 
ATOM     77  C   UNL A   1      40.940  31.165  32.378  1.00  0.00     0.031 A 
ATOM     78  C   UNL A   1      42.174  32.703  33.707  1.00  0.00     0.131 A 
ATOM     79  C   UNL A   1      41.023  30.236  33.441  1.00  0.00     0.055 A 
ATOM     80  C   UNL A   1      42.260  31.787  34.765  1.00  0.00     0.041 A 
ATOM     81  F   UNL A   1      42.769  33.870  33.928  1.00  0.00    -0.206 F 
ATOM     82  C   UNL A   1      41.680  30.539  34.635  1.00  0.00     0.022 A 
BRANCH  79  83
ATOM     83  S   UNL A   1      40.288  28.590  33.245  1.00  0.00     0.124 S 
ATOM     84  O   UNL A   1      40.961  27.816  34.282  1.00  0.00    -0.237 OA
ATOM     85  O   UNL A   1      38.868  28.852  33.459  1.00  0.00    -0.237 OA
ATOM     86  O   UNL A   1      40.640  28.219  31.873  1.00  0.00    -0.744 OA
ENDBRANCH  79  83
ENDBRANCH  53  76
ENDBRANCH  27  28
ENDBRANCH  20  22
ENDBRANCH  19  20
ENDBRANCH  18  19
ENDBRANCH   1  18
TORSDOF 17
ENDMDL
MODEL 2
REMARK VINA RESULT:     -10.4      4.624     10.944
REMARK SMILES CCc1ccsc1Cn1cccc1C(=O)OCCOC(=O)c1ccc(-c2c3nc(c(-c4cc(S(=O)(=O)[O-])ccc4F)c4ccc([nH]4)c(-c4cc(S(=O)(=O)[O-])ccc4F)c4nc(c(-c5cc(S(=O)(=O)[O-])ccc5F)c5ccc2[nH]5)C=C4)C=C3)cc1
REMARK SMILES IDX 17 1 16 2 14 3 15 4 13 5 9 6 10 7 11 8 12 9 8 10 7 11 3 12
REMARK SMILES IDX 4 13 5 14 6 15 2 16 1 17 18 18 19 19 20 20 21 21 22 22 23 23
REMARK SMILES IDX 84 24 24 25 83 26 25 27 26 28 27 29 77 30 28 31 82 32 76 33
REMARK SMILES IDX 78 34 29 35 81 36 75 37 74 38 30 40 62 41 42 42 61 43 43 44
REMARK SMILES IDX 46 45 60 46 79 47 44 48 45 49 59 51 80 52 47 53 31 54 32 55
REMARK SMILES IDX 40 56 33 57 39 58 41 59 38 60 34 61 35 62 36 63 37 64 63 65
REMARK SMILES IDX 64 66 72 67 65 68 71 69 73 70 70 71 66 72 67 73 68 74 69 75
REMARK SMILES IDX 48 76 49 77 57 78 50 79 56 80 58 81 55 82 51 83 52 84 53 85
REMARK SMILES IDX 54 86
REMARK H PARENT 78 39 46 50
REMARK Flexibility Score: inf
ROOT
ATOM      1  C   UNL A   1      33.209  29.408  26.530  1.00  0.00     0.275 C 
ENDROOT
BRANCH   1   2
ATOM      2  O   UNL A   1      32.400  28.759  25.525  1.00  0.00    -0.457 OA
BRANCH   2   3
ATOM      3  C   UNL A   1      32.379  27.403  25.565  1.00  0.00     0.355 C 
ATOM      4  O   UNL A   1      31.994  26.769  26.548  1.00  0.00    -0.244 OA
BRANCH   3   5
ATOM      5  C   UNL A   1      32.762  26.779  24.306  1.00  0.00     0.127 A 
ATOM      6  N   UNL A   1      32.698  25.459  23.847  1.00  0.00    -0.337 N 
ATOM      7  C   UNL A   1      33.084  25.453  22.514  1.00  0.00     0.087 A 
ATOM      8  C   UNL A   1      33.570  26.687  22.171  1.00  0.00     0.020 A 
ATOM      9  C   UNL A   1      33.369  27.513  23.284  1.00  0.00     0.035 A 
BRANCH   6  10
ATOM     10  C   UNL A   1      32.083  24.283  24.497  1.00  0.00     0.169 C 
BRANCH  10  11
ATOM     11  C   UNL A   1      32.916  23.589  25.574  1.00  0.00     0.027 A 
ATOM     12  C   UNL A   1      34.286  23.316  25.698  1.00  0.00    -0.033 A 
ATOM     13  C   UNL A   1      34.565  22.611  26.930  1.00  0.00     0.016 A 
ATOM     14  C   UNL A   1      33.468  22.447  27.731  1.00  0.00     0.065 A 
ATOM     15  S   UNL A   1      32.101  23.184  27.060  1.00  0.00    -0.147 S 
BRANCH  12  16
ATOM     16  C   UNL A   1      35.460  23.604  24.793  1.00  0.00     0.033 C 
ATOM     17  C   UNL A   1      36.796  23.844  25.436  1.00  0.00     0.009 C 
ENDBRANCH  12  16
ENDBRANCH  10  11
ENDBRANCH   6  10
ENDBRANCH   3   5
ENDBRANCH   2   3
ENDBRANCH   1   2
BRANCH   1  18
ATOM     18  C   UNL A   1      34.679  28.976  26.492  1.00  0.00     0.275 C 
BRANCH  18  19
ATOM     19  O   UNL A   1      35.299  28.983  27.779  1.00  0.00    -0.458 OA
BRANCH  19  20
ATOM     20  C   UNL A   1      36.047  30.090  27.982  1.00  0.00     0.338 C 
ATOM     21  O   UNL A   1      35.838  31.210  27.542  1.00  0.00    -0.246 OA
BRANCH  20  22
ATOM     22  C   UNL A   1      37.320  29.770  28.609  1.00  0.00     0.060 A 
ATOM     23  C   UNL A   1      38.460  29.909  27.811  1.00  0.00     0.016 A 
ATOM     24  C   UNL A   1      37.300  28.991  29.773  1.00  0.00     0.016 A 
ATOM     25  C   UNL A   1      39.568  29.149  28.113  1.00  0.00     0.010 A 
ATOM     26  C   UNL A   1      38.395  28.205  30.054  1.00  0.00     0.010 A 
ATOM     27  C   UNL A   1      39.507  28.271  29.202  1.00  0.00    -0.014 A 
BRANCH  27  28
ATOM     28  C   UNL A   1      40.748  27.594  29.590  1.00  0.00     0.031 A 
ATOM     29  C   UNL A   1      40.963  26.383  28.598  1.00  0.00     0.074 A 
ATOM     30  C   UNL A   1      41.367  28.139  30.696  1.00  0.00     0.049 A 
ATOM     31  N   UNL A   1      41.633  25.278  28.719  1.00  0.00    -0.248 NA
ATOM     32  C   UNL A   1      40.244  26.383  27.275  1.00  0.00     0.031 C 
ATOM     33  C   UNL A   1      40.931  29.347  31.462  1.00  0.00     0.029 A 
ATOM     34  N   UNL A   1      42.485  27.806  31.418  1.00  0.00    -0.354 N 
ATOM     35  C   UNL A   1      41.652  24.635  27.448  1.00  0.00     0.074 A 
ATOM     36  C   UNL A   1      40.677  25.291  26.644  1.00  0.00     0.031 C 
ATOM     37  C   UNL A   1      41.696  29.553  32.567  1.00  0.00     0.029 A 
ATOM     38  C   UNL A   1      42.718  28.529  32.641  1.00  0.00     0.049 A 
ATOM     39  H   UNL A   1      43.103  27.103  31.114  1.00  0.00     0.167 HD
ATOM     40  C   UNL A   1      42.578  23.694  27.097  1.00  0.00     0.034 A 
ATOM     41  C   UNL A   1      43.632  28.235  33.635  1.00  0.00     0.034 A 
ATOM     42  C   UNL A   1      43.395  23.421  28.224  1.00  0.00     0.049 A 
ATOM     43  C   UNL A   1      44.327  27.088  33.033  1.00  0.00     0.074 A 
ATOM     44  C   UNL A   1      43.231  22.620  29.315  1.00  0.00     0.029 A 
ATOM     45  N   UNL A   1      44.479  24.238  28.414  1.00  0.00    -0.354 N 
ATOM     46  N   UNL A   1      45.172  27.154  32.051  1.00  0.00    -0.248 NA
ATOM     47  C   UNL A   1      43.915  25.751  33.465  1.00  0.00     0.031 C 
ATOM     48  C   UNL A   1      43.932  23.311  30.323  1.00  0.00     0.029 A 
ATOM     49  C   UNL A   1      44.612  24.404  29.769  1.00  0.00     0.049 A 
ATOM     50  H   UNL A   1      45.051  24.628  27.714  1.00  0.00     0.167 HD
ATOM     51  C   UNL A   1      45.183  25.874  31.564  1.00  0.00     0.074 A 
ATOM     52  C   UNL A   1      44.643  25.035  32.617  1.00  0.00     0.031 C 
ATOM     53  C   UNL A   1      45.220  25.634  30.228  1.00  0.00     0.034 A 
BRANCH  40  54
ATOM     54  C   UNL A   1      43.041  23.070  25.801  1.00  0.00     0.023 A 
ATOM     55  C   UNL A   1      43.052  21.650  25.779  1.00  0.00     0.031 A 
ATOM     56  C   UNL A   1      43.790  23.709  24.808  1.00  0.00     0.131 A 
ATOM     57  C   UNL A   1      43.929  20.931  24.961  1.00  0.00     0.055 A 
ATOM     58  C   UNL A   1      44.602  22.979  23.920  1.00  0.00     0.041 A 
ATOM     59  F   UNL A   1      43.837  25.045  24.719  1.00  0.00    -0.206 F 
ATOM     60  C   UNL A   1      44.715  21.590  24.027  1.00  0.00     0.022 A 
BRANCH  57  61
ATOM     61  S   UNL A   1      44.162  19.163  25.320  1.00  0.00     0.124 S 
ATOM     62  O   UNL A   1      45.590  19.093  25.609  1.00  0.00    -0.237 OA
ATOM     63  O   UNL A   1      43.272  18.963  26.460  1.00  0.00    -0.237 OA
ATOM     64  O   UNL A   1      43.743  18.508  24.083  1.00  0.00    -0.744 OA
ENDBRANCH  57  61
ENDBRANCH  40  54
BRANCH  41  65
ATOM     65  C   UNL A   1      44.064  28.538  35.088  1.00  0.00     0.023 A 
ATOM     66  C   UNL A   1      44.374  27.639  36.127  1.00  0.00     0.031 A 
ATOM     67  C   UNL A   1      44.274  29.917  35.449  1.00  0.00     0.131 A 
ATOM     68  C   UNL A   1      44.947  28.121  37.357  1.00  0.00     0.055 A 
ATOM     69  C   UNL A   1      44.935  30.365  36.594  1.00  0.00     0.041 A 
ATOM     70  F   UNL A   1      43.834  30.931  34.690  1.00  0.00    -0.206 F 
ATOM     71  C   UNL A   1      45.299  29.459  37.552  1.00  0.00     0.022 A 
BRANCH  68  72
ATOM     72  S   UNL A   1      45.251  27.018  38.781  1.00  0.00     0.124 S 
ATOM     73  O   UNL A   1      46.044  25.953  38.177  1.00  0.00    -0.237 OA
ATOM     74  O   UNL A   1      45.946  27.889  39.721  1.00  0.00    -0.237 OA
ATOM     75  O   UNL A   1      43.905  26.617  39.201  1.00  0.00    -0.744 OA
ENDBRANCH  68  72
ENDBRANCH  41  65
BRANCH  53  76
ATOM     76  C   UNL A   1      45.568  26.854  29.355  1.00  0.00     0.023 A 
ATOM     77  C   UNL A   1      44.551  27.648  28.797  1.00  0.00     0.031 A 
ATOM     78  C   UNL A   1      46.881  27.203  28.970  1.00  0.00     0.131 A 
ATOM     79  C   UNL A   1      44.857  28.708  27.912  1.00  0.00     0.055 A 
ATOM     80  C   UNL A   1      47.191  28.253  28.093  1.00  0.00     0.041 A 
ATOM     81  F   UNL A   1      47.931  26.536  29.436  1.00  0.00    -0.206 F 
ATOM     82  C   UNL A   1      46.171  29.016  27.557  1.00  0.00     0.022 A 
BRANCH  79  83
ATOM     83  S   UNL A   1      43.513  29.724  27.242  1.00  0.00     0.124 S 
ATOM     84  O   UNL A   1      42.895  30.269  28.445  1.00  0.00    -0.237 OA
ATOM     85  O   UNL A   1      44.228  30.677  26.398  1.00  0.00    -0.237 OA
ATOM     86  O   UNL A   1      42.688  28.761  26.509  1.00  0.00    -0.744 OA
ENDBRANCH  79  83
ENDBRANCH  53  76
ENDBRANCH  27  28
ENDBRANCH  20  22
ENDBRANCH  19  20
ENDBRANCH  18  19
ENDBRANCH   1  18
TORSDOF 17
ENDMDL
MODEL 3
REMARK VINA RESULT:     -10.2      4.208     10.701
REMARK SMILES CCc1ccsc1Cn1cccc1C(=O)OCCOC(=O)c1ccc(-c2c3nc(c(-c4cc(S(=O)(=O)[O-])ccc4F)c4ccc([nH]4)c(-c4cc(S(=O)(=O)[O-])ccc4F)c4nc(c(-c5cc(S(=O)(=O)[O-])ccc5F)c5ccc2[nH]5)C=C4)C=C3)cc1
REMARK SMILES IDX 17 1 16 2 14 3 15 4 13 5 9 6 10 7 11 8 12 9 8 10 7 11 3 12
REMARK SMILES IDX 4 13 5 14 6 15 2 16 1 17 18 18 19 19 20 20 21 21 22 22 23 23
REMARK SMILES IDX 84 24 24 25 83 26 25 27 26 28 27 29 77 30 28 31 82 32 76 33
REMARK SMILES IDX 78 34 29 35 81 36 75 37 74 38 30 40 62 41 42 42 61 43 43 44
REMARK SMILES IDX 46 45 60 46 79 47 44 48 45 49 59 51 80 52 47 53 31 54 32 55
REMARK SMILES IDX 40 56 33 57 39 58 41 59 38 60 34 61 35 62 36 63 37 64 63 65
REMARK SMILES IDX 64 66 72 67 65 68 71 69 73 70 70 71 66 72 67 73 68 74 69 75
REMARK SMILES IDX 48 76 49 77 57 78 50 79 56 80 58 81 55 82 51 83 52 84 53 85
REMARK SMILES IDX 54 86
REMARK H PARENT 78 39 46 50
REMARK Flexibility Score: inf
ROOT
ATOM      1  C   UNL A   1      34.888  29.702  27.584  1.00  0.00     0.275 C 
ENDROOT
BRANCH   1   2
ATOM      2  O   UNL A   1      33.627  29.951  26.924  1.00  0.00    -0.457 OA
BRANCH   2   3
ATOM      3  C   UNL A   1      32.857  28.860  26.684  1.00  0.00     0.355 C 
ATOM      4  O   UNL A   1      31.994  28.464  27.469  1.00  0.00    -0.244 OA
BRANCH   3   5
ATOM      5  C   UNL A   1      33.085  28.265  25.374  1.00  0.00     0.127 A 
ATOM      6  N   UNL A   1      33.260  26.942  24.954  1.00  0.00    -0.337 N 
ATOM      7  C   UNL A   1      33.312  26.940  23.568  1.00  0.00     0.087 A 
ATOM      8  C   UNL A   1      33.368  28.229  23.108  1.00  0.00     0.020 A 
ATOM      9  C   UNL A   1      33.225  29.054  24.230  1.00  0.00     0.035 A 
BRANCH   6  10
ATOM     10  C   UNL A   1      33.140  25.698  25.742  1.00  0.00     0.169 C 
BRANCH  10  11
ATOM     11  C   UNL A   1      33.559  24.405  25.041  1.00  0.00     0.027 A 
ATOM     12  C   UNL A   1      32.844  23.416  24.350  1.00  0.00    -0.033 A 
ATOM     13  C   UNL A   1      33.728  22.373  23.879  1.00  0.00     0.016 A 
ATOM     14  C   UNL A   1      35.051  22.618  24.126  1.00  0.00     0.065 A 
ATOM     15  S   UNL A   1      35.269  24.124  24.867  1.00  0.00    -0.147 S 
BRANCH  12  16
ATOM     16  C   UNL A   1      31.373  23.255  24.050  1.00  0.00     0.033 C 
ATOM     17  C   UNL A   1      30.671  24.394  23.364  1.00  0.00     0.009 C 
ENDBRANCH  12  16
ENDBRANCH  10  11
ENDBRANCH   6  10
ENDBRANCH   3   5
ENDBRANCH   2   3
ENDBRANCH   1   2
BRANCH   1  18
ATOM     18  C   UNL A   1      35.215  30.736  28.667  1.00  0.00     0.275 C 
BRANCH  18  19
ATOM     19  O   UNL A   1      36.581  30.699  29.083  1.00  0.00    -0.458 OA
BRANCH  19  20
ATOM     20  C   UNL A   1      36.849  29.630  29.867  1.00  0.00     0.338 C 
ATOM     21  O   UNL A   1      36.385  29.393  30.971  1.00  0.00    -0.246 OA
BRANCH  20  22
ATOM     22  C   UNL A   1      37.975  28.863  29.359  1.00  0.00     0.060 A 
ATOM     23  C   UNL A   1      38.810  28.274  30.315  1.00  0.00     0.016 A 
ATOM     24  C   UNL A   1      38.379  29.086  28.037  1.00  0.00     0.016 A 
ATOM     25  C   UNL A   1      40.120  28.021  29.976  1.00  0.00     0.010 A 
ATOM     26  C   UNL A   1      39.698  28.865  27.708  1.00  0.00     0.010 A 
ATOM     27  C   UNL A   1      40.561  28.363  28.691  1.00  0.00    -0.014 A 
BRANCH  27  28
ATOM     28  C   UNL A   1      41.912  27.940  28.311  1.00  0.00     0.031 A 
ATOM     29  C   UNL A   1      42.810  29.238  28.211  1.00  0.00     0.074 A 
ATOM     30  C   UNL A   1      42.044  26.582  28.109  1.00  0.00     0.049 A 
ATOM     31  N   UNL A   1      43.905  29.480  27.560  1.00  0.00    -0.248 NA
ATOM     32  C   UNL A   1      42.358  30.495  28.904  1.00  0.00     0.031 C 
ATOM     33  C   UNL A   1      40.986  25.542  28.298  1.00  0.00     0.029 A 
ATOM     34  N   UNL A   1      43.080  25.778  27.704  1.00  0.00    -0.354 N 
ATOM     35  C   UNL A   1      44.396  30.748  27.983  1.00  0.00     0.074 A 
ATOM     36  C   UNL A   1      43.340  31.375  28.702  1.00  0.00     0.031 C 
ATOM     37  C   UNL A   1      41.408  24.310  27.906  1.00  0.00     0.029 A 
ATOM     38  C   UNL A   1      42.776  24.396  27.438  1.00  0.00     0.049 A 
ATOM     39  H   UNL A   1      43.993  26.131  27.600  1.00  0.00     0.167 HD
ATOM     40  C   UNL A   1      45.697  31.137  27.832  1.00  0.00     0.034 A 
ATOM     41  C   UNL A   1      43.580  23.459  26.820  1.00  0.00     0.034 A 
ATOM     42  C   UNL A   1      46.389  30.132  27.112  1.00  0.00     0.049 A 
ATOM     43  C   UNL A   1      44.812  24.239  26.635  1.00  0.00     0.074 A 
ATOM     44  C   UNL A   1      46.490  29.846  25.782  1.00  0.00     0.029 A 
ATOM     45  N   UNL A   1      46.914  29.097  27.842  1.00  0.00    -0.354 N 
ATOM     46  N   UNL A   1      45.641  24.567  27.576  1.00  0.00    -0.248 NA
ATOM     47  C   UNL A   1      45.040  24.829  25.314  1.00  0.00     0.031 C 
ATOM     48  C   UNL A   1      46.636  28.445  25.769  1.00  0.00     0.029 A 
ATOM     49  C   UNL A   1      46.773  27.967  27.079  1.00  0.00     0.049 A 
ATOM     50  H   UNL A   1      47.314  29.155  28.740  1.00  0.00     0.167 HD
ATOM     51  C   UNL A   1      46.329  25.620  27.032  1.00  0.00     0.074 A 
ATOM     52  C   UNL A   1      46.126  25.538  25.598  1.00  0.00     0.031 C 
ATOM     53  C   UNL A   1      46.650  26.707  27.779  1.00  0.00     0.034 A 
BRANCH  40  54
ATOM     54  C   UNL A   1      46.566  32.231  28.408  1.00  0.00     0.023 A 
ATOM     55  C   UNL A   1      46.759  33.361  27.569  1.00  0.00     0.031 A 
ATOM     56  C   UNL A   1      47.471  32.085  29.464  1.00  0.00     0.131 A 
ATOM     57  C   UNL A   1      47.906  34.155  27.651  1.00  0.00     0.055 A 
ATOM     58  C   UNL A   1      48.577  32.944  29.605  1.00  0.00     0.041 A 
ATOM     59  F   UNL A   1      47.374  31.068  30.331  1.00  0.00    -0.206 F 
ATOM     60  C   UNL A   1      48.828  33.951  28.668  1.00  0.00     0.022 A 
BRANCH  57  61
ATOM     61  S   UNL A   1      48.251  35.290  26.272  1.00  0.00     0.124 S 
ATOM     62  O   UNL A   1      47.515  36.486  26.666  1.00  0.00    -0.237 OA
ATOM     63  O   UNL A   1      49.707  35.394  26.318  1.00  0.00    -0.237 OA
ATOM     64  O   UNL A   1      47.716  34.583  25.110  1.00  0.00    -0.744 OA
ENDBRANCH  57  61
ENDBRANCH  40  54
BRANCH  41  65
ATOM     65  C   UNL A   1      43.621  22.058  26.167  1.00  0.00     0.023 A 
ATOM     66  C   UNL A   1      44.728  21.342  25.672  1.00  0.00     0.031 A 
ATOM     67  C   UNL A   1      42.390  21.310  26.113  1.00  0.00     0.131 A 
ATOM     68  C   UNL A   1      44.584  19.964  25.278  1.00  0.00     0.055 A 
ATOM     69  C   UNL A   1      42.281  19.945  25.841  1.00  0.00     0.041 A 
ATOM     70  F   UNL A   1      41.196  21.879  26.326  1.00  0.00    -0.206 F 
ATOM     71  C   UNL A   1      43.391  19.254  25.440  1.00  0.00     0.022 A 
BRANCH  68  72
ATOM     72  S   UNL A   1      45.954  19.028  24.514  1.00  0.00     0.124 S 
ATOM     73  O   UNL A   1      46.033  17.851  25.372  1.00  0.00    -0.237 OA
ATOM     74  O   UNL A   1      45.473  18.806  23.155  1.00  0.00    -0.237 OA
ATOM     75  O   UNL A   1      47.096  19.940  24.617  1.00  0.00    -0.744 OA
ENDBRANCH  68  72
ENDBRANCH  41  65
BRANCH  53  76
ATOM     76  C   UNL A   1      46.480  26.528  29.300  1.00  0.00     0.023 A 
ATOM     77  C   UNL A   1      45.421  27.153  29.979  1.00  0.00     0.031 A 
ATOM     78  C   UNL A   1      47.395  25.835  30.122  1.00  0.00     0.131 A 
ATOM     79  C   UNL A   1      45.314  27.079  31.388  1.00  0.00     0.055 A 
ATOM     80  C   UNL A   1      47.294  25.757  31.519  1.00  0.00     0.041 A 
ATOM     81  F   UNL A   1      48.434  25.193  29.600  1.00  0.00    -0.206 F 
ATOM     82  C   UNL A   1      46.244  26.384  32.162  1.00  0.00     0.022 A 
BRANCH  79  83
ATOM     83  S   UNL A   1      43.913  27.877  32.218  1.00  0.00     0.124 S 
ATOM     84  O   UNL A   1      44.118  29.286  31.904  1.00  0.00    -0.237 OA
ATOM     85  O   UNL A   1      42.764  27.238  31.583  1.00  0.00    -0.237 OA
ATOM     86  O   UNL A   1      44.104  27.526  33.627  1.00  0.00    -0.744 OA
ENDBRANCH  79  83
ENDBRANCH  53  76
ENDBRANCH  27  28
ENDBRANCH  20  22
ENDBRANCH  19  20
ENDBRANCH  18  19
ENDBRANCH   1  18
TORSDOF 17
ENDMDL
