MODEL 1
REMARK VINA RESULT:     -12.2      0.000      0.000
REMARK SMILES CC[C@@H]1CCC[C@@](CC[NH+]2CCOCC2)(C(=O)OCCOC(=O)c2ccc(-c3c4nc(c(-c5cc(S(=O)(=O)[O-])ccc5F)c5ccc([nH]5)c(-c5cc(S(=O)(=O)[O-])ccc5F)c5nc(c(-c6cc(S(=O)(=O)[O-])ccc6F)c6ccc3[nH]6)C=C5)C=C4)cc2)C1
REMARK SMILES IDX 19 1 18 2 16 3 17 4 7 5 3 6 4 7 87 8 5 9 6 10 2 11 1 12 8 13
REMARK SMILES IDX 9 14 10 15 11 16 15 17 12 19 14 20 13 21 20 22 21 23 22 24
REMARK SMILES IDX 23 25 24 26 25 27 86 28 26 29 85 30 27 31 28 32 29 33 79 34
REMARK SMILES IDX 30 35 84 36 78 37 80 38 31 39 83 40 77 41 76 42 32 44 64 45
REMARK SMILES IDX 44 46 63 47 45 48 48 49 62 50 81 51 46 52 47 53 61 55 82 56
REMARK SMILES IDX 49 57 33 58 34 59 42 60 35 61 41 62 43 63 40 64 36 65 37 66
REMARK SMILES IDX 38 67 39 68 65 69 66 70 74 71 67 72 73 73 75 74 72 75 68 76
REMARK SMILES IDX 69 77 70 78 71 79 50 80 51 81 59 82 52 83 58 84 60 85 57 86
REMARK SMILES IDX 53 87 54 88 55 89 56 90
REMARK H PARENT 10 18 80 43 48 54
REMARK Flexibility Score: inf
ROOT
ATOM      1  C   UNL A   1      31.791  27.533  27.075  1.00  0.00     0.274 C 
ENDROOT
BRANCH   1   2
ATOM      2  O   UNL A   1      32.814  26.387  25.863  1.00  0.00    -0.462 OA
BRANCH   2   3
ATOM      3  C   UNL A   1      32.981  25.667  24.622  1.00  0.00     0.312 C 
ATOM      4  O   UNL A   1      33.849  25.906  23.782  1.00  0.00    -0.252 OA
BRANCH   3   5
ATOM      5  C   UNL A   1      31.922  24.623  24.298  1.00  0.00     0.074 C 
ATOM      6  C   UNL A   1      33.370  22.724  25.427  1.00  0.00    -0.010 C 
ATOM      7  C   UNL A   1      32.292  22.495  26.486  1.00  0.00     0.003 C 
ATOM      8  C   UNL A   1      32.724  23.257  24.103  1.00  0.00     0.022 C 
ATOM      9  C   UNL A   1      31.465  23.753  26.694  1.00  0.00     0.001 C 
ATOM     10  C   UNL A   1      30.883  24.310  25.390  1.00  0.00     0.019 C 
BRANCH   6  11
ATOM     11  C   UNL A   1      34.241  21.467  25.263  1.00  0.00     0.000 C 
ATOM     12  C   UNL A   1      33.529  20.316  24.565  1.00  0.00     0.004 C 
ENDBRANCH   6  11
BRANCH   5  13
ATOM     13  C   UNL A   1      31.301  25.067  22.948  1.00  0.00     0.080 C 
BRANCH  13  14
ATOM     14  C   UNL A   1      30.667  26.489  22.813  1.00  0.00     0.263 C 
BRANCH  14  15
ATOM     15  N   UNL A   1      30.036  27.221  23.966  1.00  0.00    -0.331 N 
ATOM     16  C   UNL A   1      28.292  26.861  23.899  1.00  0.00     0.291 C 
ATOM     17  C   UNL A   1      30.550  28.917  23.772  1.00  0.00     0.291 C 
ATOM     18  H   UNL A   1      30.315  26.951  24.909  1.00  0.00     0.348 HD
ATOM     19  C   UNL A   1      26.956  28.178  23.480  1.00  0.00     0.221 C 
ATOM     20  C   UNL A   1      29.368  30.331  23.203  1.00  0.00     0.221 C 
ATOM     21  O   UNL A   1      27.579  29.893  23.006  1.00  0.00    -0.370 OA
ENDBRANCH  14  15
ENDBRANCH  13  14
ENDBRANCH   5  13
ENDBRANCH   3   5
ENDBRANCH   2   3
ENDBRANCH   1   2
BRANCH   1  22
ATOM     22  C   UNL A   1      31.704  29.291  27.001  1.00  0.00     0.275 C 
BRANCH  22  23
ATOM     23  O   UNL A   1      32.766  30.076  26.335  1.00  0.00    -0.458 OA
BRANCH  23  24
ATOM     24  C   UNL A   1      33.202  31.227  26.972  1.00  0.00     0.338 C 
ATOM     25  O   UNL A   1      32.526  32.241  27.086  1.00  0.00    -0.246 OA
BRANCH  24  26
ATOM     26  C   UNL A   1      34.574  31.092  27.624  1.00  0.00     0.060 A 
ATOM     27  C   UNL A   1      35.057  29.848  27.997  1.00  0.00     0.016 A 
ATOM     28  C   UNL A   1      35.341  32.189  28.036  1.00  0.00     0.016 A 
ATOM     29  C   UNL A   1      36.168  29.682  28.836  1.00  0.00     0.010 A 
ATOM     30  C   UNL A   1      36.580  32.006  28.726  1.00  0.00     0.010 A 
ATOM     31  C   UNL A   1      37.034  30.733  29.131  1.00  0.00    -0.014 A 
BRANCH  31  32
ATOM     32  C   UNL A   1      38.389  30.466  29.766  1.00  0.00     0.031 A 
ATOM     33  C   UNL A   1      39.398  29.522  29.141  1.00  0.00     0.074 A 
ATOM     34  C   UNL A   1      38.762  31.047  30.939  1.00  0.00     0.049 A 
ATOM     35  N   UNL A   1      40.414  28.904  29.696  1.00  0.00    -0.248 NA
ATOM     36  C   UNL A   1      39.254  29.250  27.703  1.00  0.00     0.031 C 
ATOM     37  C   UNL A   1      38.019  32.076  31.671  1.00  0.00     0.029 A 
ATOM     38  N   UNL A   1      39.873  30.843  31.740  1.00  0.00    -0.354 N 
ATOM     39  C   UNL A   1      40.978  28.104  28.706  1.00  0.00     0.074 A 
ATOM     40  C   UNL A   1      40.210  28.349  27.499  1.00  0.00     0.031 C 
ATOM     41  C   UNL A   1      38.701  32.440  32.764  1.00  0.00     0.029 A 
ATOM     42  C   UNL A   1      39.841  31.553  32.925  1.00  0.00     0.049 A 
ATOM     43  H   UNL A   1      40.616  30.248  31.489  1.00  0.00     0.167 HD
ATOM     44  C   UNL A   1      42.019  27.234  28.799  1.00  0.00     0.034 A 
ATOM     45  C   UNL A   1      40.550  31.454  34.071  1.00  0.00     0.034 A 
ATOM     46  C   UNL A   1      42.841  27.049  29.976  1.00  0.00     0.049 A 
ATOM     47  C   UNL A   1      41.604  30.388  34.207  1.00  0.00     0.074 A 
ATOM     48  C   UNL A   1      43.934  26.208  30.136  1.00  0.00     0.029 A 
ATOM     49  N   UNL A   1      42.678  27.707  31.185  1.00  0.00    -0.354 N 
ATOM     50  N   UNL A   1      42.033  29.534  33.310  1.00  0.00    -0.248 NA
ATOM     51  C   UNL A   1      42.241  30.246  35.525  1.00  0.00     0.031 C 
ATOM     52  C   UNL A   1      44.380  26.301  31.460  1.00  0.00     0.029 A 
ATOM     53  C   UNL A   1      43.617  27.256  32.106  1.00  0.00     0.049 A 
ATOM     54  H   UNL A   1      41.996  28.393  31.365  1.00  0.00     0.167 HD
ATOM     55  C   UNL A   1      42.997  28.764  33.955  1.00  0.00     0.074 A 
ATOM     56  C   UNL A   1      43.106  29.269  35.306  1.00  0.00     0.031 C 
ATOM     57  C   UNL A   1      43.723  27.730  33.464  1.00  0.00     0.034 A 
BRANCH  44  58
ATOM     58  C   UNL A   1      42.288  26.318  27.627  1.00  0.00     0.023 A 
ATOM     59  C   UNL A   1      41.813  25.000  27.558  1.00  0.00     0.031 A 
ATOM     60  C   UNL A   1      42.998  26.824  26.520  1.00  0.00     0.131 A 
ATOM     61  C   UNL A   1      42.084  24.222  26.417  1.00  0.00     0.055 A 
ATOM     62  C   UNL A   1      43.210  26.068  25.366  1.00  0.00     0.041 A 
ATOM     63  F   UNL A   1      43.483  28.076  26.536  1.00  0.00    -0.206 F 
ATOM     64  C   UNL A   1      42.758  24.756  25.314  1.00  0.00     0.022 A 
BRANCH  61  65
ATOM     65  S   UNL A   1      41.623  22.466  26.422  1.00  0.00     0.124 S 
ATOM     66  O   UNL A   1      42.138  22.026  27.716  1.00  0.00    -0.237 OA
ATOM     67  O   UNL A   1      40.172  22.521  26.297  1.00  0.00    -0.237 OA
ATOM     68  O   UNL A   1      42.329  21.922  25.263  1.00  0.00    -0.744 OA
ENDBRANCH  61  65
ENDBRANCH  44  58
BRANCH  45  69
ATOM     69  C   UNL A   1      40.184  32.283  35.264  1.00  0.00     0.023 A 
ATOM     70  C   UNL A   1      39.256  31.828  36.214  1.00  0.00     0.031 A 
ATOM     71  C   UNL A   1      40.698  33.586  35.421  1.00  0.00     0.131 A 
ATOM     72  C   UNL A   1      38.841  32.682  37.250  1.00  0.00     0.055 A 
ATOM     73  C   UNL A   1      40.339  34.401  36.495  1.00  0.00     0.041 A 
ATOM     74  F   UNL A   1      41.568  34.087  34.531  1.00  0.00    -0.206 F 
ATOM     75  C   UNL A   1      39.392  33.955  37.409  1.00  0.00     0.022 A 
BRANCH  72  76
ATOM     76  S   UNL A   1      37.474  32.153  38.320  1.00  0.00     0.124 S 
ATOM     77  O   UNL A   1      36.386  33.004  37.852  1.00  0.00    -0.237 OA
ATOM     78  O   UNL A   1      37.366  30.735  37.996  1.00  0.00    -0.237 OA
ATOM     79  O   UNL A   1      37.962  32.447  39.666  1.00  0.00    -0.744 OA
ENDBRANCH  72  76
ENDBRANCH  45  69
BRANCH  57  80
ATOM     80  C   UNL A   1      44.736  27.100  34.391  1.00  0.00     0.023 A 
ATOM     81  C   UNL A   1      46.047  27.599  34.502  1.00  0.00     0.031 A 
ATOM     82  C   UNL A   1      44.397  25.963  35.146  1.00  0.00     0.131 A 
ATOM     83  C   UNL A   1      46.983  26.934  35.310  1.00  0.00     0.055 A 
ATOM     84  C   UNL A   1      45.316  25.338  35.989  1.00  0.00     0.041 A 
ATOM     85  F   UNL A   1      43.163  25.438  35.073  1.00  0.00    -0.206 F 
ATOM     86  C   UNL A   1      46.622  25.816  36.066  1.00  0.00     0.022 A 
BRANCH  83  87
ATOM     87  S   UNL A   1      48.708  27.502  35.302  1.00  0.00     0.124 S 
ATOM     88  O   UNL A   1      48.908  27.887  36.696  1.00  0.00    -0.237 OA
ATOM     89  O   UNL A   1      49.428  26.313  34.860  1.00  0.00    -0.237 OA
ATOM     90  O   UNL A   1      48.699  28.610  34.349  1.00  0.00    -0.744 OA
ENDBRANCH  83  87
ENDBRANCH  57  80
ENDBRANCH  31  32
ENDBRANCH  24  26
ENDBRANCH  23  24
ENDBRANCH  22  23
ENDBRANCH   1  22
TORSDOF 18
ENDMDL
MODEL 2
REMARK VINA RESULT:     -11.8      2.748      4.434
REMARK SMILES CC[C@@H]1CCC[C@@](CC[NH+]2CCOCC2)(C(=O)OCCOC(=O)c2ccc(-c3c4nc(c(-c5cc(S(=O)(=O)[O-])ccc5F)c5ccc([nH]5)c(-c5cc(S(=O)(=O)[O-])ccc5F)c5nc(c(-c6cc(S(=O)(=O)[O-])ccc6F)c6ccc3[nH]6)C=C5)C=C4)cc2)C1
REMARK SMILES IDX 19 1 18 2 16 3 17 4 7 5 3 6 4 7 87 8 5 9 6 10 2 11 1 12 8 13
REMARK SMILES IDX 9 14 10 15 11 16 15 17 12 19 14 20 13 21 20 22 21 23 22 24
REMARK SMILES IDX 23 25 24 26 25 27 86 28 26 29 85 30 27 31 28 32 29 33 79 34
REMARK SMILES IDX 30 35 84 36 78 37 80 38 31 39 83 40 77 41 76 42 32 44 64 45
REMARK SMILES IDX 44 46 63 47 45 48 48 49 62 50 81 51 46 52 47 53 61 55 82 56
REMARK SMILES IDX 49 57 33 58 34 59 42 60 35 61 41 62 43 63 40 64 36 65 37 66
REMARK SMILES IDX 38 67 39 68 65 69 66 70 74 71 67 72 73 73 75 74 72 75 68 76
REMARK SMILES IDX 69 77 70 78 71 79 50 80 51 81 59 82 52 83 58 84 60 85 57 86
REMARK SMILES IDX 53 87 54 88 55 89 56 90
REMARK H PARENT 10 18 80 43 48 54
REMARK Flexibility Score: inf
ROOT
ATOM      1  C   UNL A   1      31.940  31.607  26.972  1.00  0.00     0.274 C 
ENDROOT
BRANCH   1   2
ATOM      2  O   UNL A   1      32.215  29.679  27.168  1.00  0.00    -0.462 OA
BRANCH   2   3
ATOM      3  C   UNL A   1      31.747  28.313  27.143  1.00  0.00     0.312 C 
ATOM      4  O   UNL A   1      31.025  27.801  28.000  1.00  0.00    -0.252 OA
BRANCH   3   5
ATOM      5  C   UNL A   1      32.296  27.429  26.032  1.00  0.00     0.074 C 
ATOM      6  C   UNL A   1      30.824  28.683  24.232  1.00  0.00    -0.010 C 
ATOM      7  C   UNL A   1      32.079  29.185  23.518  1.00  0.00     0.003 C 
ATOM      8  C   UNL A   1      31.122  27.326  24.956  1.00  0.00     0.022 C 
ATOM      9  C   UNL A   1      33.249  29.273  24.483  1.00  0.00     0.001 C 
ATOM     10  C   UNL A   1      33.502  27.963  25.238  1.00  0.00     0.019 C 
BRANCH   6  11
ATOM     11  C   UNL A   1      29.629  28.652  23.264  1.00  0.00     0.000 C 
ATOM     12  C   UNL A   1      29.855  29.449  21.987  1.00  0.00     0.004 C 
ENDBRANCH   6  11
BRANCH   5  13
ATOM     13  C   UNL A   1      32.537  26.043  26.685  1.00  0.00     0.080 C 
BRANCH  13  14
ATOM     14  C   UNL A   1      32.280  24.740  25.861  1.00  0.00     0.263 C 
BRANCH  14  15
ATOM     15  N   UNL A   1      33.387  23.886  25.304  1.00  0.00    -0.331 N 
ATOM     16  C   UNL A   1      33.620  24.400  23.614  1.00  0.00     0.291 C 
ATOM     17  C   UNL A   1      32.870  22.207  25.607  1.00  0.00     0.291 C 
ATOM     18  H   UNL A   1      34.311  23.974  25.726  1.00  0.00     0.348 HD
ATOM     19  C   UNL A   1      33.199  23.288  22.104  1.00  0.00     0.221 C 
ATOM     20  C   UNL A   1      32.267  21.011  24.219  1.00  0.00     0.221 C 
ATOM     21  O   UNL A   1      32.390  21.627  22.476  1.00  0.00    -0.370 OA
ENDBRANCH  14  15
ENDBRANCH  13  14
ENDBRANCH   5  13
ENDBRANCH   3   5
ENDBRANCH   2   3
ENDBRANCH   1   2
BRANCH   1  22
ATOM     22  C   UNL A   1      32.954  32.867  27.667  1.00  0.00     0.275 C 
BRANCH  22  23
ATOM     23  O   UNL A   1      32.482  34.267  27.739  1.00  0.00    -0.458 OA
BRANCH  23  24
ATOM     24  C   UNL A   1      32.938  35.040  28.795  1.00  0.00     0.338 C 
ATOM     25  O   UNL A   1      32.363  36.039  29.208  1.00  0.00    -0.246 OA
BRANCH  24  26
ATOM     26  C   UNL A   1      34.178  34.479  29.483  1.00  0.00     0.060 A 
ATOM     27  C   UNL A   1      35.416  34.543  28.864  1.00  0.00     0.016 A 
ATOM     28  C   UNL A   1      34.130  33.731  30.666  1.00  0.00     0.016 A 
ATOM     29  C   UNL A   1      36.528  33.813  29.307  1.00  0.00     0.010 A 
ATOM     30  C   UNL A   1      35.312  33.149  31.221  1.00  0.00     0.010 A 
ATOM     31  C   UNL A   1      36.555  33.192  30.555  1.00  0.00    -0.014 A 
BRANCH  31  32
ATOM     32  C   UNL A   1      37.864  32.690  31.143  1.00  0.00     0.031 A 
ATOM     33  C   UNL A   1      38.652  31.563  30.505  1.00  0.00     0.074 A 
ATOM     34  C   UNL A   1      38.388  33.215  32.284  1.00  0.00     0.049 A 
ATOM     35  N   UNL A   1      39.559  30.777  31.038  1.00  0.00    -0.248 NA
ATOM     36  C   UNL A   1      38.397  31.293  29.083  1.00  0.00     0.031 C 
ATOM     37  C   UNL A   1      37.881  34.379  33.016  1.00  0.00     0.029 A 
ATOM     38  N   UNL A   1      39.477  32.824  33.047  1.00  0.00    -0.354 N 
ATOM     39  C   UNL A   1      39.921  29.866  30.049  1.00  0.00     0.074 A 
ATOM     40  C   UNL A   1      39.160  30.226  28.867  1.00  0.00     0.031 C 
ATOM     41  C   UNL A   1      38.666  34.632  34.070  1.00  0.00     0.029 A 
ATOM     42  C   UNL A   1      39.628  33.551  34.211  1.00  0.00     0.049 A 
ATOM     43  H   UNL A   1      40.085  32.096  32.783  1.00  0.00     0.167 HD
ATOM     44  C   UNL A   1      40.786  28.820  30.126  1.00  0.00     0.034 A 
ATOM     45  C   UNL A   1      40.356  33.345  35.332  1.00  0.00     0.034 A 
ATOM     46  C   UNL A   1      41.611  28.509  31.274  1.00  0.00     0.049 A 
ATOM     47  C   UNL A   1      41.199  32.104  35.455  1.00  0.00     0.074 A 
ATOM     48  C   UNL A   1      42.535  27.483  31.415  1.00  0.00     0.029 A 
ATOM     49  N   UNL A   1      41.625  29.210  32.470  1.00  0.00    -0.354 N 
ATOM     50  N   UNL A   1      41.422  31.168  34.567  1.00  0.00    -0.248 NA
ATOM     51  C   UNL A   1      41.855  31.873  36.751  1.00  0.00     0.031 C 
ATOM     52  C   UNL A   1      43.047  27.518  32.717  1.00  0.00     0.029 A 
ATOM     53  C   UNL A   1      42.504  28.611  33.366  1.00  0.00     0.049 A 
ATOM     54  H   UNL A   1      41.090  30.014  32.657  1.00  0.00     0.167 HD
ATOM     55  C   UNL A   1      42.255  30.245  35.194  1.00  0.00     0.074 A 
ATOM     56  C   UNL A   1      42.514  30.747  36.525  1.00  0.00     0.031 C 
ATOM     57  C   UNL A   1      42.755  29.084  34.705  1.00  0.00     0.034 A 
BRANCH  44  58
ATOM     58  C   UNL A   1      40.829  27.847  28.970  1.00  0.00     0.023 A 
ATOM     59  C   UNL A   1      41.760  27.937  27.923  1.00  0.00     0.031 A 
ATOM     60  C   UNL A   1      39.933  26.759  28.965  1.00  0.00     0.131 A 
ATOM     61  C   UNL A   1      41.750  26.973  26.899  1.00  0.00     0.055 A 
ATOM     62  C   UNL A   1      39.969  25.773  27.980  1.00  0.00     0.041 A 
ATOM     63  F   UNL A   1      39.015  26.628  29.937  1.00  0.00    -0.206 F 
ATOM     64  C   UNL A   1      40.877  25.881  26.934  1.00  0.00     0.022 A 
BRANCH  61  65
ATOM     65  S   UNL A   1      42.835  27.208  25.463  1.00  0.00     0.124 S 
ATOM     66  O   UNL A   1      44.102  27.558  26.101  1.00  0.00    -0.237 OA
ATOM     67  O   UNL A   1      42.785  25.904  24.813  1.00  0.00    -0.237 OA
ATOM     68  O   UNL A   1      42.198  28.298  24.725  1.00  0.00    -0.744 OA
ENDBRANCH  61  65
ENDBRANCH  44  58
BRANCH  45  69
ATOM     69  C   UNL A   1      40.202  34.251  36.514  1.00  0.00     0.023 A 
ATOM     70  C   UNL A   1      41.183  35.201  36.841  1.00  0.00     0.031 A 
ATOM     71  C   UNL A   1      39.105  34.115  37.389  1.00  0.00     0.131 A 
ATOM     72  C   UNL A   1      41.068  35.945  38.027  1.00  0.00     0.055 A 
ATOM     73  C   UNL A   1      38.958  34.910  38.525  1.00  0.00     0.041 A 
ATOM     74  F   UNL A   1      38.149  33.206  37.145  1.00  0.00    -0.206 F 
ATOM     75  C   UNL A   1      39.952  35.822  38.858  1.00  0.00     0.022 A 
BRANCH  72  76
ATOM     76  S   UNL A   1      42.460  36.991  38.538  1.00  0.00     0.124 S 
ATOM     77  O   UNL A   1      43.011  37.400  37.251  1.00  0.00    -0.237 OA
ATOM     78  O   UNL A   1      41.789  38.032  39.310  1.00  0.00    -0.237 OA
ATOM     79  O   UNL A   1      43.299  36.084  39.318  1.00  0.00    -0.744 OA
ENDBRANCH  72  76
ENDBRANCH  45  69
BRANCH  57  80
ATOM     80  C   UNL A   1      43.673  28.295  35.608  1.00  0.00     0.023 A 
ATOM     81  C   UNL A   1      45.070  28.455  35.563  1.00  0.00     0.031 A 
ATOM     82  C   UNL A   1      43.146  27.345  36.501  1.00  0.00     0.131 A 
ATOM     83  C   UNL A   1      45.894  27.642  36.359  1.00  0.00     0.055 A 
ATOM     84  C   UNL A   1      43.967  26.578  37.329  1.00  0.00     0.041 A 
ATOM     85  F   UNL A   1      41.821  27.144  36.580  1.00  0.00    -0.206 F 
ATOM     86  C   UNL A   1      45.350  26.715  37.253  1.00  0.00     0.022 A 
BRANCH  83  87
ATOM     87  S   UNL A   1      47.694  27.754  36.156  1.00  0.00     0.124 S 
ATOM     88  O   UNL A   1      47.823  28.037  34.730  1.00  0.00    -0.237 OA
ATOM     89  O   UNL A   1      48.045  28.845  37.058  1.00  0.00    -0.237 OA
ATOM     90  O   UNL A   1      48.169  26.434  36.570  1.00  0.00    -0.744 OA
ENDBRANCH  83  87
ENDBRANCH  57  80
ENDBRANCH  31  32
ENDBRANCH  24  26
ENDBRANCH  23  24
ENDBRANCH  22  23
ENDBRANCH   1  22
TORSDOF 18
ENDMDL
MODEL 3
REMARK VINA RESULT:     -11.8      1.972      3.765
REMARK SMILES CC[C@@H]1CCC[C@@](CC[NH+]2CCOCC2)(C(=O)OCCOC(=O)c2ccc(-c3c4nc(c(-c5cc(S(=O)(=O)[O-])ccc5F)c5ccc([nH]5)c(-c5cc(S(=O)(=O)[O-])ccc5F)c5nc(c(-c6cc(S(=O)(=O)[O-])ccc6F)c6ccc3[nH]6)C=C5)C=C4)cc2)C1
REMARK SMILES IDX 19 1 18 2 16 3 17 4 7 5 3 6 4 7 87 8 5 9 6 10 2 11 1 12 8 13
REMARK SMILES IDX 9 14 10 15 11 16 15 17 12 19 14 20 13 21 20 22 21 23 22 24
REMARK SMILES IDX 23 25 24 26 25 27 86 28 26 29 85 30 27 31 28 32 29 33 79 34
REMARK SMILES IDX 30 35 84 36 78 37 80 38 31 39 83 40 77 41 76 42 32 44 64 45
REMARK SMILES IDX 44 46 63 47 45 48 48 49 62 50 81 51 46 52 47 53 61 55 82 56
REMARK SMILES IDX 49 57 33 58 34 59 42 60 35 61 41 62 43 63 40 64 36 65 37 66
REMARK SMILES IDX 38 67 39 68 65 69 66 70 74 71 67 72 73 73 75 74 72 75 68 76
REMARK SMILES IDX 69 77 70 78 71 79 50 80 51 81 59 82 52 83 58 84 60 85 57 86
REMARK SMILES IDX 53 87 54 88 55 89 56 90
REMARK H PARENT 10 18 80 43 48 54
REMARK Flexibility Score: inf
ROOT
ATOM      1  C   UNL A   1      31.599  28.343  27.278  1.00  0.00     0.274 C 
ENDROOT
BRANCH   1   2
ATOM      2  O   UNL A   1      32.463  26.907  26.267  1.00  0.00    -0.462 OA
BRANCH   2   3
ATOM      3  C   UNL A   1      32.618  26.091  25.085  1.00  0.00     0.312 C 
ATOM      4  O   UNL A   1      33.688  25.868  24.519  1.00  0.00    -0.252 OA
BRANCH   3   5
ATOM      5  C   UNL A   1      31.335  25.579  24.444  1.00  0.00     0.074 C 
ATOM      6  C   UNL A   1      30.735  28.002  23.579  1.00  0.00    -0.010 C 
ATOM      7  C   UNL A   1      30.837  27.537  22.126  1.00  0.00     0.003 C 
ATOM      8  C   UNL A   1      30.317  26.806  24.501  1.00  0.00     0.022 C 
ATOM      9  C   UNL A   1      31.768  26.342  22.007  1.00  0.00     0.001 C 
ATOM     10  C   UNL A   1      31.396  25.196  22.954  1.00  0.00     0.019 C 
BRANCH   6  11
ATOM     11  C   UNL A   1      29.838  29.247  23.684  1.00  0.00     0.000 C 
ATOM     12  C   UNL A   1      28.896  29.424  22.502  1.00  0.00     0.004 C 
ENDBRANCH   6  11
BRANCH   5  13
ATOM     13  C   UNL A   1      30.837  24.437  25.367  1.00  0.00     0.080 C 
BRANCH  13  14
ATOM     14  C   UNL A   1      31.157  22.950  25.007  1.00  0.00     0.263 C 
BRANCH  14  15
ATOM     15  N   UNL A   1      31.605  21.935  26.025  1.00  0.00    -0.331 N 
ATOM     16  C   UNL A   1      32.635  22.807  27.188  1.00  0.00     0.291 C 
ATOM     17  C   UNL A   1      32.342  20.622  25.071  1.00  0.00     0.291 C 
ATOM     18  H   UNL A   1      30.889  21.494  26.600  1.00  0.00     0.348 HD
ATOM     19  C   UNL A   1      34.526  22.506  27.358  1.00  0.00     0.221 C 
ATOM     20  C   UNL A   1      34.241  20.286  25.008  1.00  0.00     0.221 C 
ATOM     21  O   UNL A   1      35.305  21.307  26.129  1.00  0.00    -0.370 OA
ENDBRANCH  14  15
ENDBRANCH  13  14
ENDBRANCH   5  13
ENDBRANCH   3   5
ENDBRANCH   2   3
ENDBRANCH   1   2
BRANCH   1  22
ATOM     22  C   UNL A   1      31.990  30.057  27.172  1.00  0.00     0.275 C 
BRANCH  22  23
ATOM     23  O   UNL A   1      33.347  30.502  26.787  1.00  0.00    -0.458 OA
BRANCH  23  24
ATOM     24  C   UNL A   1      33.955  31.457  27.587  1.00  0.00     0.338 C 
ATOM     25  O   UNL A   1      33.448  32.537  27.865  1.00  0.00    -0.246 OA
BRANCH  24  26
ATOM     26  C   UNL A   1      35.280  31.006  28.190  1.00  0.00     0.060 A 
ATOM     27  C   UNL A   1      36.409  31.804  28.087  1.00  0.00     0.016 A 
ATOM     28  C   UNL A   1      35.489  29.726  28.718  1.00  0.00     0.016 A 
ATOM     29  C   UNL A   1      37.700  31.337  28.370  1.00  0.00     0.010 A 
ATOM     30  C   UNL A   1      36.778  29.321  29.187  1.00  0.00     0.010 A 
ATOM     31  C   UNL A   1      37.922  30.134  29.037  1.00  0.00    -0.014 A 
BRANCH  31  32
ATOM     32  C   UNL A   1      39.290  29.807  29.613  1.00  0.00     0.031 A 
ATOM     33  C   UNL A   1      40.169  28.720  29.028  1.00  0.00     0.074 A 
ATOM     34  C   UNL A   1      39.791  30.462  30.696  1.00  0.00     0.049 A 
ATOM     35  N   UNL A   1      41.165  28.067  29.581  1.00  0.00    -0.248 NA
ATOM     36  C   UNL A   1      39.904  28.324  27.637  1.00  0.00     0.031 C 
ATOM     37  C   UNL A   1      39.190  31.621  31.363  1.00  0.00     0.029 A 
ATOM     38  N   UNL A   1      40.934  30.236  31.445  1.00  0.00    -0.354 N 
ATOM     39  C   UNL A   1      41.590  27.128  28.645  1.00  0.00     0.074 A 
ATOM     40  C   UNL A   1      40.763  27.324  27.469  1.00  0.00     0.031 C 
ATOM     41  C   UNL A   1      39.975  32.025  32.369  1.00  0.00     0.029 A 
ATOM     42  C   UNL A   1      41.044  31.056  32.551  1.00  0.00     0.049 A 
ATOM     43  H   UNL A   1      41.604  29.555  31.212  1.00  0.00     0.167 HD
ATOM     44  C   UNL A   1      42.557  26.180  28.764  1.00  0.00     0.034 A 
ATOM     45  C   UNL A   1      41.820  31.005  33.657  1.00  0.00     0.034 A 
ATOM     46  C   UNL A   1      43.440  26.035  29.902  1.00  0.00     0.049 A 
ATOM     47  C   UNL A   1      42.786  29.865  33.836  1.00  0.00     0.074 A 
ATOM     48  C   UNL A   1      44.466  25.117  30.081  1.00  0.00     0.029 A 
ATOM     49  N   UNL A   1      43.417  26.818  31.045  1.00  0.00    -0.354 N 
ATOM     50  N   UNL A   1      43.078  28.893  33.007  1.00  0.00    -0.248 NA
ATOM     51  C   UNL A   1      43.499  29.793  35.121  1.00  0.00     0.031 C 
ATOM     52  C   UNL A   1      45.009  25.296  31.358  1.00  0.00     0.029 A 
ATOM     53  C   UNL A   1      44.377  26.375  31.949  1.00  0.00     0.049 A 
ATOM     54  H   UNL A   1      42.810  27.578  31.195  1.00  0.00     0.167 HD
ATOM     55  C   UNL A   1      44.016  28.104  33.667  1.00  0.00     0.074 A 
ATOM     56  C   UNL A   1      44.261  28.724  34.951  1.00  0.00     0.031 C 
ATOM     57  C   UNL A   1      44.616  26.965  33.243  1.00  0.00     0.034 A 
BRANCH  44  58
ATOM     58  C   UNL A   1      42.665  25.134  27.677  1.00  0.00     0.023 A 
ATOM     59  C   UNL A   1      41.964  23.919  27.708  1.00  0.00     0.031 A 
ATOM     60  C   UNL A   1      43.460  25.410  26.547  1.00  0.00     0.131 A 
ATOM     61  C   UNL A   1      42.099  23.011  26.641  1.00  0.00     0.055 A 
ATOM     62  C   UNL A   1      43.542  24.534  25.465  1.00  0.00     0.041 A 
ATOM     63  F   UNL A   1      44.161  26.554  26.470  1.00  0.00    -0.206 F 
ATOM     64  C   UNL A   1      42.864  23.322  25.512  1.00  0.00     0.022 A 
BRANCH  61  65
ATOM     65  S   UNL A   1      41.333  21.372  26.782  1.00  0.00     0.124 S 
ATOM     66  O   UNL A   1      42.482  20.489  26.601  1.00  0.00    -0.237 OA
ATOM     67  O   UNL A   1      40.757  21.407  28.121  1.00  0.00    -0.237 OA
ATOM     68  O   UNL A   1      40.363  21.351  25.687  1.00  0.00    -0.744 OA
ENDBRANCH  61  65
ENDBRANCH  44  58
BRANCH  45  69
ATOM     69  C   UNL A   1      41.609  31.974  34.778  1.00  0.00     0.023 A 
ATOM     70  C   UNL A   1      40.512  31.861  35.648  1.00  0.00     0.031 A 
ATOM     71  C   UNL A   1      42.461  33.086  34.940  1.00  0.00     0.131 A 
ATOM     72  C   UNL A   1      40.275  32.859  36.607  1.00  0.00     0.055 A 
ATOM     73  C   UNL A   1      42.264  34.033  35.944  1.00  0.00     0.041 A 
ATOM     74  F   UNL A   1      43.511  33.264  34.123  1.00  0.00    -0.206 F 
ATOM     75  C   UNL A   1      41.155  33.931  36.776  1.00  0.00     0.022 A 
BRANCH  72  76
ATOM     76  S   UNL A   1      38.729  32.807  37.555  1.00  0.00     0.124 S 
ATOM     77  O   UNL A   1      38.391  31.389  37.493  1.00  0.00    -0.237 OA
ATOM     78  O   UNL A   1      39.154  33.309  38.857  1.00  0.00    -0.237 OA
ATOM     79  O   UNL A   1      37.841  33.694  36.807  1.00  0.00    -0.744 OA
ENDBRANCH  72  76
ENDBRANCH  45  69
BRANCH  57  80
ATOM     80  C   UNL A   1      45.633  26.338  34.165  1.00  0.00     0.023 A 
ATOM     81  C   UNL A   1      45.260  25.411  35.156  1.00  0.00     0.031 A 
ATOM     82  C   UNL A   1      46.989  26.699  34.078  1.00  0.00     0.131 A 
ATOM     83  C   UNL A   1      46.224  24.915  36.050  1.00  0.00     0.055 A 
ATOM     84  C   UNL A   1      47.952  26.162  34.934  1.00  0.00     0.041 A 
ATOM     85  F   UNL A   1      47.402  27.585  33.157  1.00  0.00    -0.206 F 
ATOM     86  C   UNL A   1      47.569  25.273  35.935  1.00  0.00     0.022 A 
BRANCH  83  87
ATOM     87  S   UNL A   1      45.684  23.854  37.420  1.00  0.00     0.124 S 
ATOM     88  O   UNL A   1      46.870  23.827  38.270  1.00  0.00    -0.237 OA
ATOM     89  O   UNL A   1      44.536  24.583  37.949  1.00  0.00    -0.237 OA
ATOM     90  O   UNL A   1      45.362  22.586  36.766  1.00  0.00    -0.744 OA
ENDBRANCH  83  87
ENDBRANCH  57  80
ENDBRANCH  31  32
ENDBRANCH  24  26
ENDBRANCH  23  24
ENDBRANCH  22  23
ENDBRANCH   1  22
TORSDOF 18
ENDMDL
