MODEL 1
REMARK VINA RESULT:     -12.2      0.000      0.000
REMARK SMILES CC(C)N1C[C@@H](C(=O)N2CCC(C(=O)OCCOC(=O)c3ccc(-c4c5nc(c(-c6cc(S(=O)(=O)[O-])ccc6F)c6ccc([nH]6)c(-c6cc(S(=O)(=O)[O-])ccc6F)c6nc(c(-c7cc(S(=O)(=O)[O-])ccc7F)c7ccc4[nH]7)C=C6)C=C5)cc3)CC2)CC1=O
REMARK SMILES IDX 17 1 16 2 15 3 13 4 14 5 12 6 7 7 8 8 9 9 10 10 85 11 11 12
REMARK SMILES IDX 84 13 6 14 4 15 5 16 87 17 86 18 88 19 2 20 1 21 3 22 18 23
REMARK SMILES IDX 19 24 20 25 21 26 22 27 83 28 23 29 82 30 24 31 25 32 26 33
REMARK SMILES IDX 76 34 27 35 81 36 75 37 77 38 28 39 80 40 74 41 73 42 29 44
REMARK SMILES IDX 61 45 41 46 60 47 42 48 45 49 59 50 78 51 43 52 44 53 58 55
REMARK SMILES IDX 79 56 46 57 30 58 31 59 39 60 32 61 38 62 40 63 37 64 33 65
REMARK SMILES IDX 34 66 35 67 36 68 62 69 63 70 71 71 64 72 70 73 72 74 69 75
REMARK SMILES IDX 65 76 66 77 67 78 68 79 47 80 48 81 56 82 49 83 55 84 57 85
REMARK SMILES IDX 54 86 50 87 51 88 52 89 53 90
REMARK H PARENT 77 43 45 54
REMARK Flexibility Score: inf
ROOT
ATOM      1  C   UNL A   1      36.576  20.903  25.449  1.00  0.00     0.275 C 
ENDROOT
BRANCH   1   2
ATOM      2  C   UNL A   1      35.346  21.446  24.718  1.00  0.00     0.274 C 
BRANCH   2   3
ATOM      3  O   UNL A   1      35.224  22.869  24.888  1.00  0.00    -0.462 OA
BRANCH   3   4
ATOM      4  C   UNL A   1      34.728  23.560  23.830  1.00  0.00     0.309 C 
ATOM      5  O   UNL A   1      35.249  23.607  22.722  1.00  0.00    -0.252 OA
BRANCH   4   6
ATOM      6  C   UNL A   1      33.426  24.273  24.137  1.00  0.00     0.103 C 
ATOM      7  C   UNL A   1      31.252  27.581  23.477  1.00  0.00     0.227 C 
ATOM      8  O   UNL A   1      32.104  28.449  23.691  1.00  0.00    -0.274 OA
ATOM      9  N   UNL A   1      31.402  26.304  23.989  1.00  0.00    -0.342 N 
ATOM     10  C   UNL A   1      32.173  26.146  25.223  1.00  0.00     0.120 C 
ATOM     11  C   UNL A   1      31.239  25.073  23.223  1.00  0.00     0.120 C 
ATOM     12  C   UNL A   1      33.556  25.570  24.944  1.00  0.00     0.037 C 
ATOM     13  C   UNL A   1      32.617  24.508  22.860  1.00  0.00     0.037 C 
BRANCH   7  14
ATOM     14  C   UNL A   1      29.934  28.004  22.840  1.00  0.00     0.107 C 
ATOM     15  N   UNL A   1      28.450  29.798  22.631  1.00  0.00    -0.339 N 
ATOM     16  C   UNL A   1      29.858  29.517  22.739  1.00  0.00     0.133 C 
ATOM     17  C   UNL A   1      27.682  28.750  23.114  1.00  0.00     0.223 C 
ATOM     18  C   UNL A   1      28.589  27.575  23.404  1.00  0.00     0.115 C 
ATOM     19  O   UNL A   1      26.476  28.740  23.298  1.00  0.00    -0.275 OA
BRANCH  15  20
ATOM     20  C   UNL A   1      27.979  31.150  22.325  1.00  0.00     0.078 C 
ATOM     21  C   UNL A   1      28.614  32.219  23.214  1.00  0.00     0.031 C 
ATOM     22  C   UNL A   1      28.163  31.483  20.847  1.00  0.00     0.031 C 
ENDBRANCH  15  20
ENDBRANCH   7  14
ENDBRANCH   4   6
ENDBRANCH   3   4
ENDBRANCH   2   3
ENDBRANCH   1   2
BRANCH   1  23
ATOM     23  O   UNL A   1      37.743  21.716  25.217  1.00  0.00    -0.458 OA
BRANCH  23  24
ATOM     24  C   UNL A   1      38.840  21.353  25.923  1.00  0.00     0.338 C 
ATOM     25  O   UNL A   1      39.338  20.243  25.991  1.00  0.00    -0.246 OA
BRANCH  24  26
ATOM     26  C   UNL A   1      39.457  22.538  26.536  1.00  0.00     0.060 A 
ATOM     27  C   UNL A   1      38.979  23.793  26.158  1.00  0.00     0.016 A 
ATOM     28  C   UNL A   1      40.565  22.429  27.375  1.00  0.00     0.016 A 
ATOM     29  C   UNL A   1      39.612  24.950  26.595  1.00  0.00     0.010 A 
ATOM     30  C   UNL A   1      41.192  23.595  27.831  1.00  0.00     0.010 A 
ATOM     31  C   UNL A   1      40.729  24.862  27.433  1.00  0.00    -0.014 A 
BRANCH  31  32
ATOM     32  C   UNL A   1      41.442  26.100  27.835  1.00  0.00     0.031 A 
ATOM     33  C   UNL A   1      40.723  27.143  28.645  1.00  0.00     0.074 A 
ATOM     34  C   UNL A   1      42.737  26.268  27.509  1.00  0.00     0.049 A 
ATOM     35  N   UNL A   1      41.120  28.337  28.998  1.00  0.00    -0.248 NA
ATOM     36  C   UNL A   1      39.376  26.788  29.118  1.00  0.00     0.031 C 
ATOM     37  C   UNL A   1      43.559  25.291  26.791  1.00  0.00     0.029 A 
ATOM     38  N   UNL A   1      43.590  27.317  27.737  1.00  0.00    -0.354 N 
ATOM     39  C   UNL A   1      40.067  28.889  29.720  1.00  0.00     0.074 A 
ATOM     40  C   UNL A   1      39.005  27.903  29.730  1.00  0.00     0.031 C 
ATOM     41  C   UNL A   1      44.796  25.788  26.639  1.00  0.00     0.029 A 
ATOM     42  C   UNL A   1      44.839  27.140  27.187  1.00  0.00     0.049 A 
ATOM     43  H   UNL A   1      43.333  28.121  28.244  1.00  0.00     0.167 HD
ATOM     44  C   UNL A   1      39.997  30.103  30.321  1.00  0.00     0.034 A 
ATOM     45  C   UNL A   1      45.882  27.989  27.099  1.00  0.00     0.034 A 
ATOM     46  C   UNL A   1      41.066  31.073  30.296  1.00  0.00     0.049 A 
ATOM     47  C   UNL A   1      45.745  29.370  27.687  1.00  0.00     0.074 A 
ATOM     48  C   UNL A   1      41.096  32.343  30.845  1.00  0.00     0.029 A 
ATOM     49  N   UNL A   1      42.299  30.879  29.685  1.00  0.00    -0.354 N 
ATOM     50  N   UNL A   1      44.725  29.902  28.321  1.00  0.00    -0.248 NA
ATOM     51  C   UNL A   1      46.899  30.267  27.545  1.00  0.00     0.031 C 
ATOM     52  C   UNL A   1      42.321  32.936  30.519  1.00  0.00     0.029 A 
ATOM     53  C   UNL A   1      43.086  32.012  29.826  1.00  0.00     0.049 A 
ATOM     54  H   UNL A   1      42.574  30.056  29.219  1.00  0.00     0.167 HD
ATOM     55  C   UNL A   1      45.127  31.187  28.675  1.00  0.00     0.074 A 
ATOM     56  C   UNL A   1      46.486  31.342  28.198  1.00  0.00     0.031 C 
ATOM     57  C   UNL A   1      44.437  32.151  29.335  1.00  0.00     0.034 A 
BRANCH  44  58
ATOM     58  C   UNL A   1      38.699  30.462  31.001  1.00  0.00     0.023 A 
ATOM     59  C   UNL A   1      37.633  31.051  30.299  1.00  0.00     0.031 A 
ATOM     60  C   UNL A   1      38.539  30.251  32.383  1.00  0.00     0.131 A 
ATOM     61  C   UNL A   1      36.486  31.470  30.989  1.00  0.00     0.055 A 
ATOM     62  C   UNL A   1      37.364  30.601  33.050  1.00  0.00     0.041 A 
ATOM     63  F   UNL A   1      39.530  29.714  33.110  1.00  0.00    -0.206 F 
ATOM     64  C   UNL A   1      36.333  31.228  32.356  1.00  0.00     0.022 A 
BRANCH  61  65
ATOM     65  S   UNL A   1      35.253  32.463  30.101  1.00  0.00     0.124 S 
ATOM     66  O   UNL A   1      36.018  33.666  29.781  1.00  0.00    -0.237 OA
ATOM     67  O   UNL A   1      34.910  31.606  28.973  1.00  0.00    -0.237 OA
ATOM     68  O   UNL A   1      34.191  32.654  31.087  1.00  0.00    -0.744 OA
ENDBRANCH  61  65
ENDBRANCH  44  58
BRANCH  45  69
ATOM     69  C   UNL A   1      47.124  27.590  26.374  1.00  0.00     0.023 A 
ATOM     70  C   UNL A   1      47.271  27.834  25.000  1.00  0.00     0.031 A 
ATOM     71  C   UNL A   1      48.157  26.905  27.038  1.00  0.00     0.131 A 
ATOM     72  C   UNL A   1      48.404  27.355  24.324  1.00  0.00     0.055 A 
ATOM     73  C   UNL A   1      49.308  26.481  26.372  1.00  0.00     0.041 A 
ATOM     74  F   UNL A   1      48.065  26.643  28.351  1.00  0.00    -0.206 F 
ATOM     75  C   UNL A   1      49.430  26.692  25.002  1.00  0.00     0.022 A 
BRANCH  72  76
ATOM     76  S   UNL A   1      48.475  27.527  22.520  1.00  0.00     0.124 S 
ATOM     77  O   UNL A   1      48.513  26.135  22.090  1.00  0.00    -0.237 OA
ATOM     78  O   UNL A   1      47.240  28.253  22.238  1.00  0.00    -0.237 OA
ATOM     79  O   UNL A   1      49.705  28.285  22.298  1.00  0.00    -0.744 OA
ENDBRANCH  72  76
ENDBRANCH  45  69
BRANCH  57  80
ATOM     80  C   UNL A   1      45.172  33.437  29.619  1.00  0.00     0.023 A 
ATOM     81  C   UNL A   1      45.091  34.541  28.754  1.00  0.00     0.031 A 
ATOM     82  C   UNL A   1      45.984  33.548  30.761  1.00  0.00     0.131 A 
ATOM     83  C   UNL A   1      45.855  35.689  29.014  1.00  0.00     0.055 A 
ATOM     84  C   UNL A   1      46.698  34.712  31.045  1.00  0.00     0.041 A 
ATOM     85  F   UNL A   1      46.097  32.521  31.621  1.00  0.00    -0.206 F 
ATOM     86  C   UNL A   1      46.646  35.786  30.162  1.00  0.00     0.022 A 
BRANCH  83  87
ATOM     87  S   UNL A   1      45.867  37.025  27.787  1.00  0.00     0.124 S 
ATOM     88  O   UNL A   1      46.524  38.103  28.518  1.00  0.00    -0.237 OA
ATOM     89  O   UNL A   1      46.633  36.438  26.692  1.00  0.00    -0.237 OA
ATOM     90  O   UNL A   1      44.449  37.243  27.503  1.00  0.00    -0.744 OA
ENDBRANCH  83  87
ENDBRANCH  57  80
ENDBRANCH  31  32
ENDBRANCH  24  26
ENDBRANCH  23  24
ENDBRANCH   1  23
TORSDOF 16
ENDMDL
MODEL 2
REMARK VINA RESULT:     -12.2      5.309     10.543
REMARK SMILES CC(C)N1C[C@@H](C(=O)N2CCC(C(=O)OCCOC(=O)c3ccc(-c4c5nc(c(-c6cc(S(=O)(=O)[O-])ccc6F)c6ccc([nH]6)c(-c6cc(S(=O)(=O)[O-])ccc6F)c6nc(c(-c7cc(S(=O)(=O)[O-])ccc7F)c7ccc4[nH]7)C=C6)C=C5)cc3)CC2)CC1=O
REMARK SMILES IDX 17 1 16 2 15 3 13 4 14 5 12 6 7 7 8 8 9 9 10 10 85 11 11 12
REMARK SMILES IDX 84 13 6 14 4 15 5 16 87 17 86 18 88 19 2 20 1 21 3 22 18 23
REMARK SMILES IDX 19 24 20 25 21 26 22 27 83 28 23 29 82 30 24 31 25 32 26 33
REMARK SMILES IDX 76 34 27 35 81 36 75 37 77 38 28 39 80 40 74 41 73 42 29 44
REMARK SMILES IDX 61 45 41 46 60 47 42 48 45 49 59 50 78 51 43 52 44 53 58 55
REMARK SMILES IDX 79 56 46 57 30 58 31 59 39 60 32 61 38 62 40 63 37 64 33 65
REMARK SMILES IDX 34 66 35 67 36 68 62 69 63 70 71 71 64 72 70 73 72 74 69 75
REMARK SMILES IDX 65 76 66 77 67 78 68 79 47 80 48 81 56 82 49 83 55 84 57 85
REMARK SMILES IDX 54 86 50 87 51 88 52 89 53 90
REMARK H PARENT 77 43 45 54
REMARK Flexibility Score: inf
ROOT
ATOM      1  C   UNL A   1      31.677  29.966  25.868  1.00  0.00     0.275 C 
ENDROOT
BRANCH   1   2
ATOM      2  C   UNL A   1      31.411  28.669  25.100  1.00  0.00     0.274 C 
BRANCH   2   3
ATOM      3  O   UNL A   1      32.314  27.626  25.507  1.00  0.00    -0.462 OA
BRANCH   3   4
ATOM      4  C   UNL A   1      31.744  26.473  25.939  1.00  0.00     0.309 C 
ATOM      5  O   UNL A   1      30.921  26.397  26.843  1.00  0.00    -0.252 OA
BRANCH   4   6
ATOM      6  C   UNL A   1      32.210  25.250  25.172  1.00  0.00     0.103 C 
ATOM      7  C   UNL A   1      32.814  21.287  25.351  1.00  0.00     0.227 C 
ATOM      8  O   UNL A   1      33.443  21.209  26.411  1.00  0.00    -0.274 OA
ATOM      9  N   UNL A   1      32.755  22.480  24.652  1.00  0.00    -0.342 N 
ATOM     10  C   UNL A   1      33.870  23.417  24.799  1.00  0.00     0.120 C 
ATOM     11  C   UNL A   1      31.533  23.080  24.127  1.00  0.00     0.120 C 
ATOM     12  C   UNL A   1      33.493  24.593  25.692  1.00  0.00     0.037 C 
ATOM     13  C   UNL A   1      31.085  24.221  25.048  1.00  0.00     0.037 C 
BRANCH   7  14
ATOM     14  C   UNL A   1      32.304  19.999  24.718  1.00  0.00     0.107 C 
ATOM     15  N   UNL A   1      32.866  17.768  24.305  1.00  0.00    -0.339 N 
ATOM     16  C   UNL A   1      33.036  18.801  25.295  1.00  0.00     0.133 C 
ATOM     17  C   UNL A   1      32.560  18.297  23.062  1.00  0.00     0.223 C 
ATOM     18  C   UNL A   1      32.307  19.781  23.213  1.00  0.00     0.115 C 
ATOM     19  O   UNL A   1      32.505  17.703  21.998  1.00  0.00    -0.275 OA
BRANCH  15  20
ATOM     20  C   UNL A   1      33.278  16.391  24.585  1.00  0.00     0.078 C 
ATOM     21  C   UNL A   1      34.775  16.260  24.864  1.00  0.00     0.031 C 
ATOM     22  C   UNL A   1      32.452  15.781  25.715  1.00  0.00     0.031 C 
ENDBRANCH  15  20
ENDBRANCH   7  14
ENDBRANCH   4   6
ENDBRANCH   3   4
ENDBRANCH   2   3
ENDBRANCH   1   2
BRANCH   1  23
ATOM     23  O   UNL A   1      33.085  30.185  26.082  1.00  0.00    -0.458 OA
BRANCH  23  24
ATOM     24  C   UNL A   1      33.381  31.176  26.957  1.00  0.00     0.338 C 
ATOM     25  O   UNL A   1      32.664  32.103  27.290  1.00  0.00    -0.246 OA
BRANCH  24  26
ATOM     26  C   UNL A   1      34.691  30.924  27.575  1.00  0.00     0.060 A 
ATOM     27  C   UNL A   1      35.008  29.610  27.922  1.00  0.00     0.016 A 
ATOM     28  C   UNL A   1      35.545  31.970  27.920  1.00  0.00     0.016 A 
ATOM     29  C   UNL A   1      36.168  29.329  28.634  1.00  0.00     0.010 A 
ATOM     30  C   UNL A   1      36.724  31.685  28.620  1.00  0.00     0.010 A 
ATOM     31  C   UNL A   1      37.036  30.365  28.994  1.00  0.00    -0.014 A 
BRANCH  31  32
ATOM     32  C   UNL A   1      38.234  30.064  29.816  1.00  0.00     0.031 A 
ATOM     33  C   UNL A   1      39.274  29.112  29.295  1.00  0.00     0.074 A 
ATOM     34  C   UNL A   1      38.406  30.673  31.005  1.00  0.00     0.049 A 
ATOM     35  N   UNL A   1      40.328  28.625  29.896  1.00  0.00    -0.248 NA
ATOM     36  C   UNL A   1      39.098  28.647  27.911  1.00  0.00     0.031 C 
ATOM     37  C   UNL A   1      37.502  31.673  31.578  1.00  0.00     0.029 A 
ATOM     38  N   UNL A   1      39.397  30.542  31.943  1.00  0.00    -0.354 N 
ATOM     39  C   UNL A   1      40.935  27.781  28.973  1.00  0.00     0.074 A 
ATOM     40  C   UNL A   1      40.112  27.805  27.780  1.00  0.00     0.031 C 
ATOM     41  C   UNL A   1      37.982  32.063  32.769  1.00  0.00     0.029 A 
ATOM     42  C   UNL A   1      39.187  31.298  33.074  1.00  0.00     0.049 A 
ATOM     43  H   UNL A   1      40.183  29.962  31.821  1.00  0.00     0.167 HD
ATOM     44  C   UNL A   1      42.075  27.058  29.109  1.00  0.00     0.034 A 
ATOM     45  C   UNL A   1      39.866  31.335  34.238  1.00  0.00     0.034 A 
ATOM     46  C   UNL A   1      42.878  27.045  30.308  1.00  0.00     0.049 A 
ATOM     47  C   UNL A   1      41.072  30.447  34.402  1.00  0.00     0.074 A 
ATOM     48  C   UNL A   1      44.034  26.330  30.568  1.00  0.00     0.029 A 
ATOM     49  N   UNL A   1      42.606  27.784  31.453  1.00  0.00    -0.354 N 
ATOM     50  N   UNL A   1      41.608  29.611  33.542  1.00  0.00    -0.248 NA
ATOM     51  C   UNL A   1      41.765  30.504  35.696  1.00  0.00     0.031 C 
ATOM     52  C   UNL A   1      44.429  26.593  31.885  1.00  0.00     0.029 A 
ATOM     53  C   UNL A   1      43.559  27.526  32.426  1.00  0.00     0.049 A 
ATOM     54  H   UNL A   1      41.847  28.402  31.558  1.00  0.00     0.167 HD
ATOM     55  C   UNL A   1      42.715  29.064  34.184  1.00  0.00     0.074 A 
ATOM     56  C   UNL A   1      42.778  29.676  35.496  1.00  0.00     0.031 C 
ATOM     57  C   UNL A   1      43.601  28.140  33.732  1.00  0.00     0.034 A 
BRANCH  44  58
ATOM     58  C   UNL A   1      42.477  26.180  27.949  1.00  0.00     0.023 A 
ATOM     59  C   UNL A   1      41.932  24.898  27.766  1.00  0.00     0.031 A 
ATOM     60  C   UNL A   1      43.452  26.617  27.033  1.00  0.00     0.131 A 
ATOM     61  C   UNL A   1      42.413  24.072  26.739  1.00  0.00     0.055 A 
ATOM     62  C   UNL A   1      43.872  25.819  25.967  1.00  0.00     0.041 A 
ATOM     63  F   UNL A   1      44.025  27.823  27.170  1.00  0.00    -0.206 F 
ATOM     64  C   UNL A   1      43.362  24.532  25.824  1.00  0.00     0.022 A 
BRANCH  61  65
ATOM     65  S   UNL A   1      41.884  22.336  26.701  1.00  0.00     0.124 S 
ATOM     66  O   UNL A   1      42.313  21.926  25.367  1.00  0.00    -0.237 OA
ATOM     67  O   UNL A   1      42.622  21.756  27.816  1.00  0.00    -0.237 OA
ATOM     68  O   UNL A   1      40.436  22.416  26.885  1.00  0.00    -0.744 OA
ENDBRANCH  61  65
ENDBRANCH  44  58
BRANCH  45  69
ATOM     69  C   UNL A   1      39.391  32.191  35.364  1.00  0.00     0.023 A 
ATOM     70  C   UNL A   1      39.868  33.500  35.531  1.00  0.00     0.031 A 
ATOM     71  C   UNL A   1      38.496  31.688  36.324  1.00  0.00     0.131 A 
ATOM     72  C   UNL A   1      39.485  34.245  36.657  1.00  0.00     0.055 A 
ATOM     73  C   UNL A   1      38.073  32.452  37.413  1.00  0.00     0.041 A 
ATOM     74  F   UNL A   1      38.012  30.440  36.215  1.00  0.00    -0.206 F 
ATOM     75  C   UNL A   1      38.580  33.736  37.591  1.00  0.00     0.022 A 
BRANCH  72  76
ATOM     76  S   UNL A   1      40.262  35.860  36.934  1.00  0.00     0.124 S 
ATOM     77  O   UNL A   1      39.653  36.667  35.884  1.00  0.00    -0.237 OA
ATOM     78  O   UNL A   1      39.847  36.163  38.300  1.00  0.00    -0.237 OA
ATOM     79  O   UNL A   1      41.688  35.585  36.765  1.00  0.00    -0.744 OA
ENDBRANCH  72  76
ENDBRANCH  45  69
BRANCH  57  80
ATOM     80  C   UNL A   1      44.738  27.783  34.655  1.00  0.00     0.023 A 
ATOM     81  C   UNL A   1      44.687  26.654  35.490  1.00  0.00     0.031 A 
ATOM     82  C   UNL A   1      45.881  28.601  34.714  1.00  0.00     0.131 A 
ATOM     83  C   UNL A   1      45.734  26.405  36.391  1.00  0.00     0.055 A 
ATOM     84  C   UNL A   1      46.944  28.317  35.572  1.00  0.00     0.041 A 
ATOM     85  F   UNL A   1      45.980  29.693  33.938  1.00  0.00    -0.206 F 
ATOM     86  C   UNL A   1      46.867  27.221  36.427  1.00  0.00     0.022 A 
BRANCH  83  87
ATOM     87  S   UNL A   1      45.556  25.045  37.578  1.00  0.00     0.124 S 
ATOM     88  O   UNL A   1      46.716  25.243  38.442  1.00  0.00    -0.237 OA
ATOM     89  O   UNL A   1      44.257  25.323  38.182  1.00  0.00    -0.237 OA
ATOM     90  O   UNL A   1      45.606  23.848  36.739  1.00  0.00    -0.744 OA
ENDBRANCH  83  87
ENDBRANCH  57  80
ENDBRANCH  31  32
ENDBRANCH  24  26
ENDBRANCH  23  24
ENDBRANCH   1  23
TORSDOF 16
ENDMDL
MODEL 3
REMARK VINA RESULT:     -12.0      5.095     10.417
REMARK SMILES CC(C)N1C[C@@H](C(=O)N2CCC(C(=O)OCCOC(=O)c3ccc(-c4c5nc(c(-c6cc(S(=O)(=O)[O-])ccc6F)c6ccc([nH]6)c(-c6cc(S(=O)(=O)[O-])ccc6F)c6nc(c(-c7cc(S(=O)(=O)[O-])ccc7F)c7ccc4[nH]7)C=C6)C=C5)cc3)CC2)CC1=O
REMARK SMILES IDX 17 1 16 2 15 3 13 4 14 5 12 6 7 7 8 8 9 9 10 10 85 11 11 12
REMARK SMILES IDX 84 13 6 14 4 15 5 16 87 17 86 18 88 19 2 20 1 21 3 22 18 23
REMARK SMILES IDX 19 24 20 25 21 26 22 27 83 28 23 29 82 30 24 31 25 32 26 33
REMARK SMILES IDX 76 34 27 35 81 36 75 37 77 38 28 39 80 40 74 41 73 42 29 44
REMARK SMILES IDX 61 45 41 46 60 47 42 48 45 49 59 50 78 51 43 52 44 53 58 55
REMARK SMILES IDX 79 56 46 57 30 58 31 59 39 60 32 61 38 62 40 63 37 64 33 65
REMARK SMILES IDX 34 66 35 67 36 68 62 69 63 70 71 71 64 72 70 73 72 74 69 75
REMARK SMILES IDX 65 76 66 77 67 78 68 79 47 80 48 81 56 82 49 83 55 84 57 85
REMARK SMILES IDX 54 86 50 87 51 88 52 89 53 90
REMARK H PARENT 77 43 45 54
REMARK Flexibility Score: inf
ROOT
ATOM      1  C   UNL A   1      31.907  30.288  26.652  1.00  0.00     0.275 C 
ENDROOT
BRANCH   1   2
ATOM      2  C   UNL A   1      31.224  30.297  25.283  1.00  0.00     0.274 C 
BRANCH   2   3
ATOM      3  O   UNL A   1      31.805  29.318  24.403  1.00  0.00    -0.462 OA
BRANCH   3   4
ATOM      4  C   UNL A   1      31.144  28.137  24.299  1.00  0.00     0.309 C 
ATOM      5  O   UNL A   1      30.014  28.009  23.843  1.00  0.00    -0.252 OA
BRANCH   4   6
ATOM      6  C   UNL A   1      31.952  26.952  24.790  1.00  0.00     0.103 C 
ATOM      7  C   UNL A   1      32.285  22.954  24.751  1.00  0.00     0.227 C 
ATOM      8  O   UNL A   1      31.124  22.634  25.026  1.00  0.00    -0.274 OA
ATOM      9  N   UNL A   1      32.765  24.213  25.067  1.00  0.00    -0.342 N 
ATOM     10  C   UNL A   1      32.171  24.906  26.211  1.00  0.00     0.120 C 
ATOM     11  C   UNL A   1      33.488  25.085  24.148  1.00  0.00     0.120 C 
ATOM     12  C   UNL A   1      31.227  26.014  25.761  1.00  0.00     0.037 C 
ATOM     13  C   UNL A   1      32.542  26.168  23.616  1.00  0.00     0.037 C 
BRANCH   7  14
ATOM     14  C   UNL A   1      33.238  21.867  24.270  1.00  0.00     0.107 C 
ATOM     15  N   UNL A   1      33.747  19.595  24.490  1.00  0.00    -0.339 N 
ATOM     16  C   UNL A   1      32.621  20.495  24.478  1.00  0.00     0.133 C 
ATOM     17  C   UNL A   1      34.927  20.259  24.786  1.00  0.00     0.223 C 
ATOM     18  C   UNL A   1      34.660  21.747  24.794  1.00  0.00     0.115 C 
ATOM     19  O   UNL A   1      36.017  19.761  25.017  1.00  0.00    -0.275 OA
BRANCH  15  20
ATOM     20  C   UNL A   1      33.544  18.145  24.483  1.00  0.00     0.078 C 
ATOM     21  C   UNL A   1      32.707  17.653  25.664  1.00  0.00     0.031 C 
ATOM     22  C   UNL A   1      32.956  17.671  23.156  1.00  0.00     0.031 C 
ENDBRANCH  15  20
ENDBRANCH   7  14
ENDBRANCH   4   6
ENDBRANCH   3   4
ENDBRANCH   2   3
ENDBRANCH   1   2
BRANCH   1  23
ATOM     23  O   UNL A   1      33.330  30.484  26.545  1.00  0.00    -0.458 OA
BRANCH  23  24
ATOM     24  C   UNL A   1      33.829  31.476  27.322  1.00  0.00     0.338 C 
ATOM     25  O   UNL A   1      33.262  32.499  27.664  1.00  0.00    -0.246 OA
BRANCH  24  26
ATOM     26  C   UNL A   1      35.159  31.101  27.823  1.00  0.00     0.060 A 
ATOM     27  C   UNL A   1      35.354  29.782  28.236  1.00  0.00     0.016 A 
ATOM     28  C   UNL A   1      36.164  32.050  27.998  1.00  0.00     0.016 A 
ATOM     29  C   UNL A   1      36.543  29.402  28.846  1.00  0.00     0.010 A 
ATOM     30  C   UNL A   1      37.370  31.664  28.596  1.00  0.00     0.010 A 
ATOM     31  C   UNL A   1      37.562  30.341  29.037  1.00  0.00    -0.014 A 
BRANCH  31  32
ATOM     32  C   UNL A   1      38.799  29.944  29.754  1.00  0.00     0.031 A 
ATOM     33  C   UNL A   1      39.730  28.940  29.134  1.00  0.00     0.074 A 
ATOM     34  C   UNL A   1      39.103  30.512  30.937  1.00  0.00     0.049 A 
ATOM     35  N   UNL A   1      40.793  28.372  29.639  1.00  0.00    -0.248 NA
ATOM     36  C   UNL A   1      39.415  28.521  27.759  1.00  0.00     0.031 C 
ATOM     37  C   UNL A   1      38.315  31.553  31.600  1.00  0.00     0.029 A 
ATOM     38  N   UNL A   1      40.154  30.295  31.791  1.00  0.00    -0.354 N 
ATOM     39  C   UNL A   1      41.269  27.513  28.654  1.00  0.00     0.074 A 
ATOM     40  C   UNL A   1      40.359  27.619  27.532  1.00  0.00     0.031 C 
ATOM     41  C   UNL A   1      38.912  31.883  32.756  1.00  0.00     0.029 A 
ATOM     42  C   UNL A   1      40.083  31.035  32.948  1.00  0.00     0.049 A 
ATOM     43  H   UNL A   1      40.889  29.668  31.595  1.00  0.00     0.167 HD
ATOM     44  C   UNL A   1      42.366  26.716  28.685  1.00  0.00     0.034 A 
ATOM     45  C   UNL A   1      40.853  31.000  34.055  1.00  0.00     0.034 A 
ATOM     46  C   UNL A   1      43.258  26.622  29.816  1.00  0.00     0.049 A 
ATOM     47  C   UNL A   1      42.008  30.032  34.105  1.00  0.00     0.074 A 
ATOM     48  C   UNL A   1      44.381  25.828  29.968  1.00  0.00     0.029 A 
ATOM     49  N   UNL A   1      43.126  27.349  30.992  1.00  0.00    -0.354 N 
ATOM     50  N   UNL A   1      42.417  29.186  33.189  1.00  0.00    -0.248 NA
ATOM     51  C   UNL A   1      42.802  30.014  35.340  1.00  0.00     0.031 C 
ATOM     52  C   UNL A   1      44.895  26.033  31.254  1.00  0.00     0.029 A 
ATOM     53  C   UNL A   1      44.134  27.007  31.881  1.00  0.00     0.049 A 
ATOM     54  H   UNL A   1      42.420  28.011  31.170  1.00  0.00     0.167 HD
ATOM     55  C   UNL A   1      43.533  28.553  33.730  1.00  0.00     0.074 A 
ATOM     56  C   UNL A   1      43.740  29.128  35.044  1.00  0.00     0.031 C 
ATOM     57  C   UNL A   1      44.318  27.585  33.191  1.00  0.00     0.034 A 
BRANCH  44  58
ATOM     58  C   UNL A   1      42.617  25.843  27.480  1.00  0.00     0.023 A 
ATOM     59  C   UNL A   1      42.100  24.539  27.389  1.00  0.00     0.031 A 
ATOM     60  C   UNL A   1      43.421  26.307  26.422  1.00  0.00     0.131 A 
ATOM     61  C   UNL A   1      42.447  23.722  26.302  1.00  0.00     0.055 A 
ATOM     62  C   UNL A   1      43.702  25.514  25.308  1.00  0.00     0.041 A 
ATOM     63  F   UNL A   1      43.963  27.534  26.464  1.00  0.00    -0.206 F 
ATOM     64  C   UNL A   1      43.225  24.208  25.249  1.00  0.00     0.022 A 
BRANCH  61  65
ATOM     65  S   UNL A   1      41.985  21.968  26.353  1.00  0.00     0.124 S 
ATOM     66  O   UNL A   1      42.362  21.602  27.716  1.00  0.00    -0.237 OA
ATOM     67  O   UNL A   1      40.554  22.011  26.076  1.00  0.00    -0.237 OA
ATOM     68  O   UNL A   1      42.806  21.366  25.305  1.00  0.00    -0.744 OA
ENDBRANCH  61  65
ENDBRANCH  44  58
BRANCH  45  69
ATOM     69  C   UNL A   1      40.526  31.857  35.232  1.00  0.00     0.023 A 
ATOM     70  C   UNL A   1      39.489  31.514  36.113  1.00  0.00     0.031 A 
ATOM     71  C   UNL A   1      41.210  33.064  35.457  1.00  0.00     0.131 A 
ATOM     72  C   UNL A   1      39.135  32.390  37.150  1.00  0.00     0.055 A 
ATOM     73  C   UNL A   1      40.892  33.906  36.524  1.00  0.00     0.041 A 
ATOM     74  F   UNL A   1      42.208  33.443  34.642  1.00  0.00    -0.206 F 
ATOM     75  C   UNL A   1      39.838  33.577  37.370  1.00  0.00     0.022 A 
BRANCH  72  76
ATOM     76  S   UNL A   1      37.675  32.002  38.154  1.00  0.00     0.124 S 
ATOM     77  O   UNL A   1      38.186  32.190  39.506  1.00  0.00    -0.237 OA
ATOM     78  O   UNL A   1      36.714  32.995  37.685  1.00  0.00    -0.237 OA
ATOM     79  O   UNL A   1      37.368  30.620  37.787  1.00  0.00    -0.744 OA
ENDBRANCH  72  76
ENDBRANCH  45  69
BRANCH  57  80
ATOM     80  C   UNL A   1      45.499  27.134  34.013  1.00  0.00     0.023 A 
ATOM     81  C   UNL A   1      45.405  26.061  34.915  1.00  0.00     0.031 A 
ATOM     82  C   UNL A   1      46.730  27.806  33.907  1.00  0.00     0.131 A 
ATOM     83  C   UNL A   1      46.506  25.726  35.718  1.00  0.00     0.055 A 
ATOM     84  C   UNL A   1      47.839  27.433  34.668  1.00  0.00     0.041 A 
ATOM     85  F   UNL A   1      46.873  28.839  33.060  1.00  0.00    -0.206 F 
ATOM     86  C   UNL A   1      47.726  26.396  35.590  1.00  0.00     0.022 A 
BRANCH  83  87
ATOM     87  S   UNL A   1      46.299  24.456  36.997  1.00  0.00     0.124 S 
ATOM     88  O   UNL A   1      46.568  23.230  36.253  1.00  0.00    -0.237 OA
ATOM     89  O   UNL A   1      47.304  24.837  37.983  1.00  0.00    -0.237 OA
ATOM     90  O   UNL A   1      44.912  24.628  37.428  1.00  0.00    -0.744 OA
ENDBRANCH  83  87
ENDBRANCH  57  80
ENDBRANCH  31  32
ENDBRANCH  24  26
ENDBRANCH  23  24
ENDBRANCH   1  23
TORSDOF 16
ENDMDL
