MODEL 1
REMARK VINA RESULT:     -12.3      0.000      0.000
REMARK SMILES O=C(OCCOC(=O)c1ccc2nc(-c3cc(F)cc(Br)c3)[nH]c2c1)c1ccc(-c2c3nc(c(-c4cc(S(=O)(=O)[O-])ccc4F)c4ccc([nH]4)c(-c4cc(S(=O)(=O)[O-])ccc4F)c4nc(c(-c5cc(S(=O)(=O)[O-])ccc5F)c5ccc2[nH]5)C=C4)C=C3)cc1
REMARK SMILES IDX 4 1 3 2 2 3 1 4 26 5 27 6 88 7 28 8 87 9 29 10 30 11 31 12
REMARK SMILES IDX 81 13 32 14 86 15 80 16 82 17 33 18 85 19 79 20 78 21 34 23
REMARK SMILES IDX 66 24 46 25 65 26 47 27 50 28 64 29 83 30 48 31 49 32 63 34
REMARK SMILES IDX 84 35 51 36 35 37 36 38 44 39 37 40 43 41 45 42 42 43 38 44
REMARK SMILES IDX 39 45 40 46 41 47 67 48 68 49 76 50 69 51 75 52 77 53 74 54
REMARK SMILES IDX 70 55 71 56 72 57 73 58 52 59 53 60 61 61 54 62 60 63 62 64
REMARK SMILES IDX 59 65 55 66 56 67 57 68 58 69 5 70 6 71 7 72 8 73 9 74 10 75
REMARK SMILES IDX 25 76 11 77 24 78 12 79 23 80 13 81 14 82 15 84 16 85 22 86
REMARK SMILES IDX 17 87 20 88 18 89 19 90 21 91
REMARK H PARENT 82 22 50 33 23 83
REMARK Flexibility Score: inf
ROOT
ATOM      1  C   UNL A   1      34.202  33.991  31.666  1.00  0.00     0.275 C 
ENDROOT
BRANCH   1   2
ATOM      2  O   UNL A   1      34.580  32.654  32.031  1.00  0.00    -0.458 OA
BRANCH   2   3
ATOM      3  C   UNL A   1      35.649  32.205  32.729  1.00  0.00     0.338 C 
ATOM      4  O   UNL A   1      35.713  32.486  33.926  1.00  0.00    -0.246 OA
BRANCH   3   5
ATOM      5  C   UNL A   1      36.823  31.493  32.120  1.00  0.00     0.060 A 
ATOM      6  C   UNL A   1      37.689  30.601  32.763  1.00  0.00     0.016 A 
ATOM      7  C   UNL A   1      37.037  31.728  30.748  1.00  0.00     0.016 A 
ATOM      8  C   UNL A   1      38.679  29.908  32.063  1.00  0.00     0.010 A 
ATOM      9  C   UNL A   1      38.022  31.036  30.039  1.00  0.00     0.010 A 
ATOM     10  C   UNL A   1      38.850  30.123  30.700  1.00  0.00    -0.014 A 
BRANCH  10  11
ATOM     11  C   UNL A   1      40.042  29.588  30.013  1.00  0.00     0.031 A 
ATOM     12  C   UNL A   1      41.183  30.529  29.802  1.00  0.00     0.074 A 
ATOM     13  C   UNL A   1      40.110  28.311  29.601  1.00  0.00     0.049 A 
ATOM     14  N   UNL A   1      42.282  30.363  29.123  1.00  0.00    -0.248 NA
ATOM     15  C   UNL A   1      41.065  31.838  30.466  1.00  0.00     0.031 C 
ATOM     16  C   UNL A   1      39.116  27.283  29.887  1.00  0.00     0.029 A 
ATOM     17  N   UNL A   1      41.035  27.672  28.817  1.00  0.00    -0.354 N 
ATOM     18  C   UNL A   1      43.001  31.538  29.297  1.00  0.00     0.074 A 
ATOM     19  C   UNL A   1      42.174  32.436  30.071  1.00  0.00     0.031 C 
ATOM     20  C   UNL A   1      39.417  26.173  29.190  1.00  0.00     0.029 A 
ATOM     21  C   UNL A   1      40.624  26.421  28.412  1.00  0.00     0.049 A 
ATOM     22  H   UNL A   1      41.901  28.067  28.569  1.00  0.00     0.167 HD
ATOM     23  C   UNL A   1      44.255  31.819  28.872  1.00  0.00     0.034 A 
ATOM     24  C   UNL A   1      41.146  25.597  27.483  1.00  0.00     0.034 A 
ATOM     25  C   UNL A   1      45.017  30.910  28.057  1.00  0.00     0.049 A 
ATOM     26  C   UNL A   1      42.446  26.000  26.840  1.00  0.00     0.074 A 
ATOM     27  C   UNL A   1      46.284  31.073  27.532  1.00  0.00     0.029 A 
ATOM     28  N   UNL A   1      44.558  29.670  27.620  1.00  0.00    -0.354 N 
ATOM     29  N   UNL A   1      43.136  27.105  27.010  1.00  0.00    -0.248 NA
ATOM     30  C   UNL A   1      43.065  25.036  25.924  1.00  0.00     0.031 C 
ATOM     31  C   UNL A   1      46.554  29.973  26.709  1.00  0.00     0.029 A 
ATOM     32  C   UNL A   1      45.497  29.075  26.797  1.00  0.00     0.049 A 
ATOM     33  H   UNL A   1      43.689  29.273  27.862  1.00  0.00     0.167 HD
ATOM     34  C   UNL A   1      44.306  26.942  26.278  1.00  0.00     0.074 A 
ATOM     35  C   UNL A   1      44.210  25.643  25.638  1.00  0.00     0.031 C 
ATOM     36  C   UNL A   1      45.376  27.774  26.177  1.00  0.00     0.034 A 
BRANCH  23  37
ATOM     37  C   UNL A   1      44.794  33.181  29.231  1.00  0.00     0.023 A 
ATOM     38  C   UNL A   1      44.761  34.248  28.312  1.00  0.00     0.031 A 
ATOM     39  C   UNL A   1      45.477  33.377  30.441  1.00  0.00     0.131 A 
ATOM     40  C   UNL A   1      45.510  35.407  28.561  1.00  0.00     0.055 A 
ATOM     41  C   UNL A   1      46.132  34.577  30.729  1.00  0.00     0.041 A 
ATOM     42  F   UNL A   1      45.569  32.389  31.343  1.00  0.00    -0.206 F 
ATOM     43  C   UNL A   1      46.173  35.590  29.775  1.00  0.00     0.022 A 
BRANCH  40  44
ATOM     44  S   UNL A   1      45.794  36.561  27.186  1.00  0.00     0.124 S 
ATOM     45  O   UNL A   1      47.146  37.036  27.476  1.00  0.00    -0.237 OA
ATOM     46  O   UNL A   1      45.656  35.701  26.017  1.00  0.00    -0.237 OA
ATOM     47  O   UNL A   1      44.742  37.561  27.355  1.00  0.00    -0.744 OA
ENDBRANCH  40  44
ENDBRANCH  23  37
BRANCH  24  48
ATOM     48  C   UNL A   1      40.424  24.353  27.097  1.00  0.00     0.023 A 
ATOM     49  C   UNL A   1      39.192  24.387  26.426  1.00  0.00     0.031 A 
ATOM     50  C   UNL A   1      40.978  23.093  27.394  1.00  0.00     0.131 A 
ATOM     51  C   UNL A   1      38.545  23.184  26.093  1.00  0.00     0.055 A 
ATOM     52  C   UNL A   1      40.347  21.901  27.030  1.00  0.00     0.041 A 
ATOM     53  F   UNL A   1      42.153  23.005  28.036  1.00  0.00    -0.206 F 
ATOM     54  C   UNL A   1      39.118  21.943  26.381  1.00  0.00     0.022 A 
BRANCH  51  55
ATOM     55  S   UNL A   1      36.911  23.263  25.306  1.00  0.00     0.124 S 
ATOM     56  O   UNL A   1      37.252  23.118  23.894  1.00  0.00    -0.237 OA
ATOM     57  O   UNL A   1      36.225  22.130  25.919  1.00  0.00    -0.237 OA
ATOM     58  O   UNL A   1      36.407  24.579  25.694  1.00  0.00    -0.744 OA
ENDBRANCH  51  55
ENDBRANCH  24  48
BRANCH  36  59
ATOM     59  C   UNL A   1      46.573  27.267  25.417  1.00  0.00     0.023 A 
ATOM     60  C   UNL A   1      46.871  27.696  24.115  1.00  0.00     0.031 A 
ATOM     61  C   UNL A   1      47.463  26.377  26.048  1.00  0.00     0.131 A 
ATOM     62  C   UNL A   1      48.021  27.213  23.473  1.00  0.00     0.055 A 
ATOM     63  C   UNL A   1      48.634  25.949  25.428  1.00  0.00     0.041 A 
ATOM     64  F   UNL A   1      47.217  25.934  27.291  1.00  0.00    -0.206 F 
ATOM     65  C   UNL A   1      48.916  26.363  24.130  1.00  0.00     0.022 A 
BRANCH  62  66
ATOM     66  S   UNL A   1      48.307  27.664  21.741  1.00  0.00     0.124 S 
ATOM     67  O   UNL A   1      48.502  26.359  21.118  1.00  0.00    -0.237 OA
ATOM     68  O   UNL A   1      47.074  28.361  21.391  1.00  0.00    -0.237 OA
ATOM     69  O   UNL A   1      49.500  28.508  21.800  1.00  0.00    -0.744 OA
ENDBRANCH  62  66
ENDBRANCH  36  59
ENDBRANCH  10  11
ENDBRANCH   3   5
ENDBRANCH   2   3
ENDBRANCH   1   2
BRANCH   1  70
ATOM     70  C   UNL A   1      34.407  34.330  30.184  1.00  0.00     0.275 C 
BRANCH  70  71
ATOM     71  O   UNL A   1      34.632  33.191  29.337  1.00  0.00    -0.458 OA
BRANCH  71  72
ATOM     72  C   UNL A   1      33.785  33.065  28.279  1.00  0.00     0.338 C 
ATOM     73  O   UNL A   1      33.131  33.950  27.764  1.00  0.00    -0.246 OA
BRANCH  72  74
ATOM     74  C   UNL A   1      33.849  31.682  27.750  1.00  0.00     0.062 A 
ATOM     75  C   UNL A   1      35.039  30.950  27.827  1.00  0.00     0.018 A 
ATOM     76  C   UNL A   1      32.683  31.132  27.181  1.00  0.00     0.044 A 
ATOM     77  C   UNL A   1      35.089  29.634  27.351  1.00  0.00     0.031 A 
ATOM     78  C   UNL A   1      32.796  29.848  26.634  1.00  0.00     0.067 A 
ATOM     79  C   UNL A   1      33.956  29.091  26.729  1.00  0.00     0.089 A 
ATOM     80  N   UNL A   1      31.934  29.046  25.922  1.00  0.00    -0.338 N 
ATOM     81  N   UNL A   1      33.774  27.850  26.186  1.00  0.00    -0.229 NA
ATOM     82  C   UNL A   1      32.551  27.835  25.694  1.00  0.00     0.138 A 
ATOM     83  H   UNL A   1      31.029  29.296  25.625  1.00  0.00     0.168 HD
BRANCH  82  84
ATOM     84  C   UNL A   1      31.901  26.663  25.114  1.00  0.00     0.021 A 
ATOM     85  C   UNL A   1      30.644  26.713  24.506  1.00  0.00     0.051 A 
ATOM     86  C   UNL A   1      32.588  25.439  25.161  1.00  0.00     0.027 A 
ATOM     87  C   UNL A   1      30.094  25.547  23.971  1.00  0.00     0.125 A 
ATOM     88  C   UNL A   1      32.015  24.282  24.635  1.00  0.00     0.021 A 
ATOM     89  F   UNL A   1      28.887  25.596  23.391  1.00  0.00    -0.207 F 
ATOM     90  C   UNL A   1      30.762  24.329  24.036  1.00  0.00     0.055 A 
ATOM     91  Br  UNL A   1      32.942  22.640  24.758  1.00  0.00    -0.051 Br
ENDBRANCH  82  84
ENDBRANCH  72  74
ENDBRANCH  71  72
ENDBRANCH  70  71
ENDBRANCH   1  70
TORSDOF 15
ENDMDL
MODEL 2
REMARK VINA RESULT:     -11.8      5.492      8.503
REMARK SMILES O=C(OCCOC(=O)c1ccc2nc(-c3cc(F)cc(Br)c3)[nH]c2c1)c1ccc(-c2c3nc(c(-c4cc(S(=O)(=O)[O-])ccc4F)c4ccc([nH]4)c(-c4cc(S(=O)(=O)[O-])ccc4F)c4nc(c(-c5cc(S(=O)(=O)[O-])ccc5F)c5ccc2[nH]5)C=C4)C=C3)cc1
REMARK SMILES IDX 4 1 3 2 2 3 1 4 26 5 27 6 88 7 28 8 87 9 29 10 30 11 31 12
REMARK SMILES IDX 81 13 32 14 86 15 80 16 82 17 33 18 85 19 79 20 78 21 34 23
REMARK SMILES IDX 66 24 46 25 65 26 47 27 50 28 64 29 83 30 48 31 49 32 63 34
REMARK SMILES IDX 84 35 51 36 35 37 36 38 44 39 37 40 43 41 45 42 42 43 38 44
REMARK SMILES IDX 39 45 40 46 41 47 67 48 68 49 76 50 69 51 75 52 77 53 74 54
REMARK SMILES IDX 70 55 71 56 72 57 73 58 52 59 53 60 61 61 54 62 60 63 62 64
REMARK SMILES IDX 59 65 55 66 56 67 57 68 58 69 5 70 6 71 7 72 8 73 9 74 10 75
REMARK SMILES IDX 25 76 11 77 24 78 12 79 23 80 13 81 14 82 15 84 16 85 22 86
REMARK SMILES IDX 17 87 20 88 18 89 19 90 21 91
REMARK H PARENT 82 22 50 33 23 83
REMARK Flexibility Score: inf
ROOT
ATOM      1  C   UNL A   1      34.747  34.240  28.065  1.00  0.00     0.275 C 
ENDROOT
BRANCH   1   2
ATOM      2  O   UNL A   1      34.751  32.985  27.365  1.00  0.00    -0.458 OA
BRANCH   2   3
ATOM      3  C   UNL A   1      34.635  31.721  27.833  1.00  0.00     0.338 C 
ATOM      4  O   UNL A   1      33.514  31.212  27.843  1.00  0.00    -0.246 OA
BRANCH   3   5
ATOM      5  C   UNL A   1      35.758  30.938  28.454  1.00  0.00     0.060 A 
ATOM      6  C   UNL A   1      35.677  30.098  29.570  1.00  0.00     0.016 A 
ATOM      7  C   UNL A   1      37.006  31.042  27.810  1.00  0.00     0.016 A 
ATOM      8  C   UNL A   1      36.765  29.328  29.987  1.00  0.00     0.010 A 
ATOM      9  C   UNL A   1      38.098  30.274  28.218  1.00  0.00     0.010 A 
ATOM     10  C   UNL A   1      37.979  29.413  29.315  1.00  0.00    -0.014 A 
BRANCH  10  11
ATOM     11  C   UNL A   1      39.189  28.800  29.896  1.00  0.00     0.031 A 
ATOM     12  C   UNL A   1      39.766  29.455  31.110  1.00  0.00     0.074 A 
ATOM     13  C   UNL A   1      39.747  27.698  29.371  1.00  0.00     0.049 A 
ATOM     14  N   UNL A   1      40.880  29.207  31.737  1.00  0.00    -0.248 NA
ATOM     15  C   UNL A   1      38.958  30.535  31.700  1.00  0.00     0.031 C 
ATOM     16  C   UNL A   1      39.182  26.905  28.285  1.00  0.00     0.029 A 
ATOM     17  N   UNL A   1      40.938  27.077  29.651  1.00  0.00    -0.354 N 
ATOM     18  C   UNL A   1      40.897  30.083  32.814  1.00  0.00     0.074 A 
ATOM     19  C   UNL A   1      39.727  30.925  32.700  1.00  0.00     0.031 C 
ATOM     20  C   UNL A   1      40.076  25.976  27.906  1.00  0.00     0.029 A 
ATOM     21  C   UNL A   1      41.273  26.114  28.725  1.00  0.00     0.049 A 
ATOM     22  H   UNL A   1      41.494  27.298  30.431  1.00  0.00     0.167 HD
ATOM     23  C   UNL A   1      41.798  30.149  33.821  1.00  0.00     0.034 A 
ATOM     24  C   UNL A   1      42.434  25.457  28.541  1.00  0.00     0.034 A 
ATOM     25  C   UNL A   1      42.977  29.325  33.859  1.00  0.00     0.049 A 
ATOM     26  C   UNL A   1      43.533  25.681  29.544  1.00  0.00     0.074 A 
ATOM     27  C   UNL A   1      43.989  29.303  34.800  1.00  0.00     0.029 A 
ATOM     28  N   UNL A   1      43.318  28.392  32.883  1.00  0.00    -0.354 N 
ATOM     29  N   UNL A   1      43.550  26.501  30.571  1.00  0.00    -0.248 NA
ATOM     30  C   UNL A   1      44.744  24.867  29.403  1.00  0.00     0.031 C 
ATOM     31  C   UNL A   1      44.978  28.422  34.348  1.00  0.00     0.029 A 
ATOM     32  C   UNL A   1      44.543  27.819  33.175  1.00  0.00     0.049 A 
ATOM     33  H   UNL A   1      42.766  28.171  32.097  1.00  0.00     0.167 HD
ATOM     34  C   UNL A   1      44.742  26.252  31.240  1.00  0.00     0.074 A 
ATOM     35  C   UNL A   1      45.432  25.228  30.478  1.00  0.00     0.031 C 
ATOM     36  C   UNL A   1      45.204  26.794  32.398  1.00  0.00     0.034 A 
BRANCH  23  37
ATOM     37  C   UNL A   1      41.547  31.198  34.876  1.00  0.00     0.023 A 
ATOM     38  C   UNL A   1      40.467  31.091  35.774  1.00  0.00     0.031 A 
ATOM     39  C   UNL A   1      42.301  32.382  34.892  1.00  0.00     0.131 A 
ATOM     40  C   UNL A   1      40.091  32.198  36.548  1.00  0.00     0.055 A 
ATOM     41  C   UNL A   1      41.986  33.441  35.746  1.00  0.00     0.041 A 
ATOM     42  F   UNL A   1      43.323  32.554  34.041  1.00  0.00    -0.206 F 
ATOM     43  C   UNL A   1      40.859  33.364  36.560  1.00  0.00     0.022 A 
BRANCH  40  44
ATOM     44  S   UNL A   1      38.462  32.174  37.353  1.00  0.00     0.124 S 
ATOM     45  O   UNL A   1      37.896  30.930  36.833  1.00  0.00    -0.237 OA
ATOM     46  O   UNL A   1      38.808  32.175  38.769  1.00  0.00    -0.237 OA
ATOM     47  O   UNL A   1      37.821  33.392  36.864  1.00  0.00    -0.744 OA
ENDBRANCH  40  44
ENDBRANCH  23  37
BRANCH  24  48
ATOM     48  C   UNL A   1      42.612  24.571  27.357  1.00  0.00     0.023 A 
ATOM     49  C   UNL A   1      42.207  23.227  27.367  1.00  0.00     0.031 A 
ATOM     50  C   UNL A   1      43.191  25.075  26.177  1.00  0.00     0.131 A 
ATOM     51  C   UNL A   1      42.406  22.429  26.227  1.00  0.00     0.055 A 
ATOM     52  C   UNL A   1      43.355  24.287  25.035  1.00  0.00     0.041 A 
ATOM     53  F   UNL A   1      43.596  26.353  26.115  1.00  0.00    -0.206 F 
ATOM     54  C   UNL A   1      42.967  22.952  25.059  1.00  0.00     0.022 A 
BRANCH  51  55
ATOM     55  S   UNL A   1      41.954  20.673  26.303  1.00  0.00     0.124 S 
ATOM     56  O   UNL A   1      42.843  20.091  25.303  1.00  0.00    -0.237 OA
ATOM     57  O   UNL A   1      42.250  20.344  27.694  1.00  0.00    -0.237 OA
ATOM     58  O   UNL A   1      40.534  20.669  25.954  1.00  0.00    -0.744 OA
ENDBRANCH  51  55
ENDBRANCH  24  48
BRANCH  36  59
ATOM     59  C   UNL A   1      46.477  26.224  32.965  1.00  0.00     0.023 A 
ATOM     60  C   UNL A   1      46.489  25.083  33.782  1.00  0.00     0.031 A 
ATOM     61  C   UNL A   1      47.708  26.814  32.623  1.00  0.00     0.131 A 
ATOM     62  C   UNL A   1      47.712  24.581  34.251  1.00  0.00     0.055 A 
ATOM     63  C   UNL A   1      48.922  26.275  33.041  1.00  0.00     0.041 A 
ATOM     64  F   UNL A   1      47.747  27.911  31.848  1.00  0.00    -0.206 F 
ATOM     65  C   UNL A   1      48.928  25.155  33.866  1.00  0.00     0.022 A 
BRANCH  62  66
ATOM     66  S   UNL A   1      47.694  23.198  35.423  1.00  0.00     0.124 S 
ATOM     67  O   UNL A   1      46.815  22.247  34.752  1.00  0.00    -0.237 OA
ATOM     68  O   UNL A   1      49.104  22.827  35.490  1.00  0.00    -0.237 OA
ATOM     69  O   UNL A   1      47.151  23.791  36.644  1.00  0.00    -0.744 OA
ENDBRANCH  62  66
ENDBRANCH  36  59
ENDBRANCH  10  11
ENDBRANCH   3   5
ENDBRANCH   2   3
ENDBRANCH   1   2
BRANCH   1  70
ATOM     70  C   UNL A   1      33.724  34.333  29.204  1.00  0.00     0.275 C 
BRANCH  70  71
ATOM     71  O   UNL A   1      34.277  34.716  30.474  1.00  0.00    -0.458 OA
BRANCH  71  72
ATOM     72  C   UNL A   1      34.713  33.694  31.260  1.00  0.00     0.338 C 
ATOM     73  O   UNL A   1      34.095  32.690  31.554  1.00  0.00    -0.246 OA
BRANCH  72  74
ATOM     74  C   UNL A   1      36.129  33.923  31.637  1.00  0.00     0.062 A 
ATOM     75  C   UNL A   1      36.452  34.411  32.907  1.00  0.00     0.018 A 
ATOM     76  C   UNL A   1      37.126  33.626  30.686  1.00  0.00     0.044 A 
ATOM     77  C   UNL A   1      37.792  34.601  33.268  1.00  0.00     0.031 A 
ATOM     78  C   UNL A   1      38.447  33.914  31.051  1.00  0.00     0.067 A 
ATOM     79  C   UNL A   1      38.794  34.367  32.317  1.00  0.00     0.089 A 
ATOM     80  N   UNL A   1      39.645  33.864  30.376  1.00  0.00    -0.338 N 
ATOM     81  N   UNL A   1      40.150  34.492  32.434  1.00  0.00    -0.229 NA
ATOM     82  C   UNL A   1      40.655  34.193  31.254  1.00  0.00     0.138 A 
ATOM     83  H   UNL A   1      39.761  33.632  29.427  1.00  0.00     0.168 HD
BRANCH  82  84
ATOM     84  C   UNL A   1      42.082  34.093  30.960  1.00  0.00     0.021 A 
ATOM     85  C   UNL A   1      42.890  35.208  30.723  1.00  0.00     0.051 A 
ATOM     86  C   UNL A   1      42.661  32.814  30.935  1.00  0.00     0.027 A 
ATOM     87  C   UNL A   1      44.247  35.027  30.453  1.00  0.00     0.125 A 
ATOM     88  C   UNL A   1      44.016  32.652  30.649  1.00  0.00     0.021 A 
ATOM     89  F   UNL A   1      45.020  36.097  30.222  1.00  0.00    -0.207 F 
ATOM     90  C   UNL A   1      44.819  33.760  30.405  1.00  0.00     0.055 A 
ATOM     91  Br  UNL A   1      44.755  30.915  30.571  1.00  0.00    -0.051 Br
ENDBRANCH  82  84
ENDBRANCH  72  74
ENDBRANCH  71  72
ENDBRANCH  70  71
ENDBRANCH   1  70
TORSDOF 15
ENDMDL
MODEL 3
REMARK VINA RESULT:     -11.7      5.229      9.705
REMARK SMILES O=C(OCCOC(=O)c1ccc2nc(-c3cc(F)cc(Br)c3)[nH]c2c1)c1ccc(-c2c3nc(c(-c4cc(S(=O)(=O)[O-])ccc4F)c4ccc([nH]4)c(-c4cc(S(=O)(=O)[O-])ccc4F)c4nc(c(-c5cc(S(=O)(=O)[O-])ccc5F)c5ccc2[nH]5)C=C4)C=C3)cc1
REMARK SMILES IDX 4 1 3 2 2 3 1 4 26 5 27 6 88 7 28 8 87 9 29 10 30 11 31 12
REMARK SMILES IDX 81 13 32 14 86 15 80 16 82 17 33 18 85 19 79 20 78 21 34 23
REMARK SMILES IDX 66 24 46 25 65 26 47 27 50 28 64 29 83 30 48 31 49 32 63 34
REMARK SMILES IDX 84 35 51 36 35 37 36 38 44 39 37 40 43 41 45 42 42 43 38 44
REMARK SMILES IDX 39 45 40 46 41 47 67 48 68 49 76 50 69 51 75 52 77 53 74 54
REMARK SMILES IDX 70 55 71 56 72 57 73 58 52 59 53 60 61 61 54 62 60 63 62 64
REMARK SMILES IDX 59 65 55 66 56 67 57 68 58 69 5 70 6 71 7 72 8 73 9 74 10 75
REMARK SMILES IDX 25 76 11 77 24 78 12 79 23 80 13 81 14 82 15 84 16 85 22 86
REMARK SMILES IDX 17 87 20 88 18 89 19 90 21 91
REMARK H PARENT 82 22 50 33 23 83
REMARK Flexibility Score: inf
ROOT
ATOM      1  C   UNL A   1      32.137  31.884  27.215  1.00  0.00     0.275 C 
ENDROOT
BRANCH   1   2
ATOM      2  O   UNL A   1      32.210  33.314  27.333  1.00  0.00    -0.458 OA
BRANCH   2   3
ATOM      3  C   UNL A   1      32.910  34.088  28.194  1.00  0.00     0.338 C 
ATOM      4  O   UNL A   1      32.519  35.240  28.380  1.00  0.00    -0.246 OA
BRANCH   3   5
ATOM      5  C   UNL A   1      34.201  33.680  28.846  1.00  0.00     0.060 A 
ATOM      6  C   UNL A   1      35.479  34.169  28.554  1.00  0.00     0.016 A 
ATOM      7  C   UNL A   1      34.091  32.735  29.884  1.00  0.00     0.016 A 
ATOM      8  C   UNL A   1      36.595  33.799  29.308  1.00  0.00     0.010 A 
ATOM      9  C   UNL A   1      35.200  32.364  30.647  1.00  0.00     0.010 A 
ATOM     10  C   UNL A   1      36.461  32.896  30.356  1.00  0.00    -0.014 A 
BRANCH  10  11
ATOM     11  C   UNL A   1      37.662  32.317  30.989  1.00  0.00     0.031 A 
ATOM     12  C   UNL A   1      38.358  31.221  30.248  1.00  0.00     0.074 A 
ATOM     13  C   UNL A   1      38.121  32.755  32.172  1.00  0.00     0.049 A 
ATOM     14  N   UNL A   1      39.344  30.458  30.626  1.00  0.00    -0.248 NA
ATOM     15  C   UNL A   1      37.874  30.964  28.881  1.00  0.00     0.031 C 
ATOM     16  C   UNL A   1      37.604  33.908  32.899  1.00  0.00     0.029 A 
ATOM     17  N   UNL A   1      39.100  32.255  32.993  1.00  0.00    -0.354 N 
ATOM     18  C   UNL A   1      39.618  29.645  29.535  1.00  0.00     0.074 A 
ATOM     19  C   UNL A   1      38.637  29.949  28.517  1.00  0.00     0.031 C 
ATOM     20  C   UNL A   1      38.182  33.961  34.111  1.00  0.00     0.029 A 
ATOM     21  C   UNL A   1      39.107  32.843  34.239  1.00  0.00     0.049 A 
ATOM     22  H   UNL A   1      39.729  31.551  32.720  1.00  0.00     0.167 HD
ATOM     23  C   UNL A   1      40.623  28.750  29.393  1.00  0.00     0.034 A 
ATOM     24  C   UNL A   1      39.759  32.483  35.362  1.00  0.00     0.034 A 
ATOM     25  C   UNL A   1      41.541  28.443  30.458  1.00  0.00     0.049 A 
ATOM     26  C   UNL A   1      40.734  31.341  35.270  1.00  0.00     0.074 A 
ATOM     27  C   UNL A   1      42.587  27.541  30.467  1.00  0.00     0.029 A 
ATOM     28  N   UNL A   1      41.496  29.017  31.726  1.00  0.00    -0.354 N 
ATOM     29  N   UNL A   1      41.005  30.575  34.236  1.00  0.00    -0.248 NA
ATOM     30  C   UNL A   1      41.526  31.041  36.467  1.00  0.00     0.031 C 
ATOM     31  C   UNL A   1      43.116  27.506  31.762  1.00  0.00     0.029 A 
ATOM     32  C   UNL A   1      42.466  28.458  32.539  1.00  0.00     0.049 A 
ATOM     33  H   UNL A   1      40.864  29.719  32.005  1.00  0.00     0.167 HD
ATOM     34  C   UNL A   1      42.049  29.749  34.635  1.00  0.00     0.074 A 
ATOM     35  C   UNL A   1      42.334  30.088  36.018  1.00  0.00     0.031 C 
ATOM     36  C   UNL A   1      42.731  28.823  33.913  1.00  0.00     0.034 A 
BRANCH  23  37
ATOM     37  C   UNL A   1      40.687  28.019  28.075  1.00  0.00     0.023 A 
ATOM     38  C   UNL A   1      40.104  26.748  27.912  1.00  0.00     0.031 A 
ATOM     39  C   UNL A   1      41.462  28.527  27.020  1.00  0.00     0.131 A 
ATOM     40  C   UNL A   1      40.415  25.977  26.783  1.00  0.00     0.055 A 
ATOM     41  C   UNL A   1      41.678  27.797  25.850  1.00  0.00     0.041 A 
ATOM     42  F   UNL A   1      42.068  29.719  27.128  1.00  0.00    -0.206 F 
ATOM     43  C   UNL A   1      41.176  26.503  25.738  1.00  0.00     0.022 A 
BRANCH  40  44
ATOM     44  S   UNL A   1      40.007  24.206  26.809  1.00  0.00     0.124 S 
ATOM     45  O   UNL A   1      41.193  23.622  26.185  1.00  0.00    -0.237 OA
ATOM     46  O   UNL A   1      39.839  23.941  28.233  1.00  0.00    -0.237 OA
ATOM     47  O   UNL A   1      38.788  24.123  26.009  1.00  0.00    -0.744 OA
ENDBRANCH  40  44
ENDBRANCH  23  37
BRANCH  24  48
ATOM     48  C   UNL A   1      39.479  33.184  36.645  1.00  0.00     0.023 A 
ATOM     49  C   UNL A   1      38.593  32.661  37.600  1.00  0.00     0.031 A 
ATOM     50  C   UNL A   1      40.117  34.405  36.939  1.00  0.00     0.131 A 
ATOM     51  C   UNL A   1      38.354  33.367  38.792  1.00  0.00     0.055 A 
ATOM     52  C   UNL A   1      39.902  35.085  38.140  1.00  0.00     0.041 A 
ATOM     53  F   UNL A   1      40.972  34.949  36.059  1.00  0.00    -0.206 F 
ATOM     54  C   UNL A   1      39.010  34.568  39.073  1.00  0.00     0.022 A 
BRANCH  51  55
ATOM     55  S   UNL A   1      37.136  32.708  39.965  1.00  0.00     0.124 S 
ATOM     56  O   UNL A   1      37.165  33.713  41.022  1.00  0.00    -0.237 OA
ATOM     57  O   UNL A   1      35.925  32.667  39.152  1.00  0.00    -0.237 OA
ATOM     58  O   UNL A   1      37.683  31.402  40.330  1.00  0.00    -0.744 OA
ENDBRANCH  51  55
ENDBRANCH  24  48
BRANCH  36  59
ATOM     59  C   UNL A   1      43.918  28.172  34.573  1.00  0.00     0.023 A 
ATOM     60  C   UNL A   1      43.825  26.936  35.232  1.00  0.00     0.031 A 
ATOM     61  C   UNL A   1      45.180  28.787  34.482  1.00  0.00     0.131 A 
ATOM     62  C   UNL A   1      44.975  26.365  35.798  1.00  0.00     0.055 A 
ATOM     63  C   UNL A   1      46.329  28.185  34.992  1.00  0.00     0.041 A 
ATOM     64  F   UNL A   1      45.318  29.972  33.866  1.00  0.00    -0.206 F 
ATOM     65  C   UNL A   1      46.229  26.970  35.660  1.00  0.00     0.022 A 
BRANCH  62  66
ATOM     66  S   UNL A   1      44.805  24.844  36.770  1.00  0.00     0.124 S 
ATOM     67  O   UNL A   1      43.877  24.068  35.954  1.00  0.00    -0.237 OA
ATOM     68  O   UNL A   1      46.177  24.351  36.821  1.00  0.00    -0.237 OA
ATOM     69  O   UNL A   1      44.267  25.313  38.046  1.00  0.00    -0.744 OA
ENDBRANCH  62  66
ENDBRANCH  36  59
ENDBRANCH  10  11
ENDBRANCH   3   5
ENDBRANCH   2   3
ENDBRANCH   1   2
BRANCH   1  70
ATOM     70  C   UNL A   1      31.359  31.383  25.992  1.00  0.00     0.275 C 
BRANCH  70  71
ATOM     71  O   UNL A   1      31.449  29.967  25.765  1.00  0.00    -0.458 OA
BRANCH  71  72
ATOM     72  C   UNL A   1      31.026  29.535  24.546  1.00  0.00     0.338 C 
ATOM     73  O   UNL A   1      30.151  30.029  23.865  1.00  0.00    -0.246 OA
BRANCH  72  74
ATOM     74  C   UNL A   1      31.876  28.407  24.094  1.00  0.00     0.062 A 
ATOM     75  C   UNL A   1      32.531  28.467  22.860  1.00  0.00     0.018 A 
ATOM     76  C   UNL A   1      32.007  27.290  24.943  1.00  0.00     0.044 A 
ATOM     77  C   UNL A   1      33.354  27.411  22.447  1.00  0.00     0.031 A 
ATOM     78  C   UNL A   1      32.764  26.217  24.457  1.00  0.00     0.067 A 
ATOM     79  C   UNL A   1      33.450  26.267  23.252  1.00  0.00     0.089 A 
ATOM     80  N   UNL A   1      33.024  24.953  24.935  1.00  0.00    -0.338 N 
ATOM     81  N   UNL A   1      34.172  25.124  23.053  1.00  0.00    -0.229 NA
ATOM     82  C   UNL A   1      33.903  24.332  24.072  1.00  0.00     0.138 A 
ATOM     83  H   UNL A   1      32.647  24.558  25.754  1.00  0.00     0.168 HD
BRANCH  82  84
ATOM     84  C   UNL A   1      34.545  23.045  24.319  1.00  0.00     0.021 A 
ATOM     85  C   UNL A   1      35.931  22.867  24.287  1.00  0.00     0.051 A 
ATOM     86  C   UNL A   1      33.723  21.946  24.619  1.00  0.00     0.027 A 
ATOM     87  C   UNL A   1      36.466  21.602  24.539  1.00  0.00     0.125 A 
ATOM     88  C   UNL A   1      34.276  20.688  24.853  1.00  0.00     0.021 A 
ATOM     89  F   UNL A   1      37.795  21.433  24.505  1.00  0.00    -0.207 F 
ATOM     90  C   UNL A   1      35.653  20.508  24.814  1.00  0.00     0.055 A 
ATOM     91  Br  UNL A   1      33.141  19.217  25.204  1.00  0.00    -0.051 Br
ENDBRANCH  82  84
ENDBRANCH  72  74
ENDBRANCH  71  72
ENDBRANCH  70  71
ENDBRANCH   1  70
TORSDOF 15
ENDMDL
