MODEL 1
REMARK VINA RESULT:     -12.3      0.000      0.000
REMARK SMILES Cc1ccc(Nc2c(C)cccc2Cl)c(CC(=O)OCCOC(=O)c2ccc(-c3c4nc(c(-c5cc(S(=O)(=O)[O-])ccc5F)c5ccc([nH]5)c(-c5cc(S(=O)(=O)[O-])ccc5F)c5nc(c(-c6cc(S(=O)(=O)[O-])ccc6F)c6ccc3[nH]6)C=C5)C=C4)cc2)c1
REMARK SMILES IDX 20 1 19 2 17 3 18 4 16 5 15 6 1 7 2 8 3 9 88 10 4 11 5 12
REMARK SMILES IDX 6 13 7 15 8 16 13 17 9 18 10 19 12 20 14 21 11 22 21 23
REMARK SMILES IDX 22 24 23 25 24 26 25 27 26 28 87 29 27 30 86 31 28 32 29 33
REMARK SMILES IDX 30 34 80 35 31 36 85 37 79 38 81 39 32 40 84 41 78 42 77 43
REMARK SMILES IDX 33 45 65 46 45 47 64 48 46 49 49 50 63 51 82 52 47 53 48 54
REMARK SMILES IDX 62 56 83 57 50 58 34 59 35 60 43 61 36 62 42 63 44 64 41 65
REMARK SMILES IDX 37 66 38 67 39 68 40 69 66 70 67 71 75 72 68 73 74 74 76 75
REMARK SMILES IDX 73 76 69 77 70 78 71 79 72 80 51 81 52 82 60 83 53 84 59 85
REMARK SMILES IDX 61 86 58 87 54 88 55 89 56 90 57 91
REMARK H PARENT 6 14 81 44 49 55
REMARK Flexibility Score: inf
ROOT
ATOM      1  C   UNL A   1      34.295  28.338  25.943  1.00  0.00     0.274 C 
ENDROOT
BRANCH   1   2
ATOM      2  O   UNL A   1      33.047  27.724  25.657  1.00  0.00    -0.462 OA
BRANCH   2   3
ATOM      3  C   UNL A   1      32.910  26.390  25.874  1.00  0.00     0.310 C 
ATOM      4  O   UNL A   1      31.938  25.836  26.335  1.00  0.00    -0.252 OA
BRANCH   3   5
ATOM      5  C   UNL A   1      34.213  25.718  25.485  1.00  0.00     0.160 C 
BRANCH   5   6
ATOM      6  C   UNL A   1      33.992  24.950  24.207  1.00  0.00    -0.013 A 
ATOM      7  C   UNL A   1      32.333  25.917  20.935  1.00  0.00     0.044 C 
ATOM      8  C   UNL A   1      32.990  25.096  21.999  1.00  0.00    -0.051 A 
ATOM      9  C   UNL A   1      33.039  23.705  21.911  1.00  0.00     0.005 A 
ATOM     10  C   UNL A   1      33.495  25.712  23.137  1.00  0.00     0.009 A 
ATOM     11  C   UNL A   1      33.577  22.943  22.952  1.00  0.00     0.026 A 
ATOM     12  C   UNL A   1      34.045  23.539  24.128  1.00  0.00     0.042 A 
BRANCH  12  13
ATOM     13  N   UNL A   1      34.488  22.733  25.191  1.00  0.00    -0.354 N 
ATOM     14  H   UNL A   1      33.969  22.828  26.022  1.00  0.00     0.167 HD
BRANCH  13  15
ATOM     15  C   UNL A   1      35.558  21.804  25.264  1.00  0.00     0.060 A 
ATOM     16  C   UNL A   1      35.326  20.438  24.999  1.00  0.00    -0.026 A 
ATOM     17  C   UNL A   1      36.896  22.238  25.367  1.00  0.00     0.064 A 
ATOM     18  C   UNL A   1      33.931  19.888  24.904  1.00  0.00     0.046 C 
ATOM     19  C   UNL A   1      36.416  19.558  24.861  1.00  0.00     0.005 A 
ATOM     20  C   UNL A   1      37.968  21.373  25.131  1.00  0.00     0.023 A 
ATOM     21  Cl  UNL A   1      37.297  23.798  25.985  1.00  0.00    -0.082 Cl
ATOM     22  C   UNL A   1      37.727  20.029  24.887  1.00  0.00     0.002 A 
ENDBRANCH  13  15
ENDBRANCH  12  13
ENDBRANCH   5   6
ENDBRANCH   3   5
ENDBRANCH   2   3
ENDBRANCH   1   2
BRANCH   1  23
ATOM     23  C   UNL A   1      34.153  29.113  27.263  1.00  0.00     0.275 C 
BRANCH  23  24
ATOM     24  O   UNL A   1      35.059  30.267  27.464  1.00  0.00    -0.458 OA
BRANCH  24  25
ATOM     25  C   UNL A   1      35.755  30.690  28.562  1.00  0.00     0.338 C 
ATOM     26  O   UNL A   1      35.237  31.370  29.442  1.00  0.00    -0.246 OA
BRANCH  25  27
ATOM     27  C   UNL A   1      37.075  30.093  28.795  1.00  0.00     0.060 A 
ATOM     28  C   UNL A   1      37.343  29.254  29.895  1.00  0.00     0.016 A 
ATOM     29  C   UNL A   1      37.979  30.216  27.772  1.00  0.00     0.016 A 
ATOM     30  C   UNL A   1      38.471  28.440  29.861  1.00  0.00     0.010 A 
ATOM     31  C   UNL A   1      38.829  29.178  27.566  1.00  0.00     0.010 A 
ATOM     32  C   UNL A   1      39.182  28.390  28.662  1.00  0.00    -0.014 A 
BRANCH  32  33
ATOM     33  C   UNL A   1      40.519  27.850  28.492  1.00  0.00     0.031 A 
ATOM     34  C   UNL A   1      40.707  26.425  28.223  1.00  0.00     0.074 A 
ATOM     35  C   UNL A   1      41.468  28.817  28.535  1.00  0.00     0.049 A 
ATOM     36  N   UNL A   1      41.515  25.655  28.864  1.00  0.00    -0.248 NA
ATOM     37  C   UNL A   1      39.918  25.710  27.216  1.00  0.00     0.031 C 
ATOM     38  C   UNL A   1      42.883  28.828  28.245  1.00  0.00     0.029 A 
ATOM     39  N   UNL A   1      41.240  30.114  29.009  1.00  0.00    -0.354 N 
ATOM     40  C   UNL A   1      41.667  24.545  28.058  1.00  0.00     0.074 A 
ATOM     41  C   UNL A   1      40.498  24.503  27.216  1.00  0.00     0.031 C 
ATOM     42  C   UNL A   1      43.430  29.916  28.837  1.00  0.00     0.029 A 
ATOM     43  C   UNL A   1      42.386  30.612  29.589  1.00  0.00     0.049 A 
ATOM     44  H   UNL A   1      40.387  30.599  28.937  1.00  0.00     0.167 HD
ATOM     45  C   UNL A   1      42.907  24.000  27.887  1.00  0.00     0.034 A 
ATOM     46  C   UNL A   1      42.305  30.827  30.936  1.00  0.00     0.034 A 
ATOM     47  C   UNL A   1      43.910  24.857  28.515  1.00  0.00     0.049 A 
ATOM     48  C   UNL A   1      43.060  29.731  31.643  1.00  0.00     0.074 A 
ATOM     49  C   UNL A   1      44.761  25.813  27.986  1.00  0.00     0.029 A 
ATOM     50  N   UNL A   1      43.859  25.089  29.882  1.00  0.00    -0.354 N 
ATOM     51  N   UNL A   1      43.285  28.549  31.132  1.00  0.00    -0.248 NA
ATOM     52  C   UNL A   1      43.707  29.924  32.931  1.00  0.00     0.031 C 
ATOM     53  C   UNL A   1      45.171  26.665  29.045  1.00  0.00     0.029 A 
ATOM     54  C   UNL A   1      44.564  26.230  30.210  1.00  0.00     0.049 A 
ATOM     55  H   UNL A   1      43.385  24.519  30.529  1.00  0.00     0.167 HD
ATOM     56  C   UNL A   1      44.162  27.869  31.928  1.00  0.00     0.074 A 
ATOM     57  C   UNL A   1      44.384  28.770  33.051  1.00  0.00     0.031 C 
ATOM     58  C   UNL A   1      44.665  26.640  31.598  1.00  0.00     0.034 A 
BRANCH  45  59
ATOM     59  C   UNL A   1      43.252  22.961  26.848  1.00  0.00     0.023 A 
ATOM     60  C   UNL A   1      42.811  21.633  27.022  1.00  0.00     0.031 A 
ATOM     61  C   UNL A   1      43.956  23.220  25.657  1.00  0.00     0.131 A 
ATOM     62  C   UNL A   1      43.113  20.624  26.092  1.00  0.00     0.055 A 
ATOM     63  C   UNL A   1      44.282  22.209  24.738  1.00  0.00     0.041 A 
ATOM     64  F   UNL A   1      44.321  24.467  25.321  1.00  0.00    -0.206 F 
ATOM     65  C   UNL A   1      43.865  20.901  24.955  1.00  0.00     0.022 A 
BRANCH  62  66
ATOM     66  S   UNL A   1      42.473  18.953  26.387  1.00  0.00     0.124 S 
ATOM     67  O   UNL A   1      42.361  18.919  27.842  1.00  0.00    -0.237 OA
ATOM     68  O   UNL A   1      41.217  18.964  25.645  1.00  0.00    -0.237 OA
ATOM     69  O   UNL A   1      43.510  18.088  25.828  1.00  0.00    -0.744 OA
ENDBRANCH  62  66
ENDBRANCH  45  59
BRANCH  46  70
ATOM     70  C   UNL A   1      40.988  31.442  31.365  1.00  0.00     0.023 A 
ATOM     71  C   UNL A   1      40.157  30.665  32.214  1.00  0.00     0.031 A 
ATOM     72  C   UNL A   1      40.678  32.805  31.261  1.00  0.00     0.131 A 
ATOM     73  C   UNL A   1      39.178  31.264  33.027  1.00  0.00     0.055 A 
ATOM     74  C   UNL A   1      39.641  33.388  32.019  1.00  0.00     0.041 A 
ATOM     75  F   UNL A   1      41.421  33.623  30.502  1.00  0.00    -0.206 F 
ATOM     76  C   UNL A   1      38.912  32.627  32.934  1.00  0.00     0.022 A 
BRANCH  73  77
ATOM     77  S   UNL A   1      38.484  30.306  34.415  1.00  0.00     0.124 S 
ATOM     78  O   UNL A   1      39.678  29.951  35.173  1.00  0.00    -0.237 OA
ATOM     79  O   UNL A   1      37.584  31.267  35.050  1.00  0.00    -0.237 OA
ATOM     80  O   UNL A   1      37.798  29.203  33.749  1.00  0.00    -0.744 OA
ENDBRANCH  73  77
ENDBRANCH  46  70
BRANCH  58  81
ATOM     81  C   UNL A   1      45.397  25.728  32.545  1.00  0.00     0.023 A 
ATOM     82  C   UNL A   1      44.760  24.668  33.188  1.00  0.00     0.031 A 
ATOM     83  C   UNL A   1      46.792  25.839  32.764  1.00  0.00     0.131 A 
ATOM     84  C   UNL A   1      45.447  23.868  34.106  1.00  0.00     0.055 A 
ATOM     85  C   UNL A   1      47.503  24.952  33.572  1.00  0.00     0.041 A 
ATOM     86  F   UNL A   1      47.532  26.806  32.203  1.00  0.00    -0.206 F 
ATOM     87  C   UNL A   1      46.823  23.975  34.278  1.00  0.00     0.022 A 
BRANCH  84  88
ATOM     88  S   UNL A   1      44.454  22.792  35.163  1.00  0.00     0.124 S 
ATOM     89  O   UNL A   1      44.960  23.135  36.490  1.00  0.00    -0.237 OA
ATOM     90  O   UNL A   1      43.094  23.234  34.873  1.00  0.00    -0.237 OA
ATOM     91  O   UNL A   1      44.790  21.451  34.696  1.00  0.00    -0.744 OA
ENDBRANCH  84  88
ENDBRANCH  58  81
ENDBRANCH  32  33
ENDBRANCH  25  27
ENDBRANCH  24  25
ENDBRANCH  23  24
ENDBRANCH   1  23
TORSDOF 17
ENDMDL
MODEL 2
REMARK VINA RESULT:     -12.1      2.396      3.118
REMARK SMILES Cc1ccc(Nc2c(C)cccc2Cl)c(CC(=O)OCCOC(=O)c2ccc(-c3c4nc(c(-c5cc(S(=O)(=O)[O-])ccc5F)c5ccc([nH]5)c(-c5cc(S(=O)(=O)[O-])ccc5F)c5nc(c(-c6cc(S(=O)(=O)[O-])ccc6F)c6ccc3[nH]6)C=C5)C=C4)cc2)c1
REMARK SMILES IDX 20 1 19 2 17 3 18 4 16 5 15 6 1 7 2 8 3 9 88 10 4 11 5 12
REMARK SMILES IDX 6 13 7 15 8 16 13 17 9 18 10 19 12 20 14 21 11 22 21 23
REMARK SMILES IDX 22 24 23 25 24 26 25 27 26 28 87 29 27 30 86 31 28 32 29 33
REMARK SMILES IDX 30 34 80 35 31 36 85 37 79 38 81 39 32 40 84 41 78 42 77 43
REMARK SMILES IDX 33 45 65 46 45 47 64 48 46 49 49 50 63 51 82 52 47 53 48 54
REMARK SMILES IDX 62 56 83 57 50 58 34 59 35 60 43 61 36 62 42 63 44 64 41 65
REMARK SMILES IDX 37 66 38 67 39 68 40 69 66 70 67 71 75 72 68 73 74 74 76 75
REMARK SMILES IDX 73 76 69 77 70 78 71 79 72 80 51 81 52 82 60 83 53 84 59 85
REMARK SMILES IDX 61 86 58 87 54 88 55 89 56 90 57 91
REMARK H PARENT 6 14 81 44 49 55
REMARK Flexibility Score: inf
ROOT
ATOM      1  C   UNL A   1      33.659  30.325  26.854  1.00  0.00     0.274 C 
ENDROOT
BRANCH   1   2
ATOM      2  O   UNL A   1      32.479  29.857  27.491  1.00  0.00    -0.462 OA
BRANCH   2   3
ATOM      3  C   UNL A   1      32.075  28.580  27.264  1.00  0.00     0.310 C 
ATOM      4  O   UNL A   1      31.345  27.924  27.970  1.00  0.00    -0.252 OA
BRANCH   3   5
ATOM      5  C   UNL A   1      32.745  28.100  25.990  1.00  0.00     0.160 C 
BRANCH   5   6
ATOM      6  C   UNL A   1      31.676  27.645  25.030  1.00  0.00    -0.013 A 
ATOM      7  C   UNL A   1      29.301  29.582  22.794  1.00  0.00     0.044 C 
ATOM      8  C   UNL A   1      29.954  28.446  23.515  1.00  0.00    -0.051 A 
ATOM      9  C   UNL A   1      29.371  27.179  23.546  1.00  0.00     0.005 A 
ATOM     10  C   UNL A   1      31.121  28.663  24.236  1.00  0.00     0.009 A 
ATOM     11  C   UNL A   1      29.945  26.148  24.296  1.00  0.00     0.026 A 
ATOM     12  C   UNL A   1      31.092  26.358  25.069  1.00  0.00     0.042 A 
BRANCH  12  13
ATOM     13  N   UNL A   1      31.582  25.324  25.886  1.00  0.00    -0.354 N 
ATOM     14  H   UNL A   1      31.571  25.522  26.849  1.00  0.00     0.167 HD
BRANCH  13  15
ATOM     15  C   UNL A   1      32.089  24.041  25.550  1.00  0.00     0.060 A 
ATOM     16  C   UNL A   1      31.361  22.883  25.893  1.00  0.00    -0.026 A 
ATOM     17  C   UNL A   1      33.187  23.896  24.677  1.00  0.00     0.064 A 
ATOM     18  C   UNL A   1      30.197  22.946  26.841  1.00  0.00     0.046 C 
ATOM     19  C   UNL A   1      31.751  21.633  25.378  1.00  0.00     0.005 A 
ATOM     20  C   UNL A   1      33.504  22.665  24.096  1.00  0.00     0.023 A 
ATOM     21  Cl  UNL A   1      34.325  25.170  24.432  1.00  0.00    -0.082 Cl
ATOM     22  C   UNL A   1      32.790  21.530  24.454  1.00  0.00     0.002 A 
ENDBRANCH  13  15
ENDBRANCH  12  13
ENDBRANCH   5   6
ENDBRANCH   3   5
ENDBRANCH   2   3
ENDBRANCH   1   2
BRANCH   1  23
ATOM     23  C   UNL A   1      34.557  30.965  27.925  1.00  0.00     0.275 C 
BRANCH  23  24
ATOM     24  O   UNL A   1      35.964  30.506  27.983  1.00  0.00    -0.458 OA
BRANCH  24  25
ATOM     25  C   UNL A   1      36.684  29.917  28.985  1.00  0.00     0.338 C 
ATOM     26  O   UNL A   1      36.300  29.916  30.150  1.00  0.00    -0.246 OA
BRANCH  25  27
ATOM     27  C   UNL A   1      37.806  29.057  28.595  1.00  0.00     0.060 A 
ATOM     28  C   UNL A   1      38.580  29.296  27.443  1.00  0.00     0.016 A 
ATOM     29  C   UNL A   1      38.202  28.130  29.524  1.00  0.00     0.016 A 
ATOM     30  C   UNL A   1      39.826  28.687  27.331  1.00  0.00     0.010 A 
ATOM     31  C   UNL A   1      39.530  27.858  29.603  1.00  0.00     0.010 A 
ATOM     32  C   UNL A   1      40.299  27.999  28.448  1.00  0.00    -0.014 A 
BRANCH  32  33
ATOM     33  C   UNL A   1      41.412  27.067  28.460  1.00  0.00     0.031 A 
ATOM     34  C   UNL A   1      41.175  25.637  28.269  1.00  0.00     0.074 A 
ATOM     35  C   UNL A   1      42.605  27.700  28.578  1.00  0.00     0.049 A 
ATOM     36  N   UNL A   1      41.635  24.706  29.031  1.00  0.00    -0.248 NA
ATOM     37  C   UNL A   1      40.310  25.125  27.204  1.00  0.00     0.031 C 
ATOM     38  C   UNL A   1      43.976  27.258  28.458  1.00  0.00     0.029 A 
ATOM     39  N   UNL A   1      42.745  29.036  28.972  1.00  0.00    -0.354 N 
ATOM     40  C   UNL A   1      41.515  23.547  28.291  1.00  0.00     0.074 A 
ATOM     41  C   UNL A   1      40.483  23.802  27.319  1.00  0.00     0.031 C 
ATOM     42  C   UNL A   1      44.770  28.169  29.070  1.00  0.00     0.029 A 
ATOM     43  C   UNL A   1      43.924  29.203  29.665  1.00  0.00     0.049 A 
ATOM     44  H   UNL A   1      42.096  29.751  28.781  1.00  0.00     0.167 HD
ATOM     45  C   UNL A   1      42.535  22.639  28.289  1.00  0.00     0.034 A 
ATOM     46  C   UNL A   1      43.777  29.530  30.984  1.00  0.00     0.034 A 
ATOM     47  C   UNL A   1      43.685  23.194  29.000  1.00  0.00     0.049 A 
ATOM     48  C   UNL A   1      44.079  28.310  31.816  1.00  0.00     0.074 A 
ATOM     49  C   UNL A   1      44.840  23.805  28.539  1.00  0.00     0.029 A 
ATOM     50  N   UNL A   1      43.571  23.530  30.341  1.00  0.00    -0.354 N 
ATOM     51  N   UNL A   1      43.977  27.082  31.381  1.00  0.00    -0.248 NA
ATOM     52  C   UNL A   1      44.620  28.391  33.164  1.00  0.00     0.031 C 
ATOM     53  C   UNL A   1      45.385  24.566  29.606  1.00  0.00     0.029 A 
ATOM     54  C   UNL A   1      44.558  24.423  30.707  1.00  0.00     0.049 A 
ATOM     55  H   UNL A   1      42.880  23.180  30.948  1.00  0.00     0.167 HD
ATOM     56  C   UNL A   1      44.513  26.227  32.301  1.00  0.00     0.074 A 
ATOM     57  C   UNL A   1      44.889  27.098  33.408  1.00  0.00     0.031 C 
ATOM     58  C   UNL A   1      44.641  24.883  32.080  1.00  0.00     0.034 A 
BRANCH  45  59
ATOM     59  C   UNL A   1      42.644  21.472  27.340  1.00  0.00     0.023 A 
ATOM     60  C   UNL A   1      43.675  21.456  26.376  1.00  0.00     0.031 A 
ATOM     61  C   UNL A   1      41.814  20.336  27.363  1.00  0.00     0.131 A 
ATOM     62  C   UNL A   1      43.817  20.400  25.461  1.00  0.00     0.055 A 
ATOM     63  C   UNL A   1      41.936  19.291  26.434  1.00  0.00     0.041 A 
ATOM     64  F   UNL A   1      40.876  20.180  28.312  1.00  0.00    -0.206 F 
ATOM     65  C   UNL A   1      42.940  19.321  25.472  1.00  0.00     0.022 A 
BRANCH  62  66
ATOM     66  S   UNL A   1      45.194  20.455  24.281  1.00  0.00     0.124 S 
ATOM     67  O   UNL A   1      46.348  20.608  25.162  1.00  0.00    -0.237 OA
ATOM     68  O   UNL A   1      45.072  19.171  23.598  1.00  0.00    -0.237 OA
ATOM     69  O   UNL A   1      44.887  21.622  23.456  1.00  0.00    -0.744 OA
ENDBRANCH  62  66
ENDBRANCH  45  59
BRANCH  46  70
ATOM     70  C   UNL A   1      42.680  30.545  31.229  1.00  0.00     0.023 A 
ATOM     71  C   UNL A   1      41.477  30.070  31.813  1.00  0.00     0.031 A 
ATOM     72  C   UNL A   1      42.871  31.935  31.229  1.00  0.00     0.131 A 
ATOM     73  C   UNL A   1      40.602  30.935  32.494  1.00  0.00     0.055 A 
ATOM     74  C   UNL A   1      41.950  32.808  31.844  1.00  0.00     0.041 A 
ATOM     75  F   UNL A   1      43.988  32.475  30.722  1.00  0.00    -0.206 F 
ATOM     76  C   UNL A   1      40.831  32.309  32.512  1.00  0.00     0.022 A 
BRANCH  73  77
ATOM     77  S   UNL A   1      39.349  30.219  33.608  1.00  0.00     0.124 S 
ATOM     78  O   UNL A   1      39.843  30.610  34.922  1.00  0.00    -0.237 OA
ATOM     79  O   UNL A   1      38.117  30.869  33.166  1.00  0.00    -0.237 OA
ATOM     80  O   UNL A   1      39.408  28.792  33.301  1.00  0.00    -0.744 OA
ENDBRANCH  73  77
ENDBRANCH  46  70
BRANCH  58  81
ATOM     81  C   UNL A   1      44.953  23.863  33.142  1.00  0.00     0.023 A 
ATOM     82  C   UNL A   1      46.245  23.679  33.631  1.00  0.00     0.031 A 
ATOM     83  C   UNL A   1      43.938  23.098  33.768  1.00  0.00     0.131 A 
ATOM     84  C   UNL A   1      46.521  22.687  34.576  1.00  0.00     0.055 A 
ATOM     85  C   UNL A   1      44.196  22.208  34.810  1.00  0.00     0.041 A 
ATOM     86  F   UNL A   1      42.650  23.180  33.403  1.00  0.00    -0.206 F 
ATOM     87  C   UNL A   1      45.503  21.973  35.201  1.00  0.00     0.022 A 
BRANCH  84  88
ATOM     88  S   UNL A   1      48.256  22.270  34.848  1.00  0.00     0.124 S 
ATOM     89  O   UNL A   1      48.932  23.411  34.234  1.00  0.00    -0.237 OA
ATOM     90  O   UNL A   1      48.338  22.197  36.304  1.00  0.00    -0.237 OA
ATOM     91  O   UNL A   1      48.416  21.000  34.146  1.00  0.00    -0.744 OA
ENDBRANCH  84  88
ENDBRANCH  58  81
ENDBRANCH  32  33
ENDBRANCH  25  27
ENDBRANCH  24  25
ENDBRANCH  23  24
ENDBRANCH   1  23
TORSDOF 17
ENDMDL
MODEL 3
REMARK VINA RESULT:     -11.9      1.336      2.865
REMARK SMILES Cc1ccc(Nc2c(C)cccc2Cl)c(CC(=O)OCCOC(=O)c2ccc(-c3c4nc(c(-c5cc(S(=O)(=O)[O-])ccc5F)c5ccc([nH]5)c(-c5cc(S(=O)(=O)[O-])ccc5F)c5nc(c(-c6cc(S(=O)(=O)[O-])ccc6F)c6ccc3[nH]6)C=C5)C=C4)cc2)c1
REMARK SMILES IDX 20 1 19 2 17 3 18 4 16 5 15 6 1 7 2 8 3 9 88 10 4 11 5 12
REMARK SMILES IDX 6 13 7 15 8 16 13 17 9 18 10 19 12 20 14 21 11 22 21 23
REMARK SMILES IDX 22 24 23 25 24 26 25 27 26 28 87 29 27 30 86 31 28 32 29 33
REMARK SMILES IDX 30 34 80 35 31 36 85 37 79 38 81 39 32 40 84 41 78 42 77 43
REMARK SMILES IDX 33 45 65 46 45 47 64 48 46 49 49 50 63 51 82 52 47 53 48 54
REMARK SMILES IDX 62 56 83 57 50 58 34 59 35 60 43 61 36 62 42 63 44 64 41 65
REMARK SMILES IDX 37 66 38 67 39 68 40 69 66 70 67 71 75 72 68 73 74 74 76 75
REMARK SMILES IDX 73 76 69 77 70 78 71 79 72 80 51 81 52 82 60 83 53 84 59 85
REMARK SMILES IDX 61 86 58 87 54 88 55 89 56 90 57 91
REMARK H PARENT 6 14 81 44 49 55
REMARK Flexibility Score: inf
ROOT
ATOM      1  C   UNL A   1      32.679  29.009  26.807  1.00  0.00     0.274 C 
ENDROOT
BRANCH   1   2
ATOM      2  O   UNL A   1      33.461  27.825  26.854  1.00  0.00    -0.462 OA
BRANCH   2   3
ATOM      3  C   UNL A   1      33.510  27.030  25.753  1.00  0.00     0.310 C 
ATOM      4  O   UNL A   1      33.896  27.354  24.653  1.00  0.00    -0.252 OA
BRANCH   3   5
ATOM      5  C   UNL A   1      32.946  25.674  26.133  1.00  0.00     0.160 C 
BRANCH   5   6
ATOM      6  C   UNL A   1      33.614  24.624  25.284  1.00  0.00    -0.013 A 
ATOM      7  C   UNL A   1      37.223  23.475  25.063  1.00  0.00     0.044 C 
ATOM      8  C   UNL A   1      35.766  23.625  24.760  1.00  0.00    -0.051 A 
ATOM      9  C   UNL A   1      35.214  23.109  23.588  1.00  0.00     0.005 A 
ATOM     10  C   UNL A   1      34.953  24.356  25.617  1.00  0.00     0.009 A 
ATOM     11  C   UNL A   1      33.870  23.331  23.274  1.00  0.00     0.026 A 
ATOM     12  C   UNL A   1      33.047  24.106  24.096  1.00  0.00     0.042 A 
BRANCH  12  13
ATOM     13  N   UNL A   1      31.728  24.388  23.697  1.00  0.00    -0.354 N 
ATOM     14  H   UNL A   1      31.127  23.609  23.687  1.00  0.00     0.167 HD
BRANCH  13  15
ATOM     15  C   UNL A   1      31.121  25.610  23.307  1.00  0.00     0.060 A 
ATOM     16  C   UNL A   1      30.174  26.227  24.149  1.00  0.00    -0.026 A 
ATOM     17  C   UNL A   1      31.607  26.349  22.207  1.00  0.00     0.064 A 
ATOM     18  C   UNL A   1      29.583  25.499  25.324  1.00  0.00     0.046 C 
ATOM     19  C   UNL A   1      29.734  27.534  23.868  1.00  0.00     0.005 A 
ATOM     20  C   UNL A   1      31.236  27.680  21.997  1.00  0.00     0.023 A 
ATOM     21  Cl  UNL A   1      32.522  25.604  20.949  1.00  0.00    -0.082 Cl
ATOM     22  C   UNL A   1      30.290  28.270  22.823  1.00  0.00     0.002 A 
ENDBRANCH  13  15
ENDBRANCH  12  13
ENDBRANCH   5   6
ENDBRANCH   3   5
ENDBRANCH   2   3
ENDBRANCH   1   2
BRANCH   1  23
ATOM     23  C   UNL A   1      33.591  30.197  27.156  1.00  0.00     0.275 C 
BRANCH  23  24
ATOM     24  O   UNL A   1      34.855  29.886  27.864  1.00  0.00    -0.458 OA
BRANCH  24  25
ATOM     25  C   UNL A   1      35.836  30.698  28.360  1.00  0.00     0.338 C 
ATOM     26  O   UNL A   1      35.600  31.825  28.784  1.00  0.00    -0.246 OA
BRANCH  25  27
ATOM     27  C   UNL A   1      37.148  30.093  28.617  1.00  0.00     0.060 A 
ATOM     28  C   UNL A   1      37.393  29.258  29.725  1.00  0.00     0.016 A 
ATOM     29  C   UNL A   1      38.068  30.204  27.607  1.00  0.00     0.016 A 
ATOM     30  C   UNL A   1      38.516  28.435  29.712  1.00  0.00     0.010 A 
ATOM     31  C   UNL A   1      38.914  29.159  27.419  1.00  0.00     0.010 A 
ATOM     32  C   UNL A   1      39.244  28.374  28.524  1.00  0.00    -0.014 A 
BRANCH  32  33
ATOM     33  C   UNL A   1      40.580  27.824  28.378  1.00  0.00     0.031 A 
ATOM     34  C   UNL A   1      40.762  26.396  28.119  1.00  0.00     0.074 A 
ATOM     35  C   UNL A   1      41.535  28.784  28.429  1.00  0.00     0.049 A 
ATOM     36  N   UNL A   1      41.555  25.624  28.776  1.00  0.00    -0.248 NA
ATOM     37  C   UNL A   1      39.983  25.682  27.104  1.00  0.00     0.031 C 
ATOM     38  C   UNL A   1      42.955  28.783  28.160  1.00  0.00     0.029 A 
ATOM     39  N   UNL A   1      41.310  30.086  28.892  1.00  0.00    -0.354 N 
ATOM     40  C   UNL A   1      41.711  24.508  27.978  1.00  0.00     0.074 A 
ATOM     41  C   UNL A   1      40.554  24.470  27.119  1.00  0.00     0.031 C 
ATOM     42  C   UNL A   1      43.500  29.872  28.755  1.00  0.00     0.029 A 
ATOM     43  C   UNL A   1      42.451  30.579  29.487  1.00  0.00     0.049 A 
ATOM     44  H   UNL A   1      40.461  30.576  28.806  1.00  0.00     0.167 HD
ATOM     45  C   UNL A   1      42.949  23.953  27.828  1.00  0.00     0.034 A 
ATOM     46  C   UNL A   1      42.350  30.802  30.832  1.00  0.00     0.034 A 
ATOM     47  C   UNL A   1      43.948  24.807  28.467  1.00  0.00     0.049 A 
ATOM     48  C   UNL A   1      43.087  29.704  31.556  1.00  0.00     0.074 A 
ATOM     49  C   UNL A   1      44.814  25.755  27.945  1.00  0.00     0.029 A 
ATOM     50  N   UNL A   1      43.879  25.047  29.832  1.00  0.00    -0.354 N 
ATOM     51  N   UNL A   1      43.311  28.518  31.054  1.00  0.00    -0.248 NA
ATOM     52  C   UNL A   1      43.716  29.900  32.852  1.00  0.00     0.031 C 
ATOM     53  C   UNL A   1      45.215  26.609  29.006  1.00  0.00     0.029 A 
ATOM     54  C   UNL A   1      44.587  26.185  30.164  1.00  0.00     0.049 A 
ATOM     55  H   UNL A   1      43.391  24.484  30.475  1.00  0.00     0.167 HD
ATOM     56  C   UNL A   1      44.171  27.836  31.867  1.00  0.00     0.074 A 
ATOM     57  C   UNL A   1      44.383  28.742  32.989  1.00  0.00     0.031 C 
ATOM     58  C   UNL A   1      44.671  26.602  31.552  1.00  0.00     0.034 A 
BRANCH  45  59
ATOM     59  C   UNL A   1      43.303  22.907  26.801  1.00  0.00     0.023 A 
ATOM     60  C   UNL A   1      42.787  21.601  26.935  1.00  0.00     0.031 A 
ATOM     61  C   UNL A   1      44.086  23.139  25.654  1.00  0.00     0.131 A 
ATOM     62  C   UNL A   1      43.093  20.586  26.014  1.00  0.00     0.055 A 
ATOM     63  C   UNL A   1      44.415  22.121  24.745  1.00  0.00     0.041 A 
ATOM     64  F   UNL A   1      44.531  24.369  25.354  1.00  0.00    -0.206 F 
ATOM     65  C   UNL A   1      43.921  20.833  24.925  1.00  0.00     0.022 A 
BRANCH  62  66
ATOM     66  S   UNL A   1      42.355  18.946  26.254  1.00  0.00     0.124 S 
ATOM     67  O   UNL A   1      40.991  19.149  25.772  1.00  0.00    -0.237 OA
ATOM     68  O   UNL A   1      43.208  18.095  25.431  1.00  0.00    -0.237 OA
ATOM     69  O   UNL A   1      42.474  18.728  27.694  1.00  0.00    -0.744 OA
ENDBRANCH  62  66
ENDBRANCH  45  59
BRANCH  46  70
ATOM     70  C   UNL A   1      41.032  31.428  31.238  1.00  0.00     0.023 A 
ATOM     71  C   UNL A   1      40.193  30.671  32.097  1.00  0.00     0.031 A 
ATOM     72  C   UNL A   1      40.725  32.789  31.102  1.00  0.00     0.131 A 
ATOM     73  C   UNL A   1      39.209  31.289  32.890  1.00  0.00     0.055 A 
ATOM     74  C   UNL A   1      39.684  33.390  31.839  1.00  0.00     0.041 A 
ATOM     75  F   UNL A   1      41.475  33.589  30.331  1.00  0.00    -0.206 F 
ATOM     76  C   UNL A   1      38.947  32.651  32.765  1.00  0.00     0.022 A 
BRANCH  73  77
ATOM     77  S   UNL A   1      38.503  30.364  34.293  1.00  0.00     0.124 S 
ATOM     78  O   UNL A   1      39.695  29.968  35.033  1.00  0.00    -0.237 OA
ATOM     79  O   UNL A   1      37.649  31.360  34.937  1.00  0.00    -0.237 OA
ATOM     80  O   UNL A   1      37.766  29.283  33.643  1.00  0.00    -0.744 OA
ENDBRANCH  73  77
ENDBRANCH  46  70
BRANCH  58  81
ATOM     81  C   UNL A   1      45.381  25.689  32.514  1.00  0.00     0.023 A 
ATOM     82  C   UNL A   1      44.706  24.703  33.231  1.00  0.00     0.031 A 
ATOM     83  C   UNL A   1      46.788  25.721  32.677  1.00  0.00     0.131 A 
ATOM     84  C   UNL A   1      45.378  23.904  34.161  1.00  0.00     0.055 A 
ATOM     85  C   UNL A   1      47.475  24.830  33.500  1.00  0.00     0.041 A 
ATOM     86  F   UNL A   1      47.564  26.613  32.042  1.00  0.00    -0.206 F 
ATOM     87  C   UNL A   1      46.764  23.931  34.277  1.00  0.00     0.022 A 
BRANCH  84  88
ATOM     88  S   UNL A   1      44.363  22.944  35.304  1.00  0.00     0.124 S 
ATOM     89  O   UNL A   1      44.809  23.459  36.597  1.00  0.00    -0.237 OA
ATOM     90  O   UNL A   1      43.008  23.315  34.911  1.00  0.00    -0.237 OA
ATOM     91  O   UNL A   1      44.743  21.563  35.020  1.00  0.00    -0.744 OA
ENDBRANCH  84  88
ENDBRANCH  58  81
ENDBRANCH  32  33
ENDBRANCH  25  27
ENDBRANCH  24  25
ENDBRANCH  23  24
ENDBRANCH   1  23
TORSDOF 17
ENDMDL
