MODEL 1
REMARK VINA RESULT:     -10.2      0.000      0.000
REMARK SMILES [NH3+]CCOCC(=O)N[C@H](C(=O)OCCOC(=O)c1ccc(-c2c3nc(c(-c4cc(S(=O)(=O)[O-])ccc4F)c4ccc([nH]4)c(-c4cc(S(=O)(=O)[O-])ccc4F)c4nc(c(-c5cc(S(=O)(=O)[O-])ccc5F)c5ccc2[nH]5)C=C4)C=C3)cc1)c1ccccc1
REMARK SMILES IDX 12 1 10 2 11 3 9 4 8 5 6 6 7 7 5 9 4 10 3 11 2 12 1 13 81 17
REMARK SMILES IDX 82 18 86 19 83 20 85 21 84 22 13 23 14 24 15 25 16 26 17 27
REMARK SMILES IDX 18 28 19 29 80 30 20 31 79 32 21 33 22 34 23 35 73 36 24 37
REMARK SMILES IDX 78 38 72 39 74 40 25 41 77 42 71 43 70 44 26 46 58 47 38 48
REMARK SMILES IDX 57 49 39 50 42 51 56 52 75 53 40 54 41 55 55 57 76 58 43 59
REMARK SMILES IDX 27 60 28 61 36 62 29 63 35 64 37 65 34 66 30 67 31 68 32 69
REMARK SMILES IDX 33 70 59 71 60 72 68 73 61 74 67 75 69 76 66 77 62 78 63 79
REMARK SMILES IDX 64 80 65 81 44 82 45 83 53 84 46 85 52 86 54 87 51 88 47 89
REMARK SMILES IDX 48 90 49 91 50 92
REMARK H PARENT 8 8 1 14 1 15 1 16 74 45 42 56
REMARK Flexibility Score: inf
ROOT
ATOM      1  O   UNL A   1      32.697  28.030  26.919  1.00  0.00    -0.460 OA
ENDROOT
BRANCH   1   2
ATOM      2  C   UNL A   1      32.067  26.930  26.404  1.00  0.00     0.333 C 
ATOM      3  O   UNL A   1      31.028  26.481  26.875  1.00  0.00    -0.249 OA
BRANCH   2   4
ATOM      4  C   UNL A   1      32.869  26.262  25.266  1.00  0.00     0.223 C 
BRANCH   4   5
ATOM      5  N   UNL A   1      33.541  27.344  24.520  1.00  0.00    -0.337 N 
ATOM      6  C   UNL A   1      33.535  27.674  23.196  1.00  0.00     0.246 C 
ATOM      7  O   UNL A   1      34.397  28.479  22.821  1.00  0.00    -0.272 OA
ATOM      8  H   UNL A   1      34.095  27.936  25.079  1.00  0.00     0.164 HD
BRANCH   6   9
ATOM      9  C   UNL A   1      32.504  27.115  22.189  1.00  0.00     0.260 C 
BRANCH   9  10
ATOM     10  O   UNL A   1      32.700  25.869  21.560  1.00  0.00    -0.366 OA
BRANCH  10  11
ATOM     11  C   UNL A   1      32.257  24.728  22.291  1.00  0.00     0.222 C 
BRANCH  11  12
ATOM     12  C   UNL A   1      33.193  23.515  22.178  1.00  0.00     0.287 C 
BRANCH  12  13
ATOM     13  N   UNL A   1      32.526  22.257  21.844  1.00  0.00    -0.356 N 
ATOM     14  H   UNL A   1      32.185  21.815  22.697  1.00  0.00     0.344 HD
ATOM     15  H   UNL A   1      33.187  21.634  21.379  1.00  0.00     0.344 HD
ATOM     16  H   UNL A   1      31.740  22.444  21.221  1.00  0.00     0.344 HD
ENDBRANCH  12  13
ENDBRANCH  11  12
ENDBRANCH  10  11
ENDBRANCH   9  10
ENDBRANCH   6   9
ENDBRANCH   4   5
BRANCH   4  17
ATOM     17  C   UNL A   1      33.726  25.048  25.589  1.00  0.00    -0.014 A 
ATOM     18  C   UNL A   1      33.286  24.065  26.499  1.00  0.00     0.006 A 
ATOM     19  C   UNL A   1      35.029  24.910  25.082  1.00  0.00     0.006 A 
ATOM     20  C   UNL A   1      34.048  22.925  26.769  1.00  0.00     0.000 A 
ATOM     21  C   UNL A   1      35.803  23.778  25.366  1.00  0.00     0.000 A 
ATOM     22  C   UNL A   1      35.301  22.773  26.188  1.00  0.00     0.000 A 
ENDBRANCH   4  17
ENDBRANCH   2   4
ENDBRANCH   1   2
BRANCH   1  23
ATOM     23  C   UNL A   1      31.793  29.013  27.469  1.00  0.00     0.274 C 
BRANCH  23  24
ATOM     24  C   UNL A   1      31.816  30.317  26.675  1.00  0.00     0.275 C 
BRANCH  24  25
ATOM     25  O   UNL A   1      33.171  30.717  26.415  1.00  0.00    -0.458 OA
BRANCH  25  26
ATOM     26  C   UNL A   1      33.729  31.505  27.362  1.00  0.00     0.338 C 
ATOM     27  O   UNL A   1      33.187  32.449  27.923  1.00  0.00    -0.246 OA
BRANCH  26  28
ATOM     28  C   UNL A   1      35.103  31.067  27.683  1.00  0.00     0.060 A 
ATOM     29  C   UNL A   1      35.417  29.716  27.830  1.00  0.00     0.016 A 
ATOM     30  C   UNL A   1      36.058  32.035  27.995  1.00  0.00     0.016 A 
ATOM     31  C   UNL A   1      36.622  29.337  28.425  1.00  0.00     0.010 A 
ATOM     32  C   UNL A   1      37.304  31.649  28.496  1.00  0.00     0.010 A 
ATOM     33  C   UNL A   1      37.576  30.299  28.780  1.00  0.00    -0.014 A 
BRANCH  33  34
ATOM     34  C   UNL A   1      38.799  29.931  29.549  1.00  0.00     0.031 A 
ATOM     35  C   UNL A   1      39.763  28.927  28.967  1.00  0.00     0.074 A 
ATOM     36  C   UNL A   1      39.069  30.487  30.747  1.00  0.00     0.049 A 
ATOM     37  N   UNL A   1      40.750  28.286  29.539  1.00  0.00    -0.248 NA
ATOM     38  C   UNL A   1      39.574  28.587  27.547  1.00  0.00     0.031 C 
ATOM     39  C   UNL A   1      38.275  31.527  31.401  1.00  0.00     0.029 A 
ATOM     40  N   UNL A   1      40.093  30.247  31.631  1.00  0.00    -0.354 N 
ATOM     41  C   UNL A   1      41.258  27.423  28.571  1.00  0.00     0.074 A 
ATOM     42  C   UNL A   1      40.461  27.620  27.379  1.00  0.00     0.031 C 
ATOM     43  C   UNL A   1      38.852  31.852  32.568  1.00  0.00     0.029 A 
ATOM     44  C   UNL A   1      40.005  30.983  32.789  1.00  0.00     0.049 A 
ATOM     45  H   UNL A   1      40.821  29.608  31.452  1.00  0.00     0.167 HD
ATOM     46  C   UNL A   1      42.289  26.547  28.671  1.00  0.00     0.034 A 
ATOM     47  C   UNL A   1      40.737  30.932  33.920  1.00  0.00     0.034 A 
ATOM     48  C   UNL A   1      43.105  26.398  29.850  1.00  0.00     0.049 A 
ATOM     49  C   UNL A   1      41.852  29.923  34.028  1.00  0.00     0.074 A 
ATOM     50  C   UNL A   1      44.168  25.534  30.065  1.00  0.00     0.029 A 
ATOM     51  N   UNL A   1      42.963  27.144  31.013  1.00  0.00    -0.354 N 
ATOM     52  N   UNL A   1      42.257  29.041  33.144  1.00  0.00    -0.248 NA
ATOM     53  C   UNL A   1      42.597  29.893  35.294  1.00  0.00     0.031 C 
ATOM     54  C   UNL A   1      44.636  25.728  31.371  1.00  0.00     0.029 A 
ATOM     55  C   UNL A   1      43.908  26.754  31.951  1.00  0.00     0.049 A 
ATOM     56  H   UNL A   1      42.287  27.847  31.153  1.00  0.00     0.167 HD
ATOM     57  C   UNL A   1      43.314  28.362  33.745  1.00  0.00     0.074 A 
ATOM     58  C   UNL A   1      43.494  28.948  35.056  1.00  0.00     0.031 C 
ATOM     59  C   UNL A   1      44.066  27.342  33.259  1.00  0.00     0.034 A 
BRANCH  46  60
ATOM     60  C   UNL A   1      42.543  25.641  27.490  1.00  0.00     0.023 A 
ATOM     61  C   UNL A   1      41.989  24.353  27.406  1.00  0.00     0.031 A 
ATOM     62  C   UNL A   1      43.392  26.063  26.452  1.00  0.00     0.131 A 
ATOM     63  C   UNL A   1      42.348  23.506  26.346  1.00  0.00     0.055 A 
ATOM     64  C   UNL A   1      43.687  25.243  25.361  1.00  0.00     0.041 A 
ATOM     65  F   UNL A   1      43.968  27.276  26.489  1.00  0.00    -0.206 F 
ATOM     66  C   UNL A   1      43.176  23.949  25.311  1.00  0.00     0.022 A 
BRANCH  63  67
ATOM     67  S   UNL A   1      41.836  21.766  26.414  1.00  0.00     0.124 S 
ATOM     68  O   UNL A   1      42.029  21.456  27.828  1.00  0.00    -0.237 OA
ATOM     69  O   UNL A   1      40.454  21.827  25.955  1.00  0.00    -0.237 OA
ATOM     70  O   UNL A   1      42.768  21.099  25.505  1.00  0.00    -0.744 OA
ENDBRANCH  63  67
ENDBRANCH  46  60
BRANCH  47  71
ATOM     71  C   UNL A   1      40.399  31.811  35.076  1.00  0.00     0.023 A 
ATOM     72  C   UNL A   1      39.413  31.443  36.003  1.00  0.00     0.031 A 
ATOM     73  C   UNL A   1      41.031  33.057  35.242  1.00  0.00     0.131 A 
ATOM     74  C   UNL A   1      39.060  32.328  37.035  1.00  0.00     0.055 A 
ATOM     75  C   UNL A   1      40.715  33.910  36.300  1.00  0.00     0.041 A 
ATOM     76  F   UNL A   1      41.979  33.458  34.380  1.00  0.00    -0.206 F 
ATOM     77  C   UNL A   1      39.714  33.551  37.197  1.00  0.00     0.022 A 
BRANCH  74  78
ATOM     78  S   UNL A   1      37.673  31.888  38.119  1.00  0.00     0.124 S 
ATOM     79  O   UNL A   1      36.673  32.879  37.738  1.00  0.00    -0.237 OA
ATOM     80  O   UNL A   1      37.398  30.513  37.716  1.00  0.00    -0.237 OA
ATOM     81  O   UNL A   1      38.228  32.044  39.461  1.00  0.00    -0.744 OA
ENDBRANCH  74  78
ENDBRANCH  47  71
BRANCH  59  82
ATOM     82  C   UNL A   1      45.178  26.837  34.141  1.00  0.00     0.023 A 
ATOM     83  C   UNL A   1      44.960  25.833  35.099  1.00  0.00     0.031 A 
ATOM     84  C   UNL A   1      46.468  27.386  34.032  1.00  0.00     0.131 A 
ATOM     85  C   UNL A   1      46.007  25.441  35.948  1.00  0.00     0.055 A 
ATOM     86  C   UNL A   1      47.517  26.959  34.848  1.00  0.00     0.041 A 
ATOM     87  F   UNL A   1      46.728  28.348  33.133  1.00  0.00    -0.206 F 
ATOM     88  C   UNL A   1      47.286  25.989  35.821  1.00  0.00     0.022 A 
BRANCH  85  89
ATOM     89  S   UNL A   1      45.656  24.259  37.278  1.00  0.00     0.124 S 
ATOM     90  O   UNL A   1      44.643  24.966  38.056  1.00  0.00    -0.237 OA
ATOM     91  O   UNL A   1      45.191  23.089  36.541  1.00  0.00    -0.237 OA
ATOM     92  O   UNL A   1      46.946  24.098  37.945  1.00  0.00    -0.744 OA
ENDBRANCH  85  89
ENDBRANCH  59  82
ENDBRANCH  33  34
ENDBRANCH  26  28
ENDBRANCH  25  26
ENDBRANCH  24  25
ENDBRANCH  23  24
ENDBRANCH   1  23
TORSDOF 21
ENDMDL
MODEL 2
REMARK VINA RESULT:     -10.2      1.934      2.475
REMARK SMILES [NH3+]CCOCC(=O)N[C@H](C(=O)OCCOC(=O)c1ccc(-c2c3nc(c(-c4cc(S(=O)(=O)[O-])ccc4F)c4ccc([nH]4)c(-c4cc(S(=O)(=O)[O-])ccc4F)c4nc(c(-c5cc(S(=O)(=O)[O-])ccc5F)c5ccc2[nH]5)C=C4)C=C3)cc1)c1ccccc1
REMARK SMILES IDX 12 1 10 2 11 3 9 4 8 5 6 6 7 7 5 9 4 10 3 11 2 12 1 13 81 17
REMARK SMILES IDX 82 18 86 19 83 20 85 21 84 22 13 23 14 24 15 25 16 26 17 27
REMARK SMILES IDX 18 28 19 29 80 30 20 31 79 32 21 33 22 34 23 35 73 36 24 37
REMARK SMILES IDX 78 38 72 39 74 40 25 41 77 42 71 43 70 44 26 46 58 47 38 48
REMARK SMILES IDX 57 49 39 50 42 51 56 52 75 53 40 54 41 55 55 57 76 58 43 59
REMARK SMILES IDX 27 60 28 61 36 62 29 63 35 64 37 65 34 66 30 67 31 68 32 69
REMARK SMILES IDX 33 70 59 71 60 72 68 73 61 74 67 75 69 76 66 77 62 78 63 79
REMARK SMILES IDX 64 80 65 81 44 82 45 83 53 84 46 85 52 86 54 87 51 88 47 89
REMARK SMILES IDX 48 90 49 91 50 92
REMARK H PARENT 8 8 1 14 1 15 1 16 74 45 42 56
REMARK Flexibility Score: inf
ROOT
ATOM      1  O   UNL A   1      31.584  27.885  25.441  1.00  0.00    -0.460 OA
ENDROOT
BRANCH   1   2
ATOM      2  C   UNL A   1      31.120  26.598  25.429  1.00  0.00     0.333 C 
ATOM      3  O   UNL A   1      30.017  26.296  24.985  1.00  0.00    -0.249 OA
BRANCH   2   4
ATOM      4  C   UNL A   1      32.074  25.615  26.140  1.00  0.00     0.223 C 
BRANCH   4   5
ATOM      5  N   UNL A   1      31.235  24.710  26.950  1.00  0.00    -0.337 N 
ATOM      6  C   UNL A   1      30.667  23.502  26.669  1.00  0.00     0.246 C 
ATOM      7  O   UNL A   1      29.804  23.097  27.458  1.00  0.00    -0.272 OA
ATOM      8  H   UNL A   1      31.051  25.037  27.860  1.00  0.00     0.164 HD
BRANCH   6   9
ATOM      9  C   UNL A   1      31.072  22.639  25.452  1.00  0.00     0.260 C 
BRANCH   9  10
ATOM     10  O   UNL A   1      31.956  21.550  25.591  1.00  0.00    -0.366 OA
BRANCH  10  11
ATOM     11  C   UNL A   1      32.498  21.032  24.378  1.00  0.00     0.222 C 
BRANCH  11  12
ATOM     12  C   UNL A   1      33.673  20.065  24.586  1.00  0.00     0.287 C 
BRANCH  12  13
ATOM     13  N   UNL A   1      34.522  20.372  25.738  1.00  0.00    -0.356 N 
ATOM     14  H   UNL A   1      34.013  20.976  26.383  1.00  0.00     0.344 HD
ATOM     15  H   UNL A   1      35.366  20.848  25.421  1.00  0.00     0.344 HD
ATOM     16  H   UNL A   1      34.776  19.506  26.213  1.00  0.00     0.344 HD
ENDBRANCH  12  13
ENDBRANCH  11  12
ENDBRANCH  10  11
ENDBRANCH   9  10
ENDBRANCH   6   9
ENDBRANCH   4   5
BRANCH   4  17
ATOM     17  C   UNL A   1      33.176  24.950  25.331  1.00  0.00    -0.014 A 
ATOM     18  C   UNL A   1      33.080  24.824  23.931  1.00  0.00     0.006 A 
ATOM     19  C   UNL A   1      34.279  24.339  25.953  1.00  0.00     0.006 A 
ATOM     20  C   UNL A   1      34.108  24.253  23.175  1.00  0.00     0.000 A 
ATOM     21  C   UNL A   1      35.301  23.749  25.198  1.00  0.00     0.000 A 
ATOM     22  C   UNL A   1      35.228  23.730  23.809  1.00  0.00     0.000 A 
ENDBRANCH   4  17
ENDBRANCH   2   4
ENDBRANCH   1   2
BRANCH   1  23
ATOM     23  C   UNL A   1      31.891  28.381  26.763  1.00  0.00     0.274 C 
BRANCH  23  24
ATOM     24  C   UNL A   1      31.806  29.904  26.834  1.00  0.00     0.275 C 
BRANCH  24  25
ATOM     25  O   UNL A   1      33.043  30.492  26.402  1.00  0.00    -0.458 OA
BRANCH  25  26
ATOM     26  C   UNL A   1      33.574  31.402  27.251  1.00  0.00     0.338 C 
ATOM     27  O   UNL A   1      33.016  32.409  27.667  1.00  0.00    -0.246 OA
BRANCH  26  28
ATOM     28  C   UNL A   1      34.939  31.016  27.666  1.00  0.00     0.060 A 
ATOM     29  C   UNL A   1      35.266  29.687  27.933  1.00  0.00     0.016 A 
ATOM     30  C   UNL A   1      35.863  32.023  27.943  1.00  0.00     0.016 A 
ATOM     31  C   UNL A   1      36.449  29.377  28.608  1.00  0.00     0.010 A 
ATOM     32  C   UNL A   1      37.091  31.700  28.528  1.00  0.00     0.010 A 
ATOM     33  C   UNL A   1      37.370  30.382  28.928  1.00  0.00    -0.014 A 
BRANCH  33  34
ATOM     34  C   UNL A   1      38.562  30.097  29.777  1.00  0.00     0.031 A 
ATOM     35  C   UNL A   1      39.627  29.158  29.266  1.00  0.00     0.074 A 
ATOM     36  C   UNL A   1      38.717  30.673  30.986  1.00  0.00     0.049 A 
ATOM     37  N   UNL A   1      40.614  28.585  29.905  1.00  0.00    -0.248 NA
ATOM     38  C   UNL A   1      39.552  28.802  27.839  1.00  0.00     0.031 C 
ATOM     39  C   UNL A   1      37.817  31.661  31.580  1.00  0.00     0.029 A 
ATOM     40  N   UNL A   1      39.697  30.504  31.935  1.00  0.00    -0.354 N 
ATOM     41  C   UNL A   1      41.239  27.754  28.978  1.00  0.00     0.074 A 
ATOM     42  C   UNL A   1      40.510  27.894  27.735  1.00  0.00     0.031 C 
ATOM     43  C   UNL A   1      38.295  32.026  32.779  1.00  0.00     0.029 A 
ATOM     44  C   UNL A   1      39.485  31.237  33.080  1.00  0.00     0.049 A 
ATOM     45  H   UNL A   1      40.475  29.914  31.808  1.00  0.00     0.167 HD
ATOM     46  C   UNL A   1      42.317  26.949  29.150  1.00  0.00     0.034 A 
ATOM     47  C   UNL A   1      40.144  31.237  34.257  1.00  0.00     0.034 A 
ATOM     48  C   UNL A   1      43.063  26.857  30.381  1.00  0.00     0.049 A 
ATOM     49  C   UNL A   1      41.313  30.304  34.443  1.00  0.00     0.074 A 
ATOM     50  C   UNL A   1      44.164  26.066  30.669  1.00  0.00     0.029 A 
ATOM     51  N   UNL A   1      42.797  27.595  31.526  1.00  0.00    -0.354 N 
ATOM     52  N   UNL A   1      41.832  29.448  33.593  1.00  0.00    -0.248 NA
ATOM     53  C   UNL A   1      41.975  30.327  35.755  1.00  0.00     0.031 C 
ATOM     54  C   UNL A   1      44.533  26.294  32.001  1.00  0.00     0.029 A 
ATOM     55  C   UNL A   1      43.703  27.271  32.525  1.00  0.00     0.049 A 
ATOM     56  H   UNL A   1      42.070  28.253  31.617  1.00  0.00     0.167 HD
ATOM     57  C   UNL A   1      42.890  28.842  34.266  1.00  0.00     0.074 A 
ATOM     58  C   UNL A   1      42.946  29.443  35.582  1.00  0.00     0.031 C 
ATOM     59  C   UNL A   1      43.737  27.873  33.837  1.00  0.00     0.034 A 
BRANCH  46  60
ATOM     60  C   UNL A   1      42.705  26.058  27.995  1.00  0.00     0.023 A 
ATOM     61  C   UNL A   1      42.070  24.828  27.754  1.00  0.00     0.031 A 
ATOM     62  C   UNL A   1      43.763  26.430  27.146  1.00  0.00     0.131 A 
ATOM     63  C   UNL A   1      42.545  23.982  26.739  1.00  0.00     0.055 A 
ATOM     64  C   UNL A   1      44.182  25.619  26.090  1.00  0.00     0.041 A 
ATOM     65  F   UNL A   1      44.422  27.584  27.340  1.00  0.00    -0.206 F 
ATOM     66  C   UNL A   1      43.582  24.379  25.891  1.00  0.00     0.022 A 
BRANCH  63  67
ATOM     67  S   UNL A   1      41.885  22.295  26.636  1.00  0.00     0.124 S 
ATOM     68  O   UNL A   1      42.593  21.634  27.729  1.00  0.00    -0.237 OA
ATOM     69  O   UNL A   1      40.456  22.504  26.834  1.00  0.00    -0.237 OA
ATOM     70  O   UNL A   1      42.274  21.856  25.297  1.00  0.00    -0.744 OA
ENDBRANCH  63  67
ENDBRANCH  46  60
BRANCH  47  71
ATOM     71  C   UNL A   1      39.675  32.096  35.381  1.00  0.00     0.023 A 
ATOM     72  C   UNL A   1      38.879  31.572  36.411  1.00  0.00     0.031 A 
ATOM     73  C   UNL A   1      39.983  33.468  35.417  1.00  0.00     0.131 A 
ATOM     74  C   UNL A   1      38.386  32.422  37.413  1.00  0.00     0.055 A 
ATOM     75  C   UNL A   1      39.535  34.298  36.445  1.00  0.00     0.041 A 
ATOM     76  F   UNL A   1      40.738  34.019  34.454  1.00  0.00    -0.206 F 
ATOM     77  C   UNL A   1      38.720  33.777  37.445  1.00  0.00     0.022 A 
BRANCH  74  78
ATOM     78  S   UNL A   1      37.231  31.742  38.637  1.00  0.00     0.124 S 
ATOM     79  O   UNL A   1      36.101  32.656  38.519  1.00  0.00    -0.237 OA
ATOM     80  O   UNL A   1      37.017  30.390  38.133  1.00  0.00    -0.237 OA
ATOM     81  O   UNL A   1      37.976  31.828  39.891  1.00  0.00    -0.744 OA
ENDBRANCH  74  78
ENDBRANCH  47  71
BRANCH  59  82
ATOM     82  C   UNL A   1      44.821  27.444  34.792  1.00  0.00     0.023 A 
ATOM     83  C   UNL A   1      46.105  28.015  34.754  1.00  0.00     0.031 A 
ATOM     84  C   UNL A   1      44.568  26.435  35.737  1.00  0.00     0.131 A 
ATOM     85  C   UNL A   1      47.104  27.537  35.615  1.00  0.00     0.055 A 
ATOM     86  C   UNL A   1      45.553  25.996  36.623  1.00  0.00     0.041 A 
ATOM     87  F   UNL A   1      43.357  25.858  35.813  1.00  0.00    -0.206 F 
ATOM     88  C   UNL A   1      46.834  26.539  36.557  1.00  0.00     0.022 A 
BRANCH  85  89
ATOM     89  S   UNL A   1      48.791  28.179  35.436  1.00  0.00     0.124 S 
ATOM     90  O   UNL A   1      48.689  28.969  34.213  1.00  0.00    -0.237 OA
ATOM     91  O   UNL A   1      48.969  28.937  36.671  1.00  0.00    -0.237 OA
ATOM     92  O   UNL A   1      49.609  26.973  35.328  1.00  0.00    -0.744 OA
ENDBRANCH  85  89
ENDBRANCH  59  82
ENDBRANCH  33  34
ENDBRANCH  26  28
ENDBRANCH  25  26
ENDBRANCH  24  25
ENDBRANCH  23  24
ENDBRANCH   1  23
TORSDOF 21
ENDMDL
MODEL 3
REMARK VINA RESULT:     -10.1      2.021      2.518
REMARK SMILES [NH3+]CCOCC(=O)N[C@H](C(=O)OCCOC(=O)c1ccc(-c2c3nc(c(-c4cc(S(=O)(=O)[O-])ccc4F)c4ccc([nH]4)c(-c4cc(S(=O)(=O)[O-])ccc4F)c4nc(c(-c5cc(S(=O)(=O)[O-])ccc5F)c5ccc2[nH]5)C=C4)C=C3)cc1)c1ccccc1
REMARK SMILES IDX 12 1 10 2 11 3 9 4 8 5 6 6 7 7 5 9 4 10 3 11 2 12 1 13 81 17
REMARK SMILES IDX 82 18 86 19 83 20 85 21 84 22 13 23 14 24 15 25 16 26 17 27
REMARK SMILES IDX 18 28 19 29 80 30 20 31 79 32 21 33 22 34 23 35 73 36 24 37
REMARK SMILES IDX 78 38 72 39 74 40 25 41 77 42 71 43 70 44 26 46 58 47 38 48
REMARK SMILES IDX 57 49 39 50 42 51 56 52 75 53 40 54 41 55 55 57 76 58 43 59
REMARK SMILES IDX 27 60 28 61 36 62 29 63 35 64 37 65 34 66 30 67 31 68 32 69
REMARK SMILES IDX 33 70 59 71 60 72 68 73 61 74 67 75 69 76 66 77 62 78 63 79
REMARK SMILES IDX 64 80 65 81 44 82 45 83 53 84 46 85 52 86 54 87 51 88 47 89
REMARK SMILES IDX 48 90 49 91 50 92
REMARK H PARENT 8 8 1 14 1 15 1 16 74 45 42 56
REMARK Flexibility Score: inf
ROOT
ATOM      1  O   UNL A   1      32.515  27.579  26.702  1.00  0.00    -0.460 OA
ENDROOT
BRANCH   1   2
ATOM      2  C   UNL A   1      31.725  26.703  26.009  1.00  0.00     0.333 C 
ATOM      3  O   UNL A   1      30.680  26.251  26.463  1.00  0.00    -0.249 OA
BRANCH   2   4
ATOM      4  C   UNL A   1      32.357  26.262  24.671  1.00  0.00     0.223 C 
BRANCH   4   5
ATOM      5  N   UNL A   1      32.921  27.472  24.041  1.00  0.00    -0.337 N 
ATOM      6  C   UNL A   1      32.342  28.476  23.321  1.00  0.00     0.246 C 
ATOM      7  O   UNL A   1      33.107  29.227  22.702  1.00  0.00    -0.272 OA
ATOM      8  H   UNL A   1      33.893  27.575  24.163  1.00  0.00     0.164 HD
BRANCH   6   9
ATOM      9  C   UNL A   1      30.816  28.713  23.276  1.00  0.00     0.260 C 
BRANCH   9  10
ATOM     10  O   UNL A   1      30.132  28.838  22.049  1.00  0.00    -0.366 OA
BRANCH  10  11
ATOM     11  C   UNL A   1      29.588  30.126  21.770  1.00  0.00     0.222 C 
BRANCH  11  12
ATOM     12  C   UNL A   1      28.080  30.114  21.480  1.00  0.00     0.287 C 
BRANCH  12  13
ATOM     13  N   UNL A   1      27.254  29.565  22.556  1.00  0.00    -0.356 N 
ATOM     14  H   UNL A   1      27.046  30.298  23.232  1.00  0.00     0.344 HD
ATOM     15  H   UNL A   1      27.758  28.808  23.018  1.00  0.00     0.344 HD
ATOM     16  H   UNL A   1      26.383  29.205  22.165  1.00  0.00     0.344 HD
ENDBRANCH  12  13
ENDBRANCH  11  12
ENDBRANCH  10  11
ENDBRANCH   9  10
ENDBRANCH   6   9
ENDBRANCH   4   5
BRANCH   4  17
ATOM     17  C   UNL A   1      33.246  25.029  24.651  1.00  0.00    -0.014 A 
ATOM     18  C   UNL A   1      34.179  24.817  23.616  1.00  0.00     0.006 A 
ATOM     19  C   UNL A   1      33.100  24.001  25.599  1.00  0.00     0.006 A 
ATOM     20  C   UNL A   1      35.029  23.707  23.614  1.00  0.00     0.000 A 
ATOM     21  C   UNL A   1      33.938  22.879  25.587  1.00  0.00     0.000 A 
ATOM     22  C   UNL A   1      34.920  22.746  24.610  1.00  0.00     0.000 A 
ENDBRANCH   4  17
ENDBRANCH   2   4
ENDBRANCH   1   2
BRANCH   1  23
ATOM     23  C   UNL A   1      31.775  28.475  27.561  1.00  0.00     0.274 C 
BRANCH  23  24
ATOM     24  C   UNL A   1      31.589  29.850  26.925  1.00  0.00     0.275 C 
BRANCH  24  25
ATOM     25  O   UNL A   1      32.851  30.359  26.465  1.00  0.00    -0.458 OA
BRANCH  25  26
ATOM     26  C   UNL A   1      33.386  31.341  27.226  1.00  0.00     0.338 C 
ATOM     27  O   UNL A   1      32.813  32.357  27.599  1.00  0.00    -0.246 OA
BRANCH  26  28
ATOM     28  C   UNL A   1      34.781  31.027  27.603  1.00  0.00     0.060 A 
ATOM     29  C   UNL A   1      35.196  29.713  27.811  1.00  0.00     0.016 A 
ATOM     30  C   UNL A   1      35.644  32.080  27.905  1.00  0.00     0.016 A 
ATOM     31  C   UNL A   1      36.408  29.454  28.454  1.00  0.00     0.010 A 
ATOM     32  C   UNL A   1      36.901  31.814  28.456  1.00  0.00     0.010 A 
ATOM     33  C   UNL A   1      37.270  30.502  28.799  1.00  0.00    -0.014 A 
BRANCH  33  34
ATOM     34  C   UNL A   1      38.493  30.261  29.617  1.00  0.00     0.031 A 
ATOM     35  C   UNL A   1      39.583  29.371  29.072  1.00  0.00     0.074 A 
ATOM     36  C   UNL A   1      38.653  30.834  30.827  1.00  0.00     0.049 A 
ATOM     37  N   UNL A   1      40.609  28.836  29.682  1.00  0.00    -0.248 NA
ATOM     38  C   UNL A   1      39.489  29.024  27.644  1.00  0.00     0.031 C 
ATOM     39  C   UNL A   1      37.726  31.778  31.451  1.00  0.00     0.029 A 
ATOM     40  N   UNL A   1      39.662  30.699  31.751  1.00  0.00    -0.354 N 
ATOM     41  C   UNL A   1      41.246  28.040  28.733  1.00  0.00     0.074 A 
ATOM     42  C   UNL A   1      40.482  28.159  27.509  1.00  0.00     0.031 C 
ATOM     43  C   UNL A   1      38.218  32.154  32.641  1.00  0.00     0.029 A 
ATOM     44  C   UNL A   1      39.448  31.413  32.907  1.00  0.00     0.049 A 
ATOM     45  H   UNL A   1      40.460  30.144  31.600  1.00  0.00     0.167 HD
ATOM     46  C   UNL A   1      42.361  27.279  28.872  1.00  0.00     0.034 A 
ATOM     47  C   UNL A   1      40.134  31.433  34.067  1.00  0.00     0.034 A 
ATOM     48  C   UNL A   1      43.140  27.210  30.084  1.00  0.00     0.049 A 
ATOM     49  C   UNL A   1      41.346  30.548  34.217  1.00  0.00     0.074 A 
ATOM     50  C   UNL A   1      44.280  26.464  30.339  1.00  0.00     0.029 A 
ATOM     51  N   UNL A   1      42.871  27.927  31.242  1.00  0.00    -0.354 N 
ATOM     52  N   UNL A   1      41.880  29.722  33.348  1.00  0.00    -0.248 NA
ATOM     53  C   UNL A   1      42.038  30.590  35.512  1.00  0.00     0.031 C 
ATOM     54  C   UNL A   1      44.671  26.698  31.663  1.00  0.00     0.029 A 
ATOM     55  C   UNL A   1      43.814  27.634  32.216  1.00  0.00     0.049 A 
ATOM     56  H   UNL A   1      42.119  28.553  31.355  1.00  0.00     0.167 HD
ATOM     57  C   UNL A   1      42.978  29.156  33.990  1.00  0.00     0.074 A 
ATOM     58  C   UNL A   1      43.041  29.748  35.309  1.00  0.00     0.031 C 
ATOM     59  C   UNL A   1      43.855  28.227  33.531  1.00  0.00     0.034 A 
BRANCH  46  60
ATOM     60  C   UNL A   1      42.758  26.415  27.700  1.00  0.00     0.023 A 
ATOM     61  C   UNL A   1      42.194  25.146  27.484  1.00  0.00     0.031 A 
ATOM     62  C   UNL A   1      43.753  26.854  26.810  1.00  0.00     0.131 A 
ATOM     63  C   UNL A   1      42.680  24.333  26.448  1.00  0.00     0.055 A 
ATOM     64  C   UNL A   1      44.181  26.071  25.735  1.00  0.00     0.041 A 
ATOM     65  F   UNL A   1      44.344  28.048  26.979  1.00  0.00    -0.206 F 
ATOM     66  C   UNL A   1      43.654  24.795  25.559  1.00  0.00     0.022 A 
BRANCH  63  67
ATOM     67  S   UNL A   1      42.127  22.606  26.369  1.00  0.00     0.124 S 
ATOM     68  O   UNL A   1      40.688  22.746  26.577  1.00  0.00    -0.237 OA
ATOM     69  O   UNL A   1      42.543  22.204  25.030  1.00  0.00    -0.237 OA
ATOM     70  O   UNL A   1      42.848  21.965  27.467  1.00  0.00    -0.744 OA
ENDBRANCH  63  67
ENDBRANCH  46  60
BRANCH  47  71
ATOM     71  C   UNL A   1      39.657  32.262  35.210  1.00  0.00     0.023 A 
ATOM     72  C   UNL A   1      38.916  31.695  36.258  1.00  0.00     0.031 A 
ATOM     73  C   UNL A   1      39.901  33.647  35.247  1.00  0.00     0.131 A 
ATOM     74  C   UNL A   1      38.412  32.515  37.280  1.00  0.00     0.055 A 
ATOM     75  C   UNL A   1      39.443  34.449  36.292  1.00  0.00     0.041 A 
ATOM     76  F   UNL A   1      40.601  34.239  34.266  1.00  0.00    -0.206 F 
ATOM     77  C   UNL A   1      38.683  33.885  37.311  1.00  0.00     0.022 A 
BRANCH  74  78
ATOM     78  S   UNL A   1      37.326  31.775  38.530  1.00  0.00     0.124 S 
ATOM     79  O   UNL A   1      37.095  30.447  37.974  1.00  0.00    -0.237 OA
ATOM     80  O   UNL A   1      38.158  31.832  39.727  1.00  0.00    -0.237 OA
ATOM     81  O   UNL A   1      36.163  32.660  38.538  1.00  0.00    -0.744 OA
ENDBRANCH  74  78
ENDBRANCH  47  71
BRANCH  59  82
ATOM     82  C   UNL A   1      44.978  27.837  34.456  1.00  0.00     0.023 A 
ATOM     83  C   UNL A   1      46.199  28.532  34.467  1.00  0.00     0.031 A 
ATOM     84  C   UNL A   1      44.829  26.740  35.323  1.00  0.00     0.131 A 
ATOM     85  C   UNL A   1      47.244  28.092  35.294  1.00  0.00     0.055 A 
ATOM     86  C   UNL A   1      45.855  26.335  36.177  1.00  0.00     0.041 A 
ATOM     87  F   UNL A   1      43.682  26.042  35.350  1.00  0.00    -0.206 F 
ATOM     88  C   UNL A   1      47.076  27.006  36.157  1.00  0.00     0.022 A 
BRANCH  85  89
ATOM     89  S   UNL A   1      48.859  28.910  35.170  1.00  0.00     0.124 S 
ATOM     90  O   UNL A   1      49.779  27.812  35.449  1.00  0.00    -0.237 OA
ATOM     91  O   UNL A   1      48.854  29.403  33.797  1.00  0.00    -0.237 OA
ATOM     92  O   UNL A   1      48.800  29.945  36.200  1.00  0.00    -0.744 OA
ENDBRANCH  85  89
ENDBRANCH  59  82
ENDBRANCH  33  34
ENDBRANCH  26  28
ENDBRANCH  25  26
ENDBRANCH  24  25
ENDBRANCH  23  24
ENDBRANCH   1  23
TORSDOF 21
ENDMDL
