MODEL 1
REMARK VINA RESULT:     -12.4      0.000      0.000
REMARK SMILES CCC(=O)N1c2ccc(S(=O)(=O)N3CCC(C)CC3)cc2C[C@H]1C(=O)OCCOC(=O)c1ccc(-c2c3nc(c(-c4cc(S(=O)(=O)[O-])ccc4F)c4ccc([nH]4)c(-c4cc(S(=O)(=O)[O-])ccc4F)c4nc(c(-c5cc(S(=O)(=O)[O-])ccc5F)c5ccc2[nH]5)C=C4)C=C3)cc1
REMARK SMILES IDX 28 1 27 2 26 3 24 4 25 5 23 6 5 7 6 8 7 9 21 10 22 11 8 12
REMARK SMILES IDX 20 13 9 14 3 15 4 16 2 17 1 18 10 19 11 20 12 21 13 22 14 23
REMARK SMILES IDX 19 24 15 25 18 26 16 27 17 28 29 29 30 30 31 31 32 32 33 33
REMARK SMILES IDX 94 34 34 35 93 36 35 37 36 38 37 39 87 40 38 41 92 42 86 43
REMARK SMILES IDX 88 44 39 45 91 46 85 47 84 48 40 50 72 51 52 52 71 53 53 54
REMARK SMILES IDX 56 55 70 56 89 57 54 58 55 59 69 61 90 62 57 63 41 64 42 65
REMARK SMILES IDX 50 66 43 67 49 68 51 69 48 70 44 71 45 72 46 73 47 74 73 75
REMARK SMILES IDX 74 76 82 77 75 78 81 79 83 80 80 81 76 82 77 83 78 84 79 85
REMARK SMILES IDX 58 86 59 87 67 88 60 89 66 90 68 91 65 92 61 93 62 94 63 95
REMARK SMILES IDX 64 96
REMARK H PARENT 88 49 56 60
REMARK Flexibility Score: inf
ROOT
ATOM      1  C   UNL A   1      36.390  21.294  25.696  1.00  0.00     0.275 C 
ENDROOT
BRANCH   1   2
ATOM      2  C   UNL A   1      35.353  20.563  24.842  1.00  0.00     0.274 C 
BRANCH   2   3
ATOM      3  O   UNL A   1      34.217  21.406  24.583  1.00  0.00    -0.461 OA
BRANCH   3   4
ATOM      4  C   UNL A   1      32.991  20.850  24.745  1.00  0.00     0.329 C 
ATOM      5  O   UNL A   1      32.786  19.653  24.923  1.00  0.00    -0.250 OA
BRANCH   4   6
ATOM      6  C   UNL A   1      31.863  21.878  24.747  1.00  0.00     0.204 C 
ATOM      7  N   UNL A   1      31.883  22.865  25.841  1.00  0.00    -0.298 N 
ATOM      8  C   UNL A   1      31.537  24.096  25.282  1.00  0.00     0.048 A 
ATOM      9  C   UNL A   1      31.142  25.200  25.982  1.00  0.00     0.028 A 
ATOM     10  C   UNL A   1      31.510  24.051  23.886  1.00  0.00    -0.020 A 
ATOM     11  C   UNL A   1      31.904  22.685  23.421  1.00  0.00     0.075 C 
ATOM     12  C   UNL A   1      30.675  26.265  25.245  1.00  0.00     0.024 A 
ATOM     13  C   UNL A   1      31.148  25.173  23.144  1.00  0.00     0.027 A 
ATOM     14  C   UNL A   1      30.730  26.303  23.854  1.00  0.00     0.083 A 
BRANCH   7  15
ATOM     15  C   UNL A   1      31.673  22.630  27.187  1.00  0.00     0.227 C 
ATOM     16  O   UNL A   1      30.533  22.551  27.651  1.00  0.00    -0.275 OA
BRANCH  15  17
ATOM     17  C   UNL A   1      32.889  22.206  28.003  1.00  0.00     0.097 C 
ATOM     18  C   UNL A   1      34.140  22.963  27.570  1.00  0.00     0.014 C 
ENDBRANCH  15  17
ENDBRANCH   7  15
BRANCH  14  19
ATOM     19  S   UNL A   1      30.341  27.831  23.021  1.00  0.00     0.243 S 
ATOM     20  O   UNL A   1      30.654  27.610  21.624  1.00  0.00    -0.207 OA
ATOM     21  O   UNL A   1      29.011  28.208  23.448  1.00  0.00    -0.207 OA
BRANCH  19  22
ATOM     22  N   UNL A   1      31.441  28.981  23.610  1.00  0.00    -0.198 NA
ATOM     23  C   UNL A   1      32.872  28.953  23.274  1.00  0.00     0.103 C 
ATOM     24  C   UNL A   1      31.060  29.988  24.604  1.00  0.00     0.103 C 
ATOM     25  C   UNL A   1      33.763  28.803  24.514  1.00  0.00     0.020 C 
ATOM     26  C   UNL A   1      31.753  29.712  25.927  1.00  0.00     0.020 C 
ATOM     27  C   UNL A   1      33.277  29.504  25.807  1.00  0.00    -0.012 C 
ATOM     28  C   UNL A   1      33.778  28.746  27.050  1.00  0.00     0.008 C 
ENDBRANCH  19  22
ENDBRANCH  14  19
ENDBRANCH   4   6
ENDBRANCH   3   4
ENDBRANCH   2   3
ENDBRANCH   1   2
BRANCH   1  29
ATOM     29  O   UNL A   1      37.648  21.419  25.000  1.00  0.00    -0.458 OA
BRANCH  29  30
ATOM     30  C   UNL A   1      38.730  21.134  25.758  1.00  0.00     0.338 C 
ATOM     31  O   UNL A   1      39.286  20.055  25.862  1.00  0.00    -0.246 OA
BRANCH  30  32
ATOM     32  C   UNL A   1      39.272  22.335  26.402  1.00  0.00     0.060 A 
ATOM     33  C   UNL A   1      38.809  23.576  25.971  1.00  0.00     0.016 A 
ATOM     34  C   UNL A   1      40.371  22.253  27.254  1.00  0.00     0.016 A 
ATOM     35  C   UNL A   1      39.479  24.739  26.322  1.00  0.00     0.010 A 
ATOM     36  C   UNL A   1      41.002  23.432  27.672  1.00  0.00     0.010 A 
ATOM     37  C   UNL A   1      40.579  24.683  27.185  1.00  0.00    -0.014 A 
BRANCH  37  38
ATOM     38  C   UNL A   1      41.287  25.939  27.546  1.00  0.00     0.031 A 
ATOM     39  C   UNL A   1      40.605  26.981  28.389  1.00  0.00     0.074 A 
ATOM     40  C   UNL A   1      42.560  26.121  27.143  1.00  0.00     0.049 A 
ATOM     41  N   UNL A   1      41.016  28.179  28.719  1.00  0.00    -0.248 NA
ATOM     42  C   UNL A   1      39.279  26.632  28.920  1.00  0.00     0.031 C 
ATOM     43  C   UNL A   1      43.341  25.159  26.358  1.00  0.00     0.029 A 
ATOM     44  N   UNL A   1      43.426  27.165  27.341  1.00  0.00    -0.354 N 
ATOM     45  C   UNL A   1      39.985  28.745  29.462  1.00  0.00     0.074 A 
ATOM     46  C   UNL A   1      38.923  27.760  29.518  1.00  0.00     0.031 C 
ATOM     47  C   UNL A   1      44.575  25.649  26.165  1.00  0.00     0.029 A 
ATOM     48  C   UNL A   1      44.649  26.986  26.740  1.00  0.00     0.049 A 
ATOM     49  H   UNL A   1      43.192  27.967  27.863  1.00  0.00     0.167 HD
ATOM     50  C   UNL A   1      39.932  29.972  30.041  1.00  0.00     0.034 A 
ATOM     51  C   UNL A   1      45.701  27.819  26.628  1.00  0.00     0.034 A 
ATOM     52  C   UNL A   1      41.013  30.930  29.986  1.00  0.00     0.049 A 
ATOM     53  C   UNL A   1      45.607  29.187  27.248  1.00  0.00     0.074 A 
ATOM     54  C   UNL A   1      41.072  32.199  30.539  1.00  0.00     0.029 A 
ATOM     55  N   UNL A   1      42.227  30.725  29.342  1.00  0.00    -0.354 N 
ATOM     56  N   UNL A   1      44.609  29.726  27.910  1.00  0.00    -0.248 NA
ATOM     57  C   UNL A   1      46.779  30.056  27.103  1.00  0.00     0.031 C 
ATOM     58  C   UNL A   1      42.295  32.781  30.179  1.00  0.00     0.029 A 
ATOM     59  C   UNL A   1      43.031  31.851  29.462  1.00  0.00     0.049 A 
ATOM     60  H   UNL A   1      42.481  29.900  28.869  1.00  0.00     0.167 HD
ATOM     61  C   UNL A   1      45.038  31.000  28.268  1.00  0.00     0.074 A 
ATOM     62  C   UNL A   1      46.396  31.130  27.776  1.00  0.00     0.031 C 
ATOM     63  C   UNL A   1      44.371  31.975  28.937  1.00  0.00     0.034 A 
BRANCH  50  64
ATOM     64  C   UNL A   1      38.638  30.364  30.717  1.00  0.00     0.023 A 
ATOM     65  C   UNL A   1      37.626  31.070  30.042  1.00  0.00     0.031 A 
ATOM     66  C   UNL A   1      38.435  30.067  32.077  1.00  0.00     0.131 A 
ATOM     67  C   UNL A   1      36.496  31.518  30.745  1.00  0.00     0.055 A 
ATOM     68  C   UNL A   1      37.273  30.447  32.751  1.00  0.00     0.041 A 
ATOM     69  F   UNL A   1      39.373  29.415  32.781  1.00  0.00    -0.206 F 
ATOM     70  C   UNL A   1      36.302  31.192  32.090  1.00  0.00     0.022 A 
BRANCH  67  71
ATOM     71  S   UNL A   1      35.358  32.666  29.919  1.00  0.00     0.124 S 
ATOM     72  O   UNL A   1      34.317  32.829  30.932  1.00  0.00    -0.237 OA
ATOM     73  O   UNL A   1      36.203  33.830  29.680  1.00  0.00    -0.237 OA
ATOM     74  O   UNL A   1      34.943  31.937  28.722  1.00  0.00    -0.744 OA
ENDBRANCH  67  71
ENDBRANCH  50  64
BRANCH  51  75
ATOM     75  C   UNL A   1      46.903  27.407  25.850  1.00  0.00     0.023 A 
ATOM     76  C   UNL A   1      47.090  27.826  24.524  1.00  0.00     0.031 A 
ATOM     77  C   UNL A   1      47.878  26.569  26.423  1.00  0.00     0.131 A 
ATOM     78  C   UNL A   1      48.209  27.379  23.804  1.00  0.00     0.055 A 
ATOM     79  C   UNL A   1      49.014  26.169  25.719  1.00  0.00     0.041 A 
ATOM     80  F   UNL A   1      47.748  26.144  27.691  1.00  0.00    -0.206 F 
ATOM     81  C   UNL A   1      49.179  26.566  24.397  1.00  0.00     0.022 A 
BRANCH  78  82
ATOM     82  S   UNL A   1      48.348  27.826  22.051  1.00  0.00     0.124 S 
ATOM     83  O   UNL A   1      47.137  28.614  21.849  1.00  0.00    -0.237 OA
ATOM     84  O   UNL A   1      49.607  28.563  22.027  1.00  0.00    -0.237 OA
ATOM     85  O   UNL A   1      48.372  26.532  21.371  1.00  0.00    -0.744 OA
ENDBRANCH  78  82
ENDBRANCH  51  75
BRANCH  63  86
ATOM     86  C   UNL A   1      45.131  33.255  29.185  1.00  0.00     0.023 A 
ATOM     87  C   UNL A   1      44.991  34.369  28.336  1.00  0.00     0.031 A 
ATOM     88  C   UNL A   1      46.046  33.344  30.247  1.00  0.00     0.131 A 
ATOM     89  C   UNL A   1      45.808  35.493  28.519  1.00  0.00     0.055 A 
ATOM     90  C   UNL A   1      46.812  34.491  30.463  1.00  0.00     0.041 A 
ATOM     91  F   UNL A   1      46.223  32.311  31.086  1.00  0.00    -0.206 F 
ATOM     92  C   UNL A   1      46.708  35.567  29.585  1.00  0.00     0.022 A 
BRANCH  89  93
ATOM     93  S   UNL A   1      45.769  36.809  27.269  1.00  0.00     0.124 S 
ATOM     94  O   UNL A   1      44.368  36.793  26.857  1.00  0.00    -0.237 OA
ATOM     95  O   UNL A   1      46.195  37.976  28.034  1.00  0.00    -0.237 OA
ATOM     96  O   UNL A   1      46.717  36.349  26.258  1.00  0.00    -0.744 OA
ENDBRANCH  89  93
ENDBRANCH  63  86
ENDBRANCH  37  38
ENDBRANCH  30  32
ENDBRANCH  29  30
ENDBRANCH   1  29
TORSDOF 18
ENDMDL
MODEL 2
REMARK VINA RESULT:     -12.1      0.905      7.416
REMARK SMILES CCC(=O)N1c2ccc(S(=O)(=O)N3CCC(C)CC3)cc2C[C@H]1C(=O)OCCOC(=O)c1ccc(-c2c3nc(c(-c4cc(S(=O)(=O)[O-])ccc4F)c4ccc([nH]4)c(-c4cc(S(=O)(=O)[O-])ccc4F)c4nc(c(-c5cc(S(=O)(=O)[O-])ccc5F)c5ccc2[nH]5)C=C4)C=C3)cc1
REMARK SMILES IDX 28 1 27 2 26 3 24 4 25 5 23 6 5 7 6 8 7 9 21 10 22 11 8 12
REMARK SMILES IDX 20 13 9 14 3 15 4 16 2 17 1 18 10 19 11 20 12 21 13 22 14 23
REMARK SMILES IDX 19 24 15 25 18 26 16 27 17 28 29 29 30 30 31 31 32 32 33 33
REMARK SMILES IDX 94 34 34 35 93 36 35 37 36 38 37 39 87 40 38 41 92 42 86 43
REMARK SMILES IDX 88 44 39 45 91 46 85 47 84 48 40 50 72 51 52 52 71 53 53 54
REMARK SMILES IDX 56 55 70 56 89 57 54 58 55 59 69 61 90 62 57 63 41 64 42 65
REMARK SMILES IDX 50 66 43 67 49 68 51 69 48 70 44 71 45 72 46 73 47 74 73 75
REMARK SMILES IDX 74 76 82 77 75 78 81 79 83 80 80 81 76 82 77 83 78 84 79 85
REMARK SMILES IDX 58 86 59 87 67 88 60 89 66 90 68 91 65 92 61 93 62 94 63 95
REMARK SMILES IDX 64 96
REMARK H PARENT 88 49 56 60
REMARK Flexibility Score: inf
ROOT
ATOM      1  C   UNL A   1      37.411  20.117  24.948  1.00  0.00     0.275 C 
ENDROOT
BRANCH   1   2
ATOM      2  C   UNL A   1      35.964  20.561  25.166  1.00  0.00     0.274 C 
BRANCH   2   3
ATOM      3  O   UNL A   1      35.865  21.452  26.290  1.00  0.00    -0.461 OA
BRANCH   3   4
ATOM      4  C   UNL A   1      34.682  22.090  26.467  1.00  0.00     0.329 C 
ATOM      5  O   UNL A   1      34.087  22.171  27.537  1.00  0.00    -0.250 OA
BRANCH   4   6
ATOM      6  C   UNL A   1      34.172  22.769  25.199  1.00  0.00     0.204 C 
ATOM      7  N   UNL A   1      32.830  22.369  24.740  1.00  0.00    -0.298 N 
ATOM      8  C   UNL A   1      32.183  23.531  24.319  1.00  0.00     0.048 A 
ATOM      9  C   UNL A   1      31.057  23.575  23.547  1.00  0.00     0.028 A 
ATOM     10  C   UNL A   1      32.891  24.684  24.666  1.00  0.00    -0.020 A 
ATOM     11  C   UNL A   1      34.122  24.305  25.427  1.00  0.00     0.075 C 
ATOM     12  C   UNL A   1      30.668  24.813  23.090  1.00  0.00     0.024 A 
ATOM     13  C   UNL A   1      32.427  25.944  24.299  1.00  0.00     0.027 A 
ATOM     14  C   UNL A   1      31.281  25.996  23.497  1.00  0.00     0.083 A 
BRANCH   7  15
ATOM     15  C   UNL A   1      32.448  21.139  24.236  1.00  0.00     0.227 C 
ATOM     16  O   UNL A   1      32.549  20.884  23.034  1.00  0.00    -0.275 OA
BRANCH  15  17
ATOM     17  C   UNL A   1      32.163  20.043  25.256  1.00  0.00     0.097 C 
ATOM     18  C   UNL A   1      32.781  18.715  24.832  1.00  0.00     0.014 C 
ENDBRANCH  15  17
ENDBRANCH   7  15
BRANCH  14  19
ATOM     19  S   UNL A   1      30.532  27.550  23.049  1.00  0.00     0.243 S 
ATOM     20  O   UNL A   1      30.628  27.634  21.607  1.00  0.00    -0.207 OA
ATOM     21  O   UNL A   1      29.255  27.606  23.727  1.00  0.00    -0.207 OA
BRANCH  19  22
ATOM     22  N   UNL A   1      31.535  28.758  23.693  1.00  0.00    -0.198 NA
ATOM     23  C   UNL A   1      32.918  28.965  23.240  1.00  0.00     0.103 C 
ATOM     24  C   UNL A   1      31.133  29.576  24.842  1.00  0.00     0.103 C 
ATOM     25  C   UNL A   1      33.940  28.787  24.371  1.00  0.00     0.020 C 
ATOM     26  C   UNL A   1      31.983  29.238  26.054  1.00  0.00     0.020 C 
ATOM     27  C   UNL A   1      33.501  29.253  25.782  1.00  0.00    -0.012 C 
ATOM     28  C   UNL A   1      34.213  28.425  26.867  1.00  0.00     0.008 C 
ENDBRANCH  19  22
ENDBRANCH  14  19
ENDBRANCH   4   6
ENDBRANCH   3   4
ENDBRANCH   2   3
ENDBRANCH   1   2
BRANCH   1  29
ATOM     29  O   UNL A   1      38.327  21.221  25.106  1.00  0.00    -0.458 OA
BRANCH  29  30
ATOM     30  C   UNL A   1      39.236  21.050  26.091  1.00  0.00     0.338 C 
ATOM     31  O   UNL A   1      39.744  20.000  26.443  1.00  0.00    -0.246 OA
BRANCH  30  32
ATOM     32  C   UNL A   1      39.661  22.332  26.665  1.00  0.00     0.060 A 
ATOM     33  C   UNL A   1      39.094  23.498  26.157  1.00  0.00     0.016 A 
ATOM     34  C   UNL A   1      40.753  22.400  27.528  1.00  0.00     0.016 A 
ATOM     35  C   UNL A   1      39.654  24.735  26.441  1.00  0.00     0.010 A 
ATOM     36  C   UNL A   1      41.271  23.653  27.877  1.00  0.00     0.010 A 
ATOM     37  C   UNL A   1      40.744  24.830  27.313  1.00  0.00    -0.014 A 
BRANCH  37  38
ATOM     38  C   UNL A   1      41.332  26.164  27.602  1.00  0.00     0.031 A 
ATOM     39  C   UNL A   1      42.698  26.520  27.084  1.00  0.00     0.074 A 
ATOM     40  C   UNL A   1      40.615  27.067  28.298  1.00  0.00     0.049 A 
ATOM     41  N   UNL A   1      43.421  27.586  27.316  1.00  0.00    -0.248 NA
ATOM     42  C   UNL A   1      43.342  25.539  26.198  1.00  0.00     0.031 C 
ATOM     43  C   UNL A   1      39.260  26.851  28.813  1.00  0.00     0.029 A 
ATOM     44  N   UNL A   1      40.915  28.347  28.687  1.00  0.00    -0.354 N 
ATOM     45  C   UNL A   1      44.621  27.390  26.639  1.00  0.00     0.074 A 
ATOM     46  C   UNL A   1      44.530  26.092  26.002  1.00  0.00     0.031 C 
ATOM     47  C   UNL A   1      38.839  27.968  29.426  1.00  0.00     0.029 A 
ATOM     48  C   UNL A   1      39.918  28.947  29.419  1.00  0.00     0.049 A 
ATOM     49  H   UNL A   1      41.765  28.792  28.464  1.00  0.00     0.167 HD
ATOM     50  C   UNL A   1      45.694  28.217  26.561  1.00  0.00     0.034 A 
ATOM     51  C   UNL A   1      39.888  30.137  30.048  1.00  0.00     0.034 A 
ATOM     52  C   UNL A   1      45.752  29.517  27.191  1.00  0.00     0.049 A 
ATOM     53  C   UNL A   1      41.102  31.022  29.977  1.00  0.00     0.074 A 
ATOM     54  C   UNL A   1      46.784  30.440  27.175  1.00  0.00     0.029 A 
ATOM     55  N   UNL A   1      44.733  30.079  27.951  1.00  0.00    -0.354 N 
ATOM     56  N   UNL A   1      42.247  30.805  29.371  1.00  0.00    -0.248 NA
ATOM     57  C   UNL A   1      41.019  32.309  30.675  1.00  0.00     0.031 C 
ATOM     58  C   UNL A   1      46.412  31.531  27.972  1.00  0.00     0.029 A 
ATOM     59  C   UNL A   1      45.120  31.324  28.428  1.00  0.00     0.049 A 
ATOM     60  H   UNL A   1      43.861  29.656  28.126  1.00  0.00     0.167 HD
ATOM     61  C   UNL A   1      43.021  31.936  29.609  1.00  0.00     0.074 A 
ATOM     62  C   UNL A   1      42.197  32.842  30.386  1.00  0.00     0.031 C 
ATOM     63  C   UNL A   1      44.297  32.201  29.229  1.00  0.00     0.034 A 
BRANCH  50  64
ATOM     64  C   UNL A   1      46.911  27.704  25.826  1.00  0.00     0.023 A 
ATOM     65  C   UNL A   1      47.174  28.043  24.487  1.00  0.00     0.031 A 
ATOM     66  C   UNL A   1      47.800  26.821  26.465  1.00  0.00     0.131 A 
ATOM     67  C   UNL A   1      48.250  27.445  23.810  1.00  0.00     0.055 A 
ATOM     68  C   UNL A   1      48.914  26.291  25.811  1.00  0.00     0.041 A 
ATOM     69  F   UNL A   1      47.591  26.442  27.736  1.00  0.00    -0.206 F 
ATOM     70  C   UNL A   1      49.135  26.589  24.470  1.00  0.00     0.022 A 
BRANCH  67  71
ATOM     71  S   UNL A   1      48.386  27.679  22.016  1.00  0.00     0.124 S 
ATOM     72  O   UNL A   1      49.511  28.607  21.924  1.00  0.00    -0.237 OA
ATOM     73  O   UNL A   1      48.636  26.325  21.539  1.00  0.00    -0.237 OA
ATOM     74  O   UNL A   1      47.090  28.245  21.643  1.00  0.00    -0.744 OA
ENDBRANCH  67  71
ENDBRANCH  50  64
BRANCH  51  75
ATOM     75  C   UNL A   1      38.694  30.530  30.850  1.00  0.00     0.023 A 
ATOM     76  C   UNL A   1      37.626  31.230  30.269  1.00  0.00     0.031 A 
ATOM     77  C   UNL A   1      38.616  30.223  32.221  1.00  0.00     0.131 A 
ATOM     78  C   UNL A   1      36.540  31.628  31.064  1.00  0.00     0.055 A 
ATOM     79  C   UNL A   1      37.511  30.576  32.995  1.00  0.00     0.041 A 
ATOM     80  F   UNL A   1      39.611  29.550  32.824  1.00  0.00    -0.206 F 
ATOM     81  C   UNL A   1      36.468  31.293  32.419  1.00  0.00     0.022 A 
BRANCH  78  82
ATOM     82  S   UNL A   1      35.243  32.650  30.313  1.00  0.00     0.124 S 
ATOM     83  O   UNL A   1      34.763  31.782  29.243  1.00  0.00    -0.237 OA
ATOM     84  O   UNL A   1      34.332  32.853  31.434  1.00  0.00    -0.237 OA
ATOM     85  O   UNL A   1      35.963  33.843  29.873  1.00  0.00    -0.744 OA
ENDBRANCH  78  82
ENDBRANCH  51  75
BRANCH  63  86
ATOM     86  C   UNL A   1      44.852  33.543  29.638  1.00  0.00     0.023 A 
ATOM     87  C   UNL A   1      44.777  34.660  28.786  1.00  0.00     0.031 A 
ATOM     88  C   UNL A   1      45.511  33.693  30.870  1.00  0.00     0.131 A 
ATOM     89  C   UNL A   1      45.418  35.855  29.142  1.00  0.00     0.055 A 
ATOM     90  C   UNL A   1      46.093  34.905  31.248  1.00  0.00     0.041 A 
ATOM     91  F   UNL A   1      45.615  32.660  31.721  1.00  0.00    -0.206 F 
ATOM     92  C   UNL A   1      46.064  35.989  30.374  1.00  0.00     0.022 A 
BRANCH  89  93
ATOM     93  S   UNL A   1      45.504  37.194  27.921  1.00  0.00     0.124 S 
ATOM     94  O   UNL A   1      44.314  36.943  27.112  1.00  0.00    -0.237 OA
ATOM     95  O   UNL A   1      45.463  38.385  28.762  1.00  0.00    -0.237 OA
ATOM     96  O   UNL A   1      46.775  36.956  27.242  1.00  0.00    -0.744 OA
ENDBRANCH  89  93
ENDBRANCH  63  86
ENDBRANCH  37  38
ENDBRANCH  30  32
ENDBRANCH  29  30
ENDBRANCH   1  29
TORSDOF 18
ENDMDL
MODEL 3
REMARK VINA RESULT:     -12.0      4.882      7.884
REMARK SMILES CCC(=O)N1c2ccc(S(=O)(=O)N3CCC(C)CC3)cc2C[C@H]1C(=O)OCCOC(=O)c1ccc(-c2c3nc(c(-c4cc(S(=O)(=O)[O-])ccc4F)c4ccc([nH]4)c(-c4cc(S(=O)(=O)[O-])ccc4F)c4nc(c(-c5cc(S(=O)(=O)[O-])ccc5F)c5ccc2[nH]5)C=C4)C=C3)cc1
REMARK SMILES IDX 28 1 27 2 26 3 24 4 25 5 23 6 5 7 6 8 7 9 21 10 22 11 8 12
REMARK SMILES IDX 20 13 9 14 3 15 4 16 2 17 1 18 10 19 11 20 12 21 13 22 14 23
REMARK SMILES IDX 19 24 15 25 18 26 16 27 17 28 29 29 30 30 31 31 32 32 33 33
REMARK SMILES IDX 94 34 34 35 93 36 35 37 36 38 37 39 87 40 38 41 92 42 86 43
REMARK SMILES IDX 88 44 39 45 91 46 85 47 84 48 40 50 72 51 52 52 71 53 53 54
REMARK SMILES IDX 56 55 70 56 89 57 54 58 55 59 69 61 90 62 57 63 41 64 42 65
REMARK SMILES IDX 50 66 43 67 49 68 51 69 48 70 44 71 45 72 46 73 47 74 73 75
REMARK SMILES IDX 74 76 82 77 75 78 81 79 83 80 80 81 76 82 77 83 78 84 79 85
REMARK SMILES IDX 58 86 59 87 67 88 60 89 66 90 68 91 65 92 61 93 62 94 63 95
REMARK SMILES IDX 64 96
REMARK H PARENT 88 49 56 60
REMARK Flexibility Score: inf
ROOT
ATOM      1  C   UNL A   1      32.468  30.097  25.585  1.00  0.00     0.275 C 
ENDROOT
BRANCH   1   2
ATOM      2  C   UNL A   1      31.131  29.732  24.938  1.00  0.00     0.274 C 
BRANCH   2   3
ATOM      3  O   UNL A   1      31.131  28.361  24.504  1.00  0.00    -0.461 OA
BRANCH   3   4
ATOM      4  C   UNL A   1      30.573  28.099  23.296  1.00  0.00     0.329 C 
ATOM      5  O   UNL A   1      29.933  28.911  22.634  1.00  0.00    -0.250 OA
BRANCH   4   6
ATOM      6  C   UNL A   1      30.871  26.691  22.790  1.00  0.00     0.204 C 
ATOM      7  N   UNL A   1      32.293  26.350  22.611  1.00  0.00    -0.298 N 
ATOM      8  C   UNL A   1      32.458  25.045  23.075  1.00  0.00     0.048 A 
ATOM      9  C   UNL A   1      33.532  24.242  22.814  1.00  0.00     0.028 A 
ATOM     10  C   UNL A   1      31.326  24.577  23.745  1.00  0.00    -0.020 A 
ATOM     11  C   UNL A   1      30.290  25.655  23.791  1.00  0.00     0.075 C 
ATOM     12  C   UNL A   1      33.433  22.928  23.213  1.00  0.00     0.024 A 
ATOM     13  C   UNL A   1      31.280  23.280  24.250  1.00  0.00     0.027 A 
ATOM     14  C   UNL A   1      32.372  22.448  23.976  1.00  0.00     0.083 A 
BRANCH   7  15
ATOM     15  C   UNL A   1      33.170  26.872  21.677  1.00  0.00     0.227 C 
ATOM     16  O   UNL A   1      33.278  26.373  20.555  1.00  0.00    -0.275 OA
BRANCH  15  17
ATOM     17  C   UNL A   1      33.779  28.231  21.999  1.00  0.00     0.097 C 
ATOM     18  C   UNL A   1      34.381  28.253  23.401  1.00  0.00     0.014 C 
ENDBRANCH  15  17
ENDBRANCH   7  15
BRANCH  14  19
ATOM     19  S   UNL A   1      32.476  20.802  24.654  1.00  0.00     0.243 S 
ATOM     20  O   UNL A   1      31.402  20.704  25.621  1.00  0.00    -0.207 OA
ATOM     21  O   UNL A   1      32.568  19.896  23.529  1.00  0.00    -0.207 OA
BRANCH  19  22
ATOM     22  N   UNL A   1      33.938  20.740  25.514  1.00  0.00    -0.198 NA
ATOM     23  C   UNL A   1      34.162  21.501  26.752  1.00  0.00     0.103 C 
ATOM     24  C   UNL A   1      35.117  20.037  25.000  1.00  0.00     0.103 C 
ATOM     25  C   UNL A   1      35.329  22.491  26.629  1.00  0.00     0.020 C 
ATOM     26  C   UNL A   1      36.209  21.029  24.640  1.00  0.00     0.020 C 
ATOM     27  C   UNL A   1      36.528  22.044  25.758  1.00  0.00    -0.012 C 
ATOM     28  C   UNL A   1      37.227  23.267  25.138  1.00  0.00     0.008 C 
ENDBRANCH  19  22
ENDBRANCH  14  19
ENDBRANCH   4   6
ENDBRANCH   3   4
ENDBRANCH   2   3
ENDBRANCH   1   2
BRANCH   1  29
ATOM     29  O   UNL A   1      32.281  30.603  26.924  1.00  0.00    -0.458 OA
BRANCH  29  30
ATOM     30  C   UNL A   1      33.078  31.649  27.236  1.00  0.00     0.338 C 
ATOM     31  O   UNL A   1      32.770  32.828  27.238  1.00  0.00    -0.246 OA
BRANCH  30  32
ATOM     32  C   UNL A   1      34.397  31.206  27.701  1.00  0.00     0.060 A 
ATOM     33  C   UNL A   1      34.554  29.865  28.045  1.00  0.00     0.016 A 
ATOM     34  C   UNL A   1      35.394  32.130  28.003  1.00  0.00     0.016 A 
ATOM     35  C   UNL A   1      35.667  29.447  28.759  1.00  0.00     0.010 A 
ATOM     36  C   UNL A   1      36.555  31.694  28.655  1.00  0.00     0.010 A 
ATOM     37  C   UNL A   1      36.688  30.354  29.064  1.00  0.00    -0.014 A 
BRANCH  37  38
ATOM     38  C   UNL A   1      37.872  29.888  29.833  1.00  0.00     0.031 A 
ATOM     39  C   UNL A   1      38.077  30.332  31.255  1.00  0.00     0.074 A 
ATOM     40  C   UNL A   1      38.739  29.032  29.258  1.00  0.00     0.049 A 
ATOM     41  N   UNL A   1      39.095  30.119  32.050  1.00  0.00    -0.248 NA
ATOM     42  C   UNL A   1      37.001  31.133  31.856  1.00  0.00     0.031 C 
ATOM     43  C   UNL A   1      38.619  28.496  27.899  1.00  0.00     0.029 A 
ATOM     44  N   UNL A   1      39.886  28.455  29.740  1.00  0.00    -0.354 N 
ATOM     45  C   UNL A   1      38.802  30.792  33.233  1.00  0.00     0.074 A 
ATOM     46  C   UNL A   1      37.517  31.433  33.039  1.00  0.00     0.031 C 
ATOM     47  C   UNL A   1      39.635  27.651  27.667  1.00  0.00     0.029 A 
ATOM     48  C   UNL A   1      40.519  27.645  28.827  1.00  0.00     0.049 A 
ATOM     49  H   UNL A   1      40.222  28.607  30.653  1.00  0.00     0.167 HD
ATOM     50  C   UNL A   1      39.539  30.866  34.370  1.00  0.00     0.034 A 
ATOM     51  C   UNL A   1      41.699  27.001  28.896  1.00  0.00     0.034 A 
ATOM     52  C   UNL A   1      40.811  30.201  34.545  1.00  0.00     0.049 A 
ATOM     53  C   UNL A   1      42.516  27.127  30.153  1.00  0.00     0.074 A 
ATOM     54  C   UNL A   1      41.642  30.202  35.653  1.00  0.00     0.029 A 
ATOM     55  N   UNL A   1      41.437  29.414  33.585  1.00  0.00    -0.354 N 
ATOM     56  N   UNL A   1      42.248  27.802  31.248  1.00  0.00    -0.248 NA
ATOM     57  C   UNL A   1      43.791  26.404  30.183  1.00  0.00     0.031 C 
ATOM     58  C   UNL A   1      42.793  29.466  35.342  1.00  0.00     0.029 A 
ATOM     59  C   UNL A   1      42.652  28.946  34.066  1.00  0.00     0.049 A 
ATOM     60  H   UNL A   1      41.071  29.216  32.693  1.00  0.00     0.167 HD
ATOM     61  C   UNL A   1      43.324  27.579  32.101  1.00  0.00     0.074 A 
ATOM     62  C   UNL A   1      44.223  26.680  31.404  1.00  0.00     0.031 C 
ATOM     63  C   UNL A   1      43.552  28.075  33.344  1.00  0.00     0.034 A 
BRANCH  50  64
ATOM     64  C   UNL A   1      39.017  31.752  35.478  1.00  0.00     0.023 A 
ATOM     65  C   UNL A   1      38.439  31.226  36.646  1.00  0.00     0.031 A 
ATOM     66  C   UNL A   1      39.057  33.151  35.339  1.00  0.00     0.131 A 
ATOM     67  C   UNL A   1      37.858  32.088  37.590  1.00  0.00     0.055 A 
ATOM     68  C   UNL A   1      38.548  34.007  36.319  1.00  0.00     0.041 A 
ATOM     69  F   UNL A   1      39.577  33.714  34.236  1.00  0.00    -0.206 F 
ATOM     70  C   UNL A   1      37.929  33.476  37.446  1.00  0.00     0.022 A 
BRANCH  67  71
ATOM     71  S   UNL A   1      36.871  31.368  38.933  1.00  0.00     0.124 S 
ATOM     72  O   UNL A   1      37.771  31.519  40.074  1.00  0.00    -0.237 OA
ATOM     73  O   UNL A   1      35.684  32.214  38.940  1.00  0.00    -0.237 OA
ATOM     74  O   UNL A   1      36.654  29.989  38.499  1.00  0.00    -0.744 OA
ENDBRANCH  67  71
ENDBRANCH  50  64
BRANCH  51  75
ATOM     75  C   UNL A   1      42.205  26.236  27.722  1.00  0.00     0.023 A 
ATOM     76  C   UNL A   1      41.866  24.888  27.531  1.00  0.00     0.031 A 
ATOM     77  C   UNL A   1      43.055  26.845  26.779  1.00  0.00     0.131 A 
ATOM     78  C   UNL A   1      42.401  24.184  26.441  1.00  0.00     0.055 A 
ATOM     79  C   UNL A   1      43.542  26.154  25.670  1.00  0.00     0.041 A 
ATOM     80  F   UNL A   1      43.406  28.135  26.914  1.00  0.00    -0.206 F 
ATOM     81  C   UNL A   1      43.223  24.811  25.501  1.00  0.00     0.022 A 
BRANCH  78  82
ATOM     82  S   UNL A   1      42.054  22.408  26.301  1.00  0.00     0.124 S 
ATOM     83  O   UNL A   1      42.722  22.073  25.047  1.00  0.00    -0.237 OA
ATOM     84  O   UNL A   1      42.668  21.884  27.516  1.00  0.00    -0.237 OA
ATOM     85  O   UNL A   1      40.595  22.349  26.266  1.00  0.00    -0.744 OA
ENDBRANCH  78  82
ENDBRANCH  51  75
BRANCH  63  86
ATOM     86  C   UNL A   1      44.821  27.622  34.022  1.00  0.00     0.023 A 
ATOM     87  C   UNL A   1      44.865  26.441  34.786  1.00  0.00     0.031 A 
ATOM     88  C   UNL A   1      45.984  28.407  33.950  1.00  0.00     0.131 A 
ATOM     89  C   UNL A   1      46.023  26.119  35.509  1.00  0.00     0.055 A 
ATOM     90  C   UNL A   1      47.155  28.048  34.621  1.00  0.00     0.041 A 
ATOM     91  F   UNL A   1      45.998  29.545  33.239  1.00  0.00    -0.206 F 
ATOM     92  C   UNL A   1      47.173  26.908  35.420  1.00  0.00     0.022 A 
BRANCH  89  93
ATOM     93  S   UNL A   1      45.965  24.723  36.666  1.00  0.00     0.124 S 
ATOM     94  O   UNL A   1      47.191  24.002  36.332  1.00  0.00    -0.237 OA
ATOM     95  O   UNL A   1      45.954  25.393  37.962  1.00  0.00    -0.237 OA
ATOM     96  O   UNL A   1      44.726  24.035  36.311  1.00  0.00    -0.744 OA
ENDBRANCH  89  93
ENDBRANCH  63  86
ENDBRANCH  37  38
ENDBRANCH  30  32
ENDBRANCH  29  30
ENDBRANCH   1  29
TORSDOF 18
ENDMDL
