MODEL 1
REMARK VINA RESULT:     -11.6      0.000      0.000
REMARK SMILES CC[N@@H+]([C@@H]1CSCC(C)(C)C1)[C@@H]1COC[C@@H]1C(=O)OCCOC(=O)c1ccc(-c2c3nc(c(-c4cc(S(=O)(=O)[O-])ccc4F)c4ccc([nH]4)c(-c4cc(S(=O)(=O)[O-])ccc4F)c4nc(c(-c5cc(S(=O)(=O)[O-])ccc5F)c5ccc2[nH]5)C=C4)C=C3)cc1
REMARK SMILES IDX 21 1 20 2 19 3 17 4 18 5 16 6 12 7 13 8 14 9 15 10 3 11 2 13
REMARK SMILES IDX 1 14 4 15 5 16 11 17 6 18 8 19 7 20 9 21 10 22 22 23 23 24
REMARK SMILES IDX 24 25 25 26 26 27 87 28 27 29 86 30 28 31 29 32 30 33 80 34
REMARK SMILES IDX 31 35 85 36 79 37 81 38 32 39 84 40 78 41 77 42 33 44 65 45
REMARK SMILES IDX 45 46 64 47 46 48 49 49 63 50 82 51 47 52 48 53 62 55 83 56
REMARK SMILES IDX 50 57 34 58 35 59 43 60 36 61 42 62 44 63 41 64 37 65 38 66
REMARK SMILES IDX 39 67 40 68 66 69 67 70 75 71 68 72 74 73 76 74 73 75 69 76
REMARK SMILES IDX 70 77 71 78 72 79 51 80 52 81 60 82 53 83 59 84 61 85 58 86
REMARK SMILES IDX 54 87 55 88 56 89 57 90
REMARK H PARENT 3 12 81 43 49 54
REMARK Flexibility Score: inf
ROOT
ATOM      1  C   UNL A   1      31.686  29.450  25.380  1.00  0.00     0.275 C 
ENDROOT
BRANCH   1   2
ATOM      2  C   UNL A   1      31.697  29.261  23.863  1.00  0.00     0.274 C 
BRANCH   2   3
ATOM      3  O   UNL A   1      31.986  27.887  23.524  1.00  0.00    -0.462 OA
BRANCH   3   4
ATOM      4  C   UNL A   1      31.110  27.261  22.708  1.00  0.00     0.317 C 
ATOM      5  O   UNL A   1      30.021  27.743  22.410  1.00  0.00    -0.252 OA
BRANCH   4   6
ATOM      6  C   UNL A   1      31.486  25.835  22.353  1.00  0.00     0.185 C 
ATOM      7  C   UNL A   1      32.418  24.886  23.133  1.00  0.00     0.227 C 
ATOM      8  C   UNL A   1      33.803  25.311  22.655  1.00  0.00     0.226 C 
ATOM      9  O   UNL A   1      33.634  25.719  21.290  1.00  0.00    -0.374 OA
ATOM     10  C   UNL A   1      32.231  25.846  21.009  1.00  0.00     0.182 C 
BRANCH   7  11
ATOM     11  N   UNL A   1      32.342  24.428  24.517  1.00  0.00    -0.327 N 
ATOM     12  H   UNL A   1      33.339  24.642  24.514  1.00  0.00     0.348 HD
BRANCH  11  13
ATOM     13  C   UNL A   1      31.890  25.299  25.586  1.00  0.00     0.259 C 
ATOM     14  C   UNL A   1      33.023  26.108  26.204  1.00  0.00     0.071 C 
ENDBRANCH  11  13
BRANCH  11  15
ATOM     15  C   UNL A   1      32.298  22.981  24.833  1.00  0.00     0.194 C 
ATOM     16  C   UNL A   1      31.778  22.552  26.224  1.00  0.00     0.134 C 
ATOM     17  C   UNL A   1      33.550  22.173  24.423  1.00  0.00     0.073 C 
ATOM     18  S   UNL A   1      32.978  22.582  27.588  1.00  0.00    -0.155 SA
ATOM     19  C   UNL A   1      34.765  22.119  25.383  1.00  0.00    -0.021 C 
ATOM     20  C   UNL A   1      34.369  21.709  26.818  1.00  0.00     0.076 C 
ATOM     21  C   UNL A   1      35.567  23.427  25.370  1.00  0.00     0.012 C 
ATOM     22  C   UNL A   1      35.738  21.042  24.847  1.00  0.00     0.012 C 
ENDBRANCH  11  15
ENDBRANCH   7  11
ENDBRANCH   4   6
ENDBRANCH   3   4
ENDBRANCH   2   3
ENDBRANCH   1   2
BRANCH   1  23
ATOM     23  O   UNL A   1      32.974  29.926  25.791  1.00  0.00    -0.458 OA
BRANCH  23  24
ATOM     24  C   UNL A   1      33.007  30.923  26.705  1.00  0.00     0.338 C 
ATOM     25  O   UNL A   1      32.128  31.754  26.905  1.00  0.00    -0.246 OA
BRANCH  24  26
ATOM     26  C   UNL A   1      34.276  30.841  27.463  1.00  0.00     0.060 A 
ATOM     27  C   UNL A   1      34.707  29.613  27.961  1.00  0.00     0.016 A 
ATOM     28  C   UNL A   1      35.030  31.979  27.731  1.00  0.00     0.016 A 
ATOM     29  C   UNL A   1      35.849  29.511  28.745  1.00  0.00     0.010 A 
ATOM     30  C   UNL A   1      36.246  31.857  28.423  1.00  0.00     0.010 A 
ATOM     31  C   UNL A   1      36.675  30.616  28.929  1.00  0.00    -0.014 A 
BRANCH  31  32
ATOM     32  C   UNL A   1      37.987  30.462  29.617  1.00  0.00     0.031 A 
ATOM     33  C   UNL A   1      39.049  29.597  29.005  1.00  0.00     0.074 A 
ATOM     34  C   UNL A   1      38.212  31.068  30.803  1.00  0.00     0.049 A 
ATOM     35  N   UNL A   1      40.100  29.055  29.562  1.00  0.00    -0.248 NA
ATOM     36  C   UNL A   1      38.889  29.279  27.578  1.00  0.00     0.031 C 
ATOM     37  C   UNL A   1      37.305  32.010  31.469  1.00  0.00     0.029 A 
ATOM     38  N   UNL A   1      39.269  30.969  31.676  1.00  0.00    -0.354 N 
ATOM     39  C   UNL A   1      40.687  28.269  28.576  1.00  0.00     0.074 A 
ATOM     40  C   UNL A   1      39.874  28.413  27.385  1.00  0.00     0.031 C 
ATOM     41  C   UNL A   1      37.846  32.406  32.628  1.00  0.00     0.029 A 
ATOM     42  C   UNL A   1      39.072  31.657  32.854  1.00  0.00     0.049 A 
ATOM     43  H   UNL A   1      40.086  30.457  31.479  1.00  0.00     0.167 HD
ATOM     44  C   UNL A   1      41.793  27.490  28.677  1.00  0.00     0.034 A 
ATOM     45  C   UNL A   1      39.750  31.628  34.018  1.00  0.00     0.034 A 
ATOM     46  C   UNL A   1      42.602  27.411  29.871  1.00  0.00     0.049 A 
ATOM     47  C   UNL A   1      40.937  30.710  34.128  1.00  0.00     0.074 A 
ATOM     48  C   UNL A   1      43.748  26.668  30.090  1.00  0.00     0.029 A 
ATOM     49  N   UNL A   1      42.355  28.109  31.048  1.00  0.00    -0.354 N 
ATOM     50  N   UNL A   1      41.438  29.896  33.226  1.00  0.00    -0.248 NA
ATOM     51  C   UNL A   1      41.643  30.694  35.414  1.00  0.00     0.031 C 
ATOM     52  C   UNL A   1      44.153  26.862  31.415  1.00  0.00     0.029 A 
ATOM     53  C   UNL A   1      43.311  27.793  32.001  1.00  0.00     0.049 A 
ATOM     54  H   UNL A   1      41.608  28.737  31.185  1.00  0.00     0.167 HD
ATOM     55  C   UNL A   1      42.534  29.290  33.830  1.00  0.00     0.074 A 
ATOM     56  C   UNL A   1      42.631  29.847  35.165  1.00  0.00     0.031 C 
ATOM     57  C   UNL A   1      43.383  28.356  33.331  1.00  0.00     0.034 A 
BRANCH  44  58
ATOM     58  C   UNL A   1      42.136  26.605  27.501  1.00  0.00     0.023 A 
ATOM     59  C   UNL A   1      41.729  25.262  27.418  1.00  0.00     0.031 A 
ATOM     60  C   UNL A   1      42.916  27.118  26.448  1.00  0.00     0.131 A 
ATOM     61  C   UNL A   1      42.158  24.465  26.344  1.00  0.00     0.055 A 
ATOM     62  C   UNL A   1      43.271  26.344  25.342  1.00  0.00     0.041 A 
ATOM     63  F   UNL A   1      43.358  28.386  26.480  1.00  0.00    -0.206 F 
ATOM     64  C   UNL A   1      42.904  25.004  25.293  1.00  0.00     0.022 A 
BRANCH  61  65
ATOM     65  S   UNL A   1      41.844  22.679  26.404  1.00  0.00     0.124 S 
ATOM     66  O   UNL A   1      42.474  22.226  25.166  1.00  0.00    -0.237 OA
ATOM     67  O   UNL A   1      42.506  22.282  27.641  1.00  0.00    -0.237 OA
ATOM     68  O   UNL A   1      40.386  22.586  26.421  1.00  0.00    -0.744 OA
ENDBRANCH  61  65
ENDBRANCH  44  58
BRANCH  45  69
ATOM     69  C   UNL A   1      39.270  32.409  35.197  1.00  0.00     0.023 A 
ATOM     70  C   UNL A   1      39.704  33.724  35.422  1.00  0.00     0.031 A 
ATOM     71  C   UNL A   1      38.397  31.836  36.143  1.00  0.00     0.131 A 
ATOM     72  C   UNL A   1      39.300  34.407  36.581  1.00  0.00     0.055 A 
ATOM     73  C   UNL A   1      37.946  32.542  37.258  1.00  0.00     0.041 A 
ATOM     74  F   UNL A   1      37.953  30.579  35.985  1.00  0.00    -0.206 F 
ATOM     75  C   UNL A   1      38.410  33.832  37.491  1.00  0.00     0.022 A 
BRANCH  72  76
ATOM     76  S   UNL A   1      40.035  36.027  36.936  1.00  0.00     0.124 S 
ATOM     77  O   UNL A   1      39.233  36.476  38.068  1.00  0.00    -0.237 OA
ATOM     78  O   UNL A   1      41.420  35.674  37.231  1.00  0.00    -0.237 OA
ATOM     79  O   UNL A   1      39.835  36.771  35.695  1.00  0.00    -0.744 OA
ENDBRANCH  72  76
ENDBRANCH  45  69
BRANCH  57  80
ATOM     80  C   UNL A   1      44.523  27.932  34.223  1.00  0.00     0.023 A 
ATOM     81  C   UNL A   1      44.414  26.832  35.093  1.00  0.00     0.031 A 
ATOM     82  C   UNL A   1      45.725  28.661  34.223  1.00  0.00     0.131 A 
ATOM     83  C   UNL A   1      45.466  26.531  35.971  1.00  0.00     0.055 A 
ATOM     84  C   UNL A   1      46.793  28.316  35.051  1.00  0.00     0.041 A 
ATOM     85  F   UNL A   1      45.880  29.724  33.417  1.00  0.00    -0.206 F 
ATOM     86  C   UNL A   1      46.662  27.255  35.943  1.00  0.00     0.022 A 
BRANCH  83  87
ATOM     87  S   UNL A   1      45.212  25.249  37.227  1.00  0.00     0.124 S 
ATOM     88  O   UNL A   1      44.678  24.148  36.432  1.00  0.00    -0.237 OA
ATOM     89  O   UNL A   1      46.557  25.059  37.757  1.00  0.00    -0.237 OA
ATOM     90  O   UNL A   1      44.261  25.861  38.155  1.00  0.00    -0.744 OA
ENDBRANCH  83  87
ENDBRANCH  57  80
ENDBRANCH  31  32
ENDBRANCH  24  26
ENDBRANCH  23  24
ENDBRANCH   1  23
TORSDOF 17
ENDMDL
MODEL 2
REMARK VINA RESULT:     -11.5      5.187      9.937
REMARK SMILES CC[N@@H+]([C@@H]1CSCC(C)(C)C1)[C@@H]1COC[C@@H]1C(=O)OCCOC(=O)c1ccc(-c2c3nc(c(-c4cc(S(=O)(=O)[O-])ccc4F)c4ccc([nH]4)c(-c4cc(S(=O)(=O)[O-])ccc4F)c4nc(c(-c5cc(S(=O)(=O)[O-])ccc5F)c5ccc2[nH]5)C=C4)C=C3)cc1
REMARK SMILES IDX 21 1 20 2 19 3 17 4 18 5 16 6 12 7 13 8 14 9 15 10 3 11 2 13
REMARK SMILES IDX 1 14 4 15 5 16 11 17 6 18 8 19 7 20 9 21 10 22 22 23 23 24
REMARK SMILES IDX 24 25 25 26 26 27 87 28 27 29 86 30 28 31 29 32 30 33 80 34
REMARK SMILES IDX 31 35 85 36 79 37 81 38 32 39 84 40 78 41 77 42 33 44 65 45
REMARK SMILES IDX 45 46 64 47 46 48 49 49 63 50 82 51 47 52 48 53 62 55 83 56
REMARK SMILES IDX 50 57 34 58 35 59 43 60 36 61 42 62 44 63 41 64 37 65 38 66
REMARK SMILES IDX 39 67 40 68 66 69 67 70 75 71 68 72 74 73 76 74 73 75 69 76
REMARK SMILES IDX 70 77 71 78 72 79 51 80 52 81 60 82 53 83 59 84 61 85 58 86
REMARK SMILES IDX 54 87 55 88 56 89 57 90
REMARK H PARENT 3 12 81 43 49 54
REMARK Flexibility Score: inf
ROOT
ATOM      1  C   UNL A   1      35.916  20.994  25.061  1.00  0.00     0.275 C 
ENDROOT
BRANCH   1   2
ATOM      2  C   UNL A   1      34.541  21.156  25.708  1.00  0.00     0.274 C 
BRANCH   2   3
ATOM      3  O   UNL A   1      33.588  21.676  24.755  1.00  0.00    -0.462 OA
BRANCH   3   4
ATOM      4  C   UNL A   1      32.280  21.468  25.021  1.00  0.00     0.317 C 
ATOM      5  O   UNL A   1      31.790  20.345  25.099  1.00  0.00    -0.252 OA
BRANCH   4   6
ATOM      6  C   UNL A   1      31.428  22.723  25.017  1.00  0.00     0.185 C 
ATOM      7  C   UNL A   1      31.909  24.187  25.026  1.00  0.00     0.227 C 
ATOM      8  C   UNL A   1      32.177  24.441  26.507  1.00  0.00     0.226 C 
ATOM      9  O   UNL A   1      31.207  23.657  27.216  1.00  0.00    -0.374 OA
ATOM     10  C   UNL A   1      30.582  22.744  26.299  1.00  0.00     0.182 C 
BRANCH   7  11
ATOM     11  N   UNL A   1      32.790  24.889  24.097  1.00  0.00    -0.327 N 
ATOM     12  H   UNL A   1      32.750  25.622  24.804  1.00  0.00     0.348 HD
BRANCH  11  13
ATOM     13  C   UNL A   1      34.219  24.637  24.062  1.00  0.00     0.259 C 
ATOM     14  C   UNL A   1      34.891  24.872  25.409  1.00  0.00     0.071 C 
ENDBRANCH  11  13
BRANCH  11  15
ATOM     15  C   UNL A   1      32.244  25.543  22.885  1.00  0.00     0.194 C 
ATOM     16  C   UNL A   1      33.220  26.314  21.968  1.00  0.00     0.134 C 
ATOM     17  C   UNL A   1      30.923  26.320  23.087  1.00  0.00     0.073 C 
ATOM     18  S   UNL A   1      33.605  28.026  22.443  1.00  0.00    -0.155 SA
ATOM     19  C   UNL A   1      30.976  27.787  23.585  1.00  0.00    -0.021 C 
ATOM     20  C   UNL A   1      31.933  28.663  22.749  1.00  0.00     0.076 C 
ATOM     21  C   UNL A   1      31.294  27.875  25.084  1.00  0.00     0.012 C 
ATOM     22  C   UNL A   1      29.556  28.383  23.437  1.00  0.00     0.012 C 
ENDBRANCH  11  15
ENDBRANCH   7  11
ENDBRANCH   4   6
ENDBRANCH   3   4
ENDBRANCH   2   3
ENDBRANCH   1   2
BRANCH   1  23
ATOM     23  O   UNL A   1      36.859  21.796  25.782  1.00  0.00    -0.458 OA
BRANCH  23  24
ATOM     24  C   UNL A   1      38.147  21.379  25.798  1.00  0.00     0.338 C 
ATOM     25  O   UNL A   1      38.559  20.282  25.439  1.00  0.00    -0.246 OA
BRANCH  24  26
ATOM     26  C   UNL A   1      39.003  22.480  26.296  1.00  0.00     0.060 A 
ATOM     27  C   UNL A   1      38.710  23.797  25.948  1.00  0.00     0.016 A 
ATOM     28  C   UNL A   1      40.131  22.222  27.069  1.00  0.00     0.016 A 
ATOM     29  C   UNL A   1      39.536  24.846  26.329  1.00  0.00     0.010 A 
ATOM     30  C   UNL A   1      40.900  23.293  27.552  1.00  0.00     0.010 A 
ATOM     31  C   UNL A   1      40.602  24.622  27.195  1.00  0.00    -0.014 A 
BRANCH  31  32
ATOM     32  C   UNL A   1      41.375  25.771  27.742  1.00  0.00     0.031 A 
ATOM     33  C   UNL A   1      40.682  26.795  28.591  1.00  0.00     0.074 A 
ATOM     34  C   UNL A   1      42.687  25.914  27.450  1.00  0.00     0.049 A 
ATOM     35  N   UNL A   1      41.048  28.015  28.884  1.00  0.00    -0.248 NA
ATOM     36  C   UNL A   1      39.388  26.397  29.167  1.00  0.00     0.031 C 
ATOM     37  C   UNL A   1      43.510  24.948  26.713  1.00  0.00     0.029 A 
ATOM     38  N   UNL A   1      43.560  26.940  27.719  1.00  0.00    -0.354 N 
ATOM     39  C   UNL A   1      39.996  28.560  29.614  1.00  0.00     0.074 A 
ATOM     40  C   UNL A   1      38.982  27.531  29.721  1.00  0.00     0.031 C 
ATOM     41  C   UNL A   1      44.759  25.420  26.602  1.00  0.00     0.029 A 
ATOM     42  C   UNL A   1      44.800  26.770  27.143  1.00  0.00     0.049 A 
ATOM     43  H   UNL A   1      43.323  27.721  28.272  1.00  0.00     0.167 HD
ATOM     44  C   UNL A   1      39.894  29.813  30.123  1.00  0.00     0.034 A 
ATOM     45  C   UNL A   1      45.827  27.627  26.987  1.00  0.00     0.034 A 
ATOM     46  C   UNL A   1      40.949  30.796  30.033  1.00  0.00     0.049 A 
ATOM     47  C   UNL A   1      45.669  29.031  27.506  1.00  0.00     0.074 A 
ATOM     48  C   UNL A   1      40.968  32.090  30.519  1.00  0.00     0.029 A 
ATOM     49  N   UNL A   1      42.181  30.587  29.421  1.00  0.00    -0.354 N 
ATOM     50  N   UNL A   1      44.639  29.575  28.114  1.00  0.00    -0.248 NA
ATOM     51  C   UNL A   1      46.802  29.941  27.307  1.00  0.00     0.031 C 
ATOM     52  C   UNL A   1      42.177  32.685  30.143  1.00  0.00     0.029 A 
ATOM     53  C   UNL A   1      42.953  31.737  29.496  1.00  0.00     0.049 A 
ATOM     54  H   UNL A   1      42.464  29.744  28.996  1.00  0.00     0.167 HD
ATOM     55  C   UNL A   1      45.012  30.885  28.391  1.00  0.00     0.074 A 
ATOM     56  C   UNL A   1      46.367  31.042  27.902  1.00  0.00     0.031 C 
ATOM     57  C   UNL A   1      44.301  31.872  28.994  1.00  0.00     0.034 A 
BRANCH  44  58
ATOM     58  C   UNL A   1      38.574  30.212  30.743  1.00  0.00     0.023 A 
ATOM     59  C   UNL A   1      37.575  30.890  30.025  1.00  0.00     0.031 A 
ATOM     60  C   UNL A   1      38.327  29.925  32.098  1.00  0.00     0.131 A 
ATOM     61  C   UNL A   1      36.408  31.316  30.681  1.00  0.00     0.055 A 
ATOM     62  C   UNL A   1      37.130  30.279  32.724  1.00  0.00     0.041 A 
ATOM     63  F   UNL A   1      39.252  29.302  32.845  1.00  0.00    -0.206 F 
ATOM     64  C   UNL A   1      36.168  30.992  32.018  1.00  0.00     0.022 A 
BRANCH  61  65
ATOM     65  S   UNL A   1      35.266  32.418  29.802  1.00  0.00     0.124 S 
ATOM     66  O   UNL A   1      34.290  32.727  30.845  1.00  0.00    -0.237 OA
ATOM     67  O   UNL A   1      36.135  33.516  29.394  1.00  0.00    -0.237 OA
ATOM     68  O   UNL A   1      34.758  31.589  28.711  1.00  0.00    -0.744 OA
ENDBRANCH  61  65
ENDBRANCH  44  58
BRANCH  45  69
ATOM     69  C   UNL A   1      47.048  27.221  26.228  1.00  0.00     0.023 A 
ATOM     70  C   UNL A   1      47.257  27.644  24.907  1.00  0.00     0.031 A 
ATOM     71  C   UNL A   1      48.010  26.365  26.801  1.00  0.00     0.131 A 
ATOM     72  C   UNL A   1      48.372  27.181  24.190  1.00  0.00     0.055 A 
ATOM     73  C   UNL A   1      49.150  25.960  26.107  1.00  0.00     0.041 A 
ATOM     74  F   UNL A   1      47.861  25.920  28.060  1.00  0.00    -0.206 F 
ATOM     75  C   UNL A   1      49.329  26.357  24.787  1.00  0.00     0.022 A 
BRANCH  72  76
ATOM     76  S   UNL A   1      48.504  27.591  22.428  1.00  0.00     0.124 S 
ATOM     77  O   UNL A   1      47.217  28.227  22.173  1.00  0.00    -0.237 OA
ATOM     78  O   UNL A   1      49.669  28.469  22.408  1.00  0.00    -0.237 OA
ATOM     79  O   UNL A   1      48.696  26.291  21.790  1.00  0.00    -0.744 OA
ENDBRANCH  72  76
ENDBRANCH  45  69
BRANCH  57  80
ATOM     80  C   UNL A   1      45.012  33.186  29.204  1.00  0.00     0.023 A 
ATOM     81  C   UNL A   1      44.915  34.238  28.277  1.00  0.00     0.031 A 
ATOM     82  C   UNL A   1      45.822  33.373  30.338  1.00  0.00     0.131 A 
ATOM     83  C   UNL A   1      45.666  35.407  28.468  1.00  0.00     0.055 A 
ATOM     84  C   UNL A   1      46.515  34.564  30.556  1.00  0.00     0.041 A 
ATOM     85  F   UNL A   1      45.955  32.399  31.252  1.00  0.00    -0.206 F 
ATOM     86  C   UNL A   1      46.452  35.584  29.611  1.00  0.00     0.022 A 
BRANCH  83  87
ATOM     87  S   UNL A   1      45.690  36.652  27.149  1.00  0.00     0.124 S 
ATOM     88  O   UNL A   1      44.273  36.963  27.000  1.00  0.00    -0.237 OA
ATOM     89  O   UNL A   1      46.516  37.705  27.729  1.00  0.00    -0.237 OA
ATOM     90  O   UNL A   1      46.292  35.944  26.020  1.00  0.00    -0.744 OA
ENDBRANCH  83  87
ENDBRANCH  57  80
ENDBRANCH  31  32
ENDBRANCH  24  26
ENDBRANCH  23  24
ENDBRANCH   1  23
TORSDOF 17
ENDMDL
MODEL 3
REMARK VINA RESULT:     -11.4      4.618      9.582
REMARK SMILES CC[N@@H+]([C@@H]1CSCC(C)(C)C1)[C@@H]1COC[C@@H]1C(=O)OCCOC(=O)c1ccc(-c2c3nc(c(-c4cc(S(=O)(=O)[O-])ccc4F)c4ccc([nH]4)c(-c4cc(S(=O)(=O)[O-])ccc4F)c4nc(c(-c5cc(S(=O)(=O)[O-])ccc5F)c5ccc2[nH]5)C=C4)C=C3)cc1
REMARK SMILES IDX 21 1 20 2 19 3 17 4 18 5 16 6 12 7 13 8 14 9 15 10 3 11 2 13
REMARK SMILES IDX 1 14 4 15 5 16 11 17 6 18 8 19 7 20 9 21 10 22 22 23 23 24
REMARK SMILES IDX 24 25 25 26 26 27 87 28 27 29 86 30 28 31 29 32 30 33 80 34
REMARK SMILES IDX 31 35 85 36 79 37 81 38 32 39 84 40 78 41 77 42 33 44 65 45
REMARK SMILES IDX 45 46 64 47 46 48 49 49 63 50 82 51 47 52 48 53 62 55 83 56
REMARK SMILES IDX 50 57 34 58 35 59 43 60 36 61 42 62 44 63 41 64 37 65 38 66
REMARK SMILES IDX 39 67 40 68 66 69 67 70 75 71 68 72 74 73 76 74 73 75 69 76
REMARK SMILES IDX 70 77 71 78 72 79 51 80 52 81 60 82 53 83 59 84 61 85 58 86
REMARK SMILES IDX 54 87 55 88 56 89 57 90
REMARK H PARENT 3 12 81 43 49 54
REMARK Flexibility Score: inf
ROOT
ATOM      1  C   UNL A   1      35.638  21.415  24.871  1.00  0.00     0.275 C 
ENDROOT
BRANCH   1   2
ATOM      2  C   UNL A   1      34.440  20.742  25.540  1.00  0.00     0.274 C 
BRANCH   2   3
ATOM      3  O   UNL A   1      33.404  21.708  25.820  1.00  0.00    -0.462 OA
BRANCH   3   4
ATOM      4  C   UNL A   1      32.160  21.419  25.379  1.00  0.00     0.317 C 
ATOM      5  O   UNL A   1      31.835  20.294  25.008  1.00  0.00    -0.252 OA
BRANCH   4   6
ATOM      6  C   UNL A   1      31.260  22.625  25.188  1.00  0.00     0.185 C 
ATOM      7  C   UNL A   1      31.680  24.104  25.079  1.00  0.00     0.227 C 
ATOM      8  C   UNL A   1      31.831  24.517  26.541  1.00  0.00     0.226 C 
ATOM      9  O   UNL A   1      30.846  23.762  27.261  1.00  0.00    -0.374 OA
ATOM     10  C   UNL A   1      30.325  22.733  26.403  1.00  0.00     0.182 C 
BRANCH   7  11
ATOM     11  N   UNL A   1      32.597  24.750  24.144  1.00  0.00    -0.327 N 
ATOM     12  H   UNL A   1      32.580  25.499  24.836  1.00  0.00     0.348 HD
BRANCH  11  13
ATOM     13  C   UNL A   1      34.015  24.440  24.128  1.00  0.00     0.259 C 
ATOM     14  C   UNL A   1      34.768  25.069  25.292  1.00  0.00     0.071 C 
ENDBRANCH  11  13
BRANCH  11  15
ATOM     15  C   UNL A   1      32.087  25.401  22.915  1.00  0.00     0.194 C 
ATOM     16  C   UNL A   1      33.101  26.114  21.992  1.00  0.00     0.134 C 
ATOM     17  C   UNL A   1      30.797  26.234  23.089  1.00  0.00     0.073 C 
ATOM     18  S   UNL A   1      33.550  27.818  22.435  1.00  0.00    -0.155 SA
ATOM     19  C   UNL A   1      30.904  27.707  23.558  1.00  0.00    -0.021 C 
ATOM     20  C   UNL A   1      31.903  28.527  22.713  1.00  0.00     0.076 C 
ATOM     21  C   UNL A   1      31.213  27.813  25.058  1.00  0.00     0.012 C 
ATOM     22  C   UNL A   1      29.511  28.357  23.385  1.00  0.00     0.012 C 
ENDBRANCH  11  15
ENDBRANCH   7  11
ENDBRANCH   4   6
ENDBRANCH   3   4
ENDBRANCH   2   3
ENDBRANCH   1   2
BRANCH   1  23
ATOM     23  O   UNL A   1      36.576  21.792  25.886  1.00  0.00    -0.458 OA
BRANCH  23  24
ATOM     24  C   UNL A   1      37.863  21.410  25.717  1.00  0.00     0.338 C 
ATOM     25  O   UNL A   1      38.249  20.366  25.204  1.00  0.00    -0.246 OA
BRANCH  24  26
ATOM     26  C   UNL A   1      38.754  22.477  26.228  1.00  0.00     0.060 A 
ATOM     27  C   UNL A   1      38.437  23.813  25.996  1.00  0.00     0.016 A 
ATOM     28  C   UNL A   1      39.935  22.170  26.898  1.00  0.00     0.016 A 
ATOM     29  C   UNL A   1      39.289  24.837  26.389  1.00  0.00     0.010 A 
ATOM     30  C   UNL A   1      40.737  23.208  27.398  1.00  0.00     0.010 A 
ATOM     31  C   UNL A   1      40.415  24.558  27.158  1.00  0.00    -0.014 A 
BRANCH  31  32
ATOM     32  C   UNL A   1      41.226  25.669  27.728  1.00  0.00     0.031 A 
ATOM     33  C   UNL A   1      40.566  26.706  28.587  1.00  0.00     0.074 A 
ATOM     34  C   UNL A   1      42.544  25.767  27.446  1.00  0.00     0.049 A 
ATOM     35  N   UNL A   1      40.974  27.907  28.900  1.00  0.00    -0.248 NA
ATOM     36  C   UNL A   1      39.253  26.348  29.148  1.00  0.00     0.031 C 
ATOM     37  C   UNL A   1      43.336  24.782  26.701  1.00  0.00     0.029 A 
ATOM     38  N   UNL A   1      43.453  26.756  27.737  1.00  0.00    -0.354 N 
ATOM     39  C   UNL A   1      39.938  28.480  29.631  1.00  0.00     0.074 A 
ATOM     40  C   UNL A   1      38.886  27.488  29.716  1.00  0.00     0.031 C 
ATOM     41  C   UNL A   1      44.602  25.208  26.606  1.00  0.00     0.029 A 
ATOM     42  C   UNL A   1      44.690  26.548  27.167  1.00  0.00     0.049 A 
ATOM     43  H   UNL A   1      43.241  27.537  28.299  1.00  0.00     0.167 HD
ATOM     44  C   UNL A   1      39.878  29.728  30.158  1.00  0.00     0.034 A 
ATOM     45  C   UNL A   1      45.750  27.369  27.031  1.00  0.00     0.034 A 
ATOM     46  C   UNL A   1      40.971  30.672  30.090  1.00  0.00     0.049 A 
ATOM     47  C   UNL A   1      45.640  28.770  27.569  1.00  0.00     0.074 A 
ATOM     48  C   UNL A   1      41.034  31.958  30.595  1.00  0.00     0.029 A 
ATOM     49  N   UNL A   1      42.198  30.427  29.484  1.00  0.00    -0.354 N 
ATOM     50  N   UNL A   1      44.626  29.342  28.178  1.00  0.00    -0.248 NA
ATOM     51  C   UNL A   1      46.808  29.639  27.391  1.00  0.00     0.031 C 
ATOM     52  C   UNL A   1      42.267  32.513  30.237  1.00  0.00     0.029 A 
ATOM     53  C   UNL A   1      43.012  31.545  29.581  1.00  0.00     0.049 A 
ATOM     54  H   UNL A   1      42.453  29.580  29.048  1.00  0.00     0.167 HD
ATOM     55  C   UNL A   1      45.046  30.634  28.478  1.00  0.00     0.074 A 
ATOM     56  C   UNL A   1      46.410  30.747  28.000  1.00  0.00     0.031 C 
ATOM     57  C   UNL A   1      44.368  31.638  29.090  1.00  0.00     0.034 A 
BRANCH  44  58
ATOM     58  C   UNL A   1      38.570  30.167  30.775  1.00  0.00     0.023 A 
ATOM     59  C   UNL A   1      37.572  30.831  30.041  1.00  0.00     0.031 A 
ATOM     60  C   UNL A   1      38.332  29.935  32.142  1.00  0.00     0.131 A 
ATOM     61  C   UNL A   1      36.417  31.296  30.691  1.00  0.00     0.055 A 
ATOM     62  C   UNL A   1      37.147  30.327  32.765  1.00  0.00     0.041 A 
ATOM     63  F   UNL A   1      39.258  29.328  32.903  1.00  0.00    -0.206 F 
ATOM     64  C   UNL A   1      36.187  31.026  32.042  1.00  0.00     0.022 A 
BRANCH  61  65
ATOM     65  S   UNL A   1      35.281  32.379  29.782  1.00  0.00     0.124 S 
ATOM     66  O   UNL A   1      36.174  33.453  29.353  1.00  0.00    -0.237 OA
ATOM     67  O   UNL A   1      34.782  31.503  28.728  1.00  0.00    -0.237 OA
ATOM     68  O   UNL A   1      34.294  32.766  30.788  1.00  0.00    -0.744 OA
ENDBRANCH  61  65
ENDBRANCH  44  58
BRANCH  45  69
ATOM     69  C   UNL A   1      46.960  26.928  26.274  1.00  0.00     0.023 A 
ATOM     70  C   UNL A   1      48.032  26.295  26.922  1.00  0.00     0.031 A 
ATOM     71  C   UNL A   1      47.082  27.170  24.891  1.00  0.00     0.131 A 
ATOM     72  C   UNL A   1      49.191  25.965  26.201  1.00  0.00     0.055 A 
ATOM     73  C   UNL A   1      48.208  26.780  24.167  1.00  0.00     0.041 A 
ATOM     74  F   UNL A   1      46.092  27.779  24.218  1.00  0.00    -0.206 F 
ATOM     75  C   UNL A   1      49.279  26.186  24.825  1.00  0.00     0.022 A 
BRANCH  72  76
ATOM     76  S   UNL A   1      50.627  25.329  27.108  1.00  0.00     0.124 S 
ATOM     77  O   UNL A   1      50.042  24.222  27.854  1.00  0.00    -0.237 OA
ATOM     78  O   UNL A   1      51.534  24.966  26.025  1.00  0.00    -0.237 OA
ATOM     79  O   UNL A   1      51.051  26.471  27.916  1.00  0.00    -0.744 OA
ENDBRANCH  72  76
ENDBRANCH  45  69
BRANCH  57  80
ATOM     80  C   UNL A   1      45.125  32.921  29.325  1.00  0.00     0.023 A 
ATOM     81  C   UNL A   1      45.871  33.138  30.497  1.00  0.00     0.031 A 
ATOM     82  C   UNL A   1      45.073  33.953  28.370  1.00  0.00     0.131 A 
ATOM     83  C   UNL A   1      46.482  34.382  30.713  1.00  0.00     0.055 A 
ATOM     84  C   UNL A   1      45.739  35.163  28.561  1.00  0.00     0.041 A 
ATOM     85  F   UNL A   1      44.371  33.800  27.236  1.00  0.00    -0.206 F 
ATOM     86  C   UNL A   1      46.436  35.389  29.745  1.00  0.00     0.022 A 
BRANCH  83  87
ATOM     87  S   UNL A   1      47.249  34.707  32.324  1.00  0.00     0.124 S 
ATOM     88  O   UNL A   1      48.128  35.831  32.020  1.00  0.00    -0.237 OA
ATOM     89  O   UNL A   1      46.095  35.008  33.164  1.00  0.00    -0.237 OA
ATOM     90  O   UNL A   1      47.933  33.453  32.638  1.00  0.00    -0.744 OA
ENDBRANCH  83  87
ENDBRANCH  57  80
ENDBRANCH  31  32
ENDBRANCH  24  26
ENDBRANCH  23  24
ENDBRANCH   1  23
TORSDOF 17
ENDMDL
