MODEL 1
REMARK VINA RESULT:     -11.1      0.000      0.000
REMARK SMILES CC[C@H](C)CN(CC)C(=O)Nc1ccc(C(=O)OCCOC(=O)c2ccc(-c3c4nc(c(-c5cc(S(=O)(=O)[O-])ccc5F)c5ccc([nH]5)c(-c5cc(S(=O)(=O)[O-])ccc5F)c5nc(c(-c6cc(S(=O)(=O)[O-])ccc6F)c6ccc3[nH]6)C=C5)C=C4)cc2)cc1Cl
REMARK SMILES IDX 19 1 18 2 16 3 17 4 15 5 12 6 13 7 88 8 14 9 87 10 89 11
REMARK SMILES IDX 11 12 9 13 10 14 6 16 5 17 3 18 4 19 2 20 1 21 7 22 8 23
REMARK SMILES IDX 20 24 21 25 22 26 23 27 24 28 25 29 86 30 26 31 85 32 27 33
REMARK SMILES IDX 28 34 29 35 79 36 30 37 84 38 78 39 80 40 31 41 83 42 77 43
REMARK SMILES IDX 76 44 32 46 64 47 44 48 63 49 45 50 48 51 62 52 81 53 46 54
REMARK SMILES IDX 47 55 61 57 82 58 49 59 33 60 34 61 42 62 35 63 41 64 43 65
REMARK SMILES IDX 40 66 36 67 37 68 38 69 39 70 65 71 66 72 74 73 67 74 73 75
REMARK SMILES IDX 75 76 72 77 68 78 69 79 70 80 71 81 50 82 51 83 59 84 52 85
REMARK SMILES IDX 58 86 60 87 57 88 53 89 54 90 55 91 56 92
REMARK H PARENT 11 15 80 45 48 56
REMARK Flexibility Score: inf
ROOT
ATOM      1  C   UNL A   1      31.850  28.283  25.662  1.00  0.00     0.275 C 
ENDROOT
BRANCH   1   2
ATOM      2  O   UNL A   1      32.011  27.812  24.311  1.00  0.00    -0.458 OA
BRANCH   2   3
ATOM      3  C   UNL A   1      33.281  27.524  23.947  1.00  0.00     0.338 C 
ATOM      4  O   UNL A   1      34.122  28.320  23.557  1.00  0.00    -0.246 OA
BRANCH   3   5
ATOM      5  C   UNL A   1      33.577  26.082  24.125  1.00  0.00     0.061 A 
ATOM      6  C   UNL A   1      34.529  23.484  24.299  1.00  0.00     0.061 A 
ATOM      7  C   UNL A   1      34.878  24.397  25.295  1.00  0.00     0.028 A 
ATOM      8  C   UNL A   1      33.556  23.807  23.342  1.00  0.00     0.065 A 
ATOM      9  C   UNL A   1      34.443  25.712  25.170  1.00  0.00     0.018 A 
ATOM     10  C   UNL A   1      33.068  25.110  23.260  1.00  0.00     0.038 A 
ATOM     11  Cl  UNL A   1      32.955  22.632  22.227  1.00  0.00    -0.082 Cl
BRANCH   6  12
ATOM     12  N   UNL A   1      35.305  22.331  24.211  1.00  0.00    -0.306 N 
ATOM     13  C   UNL A   1      35.177  21.141  24.857  1.00  0.00     0.321 C 
ATOM     14  O   UNL A   1      36.193  20.437  24.892  1.00  0.00    -0.248 OA
ATOM     15  H   UNL A   1      36.063  22.387  23.586  1.00  0.00     0.171 HD
BRANCH  13  16
ATOM     16  N   UNL A   1      33.957  20.675  25.326  1.00  0.00    -0.325 N 
BRANCH  16  17
ATOM     17  C   UNL A   1      33.232  19.756  24.443  1.00  0.00     0.124 C 
BRANCH  17  18
ATOM     18  C   UNL A   1      33.606  18.265  24.671  1.00  0.00     0.005 C 
ATOM     19  C   UNL A   1      32.697  17.605  25.713  1.00  0.00     0.009 C 
BRANCH  18  20
ATOM     20  C   UNL A   1      33.630  17.548  23.301  1.00  0.00     0.002 C 
ATOM     21  C   UNL A   1      32.567  17.967  22.298  1.00  0.00     0.004 C 
ENDBRANCH  18  20
ENDBRANCH  17  18
ENDBRANCH  16  17
BRANCH  16  22
ATOM     22  C   UNL A   1      33.200  21.055  26.528  1.00  0.00     0.118 C 
ATOM     23  C   UNL A   1      31.948  21.862  26.203  1.00  0.00     0.027 C 
ENDBRANCH  16  22
ENDBRANCH  13  16
ENDBRANCH   6  12
ENDBRANCH   3   5
ENDBRANCH   2   3
ENDBRANCH   1   2
BRANCH   1  24
ATOM     24  C   UNL A   1      31.696  29.802  25.661  1.00  0.00     0.275 C 
BRANCH  24  25
ATOM     25  O   UNL A   1      32.988  30.421  25.800  1.00  0.00    -0.458 OA
BRANCH  25  26
ATOM     26  C   UNL A   1      33.107  31.331  26.798  1.00  0.00     0.338 C 
ATOM     27  O   UNL A   1      32.298  32.182  27.123  1.00  0.00    -0.246 OA
BRANCH  26  28
ATOM     28  C   UNL A   1      34.390  31.122  27.490  1.00  0.00     0.060 A 
ATOM     29  C   UNL A   1      34.792  29.824  27.796  1.00  0.00     0.016 A 
ATOM     30  C   UNL A   1      35.157  32.204  27.911  1.00  0.00     0.016 A 
ATOM     31  C   UNL A   1      35.923  29.596  28.571  1.00  0.00     0.010 A 
ATOM     32  C   UNL A   1      36.356  31.969  28.596  1.00  0.00     0.010 A 
ATOM     33  C   UNL A   1      36.750  30.662  28.942  1.00  0.00    -0.014 A 
BRANCH  33  34
ATOM     34  C   UNL A   1      38.026  30.404  29.669  1.00  0.00     0.031 A 
ATOM     35  C   UNL A   1      39.072  29.505  29.068  1.00  0.00     0.074 A 
ATOM     36  C   UNL A   1      38.246  30.972  30.873  1.00  0.00     0.049 A 
ATOM     37  N   UNL A   1      40.136  28.986  29.623  1.00  0.00    -0.248 NA
ATOM     38  C   UNL A   1      38.886  29.132  27.657  1.00  0.00     0.031 C 
ATOM     39  C   UNL A   1      37.344  31.912  31.547  1.00  0.00     0.029 A 
ATOM     40  N   UNL A   1      39.295  30.843  31.752  1.00  0.00    -0.354 N 
ATOM     41  C   UNL A   1      40.721  28.182  28.650  1.00  0.00     0.074 A 
ATOM     42  C   UNL A   1      39.885  28.281  27.471  1.00  0.00     0.031 C 
ATOM     43  C   UNL A   1      37.890  32.295  32.710  1.00  0.00     0.029 A 
ATOM     44  C   UNL A   1      39.122  31.546  32.923  1.00  0.00     0.049 A 
ATOM     45  H   UNL A   1      40.094  30.299  31.561  1.00  0.00     0.167 HD
ATOM     46  C   UNL A   1      41.847  27.431  28.739  1.00  0.00     0.034 A 
ATOM     47  C   UNL A   1      39.831  31.542  34.070  1.00  0.00     0.034 A 
ATOM     48  C   UNL A   1      42.683  27.374  29.915  1.00  0.00     0.049 A 
ATOM     49  C   UNL A   1      41.026  30.634  34.176  1.00  0.00     0.074 A 
ATOM     50  C   UNL A   1      43.859  26.667  30.105  1.00  0.00     0.029 A 
ATOM     51  N   UNL A   1      42.431  28.048  31.104  1.00  0.00    -0.354 N 
ATOM     52  N   UNL A   1      41.534  29.831  33.271  1.00  0.00    -0.248 NA
ATOM     53  C   UNL A   1      41.726  30.612  35.466  1.00  0.00     0.031 C 
ATOM     54  C   UNL A   1      44.280  26.861  31.425  1.00  0.00     0.029 A 
ATOM     55  C   UNL A   1      43.408  27.744  32.042  1.00  0.00     0.049 A 
ATOM     56  H   UNL A   1      41.671  28.654  31.259  1.00  0.00     0.167 HD
ATOM     57  C   UNL A   1      42.617  29.209  33.883  1.00  0.00     0.074 A 
ATOM     58  C   UNL A   1      42.704  29.751  35.224  1.00  0.00     0.031 C 
ATOM     59  C   UNL A   1      43.461  28.270  33.385  1.00  0.00     0.034 A 
BRANCH  46  60
ATOM     60  C   UNL A   1      42.199  26.558  27.557  1.00  0.00     0.023 A 
ATOM     61  C   UNL A   1      41.793  25.216  27.469  1.00  0.00     0.031 A 
ATOM     62  C   UNL A   1      42.979  27.080  26.509  1.00  0.00     0.131 A 
ATOM     63  C   UNL A   1      42.222  24.425  26.391  1.00  0.00     0.055 A 
ATOM     64  C   UNL A   1      43.340  26.308  25.403  1.00  0.00     0.041 A 
ATOM     65  F   UNL A   1      43.415  28.349  26.548  1.00  0.00    -0.206 F 
ATOM     66  C   UNL A   1      42.973  24.968  25.347  1.00  0.00     0.022 A 
BRANCH  63  67
ATOM     67  S   UNL A   1      41.901  22.640  26.442  1.00  0.00     0.124 S 
ATOM     68  O   UNL A   1      42.580  22.183  25.232  1.00  0.00    -0.237 OA
ATOM     69  O   UNL A   1      42.514  22.247  27.705  1.00  0.00    -0.237 OA
ATOM     70  O   UNL A   1      40.442  22.552  26.401  1.00  0.00    -0.744 OA
ENDBRANCH  63  67
ENDBRANCH  46  60
BRANCH  47  71
ATOM     71  C   UNL A   1      39.374  32.345  35.241  1.00  0.00     0.023 A 
ATOM     72  C   UNL A   1      39.824  33.659  35.443  1.00  0.00     0.031 A 
ATOM     73  C   UNL A   1      38.496  31.795  36.195  1.00  0.00     0.131 A 
ATOM     74  C   UNL A   1      39.417  34.368  36.585  1.00  0.00     0.055 A 
ATOM     75  C   UNL A   1      38.051  32.524  37.298  1.00  0.00     0.041 A 
ATOM     76  F   UNL A   1      38.040  30.540  36.054  1.00  0.00    -0.206 F 
ATOM     77  C   UNL A   1      38.521  33.816  37.504  1.00  0.00     0.022 A 
BRANCH  74  78
ATOM     78  S   UNL A   1      40.138  36.003  36.896  1.00  0.00     0.124 S 
ATOM     79  O   UNL A   1      39.907  36.676  35.622  1.00  0.00    -0.237 OA
ATOM     80  O   UNL A   1      39.344  36.475  38.025  1.00  0.00    -0.237 OA
ATOM     81  O   UNL A   1      41.537  35.706  37.201  1.00  0.00    -0.744 OA
ENDBRANCH  74  78
ENDBRANCH  47  71
BRANCH  59  82
ATOM     82  C   UNL A   1      44.558  27.793  34.302  1.00  0.00     0.023 A 
ATOM     83  C   UNL A   1      44.430  26.603  35.040  1.00  0.00     0.031 A 
ATOM     84  C   UNL A   1      45.733  28.547  34.455  1.00  0.00     0.131 A 
ATOM     85  C   UNL A   1      45.439  26.227  35.936  1.00  0.00     0.055 A 
ATOM     86  C   UNL A   1      46.759  28.139  35.309  1.00  0.00     0.041 A 
ATOM     87  F   UNL A   1      45.903  29.693  33.778  1.00  0.00    -0.206 F 
ATOM     88  C   UNL A   1      46.610  26.979  36.064  1.00  0.00     0.022 A 
BRANCH  85  89
ATOM     89  S   UNL A   1      45.169  24.781  36.997  1.00  0.00     0.124 S 
ATOM     90  O   UNL A   1      44.011  25.194  37.783  1.00  0.00    -0.237 OA
ATOM     91  O   UNL A   1      44.934  23.718  36.025  1.00  0.00    -0.237 OA
ATOM     92  O   UNL A   1      46.419  24.667  37.747  1.00  0.00    -0.744 OA
ENDBRANCH  85  89
ENDBRANCH  59  82
ENDBRANCH  33  34
ENDBRANCH  26  28
ENDBRANCH  25  26
ENDBRANCH  24  25
ENDBRANCH   1  24
TORSDOF 20
ENDMDL
MODEL 2
REMARK VINA RESULT:     -11.0      5.044     10.062
REMARK SMILES CC[C@H](C)CN(CC)C(=O)Nc1ccc(C(=O)OCCOC(=O)c2ccc(-c3c4nc(c(-c5cc(S(=O)(=O)[O-])ccc5F)c5ccc([nH]5)c(-c5cc(S(=O)(=O)[O-])ccc5F)c5nc(c(-c6cc(S(=O)(=O)[O-])ccc6F)c6ccc3[nH]6)C=C5)C=C4)cc2)cc1Cl
REMARK SMILES IDX 19 1 18 2 16 3 17 4 15 5 12 6 13 7 88 8 14 9 87 10 89 11
REMARK SMILES IDX 11 12 9 13 10 14 6 16 5 17 3 18 4 19 2 20 1 21 7 22 8 23
REMARK SMILES IDX 20 24 21 25 22 26 23 27 24 28 25 29 86 30 26 31 85 32 27 33
REMARK SMILES IDX 28 34 29 35 79 36 30 37 84 38 78 39 80 40 31 41 83 42 77 43
REMARK SMILES IDX 76 44 32 46 64 47 44 48 63 49 45 50 48 51 62 52 81 53 46 54
REMARK SMILES IDX 47 55 61 57 82 58 49 59 33 60 34 61 42 62 35 63 41 64 43 65
REMARK SMILES IDX 40 66 36 67 37 68 38 69 39 70 65 71 66 72 74 73 67 74 73 75
REMARK SMILES IDX 75 76 72 77 68 78 69 79 70 80 71 81 50 82 51 83 59 84 52 85
REMARK SMILES IDX 58 86 60 87 57 88 53 89 54 90 55 91 56 92
REMARK H PARENT 11 15 80 45 48 56
REMARK Flexibility Score: inf
ROOT
ATOM      1  C   UNL A   1      35.424  20.575  25.335  1.00  0.00     0.275 C 
ENDROOT
BRANCH   1   2
ATOM      2  O   UNL A   1      34.373  20.466  24.357  1.00  0.00    -0.458 OA
BRANCH   2   3
ATOM      3  C   UNL A   1      33.116  20.468  24.856  1.00  0.00     0.338 C 
ATOM      4  O   UNL A   1      32.564  19.545  25.436  1.00  0.00    -0.246 OA
BRANCH   3   5
ATOM      5  C   UNL A   1      32.463  21.785  24.661  1.00  0.00     0.061 A 
ATOM      6  C   UNL A   1      30.899  24.016  24.150  1.00  0.00     0.061 A 
ATOM      7  C   UNL A   1      30.679  23.294  25.323  1.00  0.00     0.028 A 
ATOM      8  C   UNL A   1      32.016  23.748  23.344  1.00  0.00     0.065 A 
ATOM      9  C   UNL A   1      31.430  22.144  25.545  1.00  0.00     0.018 A 
ATOM     10  C   UNL A   1      32.810  22.634  23.606  1.00  0.00     0.038 A 
ATOM     11  Cl  UNL A   1      32.428  24.755  22.002  1.00  0.00    -0.082 Cl
BRANCH   6  12
ATOM     12  N   UNL A   1      29.881  24.877  23.747  1.00  0.00    -0.306 N 
ATOM     13  C   UNL A   1      29.686  26.192  24.034  1.00  0.00     0.321 C 
ATOM     14  O   UNL A   1      28.532  26.611  23.876  1.00  0.00    -0.248 OA
ATOM     15  H   UNL A   1      29.197  24.470  23.168  1.00  0.00     0.171 HD
BRANCH  13  16
ATOM     16  N   UNL A   1      30.732  27.050  24.344  1.00  0.00    -0.325 N 
BRANCH  16  17
ATOM     17  C   UNL A   1      31.140  27.091  25.752  1.00  0.00     0.124 C 
BRANCH  17  18
ATOM     18  C   UNL A   1      32.250  28.140  26.038  1.00  0.00     0.005 C 
ATOM     19  C   UNL A   1      31.839  29.113  27.147  1.00  0.00     0.009 C 
BRANCH  18  20
ATOM     20  C   UNL A   1      33.578  27.394  26.305  1.00  0.00     0.002 C 
ATOM     21  C   UNL A   1      33.641  25.942  25.858  1.00  0.00     0.004 C 
ENDBRANCH  18  20
ENDBRANCH  17  18
ENDBRANCH  16  17
BRANCH  16  22
ATOM     22  C   UNL A   1      31.426  28.035  23.502  1.00  0.00     0.118 C 
ATOM     23  C   UNL A   1      30.474  29.046  22.873  1.00  0.00     0.027 C 
ENDBRANCH  16  22
ENDBRANCH  13  16
ENDBRANCH   6  12
ENDBRANCH   3   5
ENDBRANCH   2   3
ENDBRANCH   1   2
BRANCH   1  24
ATOM     24  C   UNL A   1      36.661  21.194  24.691  1.00  0.00     0.275 C 
BRANCH  24  25
ATOM     25  O   UNL A   1      37.321  22.058  25.636  1.00  0.00    -0.458 OA
BRANCH  25  26
ATOM     26  C   UNL A   1      38.578  21.698  25.994  1.00  0.00     0.338 C 
ATOM     27  O   UNL A   1      39.097  20.603  25.872  1.00  0.00    -0.246 OA
BRANCH  26  28
ATOM     28  C   UNL A   1      39.276  22.873  26.544  1.00  0.00     0.060 A 
ATOM     29  C   UNL A   1      38.916  24.143  26.103  1.00  0.00     0.016 A 
ATOM     30  C   UNL A   1      40.339  22.719  27.430  1.00  0.00     0.016 A 
ATOM     31  C   UNL A   1      39.646  25.261  26.491  1.00  0.00     0.010 A 
ATOM     32  C   UNL A   1      41.001  23.856  27.908  1.00  0.00     0.010 A 
ATOM     33  C   UNL A   1      40.669  25.142  27.438  1.00  0.00    -0.014 A 
BRANCH  33  34
ATOM     34  C   UNL A   1      41.369  26.356  27.945  1.00  0.00     0.031 A 
ATOM     35  C   UNL A   1      40.616  27.387  28.742  1.00  0.00     0.074 A 
ATOM     36  C   UNL A   1      42.681  26.540  27.686  1.00  0.00     0.049 A 
ATOM     37  N   UNL A   1      40.977  28.597  29.081  1.00  0.00    -0.248 NA
ATOM     38  C   UNL A   1      39.273  27.008  29.206  1.00  0.00     0.031 C 
ATOM     39  C   UNL A   1      43.547  25.594  26.976  1.00  0.00     0.029 A 
ATOM     40  N   UNL A   1      43.520  27.587  27.984  1.00  0.00    -0.354 N 
ATOM     41  C   UNL A   1      39.890  29.147  29.753  1.00  0.00     0.074 A 
ATOM     42  C   UNL A   1      38.854  28.134  29.765  1.00  0.00     0.031 C 
ATOM     43  C   UNL A   1      44.793  26.086  26.923  1.00  0.00     0.029 A 
ATOM     44  C   UNL A   1      44.795  27.429  27.489  1.00  0.00     0.049 A 
ATOM     45  H   UNL A   1      43.236  28.374  28.503  1.00  0.00     0.167 HD
ATOM     46  C   UNL A   1      39.771  30.382  30.301  1.00  0.00     0.034 A 
ATOM     47  C   UNL A   1      45.833  28.286  27.430  1.00  0.00     0.034 A 
ATOM     48  C   UNL A   1      40.830  31.363  30.306  1.00  0.00     0.049 A 
ATOM     49  C   UNL A   1      45.649  29.680  27.965  1.00  0.00     0.074 A 
ATOM     50  C   UNL A   1      40.826  32.634  30.856  1.00  0.00     0.029 A 
ATOM     51  N   UNL A   1      42.082  31.186  29.730  1.00  0.00    -0.354 N 
ATOM     52  N   UNL A   1      44.596  30.209  28.543  1.00  0.00    -0.248 NA
ATOM     53  C   UNL A   1      46.783  30.600  27.818  1.00  0.00     0.031 C 
ATOM     54  C   UNL A   1      42.048  33.247  30.555  1.00  0.00     0.029 A 
ATOM     55  C   UNL A   1      42.844  32.337  29.879  1.00  0.00     0.049 A 
ATOM     56  H   UNL A   1      42.386  30.363  29.282  1.00  0.00     0.167 HD
ATOM     57  C   UNL A   1      44.943  31.524  28.830  1.00  0.00     0.074 A 
ATOM     58  C   UNL A   1      46.312  31.700  28.387  1.00  0.00     0.031 C 
ATOM     59  C   UNL A   1      44.196  32.503  29.402  1.00  0.00     0.034 A 
BRANCH  46  60
ATOM     60  C   UNL A   1      38.429  30.762  30.879  1.00  0.00     0.023 A 
ATOM     61  C   UNL A   1      37.424  31.367  30.105  1.00  0.00     0.031 A 
ATOM     62  C   UNL A   1      38.162  30.534  32.241  1.00  0.00     0.131 A 
ATOM     63  C   UNL A   1      36.227  31.781  30.713  1.00  0.00     0.055 A 
ATOM     64  C   UNL A   1      36.940  30.879  32.823  1.00  0.00     0.041 A 
ATOM     65  F   UNL A   1      39.090  29.978  33.035  1.00  0.00    -0.206 F 
ATOM     66  C   UNL A   1      35.970  31.521  32.060  1.00  0.00     0.022 A 
BRANCH  63  67
ATOM     67  S   UNL A   1      35.067  32.790  29.748  1.00  0.00     0.124 S 
ATOM     68  O   UNL A   1      34.192  33.315  30.794  1.00  0.00    -0.237 OA
ATOM     69  O   UNL A   1      35.949  33.757  29.108  1.00  0.00    -0.237 OA
ATOM     70  O   UNL A   1      34.440  31.824  28.848  1.00  0.00    -0.744 OA
ENDBRANCH  63  67
ENDBRANCH  46  60
BRANCH  47  71
ATOM     71  C   UNL A   1      47.101  27.888  26.751  1.00  0.00     0.023 A 
ATOM     72  C   UNL A   1      47.230  27.950  25.356  1.00  0.00     0.031 A 
ATOM     73  C   UNL A   1      48.198  27.411  27.495  1.00  0.00     0.131 A 
ATOM     74  C   UNL A   1      48.418  27.515  24.745  1.00  0.00     0.055 A 
ATOM     75  C   UNL A   1      49.395  27.034  26.886  1.00  0.00     0.041 A 
ATOM     76  F   UNL A   1      48.126  27.325  28.833  1.00  0.00    -0.206 F 
ATOM     77  C   UNL A   1      49.507  27.075  25.501  1.00  0.00     0.022 A 
BRANCH  74  78
ATOM     78  S   UNL A   1      48.495  27.462  22.933  1.00  0.00     0.124 S 
ATOM     79  O   UNL A   1      49.756  28.147  22.670  1.00  0.00    -0.237 OA
ATOM     80  O   UNL A   1      48.475  26.027  22.671  1.00  0.00    -0.237 OA
ATOM     81  O   UNL A   1      47.293  28.186  22.520  1.00  0.00    -0.744 OA
ENDBRANCH  74  78
ENDBRANCH  47  71
BRANCH  59  82
ATOM     82  C   UNL A   1      44.866  33.840  29.592  1.00  0.00     0.023 A 
ATOM     83  C   UNL A   1      44.899  34.795  28.561  1.00  0.00     0.031 A 
ATOM     84  C   UNL A   1      45.497  34.152  30.808  1.00  0.00     0.131 A 
ATOM     85  C   UNL A   1      45.592  35.999  28.748  1.00  0.00     0.055 A 
ATOM     86  C   UNL A   1      46.139  35.375  31.008  1.00  0.00     0.041 A 
ATOM     87  F   UNL A   1      45.499  33.273  31.822  1.00  0.00    -0.206 F 
ATOM     88  C   UNL A   1      46.199  36.302  29.970  1.00  0.00     0.022 A 
BRANCH  85  89
ATOM     89  S   UNL A   1      45.761  37.136  27.345  1.00  0.00     0.124 S 
ATOM     90  O   UNL A   1      46.894  37.958  27.757  1.00  0.00    -0.237 OA
ATOM     91  O   UNL A   1      46.006  36.225  26.231  1.00  0.00    -0.237 OA
ATOM     92  O   UNL A   1      44.474  37.828  27.307  1.00  0.00    -0.744 OA
ENDBRANCH  85  89
ENDBRANCH  59  82
ENDBRANCH  33  34
ENDBRANCH  26  28
ENDBRANCH  25  26
ENDBRANCH  24  25
ENDBRANCH   1  24
TORSDOF 20
ENDMDL
MODEL 3
REMARK VINA RESULT:     -11.0      1.142      2.105
REMARK SMILES CC[C@H](C)CN(CC)C(=O)Nc1ccc(C(=O)OCCOC(=O)c2ccc(-c3c4nc(c(-c5cc(S(=O)(=O)[O-])ccc5F)c5ccc([nH]5)c(-c5cc(S(=O)(=O)[O-])ccc5F)c5nc(c(-c6cc(S(=O)(=O)[O-])ccc6F)c6ccc3[nH]6)C=C5)C=C4)cc2)cc1Cl
REMARK SMILES IDX 19 1 18 2 16 3 17 4 15 5 12 6 13 7 88 8 14 9 87 10 89 11
REMARK SMILES IDX 11 12 9 13 10 14 6 16 5 17 3 18 4 19 2 20 1 21 7 22 8 23
REMARK SMILES IDX 20 24 21 25 22 26 23 27 24 28 25 29 86 30 26 31 85 32 27 33
REMARK SMILES IDX 28 34 29 35 79 36 30 37 84 38 78 39 80 40 31 41 83 42 77 43
REMARK SMILES IDX 76 44 32 46 64 47 44 48 63 49 45 50 48 51 62 52 81 53 46 54
REMARK SMILES IDX 47 55 61 57 82 58 49 59 33 60 34 61 42 62 35 63 41 64 43 65
REMARK SMILES IDX 40 66 36 67 37 68 38 69 39 70 65 71 66 72 74 73 67 74 73 75
REMARK SMILES IDX 75 76 72 77 68 78 69 79 70 80 71 81 50 82 51 83 59 84 52 85
REMARK SMILES IDX 58 86 60 87 57 88 53 89 54 90 55 91 56 92
REMARK H PARENT 11 15 80 45 48 56
REMARK Flexibility Score: inf
ROOT
ATOM      1  C   UNL A   1      31.787  27.605  27.217  1.00  0.00     0.275 C 
ENDROOT
BRANCH   1   2
ATOM      2  O   UNL A   1      30.657  26.841  26.755  1.00  0.00    -0.458 OA
BRANCH   2   3
ATOM      3  C   UNL A   1      30.705  26.466  25.457  1.00  0.00     0.338 C 
ATOM      4  O   UNL A   1      30.745  27.208  24.487  1.00  0.00    -0.246 OA
BRANCH   3   5
ATOM      5  C   UNL A   1      30.757  24.989  25.327  1.00  0.00     0.061 A 
ATOM      6  C   UNL A   1      31.217  22.255  25.329  1.00  0.00     0.061 A 
ATOM      7  C   UNL A   1      30.619  22.838  26.446  1.00  0.00     0.028 A 
ATOM      8  C   UNL A   1      31.397  22.992  24.149  1.00  0.00     0.065 A 
ATOM      9  C   UNL A   1      30.443  24.218  26.460  1.00  0.00     0.018 A 
ATOM     10  C   UNL A   1      31.155  24.364  24.143  1.00  0.00     0.038 A 
ATOM     11  Cl  UNL A   1      31.943  22.245  22.689  1.00  0.00    -0.082 Cl
BRANCH   6  12
ATOM     12  N   UNL A   1      31.766  20.988  25.506  1.00  0.00    -0.306 N 
ATOM     13  C   UNL A   1      33.068  20.592  25.498  1.00  0.00     0.321 C 
ATOM     14  O   UNL A   1      33.261  19.387  25.296  1.00  0.00    -0.248 OA
ATOM     15  H   UNL A   1      31.113  20.268  25.658  1.00  0.00     0.171 HD
BRANCH  13  16
ATOM     16  N   UNL A   1      34.109  21.446  25.834  1.00  0.00    -0.325 N 
BRANCH  16  17
ATOM     17  C   UNL A   1      34.899  21.975  24.718  1.00  0.00     0.124 C 
BRANCH  17  18
ATOM     18  C   UNL A   1      35.639  23.297  25.064  1.00  0.00     0.005 C 
ATOM     19  C   UNL A   1      37.112  23.249  24.647  1.00  0.00     0.009 C 
BRANCH  18  20
ATOM     20  C   UNL A   1      34.844  24.479  24.460  1.00  0.00     0.002 C 
ATOM     21  C   UNL A   1      34.362  25.540  25.436  1.00  0.00     0.004 C 
ENDBRANCH  18  20
ENDBRANCH  17  18
ENDBRANCH  16  17
BRANCH  16  22
ATOM     22  C   UNL A   1      34.637  21.815  27.156  1.00  0.00     0.118 C 
ATOM     23  C   UNL A   1      33.636  22.607  27.988  1.00  0.00     0.027 C 
ENDBRANCH  16  22
ENDBRANCH  13  16
ENDBRANCH   6  12
ENDBRANCH   3   5
ENDBRANCH   2   3
ENDBRANCH   1   2
BRANCH   1  24
ATOM     24  C   UNL A   1      31.505  29.095  27.042  1.00  0.00     0.275 C 
BRANCH  24  25
ATOM     25  O   UNL A   1      32.626  29.730  26.401  1.00  0.00    -0.458 OA
BRANCH  25  26
ATOM     26  C   UNL A   1      33.019  30.916  26.927  1.00  0.00     0.338 C 
ATOM     27  O   UNL A   1      32.419  31.976  26.891  1.00  0.00    -0.246 OA
BRANCH  26  28
ATOM     28  C   UNL A   1      34.311  30.736  27.609  1.00  0.00     0.060 A 
ATOM     29  C   UNL A   1      34.701  29.457  27.998  1.00  0.00     0.016 A 
ATOM     30  C   UNL A   1      35.101  31.833  27.940  1.00  0.00     0.016 A 
ATOM     31  C   UNL A   1      35.843  29.266  28.768  1.00  0.00     0.010 A 
ATOM     32  C   UNL A   1      36.310  31.628  28.618  1.00  0.00     0.010 A 
ATOM     33  C   UNL A   1      36.692  30.343  29.048  1.00  0.00    -0.014 A 
BRANCH  33  34
ATOM     34  C   UNL A   1      37.977  30.117  29.768  1.00  0.00     0.031 A 
ATOM     35  C   UNL A   1      39.024  29.208  29.183  1.00  0.00     0.074 A 
ATOM     36  C   UNL A   1      38.206  30.724  30.952  1.00  0.00     0.049 A 
ATOM     37  N   UNL A   1      40.097  28.714  29.742  1.00  0.00    -0.248 NA
ATOM     38  C   UNL A   1      38.825  28.790  27.787  1.00  0.00     0.031 C 
ATOM     39  C   UNL A   1      37.305  31.677  31.607  1.00  0.00     0.029 A 
ATOM     40  N   UNL A   1      39.266  30.630  31.822  1.00  0.00    -0.354 N 
ATOM     41  C   UNL A   1      40.679  27.885  28.788  1.00  0.00     0.074 A 
ATOM     42  C   UNL A   1      39.828  27.940  27.616  1.00  0.00     0.031 C 
ATOM     43  C   UNL A   1      37.861  32.100  32.750  1.00  0.00     0.029 A 
ATOM     44  C   UNL A   1      39.101  31.367  32.973  1.00  0.00     0.049 A 
ATOM     45  H   UNL A   1      40.067  30.087  31.639  1.00  0.00     0.167 HD
ATOM     46  C   UNL A   1      41.811  27.145  28.888  1.00  0.00     0.034 A 
ATOM     47  C   UNL A   1      39.822  31.404  34.111  1.00  0.00     0.034 A 
ATOM     48  C   UNL A   1      42.660  27.131  30.055  1.00  0.00     0.049 A 
ATOM     49  C   UNL A   1      41.025  30.509  34.232  1.00  0.00     0.074 A 
ATOM     50  C   UNL A   1      43.843  26.439  30.253  1.00  0.00     0.029 A 
ATOM     51  N   UNL A   1      42.416  27.839  31.226  1.00  0.00    -0.354 N 
ATOM     52  N   UNL A   1      41.529  29.682  33.346  1.00  0.00    -0.248 NA
ATOM     53  C   UNL A   1      41.739  30.532  35.514  1.00  0.00     0.031 C 
ATOM     54  C   UNL A   1      44.278  26.676  31.563  1.00  0.00     0.029 A 
ATOM     55  C   UNL A   1      43.406  27.572  32.161  1.00  0.00     0.049 A 
ATOM     56  H   UNL A   1      41.654  28.444  31.370  1.00  0.00     0.167 HD
ATOM     57  C   UNL A   1      42.623  29.087  33.965  1.00  0.00     0.074 A 
ATOM     58  C   UNL A   1      42.721  29.671  35.288  1.00  0.00     0.031 C 
ATOM     59  C   UNL A   1      43.469  28.139  33.487  1.00  0.00     0.034 A 
BRANCH  46  60
ATOM     60  C   UNL A   1      42.157  26.239  27.730  1.00  0.00     0.023 A 
ATOM     61  C   UNL A   1      41.686  24.918  27.645  1.00  0.00     0.031 A 
ATOM     62  C   UNL A   1      42.996  26.705  26.702  1.00  0.00     0.131 A 
ATOM     63  C   UNL A   1      42.110  24.090  26.592  1.00  0.00     0.055 A 
ATOM     64  C   UNL A   1      43.353  25.901  25.617  1.00  0.00     0.041 A 
ATOM     65  F   UNL A   1      43.495  27.951  26.739  1.00  0.00    -0.206 F 
ATOM     66  C   UNL A   1      42.921  24.580  25.566  1.00  0.00     0.022 A 
BRANCH  63  67
ATOM     67  S   UNL A   1      41.697  22.324  26.655  1.00  0.00     0.124 S 
ATOM     68  O   UNL A   1      40.239  22.366  26.751  1.00  0.00    -0.237 OA
ATOM     69  O   UNL A   1      42.240  21.830  25.397  1.00  0.00    -0.237 OA
ATOM     70  O   UNL A   1      42.381  21.855  27.859  1.00  0.00    -0.744 OA
ENDBRANCH  63  67
ENDBRANCH  46  60
BRANCH  47  71
ATOM     71  C   UNL A   1      39.371  32.240  35.262  1.00  0.00     0.023 A 
ATOM     72  C   UNL A   1      39.790  33.572  35.402  1.00  0.00     0.031 A 
ATOM     73  C   UNL A   1      38.532  31.704  36.258  1.00  0.00     0.131 A 
ATOM     74  C   UNL A   1      39.392  34.314  36.527  1.00  0.00     0.055 A 
ATOM     75  C   UNL A   1      38.095  32.463  37.343  1.00  0.00     0.041 A 
ATOM     76  F   UNL A   1      38.107  30.433  36.177  1.00  0.00    -0.206 F 
ATOM     77  C   UNL A   1      38.534  33.775  37.488  1.00  0.00     0.022 A 
BRANCH  74  78
ATOM     78  S   UNL A   1      40.075  35.978  36.756  1.00  0.00     0.124 S 
ATOM     79  O   UNL A   1      39.660  36.642  35.525  1.00  0.00    -0.237 OA
ATOM     80  O   UNL A   1      39.407  36.414  37.978  1.00  0.00    -0.237 OA
ATOM     81  O   UNL A   1      41.512  35.742  36.885  1.00  0.00    -0.744 OA
ENDBRANCH  74  78
ENDBRANCH  47  71
BRANCH  59  82
ATOM     82  C   UNL A   1      44.580  27.699  34.406  1.00  0.00     0.023 A 
ATOM     83  C   UNL A   1      44.441  26.571  35.234  1.00  0.00     0.031 A 
ATOM     84  C   UNL A   1      45.779  28.427  34.469  1.00  0.00     0.131 A 
ATOM     85  C   UNL A   1      45.467  26.233  36.128  1.00  0.00     0.055 A 
ATOM     86  C   UNL A   1      46.819  28.054  35.322  1.00  0.00     0.041 A 
ATOM     87  F   UNL A   1      45.961  29.515  33.704  1.00  0.00    -0.206 F 
ATOM     88  C   UNL A   1      46.661  26.957  36.166  1.00  0.00     0.022 A 
BRANCH  85  89
ATOM     89  S   UNL A   1      45.189  24.877  37.301  1.00  0.00     0.124 S 
ATOM     90  O   UNL A   1      44.143  25.428  38.157  1.00  0.00    -0.237 OA
ATOM     91  O   UNL A   1      44.786  23.783  36.425  1.00  0.00    -0.237 OA
ATOM     92  O   UNL A   1      46.491  24.708  37.943  1.00  0.00    -0.744 OA
ENDBRANCH  85  89
ENDBRANCH  59  82
ENDBRANCH  33  34
ENDBRANCH  26  28
ENDBRANCH  25  26
ENDBRANCH  24  25
ENDBRANCH   1  24
TORSDOF 20
ENDMDL
