MODEL 1
REMARK VINA RESULT:     -12.2      0.000      0.000
REMARK SMILES NS(=O)(=O)c1ccc(/N=N/c2ccc(O)c(C(=O)OCCOC(=O)c3ccc(-c4c5nc(c(-c6cc(S(=O)(=O)[O-])ccc6F)c6ccc([nH]6)c(-c6cc(S(=O)(=O)[O-])ccc6F)c6nc(c(-c7cc(S(=O)(=O)[O-])ccc7F)c7ccc4[nH]7)C=C6)C=C5)cc3)c2)cc1
REMARK SMILES IDX 20 1 19 2 17 3 18 4 16 5 11 6 12 7 88 8 13 9 14 10 10 11
REMARK SMILES IDX 9 12 8 13 5 14 6 15 90 16 7 17 89 18 2 19 3 20 4 21 1 22
REMARK SMILES IDX 15 25 21 27 22 28 23 29 24 30 25 31 26 32 87 33 27 34 86 35
REMARK SMILES IDX 28 36 29 37 30 38 80 39 31 40 85 41 79 42 81 43 32 44 84 45
REMARK SMILES IDX 78 46 77 47 33 49 65 50 45 51 64 52 46 53 49 54 63 55 82 56
REMARK SMILES IDX 47 57 48 58 62 60 83 61 50 62 34 63 35 64 43 65 36 66 42 67
REMARK SMILES IDX 44 68 41 69 37 70 38 71 39 72 40 73 66 74 67 75 75 76 68 77
REMARK SMILES IDX 74 78 76 79 73 80 69 81 70 82 71 83 72 84 51 85 52 86 60 87
REMARK SMILES IDX 53 88 59 89 61 90 58 91 54 92 55 93 56 94 57 95
REMARK H PARENT 1 23 1 24 15 26 81 48 49 59
REMARK Flexibility Score: inf
ROOT
ATOM      1  C   UNL A   1      35.720  22.255  23.903  1.00  0.00     0.275 C 
ENDROOT
BRANCH   1   2
ATOM      2  O   UNL A   1      34.509  22.903  24.333  1.00  0.00    -0.458 OA
BRANCH   2   3
ATOM      3  C   UNL A   1      33.341  22.335  23.944  1.00  0.00     0.342 C 
ATOM      4  O   UNL A   1      33.202  21.455  23.107  1.00  0.00    -0.246 OA
BRANCH   3   5
ATOM      5  C   UNL A   1      32.204  22.849  24.744  1.00  0.00     0.104 A 
ATOM      6  C   UNL A   1      30.762  24.671  25.450  1.00  0.00     0.087 A 
ATOM      7  C   UNL A   1      30.188  23.840  26.418  1.00  0.00     0.034 A 
ATOM      8  C   UNL A   1      31.802  24.183  24.648  1.00  0.00     0.049 A 
ATOM      9  C   UNL A   1      30.567  22.502  26.504  1.00  0.00     0.049 A 
ATOM     10  C   UNL A   1      31.536  21.999  25.636  1.00  0.00     0.130 A 
BRANCH   6  11
ATOM     11  N   UNL A   1      30.270  25.970  25.241  1.00  0.00    -0.151 NA
ATOM     12  N   UNL A   1      29.666  25.971  24.145  1.00  0.00    -0.151 NA
BRANCH  12  13
ATOM     13  C   UNL A   1      29.216  27.236  23.742  1.00  0.00     0.086 A 
ATOM     14  C   UNL A   1      28.496  29.773  22.804  1.00  0.00     0.082 A 
ATOM     15  C   UNL A   1      29.841  29.474  23.014  1.00  0.00     0.024 A 
ATOM     16  C   UNL A   1      27.503  28.826  23.072  1.00  0.00     0.024 A 
ATOM     17  C   UNL A   1      30.193  28.207  23.478  1.00  0.00     0.031 A 
ATOM     18  C   UNL A   1      27.866  27.558  23.533  1.00  0.00     0.031 A 
BRANCH  14  19
ATOM     19  S   UNL A   1      28.035  31.355  22.171  1.00  0.00     0.238 S 
ATOM     20  O   UNL A   1      27.236  32.054  23.148  1.00  0.00    -0.207 OA
ATOM     21  O   UNL A   1      27.626  31.210  20.793  1.00  0.00    -0.207 OA
BRANCH  19  22
ATOM     22  N   UNL A   1      29.509  32.159  22.145  1.00  0.00    -0.225 NA
ATOM     23  H   UNL A   1      30.188  31.642  22.704  1.00  0.00     0.137 HD
ATOM     24  H   UNL A   1      29.392  33.096  22.532  1.00  0.00     0.137 HD
ENDBRANCH  19  22
ENDBRANCH  14  19
ENDBRANCH  12  13
ENDBRANCH   6  11
BRANCH  10  25
ATOM     25  O   UNL A   1      31.802  20.662  25.745  1.00  0.00    -0.507 OA
ATOM     26  H   UNL A   1      32.306  20.342  26.468  1.00  0.00     0.293 HD
ENDBRANCH  10  25
ENDBRANCH   3   5
ENDBRANCH   2   3
ENDBRANCH   1   2
BRANCH   1  27
ATOM     27  C   UNL A   1      36.155  21.168  24.892  1.00  0.00     0.275 C 
BRANCH  27  28
ATOM     28  O   UNL A   1      36.958  21.715  25.957  1.00  0.00    -0.458 OA
BRANCH  28  29
ATOM     29  C   UNL A   1      38.275  21.398  25.905  1.00  0.00     0.338 C 
ATOM     30  O   UNL A   1      38.768  20.423  25.363  1.00  0.00    -0.246 OA
BRANCH  29  31
ATOM     31  C   UNL A   1      39.072  22.525  26.424  1.00  0.00     0.060 A 
ATOM     32  C   UNL A   1      38.635  23.806  26.087  1.00  0.00     0.016 A 
ATOM     33  C   UNL A   1      40.224  22.360  27.193  1.00  0.00     0.016 A 
ATOM     34  C   UNL A   1      39.299  24.934  26.560  1.00  0.00     0.010 A 
ATOM     35  C   UNL A   1      40.921  23.496  27.635  1.00  0.00     0.010 A 
ATOM     36  C   UNL A   1      40.456  24.790  27.329  1.00  0.00    -0.014 A 
BRANCH  36  37
ATOM     37  C   UNL A   1      41.222  26.004  27.709  1.00  0.00     0.031 A 
ATOM     38  C   UNL A   1      40.552  27.065  28.535  1.00  0.00     0.074 A 
ATOM     39  C   UNL A   1      42.523  26.127  27.384  1.00  0.00     0.049 A 
ATOM     40  N   UNL A   1      41.007  28.226  28.924  1.00  0.00    -0.248 NA
ATOM     41  C   UNL A   1      39.186  26.768  28.986  1.00  0.00     0.031 C 
ATOM     42  C   UNL A   1      43.313  25.121  26.675  1.00  0.00     0.029 A 
ATOM     43  N   UNL A   1      43.411  27.151  27.611  1.00  0.00    -0.354 N 
ATOM     44  C   UNL A   1      39.981  28.808  29.661  1.00  0.00     0.074 A 
ATOM     45  C   UNL A   1      38.871  27.878  29.636  1.00  0.00     0.031 C 
ATOM     46  C   UNL A   1      44.567  25.581  26.519  1.00  0.00     0.029 A 
ATOM     47  C   UNL A   1      44.655  26.935  27.064  1.00  0.00     0.049 A 
ATOM     48  H   UNL A   1      43.179  27.963  28.118  1.00  0.00     0.167 HD
ATOM     49  C   UNL A   1      39.971  30.004  30.298  1.00  0.00     0.034 A 
ATOM     50  C   UNL A   1      45.727  27.749  26.979  1.00  0.00     0.034 A 
ATOM     51  C   UNL A   1      41.084  30.924  30.303  1.00  0.00     0.049 A 
ATOM     52  C   UNL A   1      45.644  29.135  27.579  1.00  0.00     0.074 A 
ATOM     53  C   UNL A   1      41.172  32.166  30.908  1.00  0.00     0.029 A 
ATOM     54  N   UNL A   1      42.299  30.711  29.661  1.00  0.00    -0.354 N 
ATOM     55  N   UNL A   1      44.657  29.690  28.245  1.00  0.00    -0.248 NA
ATOM     56  C   UNL A   1      46.818  30.001  27.415  1.00  0.00     0.031 C 
ATOM     57  C   UNL A   1      42.400  32.738  30.561  1.00  0.00     0.029 A 
ATOM     58  C   UNL A   1      43.123  31.817  29.820  1.00  0.00     0.049 A 
ATOM     59  H   UNL A   1      42.538  29.895  29.166  1.00  0.00     0.167 HD
ATOM     60  C   UNL A   1      45.109  30.959  28.607  1.00  0.00     0.074 A 
ATOM     61  C   UNL A   1      46.460  31.078  28.098  1.00  0.00     0.031 C 
ATOM     62  C   UNL A   1      44.466  31.933  29.301  1.00  0.00     0.034 A 
BRANCH  49  63
ATOM     63  C   UNL A   1      38.686  30.414  30.978  1.00  0.00     0.023 A 
ATOM     64  C   UNL A   1      37.645  31.054  30.282  1.00  0.00     0.031 A 
ATOM     65  C   UNL A   1      38.516  30.191  32.356  1.00  0.00     0.131 A 
ATOM     66  C   UNL A   1      36.518  31.514  30.980  1.00  0.00     0.055 A 
ATOM     67  C   UNL A   1      37.354  30.574  33.028  1.00  0.00     0.041 A 
ATOM     68  F   UNL A   1      39.486  29.609  33.080  1.00  0.00    -0.206 F 
ATOM     69  C   UNL A   1      36.352  31.254  32.342  1.00  0.00     0.022 A 
BRANCH  66  70
ATOM     70  S   UNL A   1      35.346  32.597  30.115  1.00  0.00     0.124 S 
ATOM     71  O   UNL A   1      34.301  32.764  31.123  1.00  0.00    -0.237 OA
ATOM     72  O   UNL A   1      36.155  33.776  29.832  1.00  0.00    -0.237 OA
ATOM     73  O   UNL A   1      34.953  31.812  28.946  1.00  0.00    -0.744 OA
ENDBRANCH  66  70
ENDBRANCH  49  63
BRANCH  50  74
ATOM     74  C   UNL A   1      46.953  27.320  26.240  1.00  0.00     0.023 A 
ATOM     75  C   UNL A   1      47.190  27.726  24.917  1.00  0.00     0.031 A 
ATOM     76  C   UNL A   1      47.868  26.424  26.825  1.00  0.00     0.131 A 
ATOM     77  C   UNL A   1      48.282  27.200  24.207  1.00  0.00     0.055 A 
ATOM     78  C   UNL A   1      48.989  25.955  26.137  1.00  0.00     0.041 A 
ATOM     79  F   UNL A   1      47.686  25.989  28.082  1.00  0.00    -0.206 F 
ATOM     80  C   UNL A   1      49.193  26.332  24.814  1.00  0.00     0.022 A 
BRANCH  77  81
ATOM     81  S   UNL A   1      48.436  27.579  22.439  1.00  0.00     0.124 S 
ATOM     82  O   UNL A   1      47.181  28.272  22.176  1.00  0.00    -0.237 OA
ATOM     83  O   UNL A   1      49.642  28.399  22.408  1.00  0.00    -0.237 OA
ATOM     84  O   UNL A   1      48.565  26.262  21.819  1.00  0.00    -0.744 OA
ENDBRANCH  77  81
ENDBRANCH  50  74
BRANCH  62  85
ATOM     85  C   UNL A   1      45.240  33.200  29.597  1.00  0.00     0.023 A 
ATOM     86  C   UNL A   1      45.262  34.286  28.705  1.00  0.00     0.031 A 
ATOM     87  C   UNL A   1      45.970  33.316  30.794  1.00  0.00     0.131 A 
ATOM     88  C   UNL A   1      46.044  35.414  28.995  1.00  0.00     0.055 A 
ATOM     89  C   UNL A   1      46.689  34.470  31.110  1.00  0.00     0.041 A 
ATOM     90  F   UNL A   1      45.992  32.310  31.683  1.00  0.00    -0.206 F 
ATOM     91  C   UNL A   1      46.740  35.522  30.202  1.00  0.00     0.022 A 
BRANCH  88  92
ATOM     92  S   UNL A   1      46.224  36.702  27.729  1.00  0.00     0.124 S 
ATOM     93  O   UNL A   1      46.086  37.923  28.517  1.00  0.00    -0.237 OA
ATOM     94  O   UNL A   1      47.557  36.434  27.198  1.00  0.00    -0.237 OA
ATOM     95  O   UNL A   1      45.124  36.433  26.805  1.00  0.00    -0.744 OA
ENDBRANCH  88  92
ENDBRANCH  62  85
ENDBRANCH  36  37
ENDBRANCH  29  31
ENDBRANCH  28  29
ENDBRANCH  27  28
ENDBRANCH   1  27
TORSDOF 19
ENDMDL
MODEL 2
REMARK VINA RESULT:     -12.1      5.545     10.520
REMARK SMILES NS(=O)(=O)c1ccc(/N=N/c2ccc(O)c(C(=O)OCCOC(=O)c3ccc(-c4c5nc(c(-c6cc(S(=O)(=O)[O-])ccc6F)c6ccc([nH]6)c(-c6cc(S(=O)(=O)[O-])ccc6F)c6nc(c(-c7cc(S(=O)(=O)[O-])ccc7F)c7ccc4[nH]7)C=C6)C=C5)cc3)c2)cc1
REMARK SMILES IDX 20 1 19 2 17 3 18 4 16 5 11 6 12 7 88 8 13 9 14 10 10 11
REMARK SMILES IDX 9 12 8 13 5 14 6 15 90 16 7 17 89 18 2 19 3 20 4 21 1 22
REMARK SMILES IDX 15 25 21 27 22 28 23 29 24 30 25 31 26 32 87 33 27 34 86 35
REMARK SMILES IDX 28 36 29 37 30 38 80 39 31 40 85 41 79 42 81 43 32 44 84 45
REMARK SMILES IDX 78 46 77 47 33 49 65 50 45 51 64 52 46 53 49 54 63 55 82 56
REMARK SMILES IDX 47 57 48 58 62 60 83 61 50 62 34 63 35 64 43 65 36 66 42 67
REMARK SMILES IDX 44 68 41 69 37 70 38 71 39 72 40 73 66 74 67 75 75 76 68 77
REMARK SMILES IDX 74 78 76 79 73 80 69 81 70 82 71 83 72 84 51 85 52 86 60 87
REMARK SMILES IDX 53 88 59 89 61 90 58 91 54 92 55 93 56 94 57 95
REMARK H PARENT 1 23 1 24 15 26 81 48 49 59
REMARK Flexibility Score: inf
ROOT
ATOM      1  C   UNL A   1      31.433  28.520  25.627  1.00  0.00     0.275 C 
ENDROOT
BRANCH   1   2
ATOM      2  O   UNL A   1      30.822  28.043  24.415  1.00  0.00    -0.458 OA
BRANCH   2   3
ATOM      3  C   UNL A   1      30.518  26.723  24.364  1.00  0.00     0.342 C 
ATOM      4  O   UNL A   1      29.693  26.136  25.049  1.00  0.00    -0.246 OA
BRANCH   3   5
ATOM      5  C   UNL A   1      31.257  26.046  23.271  1.00  0.00     0.104 A 
ATOM      6  C   UNL A   1      32.614  24.206  22.454  1.00  0.00     0.087 A 
ATOM      7  C   UNL A   1      32.820  24.892  21.252  1.00  0.00     0.034 A 
ATOM      8  C   UNL A   1      31.872  24.809  23.478  1.00  0.00     0.049 A 
ATOM      9  C   UNL A   1      32.190  26.115  21.030  1.00  0.00     0.049 A 
ATOM     10  C   UNL A   1      31.374  26.664  22.018  1.00  0.00     0.130 A 
BRANCH   6  11
ATOM     11  N   UNL A   1      33.102  22.898  22.623  1.00  0.00    -0.151 NA
ATOM     12  N   UNL A   1      32.234  22.252  23.251  1.00  0.00    -0.151 NA
BRANCH  12  13
ATOM     13  C   UNL A   1      32.631  20.953  23.599  1.00  0.00     0.086 A 
ATOM     14  C   UNL A   1      33.419  18.310  24.074  1.00  0.00     0.082 A 
ATOM     15  C   UNL A   1      32.492  18.580  23.069  1.00  0.00     0.024 A 
ATOM     16  C   UNL A   1      33.946  19.341  24.857  1.00  0.00     0.024 A 
ATOM     17  C   UNL A   1      32.106  19.901  22.835  1.00  0.00     0.031 A 
ATOM     18  C   UNL A   1      33.556  20.660  24.612  1.00  0.00     0.031 A 
BRANCH  14  19
ATOM     19  S   UNL A   1      33.955  16.651  24.353  1.00  0.00     0.238 S 
ATOM     20  O   UNL A   1      32.834  15.843  24.765  1.00  0.00    -0.207 OA
ATOM     21  O   UNL A   1      35.204  16.676  25.079  1.00  0.00    -0.207 OA
BRANCH  19  22
ATOM     22  N   UNL A   1      34.324  16.141  22.796  1.00  0.00    -0.225 NA
ATOM     23  H   UNL A   1      34.563  16.950  22.221  1.00  0.00     0.137 HD
ATOM     24  H   UNL A   1      33.516  15.665  22.395  1.00  0.00     0.137 HD
ENDBRANCH  19  22
ENDBRANCH  14  19
ENDBRANCH  12  13
ENDBRANCH   6  11
BRANCH  10  25
ATOM     25  O   UNL A   1      30.746  27.835  21.694  1.00  0.00    -0.507 OA
ATOM     26  H   UNL A   1      30.160  27.866  20.963  1.00  0.00     0.293 HD
ENDBRANCH  10  25
ENDBRANCH   3   5
ENDBRANCH   2   3
ENDBRANCH   1   2
BRANCH   1  27
ATOM     27  C   UNL A   1      31.619  30.041  25.599  1.00  0.00     0.275 C 
BRANCH  27  28
ATOM     28  O   UNL A   1      32.980  30.410  25.895  1.00  0.00    -0.458 OA
BRANCH  28  29
ATOM     29  C   UNL A   1      33.123  31.366  26.846  1.00  0.00     0.338 C 
ATOM     30  O   UNL A   1      32.279  32.171  27.202  1.00  0.00    -0.246 OA
BRANCH  29  31
ATOM     31  C   UNL A   1      34.397  31.160  27.560  1.00  0.00     0.060 A 
ATOM     32  C   UNL A   1      34.682  29.856  27.967  1.00  0.00     0.016 A 
ATOM     33  C   UNL A   1      35.286  32.194  27.857  1.00  0.00     0.016 A 
ATOM     34  C   UNL A   1      35.877  29.557  28.614  1.00  0.00     0.010 A 
ATOM     35  C   UNL A   1      36.472  31.900  28.548  1.00  0.00     0.010 A 
ATOM     36  C   UNL A   1      36.779  30.578  28.922  1.00  0.00    -0.014 A 
BRANCH  36  37
ATOM     37  C   UNL A   1      37.982  30.255  29.730  1.00  0.00     0.031 A 
ATOM     38  C   UNL A   1      39.026  29.340  29.156  1.00  0.00     0.074 A 
ATOM     39  C   UNL A   1      38.177  30.827  30.933  1.00  0.00     0.049 A 
ATOM     40  N   UNL A   1      40.117  28.875  29.707  1.00  0.00    -0.248 NA
ATOM     41  C   UNL A   1      38.810  28.898  27.772  1.00  0.00     0.031 C 
ATOM     42  C   UNL A   1      37.289  31.809  31.553  1.00  0.00     0.029 A 
ATOM     43  N   UNL A   1      39.190  30.668  31.848  1.00  0.00    -0.354 N 
ATOM     44  C   UNL A   1      40.717  28.076  28.741  1.00  0.00     0.074 A 
ATOM     45  C   UNL A   1      39.850  28.100  27.581  1.00  0.00     0.031 C 
ATOM     46  C   UNL A   1      37.792  32.160  32.750  1.00  0.00     0.029 A 
ATOM     47  C   UNL A   1      39.006  31.386  33.007  1.00  0.00     0.049 A 
ATOM     48  H   UNL A   1      39.974  30.094  31.689  1.00  0.00     0.167 HD
ATOM     49  C   UNL A   1      41.884  27.390  28.816  1.00  0.00     0.034 A 
ATOM     50  C   UNL A   1      39.712  31.390  34.157  1.00  0.00     0.034 A 
ATOM     51  C   UNL A   1      42.731  27.369  29.985  1.00  0.00     0.049 A 
ATOM     52  C   UNL A   1      40.936  30.509  34.266  1.00  0.00     0.074 A 
ATOM     53  C   UNL A   1      43.928  26.697  30.170  1.00  0.00     0.029 A 
ATOM     54  N   UNL A   1      42.467  28.038  31.175  1.00  0.00    -0.354 N 
ATOM     55  N   UNL A   1      41.479  29.730  33.359  1.00  0.00    -0.248 NA
ATOM     56  C   UNL A   1      41.641  30.509  35.555  1.00  0.00     0.031 C 
ATOM     57  C   UNL A   1      44.340  26.888  31.493  1.00  0.00     0.029 A 
ATOM     58  C   UNL A   1      43.455  27.758  32.109  1.00  0.00     0.049 A 
ATOM     59  H   UNL A   1      41.692  28.623  31.332  1.00  0.00     0.167 HD
ATOM     60  C   UNL A   1      42.609  29.175  33.960  1.00  0.00     0.074 A 
ATOM     61  C   UNL A   1      42.675  29.721  35.300  1.00  0.00     0.031 C 
ATOM     62  C   UNL A   1      43.510  28.298  33.448  1.00  0.00     0.034 A 
BRANCH  49  63
ATOM     63  C   UNL A   1      42.269  26.547  27.624  1.00  0.00     0.023 A 
ATOM     64  C   UNL A   1      41.861  25.208  27.495  1.00  0.00     0.031 A 
ATOM     65  C   UNL A   1      43.090  27.084  26.616  1.00  0.00     0.131 A 
ATOM     66  C   UNL A   1      42.335  24.433  26.425  1.00  0.00     0.055 A 
ATOM     67  C   UNL A   1      43.487  26.333  25.508  1.00  0.00     0.041 A 
ATOM     68  F   UNL A   1      43.533  28.349  26.697  1.00  0.00    -0.206 F 
ATOM     69  C   UNL A   1      43.122  24.993  25.416  1.00  0.00     0.022 A 
BRANCH  66  70
ATOM     70  S   UNL A   1      42.041  22.643  26.454  1.00  0.00     0.124 S 
ATOM     71  O   UNL A   1      40.600  22.584  26.689  1.00  0.00    -0.237 OA
ATOM     72  O   UNL A   1      42.490  22.227  25.131  1.00  0.00    -0.237 OA
ATOM     73  O   UNL A   1      42.865  22.178  27.569  1.00  0.00    -0.744 OA
ENDBRANCH  66  70
ENDBRANCH  49  63
BRANCH  50  74
ATOM     74  C   UNL A   1      39.254  32.194  35.330  1.00  0.00     0.023 A 
ATOM     75  C   UNL A   1      39.661  33.526  35.509  1.00  0.00     0.031 A 
ATOM     76  C   UNL A   1      38.462  31.609  36.336  1.00  0.00     0.131 A 
ATOM     77  C   UNL A   1      39.321  34.211  36.687  1.00  0.00     0.055 A 
ATOM     78  C   UNL A   1      38.071  32.316  37.475  1.00  0.00     0.041 A 
ATOM     79  F   UNL A   1      38.054  30.335  36.228  1.00  0.00    -0.206 F 
ATOM     80  C   UNL A   1      38.514  33.621  37.663  1.00  0.00     0.022 A 
BRANCH  77  81
ATOM     81  S   UNL A   1      40.042  35.850  36.981  1.00  0.00     0.124 S 
ATOM     82  O   UNL A   1      39.363  36.255  38.206  1.00  0.00    -0.237 OA
ATOM     83  O   UNL A   1      41.462  35.540  37.106  1.00  0.00    -0.237 OA
ATOM     84  O   UNL A   1      39.674  36.603  35.784  1.00  0.00    -0.744 OA
ENDBRANCH  77  81
ENDBRANCH  50  74
BRANCH  62  85
ATOM     85  C   UNL A   1      44.680  27.914  34.327  1.00  0.00     0.023 A 
ATOM     86  C   UNL A   1      44.703  26.712  35.056  1.00  0.00     0.031 A 
ATOM     87  C   UNL A   1      45.790  28.771  34.438  1.00  0.00     0.131 A 
ATOM     88  C   UNL A   1      45.783  26.428  35.905  1.00  0.00     0.055 A 
ATOM     89  C   UNL A   1      46.894  28.451  35.230  1.00  0.00     0.041 A 
ATOM     90  F   UNL A   1      45.824  29.937  33.772  1.00  0.00    -0.206 F 
ATOM     91  C   UNL A   1      46.888  27.279  35.981  1.00  0.00     0.022 A 
BRANCH  88  92
ATOM     92  S   UNL A   1      45.683  24.979  36.993  1.00  0.00     0.124 S 
ATOM     93  O   UNL A   1      44.720  25.419  37.997  1.00  0.00    -0.237 OA
ATOM     94  O   UNL A   1      45.221  23.936  36.082  1.00  0.00    -0.237 OA
ATOM     95  O   UNL A   1      47.052  24.815  37.476  1.00  0.00    -0.744 OA
ENDBRANCH  88  92
ENDBRANCH  62  85
ENDBRANCH  36  37
ENDBRANCH  29  31
ENDBRANCH  28  29
ENDBRANCH  27  28
ENDBRANCH   1  27
TORSDOF 19
ENDMDL
MODEL 3
REMARK VINA RESULT:     -11.9      1.598      7.743
REMARK SMILES NS(=O)(=O)c1ccc(/N=N/c2ccc(O)c(C(=O)OCCOC(=O)c3ccc(-c4c5nc(c(-c6cc(S(=O)(=O)[O-])ccc6F)c6ccc([nH]6)c(-c6cc(S(=O)(=O)[O-])ccc6F)c6nc(c(-c7cc(S(=O)(=O)[O-])ccc7F)c7ccc4[nH]7)C=C6)C=C5)cc3)c2)cc1
REMARK SMILES IDX 20 1 19 2 17 3 18 4 16 5 11 6 12 7 88 8 13 9 14 10 10 11
REMARK SMILES IDX 9 12 8 13 5 14 6 15 90 16 7 17 89 18 2 19 3 20 4 21 1 22
REMARK SMILES IDX 15 25 21 27 22 28 23 29 24 30 25 31 26 32 87 33 27 34 86 35
REMARK SMILES IDX 28 36 29 37 30 38 80 39 31 40 85 41 79 42 81 43 32 44 84 45
REMARK SMILES IDX 78 46 77 47 33 49 65 50 45 51 64 52 46 53 49 54 63 55 82 56
REMARK SMILES IDX 47 57 48 58 62 60 83 61 50 62 34 63 35 64 43 65 36 66 42 67
REMARK SMILES IDX 44 68 41 69 37 70 38 71 39 72 40 73 66 74 67 75 75 76 68 77
REMARK SMILES IDX 74 78 76 79 73 80 69 81 70 82 71 83 72 84 51 85 52 86 60 87
REMARK SMILES IDX 53 88 59 89 61 90 58 91 54 92 55 93 56 94 57 95
REMARK H PARENT 1 23 1 24 15 26 81 48 49 59
REMARK Flexibility Score: inf
ROOT
ATOM      1  C   UNL A   1      38.159  19.895  24.932  1.00  0.00     0.275 C 
ENDROOT
BRANCH   1   2
ATOM      2  O   UNL A   1      36.991  20.582  25.414  1.00  0.00    -0.458 OA
BRANCH   2   3
ATOM      3  C   UNL A   1      36.434  21.496  24.582  1.00  0.00     0.342 C 
ATOM      4  O   UNL A   1      37.013  22.158  23.732  1.00  0.00    -0.246 OA
BRANCH   3   5
ATOM      5  C   UNL A   1      34.962  21.546  24.750  1.00  0.00     0.104 A 
ATOM      6  C   UNL A   1      32.897  22.802  24.981  1.00  0.00     0.087 A 
ATOM      7  C   UNL A   1      32.211  21.620  25.276  1.00  0.00     0.034 A 
ATOM      8  C   UNL A   1      34.280  22.765  24.766  1.00  0.00     0.049 A 
ATOM      9  C   UNL A   1      32.879  20.397  25.240  1.00  0.00     0.049 A 
ATOM     10  C   UNL A   1      34.238  20.359  24.929  1.00  0.00     0.130 A 
BRANCH   6  11
ATOM     11  N   UNL A   1      32.202  24.017  24.847  1.00  0.00    -0.151 NA
ATOM     12  N   UNL A   1      31.992  24.197  23.627  1.00  0.00    -0.151 NA
BRANCH  12  13
ATOM     13  C   UNL A   1      31.406  25.435  23.326  1.00  0.00     0.086 A 
ATOM     14  C   UNL A   1      30.135  27.896  22.925  1.00  0.00     0.082 A 
ATOM     15  C   UNL A   1      29.458  26.873  23.588  1.00  0.00     0.024 A 
ATOM     16  C   UNL A   1      31.433  27.700  22.444  1.00  0.00     0.024 A 
ATOM     17  C   UNL A   1      30.099  25.650  23.787  1.00  0.00     0.031 A 
ATOM     18  C   UNL A   1      32.067  26.473  22.653  1.00  0.00     0.031 A 
BRANCH  14  19
ATOM     19  S   UNL A   1      29.358  29.466  22.706  1.00  0.00     0.238 S 
ATOM     20  O   UNL A   1      29.681  30.326  23.817  1.00  0.00    -0.207 OA
ATOM     21  O   UNL A   1      28.001  29.260  22.252  1.00  0.00    -0.207 OA
BRANCH  19  22
ATOM     22  N   UNL A   1      30.205  30.091  21.397  1.00  0.00    -0.225 NA
ATOM     23  H   UNL A   1      31.007  29.493  21.195  1.00  0.00     0.137 HD
ATOM     24  H   UNL A   1      30.528  31.032  21.620  1.00  0.00     0.137 HD
ENDBRANCH  19  22
ENDBRANCH  14  19
ENDBRANCH  12  13
ENDBRANCH   6  11
BRANCH  10  25
ATOM     25  O   UNL A   1      34.800  19.114  24.853  1.00  0.00    -0.507 OA
ATOM     26  H   UNL A   1      34.951  18.719  24.017  1.00  0.00     0.293 HD
ENDBRANCH  10  25
ENDBRANCH   3   5
ENDBRANCH   2   3
ENDBRANCH   1   2
BRANCH   1  27
ATOM     27  C   UNL A   1      39.238  19.796  26.015  1.00  0.00     0.275 C 
BRANCH  27  28
ATOM     28  O   UNL A   1      40.519  19.450  25.453  1.00  0.00    -0.458 OA
BRANCH  28  29
ATOM     29  C   UNL A   1      41.562  19.512  26.318  1.00  0.00     0.338 C 
ATOM     30  O   UNL A   1      42.313  18.599  26.620  1.00  0.00    -0.246 OA
BRANCH  29  31
ATOM     31  C   UNL A   1      41.804  20.917  26.695  1.00  0.00     0.060 A 
ATOM     32  C   UNL A   1      41.882  21.839  25.651  1.00  0.00     0.016 A 
ATOM     33  C   UNL A   1      41.978  21.338  28.013  1.00  0.00     0.016 A 
ATOM     34  C   UNL A   1      42.070  23.194  25.909  1.00  0.00     0.010 A 
ATOM     35  C   UNL A   1      42.211  22.698  28.273  1.00  0.00     0.010 A 
ATOM     36  C   UNL A   1      42.249  23.636  27.222  1.00  0.00    -0.014 A 
BRANCH  36  37
ATOM     37  C   UNL A   1      42.582  25.063  27.461  1.00  0.00     0.031 A 
ATOM     38  C   UNL A   1      43.920  25.586  27.023  1.00  0.00     0.074 A 
ATOM     39  C   UNL A   1      41.674  25.901  27.998  1.00  0.00     0.049 A 
ATOM     40  N   UNL A   1      44.442  26.773  27.187  1.00  0.00    -0.248 NA
ATOM     41  C   UNL A   1      44.778  24.642  26.295  1.00  0.00     0.031 C 
ATOM     42  C   UNL A   1      40.308  25.537  28.369  1.00  0.00     0.029 A 
ATOM     43  N   UNL A   1      41.765  27.233  28.320  1.00  0.00    -0.354 N 
ATOM     44  C   UNL A   1      45.697  26.721  26.592  1.00  0.00     0.074 A 
ATOM     45  C   UNL A   1      45.864  25.373  26.089  1.00  0.00     0.031 C 
ATOM     46  C   UNL A   1      39.690  26.618  28.875  1.00  0.00     0.029 A 
ATOM     47  C   UNL A   1      40.632  27.736  28.917  1.00  0.00     0.049 A 
ATOM     48  H   UNL A   1      42.566  27.778  28.139  1.00  0.00     0.167 HD
ATOM     49  C   UNL A   1      46.620  27.707  26.475  1.00  0.00     0.034 A 
ATOM     50  C   UNL A   1      40.395  28.944  29.469  1.00  0.00     0.034 A 
ATOM     51  C   UNL A   1      46.440  29.043  26.993  1.00  0.00     0.049 A 
ATOM     52  C   UNL A   1      41.492  29.985  29.449  1.00  0.00     0.074 A 
ATOM     53  C   UNL A   1      47.318  30.113  26.937  1.00  0.00     0.029 A 
ATOM     54  N   UNL A   1      45.314  29.491  27.673  1.00  0.00    -0.354 N 
ATOM     55  N   UNL A   1      42.689  29.916  28.913  1.00  0.00    -0.248 NA
ATOM     56  C   UNL A   1      41.204  31.265  30.108  1.00  0.00     0.031 C 
ATOM     57  C   UNL A   1      46.761  31.175  27.657  1.00  0.00     0.029 A 
ATOM     58  C   UNL A   1      45.494  30.806  28.080  1.00  0.00     0.049 A 
ATOM     59  H   UNL A   1      44.507  28.954  27.842  1.00  0.00     0.167 HD
ATOM     60  C   UNL A   1      43.281  31.157  29.143  1.00  0.00     0.074 A 
ATOM     61  C   UNL A   1      42.304  31.957  29.852  1.00  0.00     0.031 C 
ATOM     62  C   UNL A   1      44.519  31.595  28.795  1.00  0.00     0.034 A 
BRANCH  49  63
ATOM     63  C   UNL A   1      47.936  27.349  25.826  1.00  0.00     0.023 A 
ATOM     64  C   UNL A   1      48.182  27.584  24.461  1.00  0.00     0.031 A 
ATOM     65  C   UNL A   1      48.949  26.729  26.580  1.00  0.00     0.131 A 
ATOM     66  C   UNL A   1      49.377  27.134  23.880  1.00  0.00     0.055 A 
ATOM     67  C   UNL A   1      50.171  26.363  26.014  1.00  0.00     0.041 A 
ATOM     68  F   UNL A   1      48.762  26.455  27.881  1.00  0.00    -0.206 F 
ATOM     69  C   UNL A   1      50.385  26.550  24.652  1.00  0.00     0.022 A 
BRANCH  66  70
ATOM     70  S   UNL A   1      49.532  27.176  22.073  1.00  0.00     0.124 S 
ATOM     71  O   UNL A   1      49.145  28.554  21.776  1.00  0.00    -0.237 OA
ATOM     72  O   UNL A   1      50.938  26.850  21.867  1.00  0.00    -0.237 OA
ATOM     73  O   UNL A   1      48.582  26.160  21.623  1.00  0.00    -0.744 OA
ENDBRANCH  66  70
ENDBRANCH  49  63
BRANCH  50  74
ATOM     74  C   UNL A   1      39.099  29.227  30.156  1.00  0.00     0.023 A 
ATOM     75  C   UNL A   1      38.125  30.052  29.570  1.00  0.00     0.031 A 
ATOM     76  C   UNL A   1      38.850  28.738  31.452  1.00  0.00     0.131 A 
ATOM     77  C   UNL A   1      36.976  30.405  30.296  1.00  0.00     0.055 A 
ATOM     78  C   UNL A   1      37.676  29.038  32.145  1.00  0.00     0.041 A 
ATOM     79  F   UNL A   1      39.751  27.957  32.070  1.00  0.00    -0.206 F 
ATOM     80  C   UNL A   1      36.737  29.889  31.572  1.00  0.00     0.022 A 
BRANCH  77  81
ATOM     81  S   UNL A   1      35.847  31.640  29.595  1.00  0.00     0.124 S 
ATOM     82  O   UNL A   1      35.258  30.903  28.483  1.00  0.00    -0.237 OA
ATOM     83  O   UNL A   1      34.963  31.919  30.722  1.00  0.00    -0.237 OA
ATOM     84  O   UNL A   1      36.735  32.737  29.216  1.00  0.00    -0.744 OA
ENDBRANCH  77  81
ENDBRANCH  50  74
BRANCH  62  85
ATOM     85  C   UNL A   1      44.867  33.029  29.133  1.00  0.00     0.023 A 
ATOM     86  C   UNL A   1      44.616  34.088  28.243  1.00  0.00     0.031 A 
ATOM     87  C   UNL A   1      45.464  33.337  30.369  1.00  0.00     0.131 A 
ATOM     88  C   UNL A   1      45.013  35.392  28.576  1.00  0.00     0.055 A 
ATOM     89  C   UNL A   1      45.792  34.646  30.724  1.00  0.00     0.041 A 
ATOM     90  F   UNL A   1      45.734  32.367  31.259  1.00  0.00    -0.206 F 
ATOM     91  C   UNL A   1      45.579  35.681  29.820  1.00  0.00     0.022 A 
BRANCH  88  92
ATOM     92  S   UNL A   1      44.873  36.695  27.321  1.00  0.00     0.124 S 
ATOM     93  O   UNL A   1      45.801  36.230  26.295  1.00  0.00    -0.237 OA
ATOM     94  O   UNL A   1      43.457  36.642  26.971  1.00  0.00    -0.237 OA
ATOM     95  O   UNL A   1      45.289  37.903  28.031  1.00  0.00    -0.744 OA
ENDBRANCH  88  92
ENDBRANCH  62  85
ENDBRANCH  36  37
ENDBRANCH  29  31
ENDBRANCH  28  29
ENDBRANCH  27  28
ENDBRANCH   1  27
TORSDOF 19
ENDMDL
