MODEL 1
REMARK VINA RESULT:     -12.4      0.000      0.000
REMARK SMILES Cc1ccc(F)cc1-c1ccc(F)cc1C(=O)OCCOC(=O)c1ccc(-c2c3nc(c(-c4cc(S(=O)(=O)[O-])ccc4F)c4ccc([nH]4)c(-c4cc(S(=O)(=O)[O-])ccc4F)c4nc(c(-c5cc(S(=O)(=O)[O-])ccc5F)c5ccc2[nH]5)C=C4)C=C3)cc1
REMARK SMILES IDX 20 1 19 2 18 3 16 4 17 5 15 6 9 7 10 8 11 9 14 10 12 11
REMARK SMILES IDX 13 12 8 13 1 14 2 15 3 16 4 17 7 18 5 19 6 20 21 21 22 22
REMARK SMILES IDX 23 23 24 24 25 25 86 26 26 27 85 28 27 29 28 30 29 31 79 32
REMARK SMILES IDX 30 33 84 34 78 35 80 36 31 37 83 38 77 39 76 40 32 42 64 43
REMARK SMILES IDX 44 44 63 45 45 46 48 47 62 48 81 49 46 50 47 51 61 53 82 54
REMARK SMILES IDX 49 55 33 56 34 57 42 58 35 59 41 60 43 61 40 62 36 63 37 64
REMARK SMILES IDX 38 65 39 66 65 67 66 68 74 69 67 70 73 71 75 72 72 73 68 74
REMARK SMILES IDX 69 75 70 76 71 77 50 78 51 79 59 80 52 81 58 82 60 83 57 84
REMARK SMILES IDX 53 85 54 86 55 87 56 88
REMARK H PARENT 80 41 48 52
REMARK Flexibility Score: inf
ROOT
ATOM      1  C   UNL A   1      32.114  29.736  25.091  1.00  0.00     0.275 C 
ENDROOT
BRANCH   1   2
ATOM      2  C   UNL A   1      33.216  29.023  24.311  1.00  0.00     0.275 C 
BRANCH   2   3
ATOM      3  O   UNL A   1      33.502  27.733  24.887  1.00  0.00    -0.458 OA
BRANCH   3   4
ATOM      4  C   UNL A   1      33.226  26.651  24.116  1.00  0.00     0.338 C 
ATOM      5  O   UNL A   1      33.587  26.467  22.970  1.00  0.00    -0.246 OA
BRANCH   4   6
ATOM      6  C   UNL A   1      32.438  25.639  24.870  1.00  0.00     0.070 A 
ATOM      7  C   UNL A   1      32.954  24.373  25.228  1.00  0.00    -0.003 A 
ATOM      8  C   UNL A   1      32.134  23.521  25.999  1.00  0.00     0.012 A 
ATOM      9  C   UNL A   1      30.835  23.890  26.358  1.00  0.00     0.040 A 
ATOM     10  C   UNL A   1      31.152  26.023  25.283  1.00  0.00     0.055 A 
ATOM     11  C   UNL A   1      30.356  25.135  25.990  1.00  0.00     0.124 A 
ATOM     12  F   UNL A   1      29.113  25.493  26.331  1.00  0.00    -0.207 F 
BRANCH   7  13
ATOM     13  C   UNL A   1      34.304  23.922  24.836  1.00  0.00    -0.012 A 
ATOM     14  C   UNL A   1      33.457  22.927  22.623  1.00  0.00     0.045 C 
ATOM     15  C   UNL A   1      34.555  23.278  23.598  1.00  0.00    -0.043 A 
ATOM     16  C   UNL A   1      35.871  22.925  23.252  1.00  0.00     0.007 A 
ATOM     17  C   UNL A   1      36.938  23.237  24.093  1.00  0.00     0.039 A 
ATOM     18  C   UNL A   1      35.395  24.197  25.683  1.00  0.00     0.048 A 
ATOM     19  C   UNL A   1      36.690  23.872  25.298  1.00  0.00     0.123 A 
ATOM     20  F   UNL A   1      37.716  24.191  26.099  1.00  0.00    -0.207 F 
ENDBRANCH   7  13
ENDBRANCH   4   6
ENDBRANCH   3   4
ENDBRANCH   2   3
ENDBRANCH   1   2
BRANCH   1  21
ATOM     21  O   UNL A   1      32.449  29.760  26.488  1.00  0.00    -0.458 OA
BRANCH  21  22
ATOM     22  C   UNL A   1      32.902  30.950  26.943  1.00  0.00     0.338 C 
ATOM     23  O   UNL A   1      32.298  32.009  26.994  1.00  0.00    -0.246 OA
BRANCH  22  24
ATOM     24  C   UNL A   1      34.249  30.771  27.497  1.00  0.00     0.060 A 
ATOM     25  C   UNL A   1      34.687  29.471  27.722  1.00  0.00     0.016 A 
ATOM     26  C   UNL A   1      35.005  31.855  27.928  1.00  0.00     0.016 A 
ATOM     27  C   UNL A   1      35.833  29.237  28.473  1.00  0.00     0.010 A 
ATOM     28  C   UNL A   1      36.216  31.618  28.590  1.00  0.00     0.010 A 
ATOM     29  C   UNL A   1      36.628  30.308  28.903  1.00  0.00    -0.014 A 
BRANCH  29  30
ATOM     30  C   UNL A   1      37.862  30.058  29.702  1.00  0.00     0.031 A 
ATOM     31  C   UNL A   1      38.995  29.257  29.112  1.00  0.00     0.074 A 
ATOM     32  C   UNL A   1      37.986  30.566  30.946  1.00  0.00     0.049 A 
ATOM     33  N   UNL A   1      40.051  28.760  29.701  1.00  0.00    -0.248 NA
ATOM     34  C   UNL A   1      38.922  28.966  27.671  1.00  0.00     0.031 C 
ATOM     35  C   UNL A   1      37.002  31.422  31.615  1.00  0.00     0.029 A 
ATOM     36  N   UNL A   1      38.998  30.452  31.868  1.00  0.00    -0.354 N 
ATOM     37  C   UNL A   1      40.742  28.056  28.720  1.00  0.00     0.074 A 
ATOM     38  C   UNL A   1      39.978  28.182  27.497  1.00  0.00     0.031 C 
ATOM     39  C   UNL A   1      37.481  31.797  32.810  1.00  0.00     0.029 A 
ATOM     40  C   UNL A   1      38.750  31.121  33.046  1.00  0.00     0.049 A 
ATOM     41  H   UNL A   1      39.822  29.939  31.703  1.00  0.00     0.167 HD
ATOM     42  C   UNL A   1      41.905  27.369  28.834  1.00  0.00     0.034 A 
ATOM     43  C   UNL A   1      39.434  31.149  34.207  1.00  0.00     0.034 A 
ATOM     44  C   UNL A   1      42.677  27.295  30.049  1.00  0.00     0.049 A 
ATOM     45  C   UNL A   1      40.681  30.319  34.335  1.00  0.00     0.074 A 
ATOM     46  C   UNL A   1      43.866  26.622  30.274  1.00  0.00     0.029 A 
ATOM     47  N   UNL A   1      42.349  27.928  31.241  1.00  0.00    -0.354 N 
ATOM     48  N   UNL A   1      41.258  29.560  33.434  1.00  0.00    -0.248 NA
ATOM     49  C   UNL A   1      41.353  30.326  35.641  1.00  0.00     0.031 C 
ATOM     50  C   UNL A   1      44.225  26.800  31.614  1.00  0.00     0.029 A 
ATOM     51  C   UNL A   1      43.301  27.644  32.207  1.00  0.00     0.049 A 
ATOM     52  H   UNL A   1      41.556  28.495  31.379  1.00  0.00     0.167 HD
ATOM     53  C   UNL A   1      42.371  29.010  34.060  1.00  0.00     0.074 A 
ATOM     54  C   UNL A   1      42.388  29.528  35.414  1.00  0.00     0.031 C 
ATOM     55  C   UNL A   1      43.298  28.158  33.556  1.00  0.00     0.034 A 
BRANCH  42  56
ATOM     56  C   UNL A   1      42.390  26.597  27.632  1.00  0.00     0.023 A 
ATOM     57  C   UNL A   1      42.081  25.241  27.440  1.00  0.00     0.031 A 
ATOM     58  C   UNL A   1      43.156  27.246  26.647  1.00  0.00     0.131 A 
ATOM     59  C   UNL A   1      42.568  24.567  26.308  1.00  0.00     0.055 A 
ATOM     60  C   UNL A   1      43.582  26.589  25.492  1.00  0.00     0.041 A 
ATOM     61  F   UNL A   1      43.496  28.538  26.788  1.00  0.00    -0.206 F 
ATOM     62  C   UNL A   1      43.296  25.239  25.321  1.00  0.00     0.022 A 
BRANCH  59  63
ATOM     63  S   UNL A   1      42.306  22.778  26.175  1.00  0.00     0.124 S 
ATOM     64  O   UNL A   1      42.809  22.506  24.831  1.00  0.00    -0.237 OA
ATOM     65  O   UNL A   1      43.109  22.256  27.276  1.00  0.00    -0.237 OA
ATOM     66  O   UNL A   1      40.861  22.629  26.335  1.00  0.00    -0.744 OA
ENDBRANCH  59  63
ENDBRANCH  42  56
BRANCH  43  67
ATOM     67  C   UNL A   1      38.909  31.939  35.356  1.00  0.00     0.023 A 
ATOM     68  C   UNL A   1      38.296  31.308  36.448  1.00  0.00     0.031 A 
ATOM     69  C   UNL A   1      39.039  33.340  35.388  1.00  0.00     0.131 A 
ATOM     70  C   UNL A   1      37.828  32.077  37.526  1.00  0.00     0.055 A 
ATOM     71  C   UNL A   1      38.615  34.096  36.481  1.00  0.00     0.041 A 
ATOM     72  F   UNL A   1      39.622  33.991  34.368  1.00  0.00    -0.206 F 
ATOM     73  C   UNL A   1      38.001  33.464  37.558  1.00  0.00     0.022 A 
BRANCH  70  74
ATOM     74  S   UNL A   1      36.968  31.243  38.887  1.00  0.00     0.124 S 
ATOM     75  O   UNL A   1      36.830  29.889  38.363  1.00  0.00    -0.237 OA
ATOM     76  O   UNL A   1      37.904  31.413  39.993  1.00  0.00    -0.237 OA
ATOM     77  O   UNL A   1      35.720  31.994  39.011  1.00  0.00    -0.744 OA
ENDBRANCH  70  74
ENDBRANCH  43  67
BRANCH  55  78
ATOM     78  C   UNL A   1      44.434  27.761  34.458  1.00  0.00     0.023 A 
ATOM     79  C   UNL A   1      44.378  26.601  35.248  1.00  0.00     0.031 A 
ATOM     80  C   UNL A   1      45.608  28.536  34.490  1.00  0.00     0.131 A 
ATOM     81  C   UNL A   1      45.470  26.261  36.061  1.00  0.00     0.055 A 
ATOM     82  C   UNL A   1      46.707  28.167  35.266  1.00  0.00     0.041 A 
ATOM     83  F   UNL A   1      45.709  29.652  33.752  1.00  0.00    -0.206 F 
ATOM     84  C   UNL A   1      46.640  27.027  36.060  1.00  0.00     0.022 A 
BRANCH  81  85
ATOM     85  S   UNL A   1      45.332  24.818  37.150  1.00  0.00     0.124 S 
ATOM     86  O   UNL A   1      44.602  23.874  36.309  1.00  0.00    -0.237 OA
ATOM     87  O   UNL A   1      46.727  24.487  37.416  1.00  0.00    -0.237 OA
ATOM     88  O   UNL A   1      44.588  25.326  38.301  1.00  0.00    -0.744 OA
ENDBRANCH  81  85
ENDBRANCH  55  78
ENDBRANCH  29  30
ENDBRANCH  22  24
ENDBRANCH  21  22
ENDBRANCH   1  21
TORSDOF 15
ENDMDL
MODEL 2
REMARK VINA RESULT:     -12.3      5.117     10.129
REMARK SMILES Cc1ccc(F)cc1-c1ccc(F)cc1C(=O)OCCOC(=O)c1ccc(-c2c3nc(c(-c4cc(S(=O)(=O)[O-])ccc4F)c4ccc([nH]4)c(-c4cc(S(=O)(=O)[O-])ccc4F)c4nc(c(-c5cc(S(=O)(=O)[O-])ccc5F)c5ccc2[nH]5)C=C4)C=C3)cc1
REMARK SMILES IDX 20 1 19 2 18 3 16 4 17 5 15 6 9 7 10 8 11 9 14 10 12 11
REMARK SMILES IDX 13 12 8 13 1 14 2 15 3 16 4 17 7 18 5 19 6 20 21 21 22 22
REMARK SMILES IDX 23 23 24 24 25 25 86 26 26 27 85 28 27 29 28 30 29 31 79 32
REMARK SMILES IDX 30 33 84 34 78 35 80 36 31 37 83 38 77 39 76 40 32 42 64 43
REMARK SMILES IDX 44 44 63 45 45 46 48 47 62 48 81 49 46 50 47 51 61 53 82 54
REMARK SMILES IDX 49 55 33 56 34 57 42 58 35 59 41 60 43 61 40 62 36 63 37 64
REMARK SMILES IDX 38 65 39 66 65 67 66 68 74 69 67 70 73 71 75 72 72 73 68 74
REMARK SMILES IDX 69 75 70 76 71 77 50 78 51 79 59 80 52 81 58 82 60 83 57 84
REMARK SMILES IDX 53 85 54 86 55 87 56 88
REMARK H PARENT 80 41 48 52
REMARK Flexibility Score: inf
ROOT
ATOM      1  C   UNL A   1      35.717  21.203  25.742  1.00  0.00     0.275 C 
ENDROOT
BRANCH   1   2
ATOM      2  C   UNL A   1      34.913  22.091  26.687  1.00  0.00     0.275 C 
BRANCH   2   3
ATOM      3  O   UNL A   1      34.708  23.399  26.114  1.00  0.00    -0.458 OA
BRANCH   3   4
ATOM      4  C   UNL A   1      33.420  23.786  25.933  1.00  0.00     0.338 C 
ATOM      5  O   UNL A   1      32.530  23.754  26.762  1.00  0.00    -0.246 OA
BRANCH   4   6
ATOM      6  C   UNL A   1      33.206  24.325  24.563  1.00  0.00     0.070 A 
ATOM      7  C   UNL A   1      32.929  25.688  24.309  1.00  0.00    -0.003 A 
ATOM      8  C   UNL A   1      32.809  26.095  22.962  1.00  0.00     0.012 A 
ATOM      9  C   UNL A   1      32.911  25.179  21.912  1.00  0.00     0.040 A 
ATOM     10  C   UNL A   1      33.362  23.423  23.500  1.00  0.00     0.055 A 
ATOM     11  C   UNL A   1      33.180  23.850  22.193  1.00  0.00     0.124 A 
ATOM     12  F   UNL A   1      33.278  22.969  21.192  1.00  0.00    -0.207 F 
BRANCH   7  13
ATOM     13  C   UNL A   1      32.771  26.684  25.386  1.00  0.00    -0.012 A 
ATOM     14  C   UNL A   1      30.262  26.188  25.638  1.00  0.00     0.045 C 
ATOM     15  C   UNL A   1      31.532  26.897  26.042  1.00  0.00    -0.043 A 
ATOM     16  C   UNL A   1      31.456  27.818  27.102  1.00  0.00     0.007 A 
ATOM     17  C   UNL A   1      32.592  28.494  27.543  1.00  0.00     0.039 A 
ATOM     18  C   UNL A   1      33.897  27.404  25.829  1.00  0.00     0.048 A 
ATOM     19  C   UNL A   1      33.801  28.278  26.904  1.00  0.00     0.123 A 
ATOM     20  F   UNL A   1      34.899  28.912  27.341  1.00  0.00    -0.207 F 
ENDBRANCH   7  13
ENDBRANCH   4   6
ENDBRANCH   3   4
ENDBRANCH   2   3
ENDBRANCH   1   2
BRANCH   1  21
ATOM     21  O   UNL A   1      36.837  21.939  25.223  1.00  0.00    -0.458 OA
BRANCH  21  22
ATOM     22  C   UNL A   1      38.047  21.493  25.630  1.00  0.00     0.338 C 
ATOM     23  O   UNL A   1      38.545  20.398  25.429  1.00  0.00    -0.246 OA
BRANCH  22  24
ATOM     24  C   UNL A   1      38.767  22.590  26.286  1.00  0.00     0.060 A 
ATOM     25  C   UNL A   1      38.260  23.876  26.138  1.00  0.00     0.016 A 
ATOM     26  C   UNL A   1      39.995  22.383  26.905  1.00  0.00     0.016 A 
ATOM     27  C   UNL A   1      39.021  24.978  26.510  1.00  0.00     0.010 A 
ATOM     28  C   UNL A   1      40.712  23.489  27.379  1.00  0.00     0.010 A 
ATOM     29  C   UNL A   1      40.252  24.802  27.155  1.00  0.00    -0.014 A 
BRANCH  29  30
ATOM     30  C   UNL A   1      41.065  25.984  27.562  1.00  0.00     0.031 A 
ATOM     31  C   UNL A   1      40.472  27.034  28.467  1.00  0.00     0.074 A 
ATOM     32  C   UNL A   1      42.344  26.109  27.147  1.00  0.00     0.049 A 
ATOM     33  N   UNL A   1      40.932  28.220  28.768  1.00  0.00    -0.248 NA
ATOM     34  C   UNL A   1      39.186  26.711  29.105  1.00  0.00     0.031 C 
ATOM     35  C   UNL A   1      43.072  25.134  26.331  1.00  0.00     0.029 A 
ATOM     36  N   UNL A   1      43.266  27.103  27.365  1.00  0.00    -0.354 N 
ATOM     37  C   UNL A   1      39.972  28.806  29.588  1.00  0.00     0.074 A 
ATOM     38  C   UNL A   1      38.898  27.846  29.727  1.00  0.00     0.031 C 
ATOM     39  C   UNL A   1      44.335  25.549  26.166  1.00  0.00     0.029 A 
ATOM     40  C   UNL A   1      44.482  26.871  26.761  1.00  0.00     0.049 A 
ATOM     41  H   UNL A   1      43.077  27.907  27.902  1.00  0.00     0.167 HD
ATOM     42  C   UNL A   1      39.990  30.032  30.167  1.00  0.00     0.034 A 
ATOM     43  C   UNL A   1      45.577  27.649  26.649  1.00  0.00     0.034 A 
ATOM     44  C   UNL A   1      41.091  30.956  30.055  1.00  0.00     0.049 A 
ATOM     45  C   UNL A   1      45.546  29.034  27.234  1.00  0.00     0.074 A 
ATOM     46  C   UNL A   1      41.208  32.224  30.597  1.00  0.00     0.029 A 
ATOM     47  N   UNL A   1      42.273  30.707  29.370  1.00  0.00    -0.354 N 
ATOM     48  N   UNL A   1      44.581  29.621  27.903  1.00  0.00    -0.248 NA
ATOM     49  C   UNL A   1      46.734  29.871  27.024  1.00  0.00     0.031 C 
ATOM     50  C   UNL A   1      42.433  32.763  30.193  1.00  0.00     0.029 A 
ATOM     51  C   UNL A   1      43.114  31.805  29.459  1.00  0.00     0.049 A 
ATOM     52  H   UNL A   1      42.483  29.873  28.891  1.00  0.00     0.167 HD
ATOM     53  C   UNL A   1      45.054  30.892  28.210  1.00  0.00     0.074 A 
ATOM     54  C   UNL A   1      46.391  30.986  27.656  1.00  0.00     0.031 C 
ATOM     55  C   UNL A   1      44.438  31.889  28.892  1.00  0.00     0.034 A 
BRANCH  42  56
ATOM     56  C   UNL A   1      38.763  30.471  30.928  1.00  0.00     0.023 A 
ATOM     57  C   UNL A   1      37.691  31.127  30.303  1.00  0.00     0.031 A 
ATOM     58  C   UNL A   1      38.660  30.199  32.304  1.00  0.00     0.131 A 
ATOM     59  C   UNL A   1      36.578  31.525  31.062  1.00  0.00     0.055 A 
ATOM     60  C   UNL A   1      37.524  30.538  33.040  1.00  0.00     0.041 A 
ATOM     61  F   UNL A   1      39.664  29.590  32.956  1.00  0.00    -0.206 F 
ATOM     62  C   UNL A   1      36.477  31.212  32.421  1.00  0.00     0.022 A 
BRANCH  59  63
ATOM     63  S   UNL A   1      35.291  32.527  30.269  1.00  0.00     0.124 S 
ATOM     64  O   UNL A   1      36.029  33.743  29.936  1.00  0.00    -0.237 OA
ATOM     65  O   UNL A   1      34.889  31.694  29.140  1.00  0.00    -0.237 OA
ATOM     66  O   UNL A   1      34.284  32.684  31.316  1.00  0.00    -0.744 OA
ENDBRANCH  59  63
ENDBRANCH  42  56
BRANCH  43  67
ATOM     67  C   UNL A   1      46.762  27.155  25.893  1.00  0.00     0.023 A 
ATOM     68  C   UNL A   1      47.021  27.594  24.587  1.00  0.00     0.031 A 
ATOM     69  C   UNL A   1      47.669  26.254  26.481  1.00  0.00     0.131 A 
ATOM     70  C   UNL A   1      48.157  27.126  23.905  1.00  0.00     0.055 A 
ATOM     71  C   UNL A   1      48.820  25.828  25.818  1.00  0.00     0.041 A 
ATOM     72  F   UNL A   1      47.467  25.807  27.731  1.00  0.00    -0.206 F 
ATOM     73  C   UNL A   1      49.067  26.261  24.520  1.00  0.00     0.022 A 
BRANCH  70  74
ATOM     74  S   UNL A   1      48.423  27.647  22.189  1.00  0.00     0.124 S 
ATOM     75  O   UNL A   1      49.638  28.445  22.307  1.00  0.00    -0.237 OA
ATOM     76  O   UNL A   1      48.556  26.370  21.497  1.00  0.00    -0.237 OA
ATOM     77  O   UNL A   1      47.211  28.400  21.872  1.00  0.00    -0.744 OA
ENDBRANCH  70  74
ENDBRANCH  43  67
BRANCH  55  78
ATOM     78  C   UNL A   1      45.217  33.156  29.117  1.00  0.00     0.023 A 
ATOM     79  C   UNL A   1      45.114  34.249  28.243  1.00  0.00     0.031 A 
ATOM     80  C   UNL A   1      46.039  33.282  30.252  1.00  0.00     0.131 A 
ATOM     81  C   UNL A   1      45.845  35.418  28.502  1.00  0.00     0.055 A 
ATOM     82  C   UNL A   1      46.728  34.463  30.528  1.00  0.00     0.041 A 
ATOM     83  F   UNL A   1      46.168  32.264  31.117  1.00  0.00    -0.206 F 
ATOM     84  C   UNL A   1      46.637  35.537  29.649  1.00  0.00     0.022 A 
BRANCH  81  85
ATOM     85  S   UNL A   1      45.777  36.776  27.303  1.00  0.00     0.124 S 
ATOM     86  O   UNL A   1      46.354  37.880  28.063  1.00  0.00    -0.237 OA
ATOM     87  O   UNL A   1      46.590  36.268  26.202  1.00  0.00    -0.237 OA
ATOM     88  O   UNL A   1      44.351  36.904  27.009  1.00  0.00    -0.744 OA
ENDBRANCH  81  85
ENDBRANCH  55  78
ENDBRANCH  29  30
ENDBRANCH  22  24
ENDBRANCH  21  22
ENDBRANCH   1  21
TORSDOF 15
ENDMDL
MODEL 3
REMARK VINA RESULT:     -12.2      5.413     10.187
REMARK SMILES Cc1ccc(F)cc1-c1ccc(F)cc1C(=O)OCCOC(=O)c1ccc(-c2c3nc(c(-c4cc(S(=O)(=O)[O-])ccc4F)c4ccc([nH]4)c(-c4cc(S(=O)(=O)[O-])ccc4F)c4nc(c(-c5cc(S(=O)(=O)[O-])ccc5F)c5ccc2[nH]5)C=C4)C=C3)cc1
REMARK SMILES IDX 20 1 19 2 18 3 16 4 17 5 15 6 9 7 10 8 11 9 14 10 12 11
REMARK SMILES IDX 13 12 8 13 1 14 2 15 3 16 4 17 7 18 5 19 6 20 21 21 22 22
REMARK SMILES IDX 23 23 24 24 25 25 86 26 26 27 85 28 27 29 28 30 29 31 79 32
REMARK SMILES IDX 30 33 84 34 78 35 80 36 31 37 83 38 77 39 76 40 32 42 64 43
REMARK SMILES IDX 44 44 63 45 45 46 48 47 62 48 81 49 46 50 47 51 61 53 82 54
REMARK SMILES IDX 49 55 33 56 34 57 42 58 35 59 41 60 43 61 40 62 36 63 37 64
REMARK SMILES IDX 38 65 39 66 65 67 66 68 74 69 67 70 73 71 75 72 72 73 68 74
REMARK SMILES IDX 69 75 70 76 71 77 50 78 51 79 59 80 52 81 58 82 60 83 57 84
REMARK SMILES IDX 53 85 54 86 55 87 56 88
REMARK H PARENT 80 41 48 52
REMARK Flexibility Score: inf
ROOT
ATOM      1  C   UNL A   1      37.449  20.655  24.738  1.00  0.00     0.275 C 
ENDROOT
BRANCH   1   2
ATOM      2  C   UNL A   1      35.975  20.374  25.018  1.00  0.00     0.275 C 
BRANCH   2   3
ATOM      3  O   UNL A   1      35.320  21.543  25.550  1.00  0.00    -0.458 OA
BRANCH   3   4
ATOM      4  C   UNL A   1      34.605  22.290  24.670  1.00  0.00     0.338 C 
ATOM      5  O   UNL A   1      34.965  22.649  23.566  1.00  0.00    -0.246 OA
BRANCH   4   6
ATOM      6  C   UNL A   1      33.251  22.600  25.202  1.00  0.00     0.070 A 
ATOM      7  C   UNL A   1      32.195  21.660  25.211  1.00  0.00    -0.003 A 
ATOM      8  C   UNL A   1      30.972  22.049  25.801  1.00  0.00     0.012 A 
ATOM      9  C   UNL A   1      30.789  23.334  26.316  1.00  0.00     0.040 A 
ATOM     10  C   UNL A   1      33.074  23.870  25.773  1.00  0.00     0.055 A 
ATOM     11  C   UNL A   1      31.840  24.234  26.290  1.00  0.00     0.124 A 
ATOM     12  F   UNL A   1      31.670  25.466  26.782  1.00  0.00    -0.207 F 
BRANCH   7  13
ATOM     13  C   UNL A   1      32.329  20.305  24.641  1.00  0.00    -0.012 A 
ATOM     14  C   UNL A   1      31.928  21.145  22.247  1.00  0.00     0.045 C 
ATOM     15  C   UNL A   1      32.244  20.061  23.247  1.00  0.00    -0.043 A 
ATOM     16  C   UNL A   1      32.438  18.757  22.757  1.00  0.00     0.007 A 
ATOM     17  C   UNL A   1      32.754  17.709  23.620  1.00  0.00     0.039 A 
ATOM     18  C   UNL A   1      32.616  19.224  25.497  1.00  0.00     0.048 A 
ATOM     19  C   UNL A   1      32.843  17.954  24.981  1.00  0.00     0.123 A 
ATOM     20  F   UNL A   1      33.167  16.952  25.810  1.00  0.00    -0.207 F 
ENDBRANCH   7  13
ENDBRANCH   4   6
ENDBRANCH   3   4
ENDBRANCH   2   3
ENDBRANCH   1   2
BRANCH   1  21
ATOM     21  O   UNL A   1      37.940  21.630  25.672  1.00  0.00    -0.458 OA
BRANCH  21  22
ATOM     22  C   UNL A   1      39.177  21.379  26.157  1.00  0.00     0.338 C 
ATOM     23  O   UNL A   1      39.824  20.349  26.056  1.00  0.00    -0.246 OA
BRANCH  22  24
ATOM     24  C   UNL A   1      39.714  22.603  26.760  1.00  0.00     0.060 A 
ATOM     25  C   UNL A   1      39.263  23.821  26.263  1.00  0.00     0.016 A 
ATOM     26  C   UNL A   1      40.749  22.560  27.689  1.00  0.00     0.016 A 
ATOM     27  C   UNL A   1      39.911  25.001  26.605  1.00  0.00     0.010 A 
ATOM     28  C   UNL A   1      41.328  23.761  28.116  1.00  0.00     0.010 A 
ATOM     29  C   UNL A   1      40.942  24.994  27.553  1.00  0.00    -0.014 A 
BRANCH  29  30
ATOM     30  C   UNL A   1      41.632  26.262  27.927  1.00  0.00     0.031 A 
ATOM     31  C   UNL A   1      40.917  27.294  28.762  1.00  0.00     0.074 A 
ATOM     32  C   UNL A   1      42.908  26.485  27.544  1.00  0.00     0.049 A 
ATOM     33  N   UNL A   1      41.258  28.529  29.020  1.00  0.00    -0.248 NA
ATOM     34  C   UNL A   1      39.644  26.884  29.377  1.00  0.00     0.031 C 
ATOM     35  C   UNL A   1      43.747  25.544  26.798  1.00  0.00     0.029 A 
ATOM     36  N   UNL A   1      43.729  27.568  27.742  1.00  0.00    -0.354 N 
ATOM     37  C   UNL A   1      40.222  29.062  29.782  1.00  0.00     0.074 A 
ATOM     38  C   UNL A   1      39.235  28.015  29.935  1.00  0.00     0.031 C 
ATOM     39  C   UNL A   1      44.973  26.065  26.650  1.00  0.00     0.029 A 
ATOM     40  C   UNL A   1      44.981  27.420  27.186  1.00  0.00     0.049 A 
ATOM     41  H   UNL A   1      43.450  28.374  28.233  1.00  0.00     0.167 HD
ATOM     42  C   UNL A   1      40.110  30.308  30.302  1.00  0.00     0.034 A 
ATOM     43  C   UNL A   1      46.004  28.289  27.069  1.00  0.00     0.034 A 
ATOM     44  C   UNL A   1      41.128  31.323  30.179  1.00  0.00     0.049 A 
ATOM     45  C   UNL A   1      45.829  29.690  27.586  1.00  0.00     0.074 A 
ATOM     46  C   UNL A   1      41.112  32.620  30.662  1.00  0.00     0.029 A 
ATOM     47  N   UNL A   1      42.349  31.152  29.542  1.00  0.00    -0.354 N 
ATOM     48  N   UNL A   1      44.794  30.217  28.197  1.00  0.00    -0.248 NA
ATOM     49  C   UNL A   1      46.944  30.622  27.372  1.00  0.00     0.031 C 
ATOM     50  C   UNL A   1      42.297  33.250  30.269  1.00  0.00     0.029 A 
ATOM     51  C   UNL A   1      43.085  32.326  29.603  1.00  0.00     0.049 A 
ATOM     52  H   UNL A   1      42.649  30.320  29.109  1.00  0.00     0.167 HD
ATOM     53  C   UNL A   1      45.141  31.538  28.456  1.00  0.00     0.074 A 
ATOM     54  C   UNL A   1      46.481  31.728  27.938  1.00  0.00     0.031 C 
ATOM     55  C   UNL A   1      44.415  32.504  29.072  1.00  0.00     0.034 A 
BRANCH  42  56
ATOM     56  C   UNL A   1      38.824  30.667  31.004  1.00  0.00     0.023 A 
ATOM     57  C   UNL A   1      37.746  31.265  30.331  1.00  0.00     0.031 A 
ATOM     58  C   UNL A   1      38.671  30.378  32.372  1.00  0.00     0.131 A 
ATOM     59  C   UNL A   1      36.576  31.589  31.037  1.00  0.00     0.055 A 
ATOM     60  C   UNL A   1      37.482  30.643  33.054  1.00  0.00     0.041 A 
ATOM     61  F   UNL A   1      39.676  29.824  33.069  1.00  0.00    -0.206 F 
ATOM     62  C   UNL A   1      36.428  31.260  32.388  1.00  0.00     0.022 A 
BRANCH  59  63
ATOM     63  S   UNL A   1      35.272  32.520  30.187  1.00  0.00     0.124 S 
ATOM     64  O   UNL A   1      35.986  33.731  29.791  1.00  0.00    -0.237 OA
ATOM     65  O   UNL A   1      34.891  31.619  29.105  1.00  0.00    -0.237 OA
ATOM     66  O   UNL A   1      34.258  32.713  31.222  1.00  0.00    -0.744 OA
ENDBRANCH  59  63
ENDBRANCH  42  56
BRANCH  43  67
ATOM     67  C   UNL A   1      47.254  27.872  26.373  1.00  0.00     0.023 A 
ATOM     68  C   UNL A   1      47.359  27.936  24.976  1.00  0.00     0.031 A 
ATOM     69  C   UNL A   1      48.372  27.427  27.102  1.00  0.00     0.131 A 
ATOM     70  C   UNL A   1      48.557  27.554  24.349  1.00  0.00     0.055 A 
ATOM     71  C   UNL A   1      49.574  27.093  26.479  1.00  0.00     0.041 A 
ATOM     72  F   UNL A   1      48.321  27.351  28.442  1.00  0.00    -0.206 F 
ATOM     73  C   UNL A   1      49.670  27.152  25.093  1.00  0.00     0.022 A 
BRANCH  70  74
ATOM     74  S   UNL A   1      48.639  27.570  22.537  1.00  0.00     0.124 S 
ATOM     75  O   UNL A   1      47.415  28.284  22.193  1.00  0.00    -0.237 OA
ATOM     76  O   UNL A   1      49.889  28.281  22.292  1.00  0.00    -0.237 OA
ATOM     77  O   UNL A   1      48.654  26.152  22.186  1.00  0.00    -0.744 OA
ENDBRANCH  70  74
ENDBRANCH  43  67
BRANCH  55  78
ATOM     78  C   UNL A   1      45.068  33.846  29.259  1.00  0.00     0.023 A 
ATOM     79  C   UNL A   1      44.918  34.877  28.318  1.00  0.00     0.031 A 
ATOM     80  C   UNL A   1      45.816  34.106  30.422  1.00  0.00     0.131 A 
ATOM     81  C   UNL A   1      45.531  36.118  28.543  1.00  0.00     0.055 A 
ATOM     82  C   UNL A   1      46.385  35.356  30.661  1.00  0.00     0.041 A 
ATOM     83  F   UNL A   1      45.987  33.152  31.351  1.00  0.00    -0.206 F 
ATOM     84  C   UNL A   1      46.248  36.369  29.717  1.00  0.00     0.022 A 
BRANCH  81  85
ATOM     85  S   UNL A   1      45.410  37.397  27.264  1.00  0.00     0.124 S 
ATOM     86  O   UNL A   1      43.986  37.372  26.945  1.00  0.00    -0.237 OA
ATOM     87  O   UNL A   1      45.885  38.588  27.960  1.00  0.00    -0.237 OA
ATOM     88  O   UNL A   1      46.291  36.909  26.204  1.00  0.00    -0.744 OA
ENDBRANCH  81  85
ENDBRANCH  55  78
ENDBRANCH  29  30
ENDBRANCH  22  24
ENDBRANCH  21  22
ENDBRANCH   1  21
TORSDOF 15
ENDMDL
