MODEL 1
REMARK VINA RESULT:     -10.9      0.000      0.000
REMARK SMILES C[C@@H]1CN(S(=O)(=O)[C@@H](C)C(=O)OCCOC(=O)c2ccc(-c3c4nc(c(-c5cc(S(=O)(=O)[O-])ccc5F)c5ccc([nH]5)c(-c5cc(S(=O)(=O)[O-])ccc5F)c5nc(c(-c6cc(S(=O)(=O)[O-])ccc6F)c6ccc3[nH]6)C=C5)C=C4)cc2)CC[C@@H]1[NH3+]
REMARK SMILES IDX 13 1 12 2 10 3 11 4 8 5 9 6 5 7 6 8 7 9 4 10 1 11 2 12 3 13
REMARK SMILES IDX 83 14 82 15 81 16 84 17 14 21 15 22 16 23 17 24 18 25 19 26
REMARK SMILES IDX 80 27 20 28 79 29 21 30 22 31 23 32 73 33 24 34 78 35 72 36
REMARK SMILES IDX 74 37 25 38 77 39 71 40 70 41 26 43 58 44 38 45 57 46 39 47
REMARK SMILES IDX 42 48 56 49 75 50 40 51 41 52 55 54 76 55 43 56 27 57 28 58
REMARK SMILES IDX 36 59 29 60 35 61 37 62 34 63 30 64 31 65 32 66 33 67 59 68
REMARK SMILES IDX 60 69 68 70 61 71 67 72 69 73 66 74 62 75 63 76 64 77 65 78
REMARK SMILES IDX 44 79 45 80 53 81 46 82 52 83 54 84 51 85 47 86 48 87 49 88
REMARK SMILES IDX 50 89
REMARK H PARENT 84 18 84 19 84 20 74 42 42 53
REMARK Flexibility Score: inf
ROOT
ATOM      1  C   UNL A   1      35.788  22.164  25.699  1.00  0.00     0.274 C 
ENDROOT
BRANCH   1   2
ATOM      2  O   UNL A   1      34.569  22.159  24.919  1.00  0.00    -0.461 OA
BRANCH   2   3
ATOM      3  C   UNL A   1      33.415  21.895  25.574  1.00  0.00     0.325 C 
ATOM      4  O   UNL A   1      32.655  20.987  25.245  1.00  0.00    -0.251 OA
BRANCH   3   5
ATOM      5  C   UNL A   1      33.038  22.908  26.606  1.00  0.00     0.230 C 
ATOM      6  C   UNL A   1      33.014  22.320  28.002  1.00  0.00     0.039 C 
BRANCH   5   7
ATOM      7  S   UNL A   1      31.655  23.962  26.224  1.00  0.00     0.227 S 
ATOM      8  O   UNL A   1      30.648  23.840  27.251  1.00  0.00    -0.211 OA
ATOM      9  O   UNL A   1      31.309  23.641  24.850  1.00  0.00    -0.211 OA
BRANCH   7  10
ATOM     10  N   UNL A   1      32.180  25.587  26.209  1.00  0.00    -0.200 NA
ATOM     11  C   UNL A   1      31.641  28.120  27.608  1.00  0.00     0.015 C 
ATOM     12  C   UNL A   1      31.628  27.978  26.077  1.00  0.00     0.059 C 
ATOM     13  C   UNL A   1      31.214  26.569  25.636  1.00  0.00     0.111 C 
ATOM     14  C   UNL A   1      32.988  28.282  25.418  1.00  0.00     0.186 C 
ATOM     15  C   UNL A   1      34.029  27.198  25.737  1.00  0.00     0.082 C 
ATOM     16  C   UNL A   1      33.495  25.778  25.503  1.00  0.00     0.108 C 
BRANCH  14  17
ATOM     17  N   UNL A   1      33.490  29.608  25.796  1.00  0.00    -0.355 N 
ATOM     18  H   UNL A   1      32.887  30.327  25.396  1.00  0.00     0.344 HD
ATOM     19  H   UNL A   1      34.440  29.726  25.441  1.00  0.00     0.344 HD
ATOM     20  H   UNL A   1      33.493  29.694  26.812  1.00  0.00     0.344 HD
ENDBRANCH  14  17
ENDBRANCH   7  10
ENDBRANCH   5   7
ENDBRANCH   3   5
ENDBRANCH   2   3
ENDBRANCH   1   2
BRANCH   1  21
ATOM     21  C   UNL A   1      36.723  21.001  25.348  1.00  0.00     0.275 C 
BRANCH  21  22
ATOM     22  O   UNL A   1      38.041  21.489  25.053  1.00  0.00    -0.458 OA
BRANCH  22  23
ATOM     23  C   UNL A   1      38.993  21.228  25.982  1.00  0.00     0.338 C 
ATOM     24  O   UNL A   1      39.406  20.130  26.307  1.00  0.00    -0.246 OA
BRANCH  23  25
ATOM     25  C   UNL A   1      39.487  22.513  26.511  1.00  0.00     0.060 A 
ATOM     26  C   UNL A   1      38.957  23.708  26.020  1.00  0.00     0.016 A 
ATOM     27  C   UNL A   1      40.503  22.535  27.467  1.00  0.00     0.016 A 
ATOM     28  C   UNL A   1      39.439  24.933  26.474  1.00  0.00     0.010 A 
ATOM     29  C   UNL A   1      40.987  23.766  27.927  1.00  0.00     0.010 A 
ATOM     30  C   UNL A   1      40.467  24.972  27.422  1.00  0.00    -0.014 A 
BRANCH  30  31
ATOM     31  C   UNL A   1      41.064  26.277  27.798  1.00  0.00     0.031 A 
ATOM     32  C   UNL A   1      42.501  26.550  27.448  1.00  0.00     0.074 A 
ATOM     33  C   UNL A   1      40.320  27.219  28.405  1.00  0.00     0.049 A 
ATOM     34  N   UNL A   1      43.242  27.588  27.733  1.00  0.00    -0.248 NA
ATOM     35  C   UNL A   1      43.190  25.507  26.674  1.00  0.00     0.031 C 
ATOM     36  C   UNL A   1      38.903  27.083  28.747  1.00  0.00     0.029 A 
ATOM     37  N   UNL A   1      40.650  28.476  28.845  1.00  0.00    -0.354 N 
ATOM     38  C   UNL A   1      44.489  27.327  27.175  1.00  0.00     0.074 A 
ATOM     39  C   UNL A   1      44.410  26.012  26.572  1.00  0.00     0.031 C 
ATOM     40  C   UNL A   1      38.489  28.209  29.352  1.00  0.00     0.029 A 
ATOM     41  C   UNL A   1      39.617  29.130  29.475  1.00  0.00     0.049 A 
ATOM     42  H   UNL A   1      41.543  28.873  28.720  1.00  0.00     0.167 HD
ATOM     43  C   UNL A   1      45.594  28.115  27.160  1.00  0.00     0.034 A 
ATOM     44  C   UNL A   1      39.593  30.324  30.102  1.00  0.00     0.034 A 
ATOM     45  C   UNL A   1      45.658  29.415  27.784  1.00  0.00     0.049 A 
ATOM     46  C   UNL A   1      40.851  31.160  30.122  1.00  0.00     0.074 A 
ATOM     47  C   UNL A   1      46.738  30.276  27.882  1.00  0.00     0.029 A 
ATOM     48  N   UNL A   1      44.593  30.046  28.418  1.00  0.00    -0.354 N 
ATOM     49  N   UNL A   1      42.036  30.883  29.626  1.00  0.00    -0.248 NA
ATOM     50  C   UNL A   1      40.760  32.475  30.767  1.00  0.00     0.031 C 
ATOM     51  C   UNL A   1      46.340  31.401  28.614  1.00  0.00     0.029 A 
ATOM     52  C   UNL A   1      44.992  31.279  28.912  1.00  0.00     0.049 A 
ATOM     53  H   UNL A   1      43.688  29.671  28.502  1.00  0.00     0.167 HD
ATOM     54  C   UNL A   1      42.823  32.007  29.875  1.00  0.00     0.074 A 
ATOM     55  C   UNL A   1      41.970  32.968  30.543  1.00  0.00     0.031 C 
ATOM     56  C   UNL A   1      44.129  32.225  29.578  1.00  0.00     0.034 A 
BRANCH  43  57
ATOM     57  C   UNL A   1      46.826  27.555  26.491  1.00  0.00     0.023 A 
ATOM     58  C   UNL A   1      47.150  27.868  25.159  1.00  0.00     0.031 A 
ATOM     59  C   UNL A   1      47.665  26.661  27.179  1.00  0.00     0.131 A 
ATOM     60  C   UNL A   1      48.239  27.239  24.537  1.00  0.00     0.055 A 
ATOM     61  C   UNL A   1      48.793  26.098  26.578  1.00  0.00     0.041 A 
ATOM     62  F   UNL A   1      47.393  26.305  28.445  1.00  0.00    -0.206 F 
ATOM     63  C   UNL A   1      49.077  26.375  25.245  1.00  0.00     0.022 A 
BRANCH  60  64
ATOM     64  S   UNL A   1      48.471  27.462  22.750  1.00  0.00     0.124 S 
ATOM     65  O   UNL A   1      47.266  28.204  22.388  1.00  0.00    -0.237 OA
ATOM     66  O   UNL A   1      49.724  28.202  22.682  1.00  0.00    -0.237 OA
ATOM     67  O   UNL A   1      48.527  26.093  22.240  1.00  0.00    -0.744 OA
ENDBRANCH  60  64
ENDBRANCH  43  57
BRANCH  44  68
ATOM     68  C   UNL A   1      38.360  30.789  30.801  1.00  0.00     0.023 A 
ATOM     69  C   UNL A   1      37.323  31.435  30.109  1.00  0.00     0.031 A 
ATOM     70  C   UNL A   1      38.234  30.653  32.196  1.00  0.00     0.131 A 
ATOM     71  C   UNL A   1      36.233  31.968  30.817  1.00  0.00     0.055 A 
ATOM     72  C   UNL A   1      37.123  31.134  32.889  1.00  0.00     0.041 A 
ATOM     73  F   UNL A   1      39.196  30.046  32.909  1.00  0.00    -0.206 F 
ATOM     74  C   UNL A   1      36.120  31.811  32.200  1.00  0.00     0.022 A 
BRANCH  71  75
ATOM     75  S   UNL A   1      35.013  32.964  29.917  1.00  0.00     0.124 S 
ATOM     76  O   UNL A   1      34.421  31.975  29.023  1.00  0.00    -0.237 OA
ATOM     77  O   UNL A   1      34.159  33.445  30.998  1.00  0.00    -0.237 OA
ATOM     78  O   UNL A   1      35.824  33.990  29.265  1.00  0.00    -0.744 OA
ENDBRANCH  71  75
ENDBRANCH  44  68
BRANCH  56  79
ATOM     79  C   UNL A   1      44.688  33.585  29.926  1.00  0.00     0.023 A 
ATOM     80  C   UNL A   1      44.626  34.666  29.028  1.00  0.00     0.031 A 
ATOM     81  C   UNL A   1      45.327  33.788  31.162  1.00  0.00     0.131 A 
ATOM     82  C   UNL A   1      45.256  35.878  29.350  1.00  0.00     0.055 A 
ATOM     83  C   UNL A   1      45.897  35.015  31.502  1.00  0.00     0.041 A 
ATOM     84  F   UNL A   1      45.415  32.792  32.057  1.00  0.00    -0.206 F 
ATOM     85  C   UNL A   1      45.880  36.064  30.587  1.00  0.00     0.022 A 
BRANCH  82  86
ATOM     86  S   UNL A   1      45.353  37.175  28.083  1.00  0.00     0.124 S 
ATOM     87  O   UNL A   1      45.337  36.396  26.849  1.00  0.00    -0.237 OA
ATOM     88  O   UNL A   1      44.154  37.963  28.355  1.00  0.00    -0.237 OA
ATOM     89  O   UNL A   1      46.616  37.848  28.377  1.00  0.00    -0.744 OA
ENDBRANCH  82  86
ENDBRANCH  56  79
ENDBRANCH  30  31
ENDBRANCH  23  25
ENDBRANCH  22  23
ENDBRANCH  21  22
ENDBRANCH   1  21
TORSDOF 17
ENDMDL
MODEL 2
REMARK VINA RESULT:     -10.9      5.187      7.449
REMARK SMILES C[C@@H]1CN(S(=O)(=O)[C@@H](C)C(=O)OCCOC(=O)c2ccc(-c3c4nc(c(-c5cc(S(=O)(=O)[O-])ccc5F)c5ccc([nH]5)c(-c5cc(S(=O)(=O)[O-])ccc5F)c5nc(c(-c6cc(S(=O)(=O)[O-])ccc6F)c6ccc3[nH]6)C=C5)C=C4)cc2)CC[C@@H]1[NH3+]
REMARK SMILES IDX 13 1 12 2 10 3 11 4 8 5 9 6 5 7 6 8 7 9 4 10 1 11 2 12 3 13
REMARK SMILES IDX 83 14 82 15 81 16 84 17 14 21 15 22 16 23 17 24 18 25 19 26
REMARK SMILES IDX 80 27 20 28 79 29 21 30 22 31 23 32 73 33 24 34 78 35 72 36
REMARK SMILES IDX 74 37 25 38 77 39 71 40 70 41 26 43 58 44 38 45 57 46 39 47
REMARK SMILES IDX 42 48 56 49 75 50 40 51 41 52 55 54 76 55 43 56 27 57 28 58
REMARK SMILES IDX 36 59 29 60 35 61 37 62 34 63 30 64 31 65 32 66 33 67 59 68
REMARK SMILES IDX 60 69 68 70 61 71 67 72 69 73 66 74 62 75 63 76 64 77 65 78
REMARK SMILES IDX 44 79 45 80 53 81 46 82 52 83 54 84 51 85 47 86 48 87 49 88
REMARK SMILES IDX 50 89
REMARK H PARENT 84 18 84 19 84 20 74 42 42 53
REMARK Flexibility Score: inf
ROOT
ATOM      1  C   UNL A   1      31.612  28.422  25.431  1.00  0.00     0.274 C 
ENDROOT
BRANCH   1   2
ATOM      2  O   UNL A   1      30.746  28.114  24.312  1.00  0.00    -0.461 OA
BRANCH   2   3
ATOM      3  C   UNL A   1      31.309  28.084  23.082  1.00  0.00     0.325 C 
ATOM      4  O   UNL A   1      30.701  28.402  22.063  1.00  0.00    -0.251 OA
BRANCH   3   5
ATOM      5  C   UNL A   1      32.663  27.454  23.032  1.00  0.00     0.230 C 
ATOM      6  C   UNL A   1      33.700  28.374  22.421  1.00  0.00     0.039 C 
BRANCH   5   7
ATOM      7  S   UNL A   1      32.740  25.770  22.458  1.00  0.00     0.227 S 
ATOM      8  O   UNL A   1      33.582  25.689  21.289  1.00  0.00    -0.211 OA
ATOM      9  O   UNL A   1      31.354  25.344  22.364  1.00  0.00    -0.211 OA
BRANCH   7  10
ATOM     10  N   UNL A   1      33.448  24.799  23.670  1.00  0.00    -0.200 NA
ATOM     11  C   UNL A   1      32.918  23.941  26.436  1.00  0.00     0.015 C 
ATOM     12  C   UNL A   1      34.248  24.564  25.982  1.00  0.00     0.059 C 
ATOM     13  C   UNL A   1      34.055  25.539  24.814  1.00  0.00     0.111 C 
ATOM     14  C   UNL A   1      35.297  23.524  25.540  1.00  0.00     0.186 C 
ATOM     15  C   UNL A   1      34.903  22.845  24.219  1.00  0.00     0.082 C 
ATOM     16  C   UNL A   1      34.489  23.851  23.138  1.00  0.00     0.108 C 
BRANCH  14  17
ATOM     17  N   UNL A   1      35.541  22.522  26.585  1.00  0.00    -0.355 N 
ATOM     18  H   UNL A   1      34.726  21.915  26.670  1.00  0.00     0.344 HD
ATOM     19  H   UNL A   1      35.710  22.992  27.474  1.00  0.00     0.344 HD
ATOM     20  H   UNL A   1      36.357  21.963  26.335  1.00  0.00     0.344 HD
ENDBRANCH  14  17
ENDBRANCH   7  10
ENDBRANCH   5   7
ENDBRANCH   3   5
ENDBRANCH   2   3
ENDBRANCH   1   2
BRANCH   1  21
ATOM     21  C   UNL A   1      31.705  29.925  25.713  1.00  0.00     0.275 C 
BRANCH  21  22
ATOM     22  O   UNL A   1      33.068  30.305  25.959  1.00  0.00    -0.458 OA
BRANCH  22  23
ATOM     23  C   UNL A   1      33.262  31.219  26.942  1.00  0.00     0.338 C 
ATOM     24  O   UNL A   1      32.498  32.109  27.264  1.00  0.00    -0.246 OA
BRANCH  23  25
ATOM     25  C   UNL A   1      34.550  30.925  27.598  1.00  0.00     0.060 A 
ATOM     26  C   UNL A   1      34.859  29.608  27.946  1.00  0.00     0.016 A 
ATOM     27  C   UNL A   1      35.436  31.959  27.901  1.00  0.00     0.016 A 
ATOM     28  C   UNL A   1      36.051  29.314  28.605  1.00  0.00     0.010 A 
ATOM     29  C   UNL A   1      36.635  31.664  28.560  1.00  0.00     0.010 A 
ATOM     30  C   UNL A   1      36.943  30.341  28.929  1.00  0.00    -0.014 A 
BRANCH  30  31
ATOM     31  C   UNL A   1      38.142  30.037  29.747  1.00  0.00     0.031 A 
ATOM     32  C   UNL A   1      39.167  29.077  29.210  1.00  0.00     0.074 A 
ATOM     33  C   UNL A   1      38.331  30.644  30.933  1.00  0.00     0.049 A 
ATOM     34  N   UNL A   1      40.253  28.619  29.777  1.00  0.00    -0.248 NA
ATOM     35  C   UNL A   1      38.931  28.566  27.852  1.00  0.00     0.031 C 
ATOM     36  C   UNL A   1      37.429  31.630  31.528  1.00  0.00     0.029 A 
ATOM     37  N   UNL A   1      39.343  30.519  31.851  1.00  0.00    -0.354 N 
ATOM     38  C   UNL A   1      40.832  27.762  28.846  1.00  0.00     0.074 A 
ATOM     39  C   UNL A   1      39.951  27.737  27.696  1.00  0.00     0.031 C 
ATOM     40  C   UNL A   1      37.924  32.013  32.718  1.00  0.00     0.029 A 
ATOM     41  C   UNL A   1      39.155  31.274  32.986  1.00  0.00     0.049 A 
ATOM     42  H   UNL A   1      40.130  29.944  31.711  1.00  0.00     0.167 HD
ATOM     43  C   UNL A   1      41.995  27.070  28.940  1.00  0.00     0.034 A 
ATOM     44  C   UNL A   1      39.882  31.341  34.121  1.00  0.00     0.034 A 
ATOM     45  C   UNL A   1      42.849  27.093  30.103  1.00  0.00     0.049 A 
ATOM     46  C   UNL A   1      41.143  30.517  34.225  1.00  0.00     0.074 A 
ATOM     47  C   UNL A   1      44.020  26.389  30.333  1.00  0.00     0.029 A 
ATOM     48  N   UNL A   1      42.627  27.867  31.237  1.00  0.00    -0.354 N 
ATOM     49  N   UNL A   1      41.659  29.679  33.354  1.00  0.00    -0.248 NA
ATOM     50  C   UNL A   1      41.929  30.665  35.455  1.00  0.00     0.031 C 
ATOM     51  C   UNL A   1      44.476  26.700  31.620  1.00  0.00     0.029 A 
ATOM     52  C   UNL A   1      43.632  27.653  32.168  1.00  0.00     0.049 A 
ATOM     53  H   UNL A   1      41.866  28.478  31.360  1.00  0.00     0.167 HD
ATOM     54  C   UNL A   1      42.847  29.224  33.923  1.00  0.00     0.074 A 
ATOM     55  C   UNL A   1      42.979  29.898  35.198  1.00  0.00     0.031 C 
ATOM     56  C   UNL A   1      43.748  28.332  33.437  1.00  0.00     0.034 A 
BRANCH  43  57
ATOM     57  C   UNL A   1      42.367  26.193  27.769  1.00  0.00     0.023 A 
ATOM     58  C   UNL A   1      41.989  24.839  27.710  1.00  0.00     0.031 A 
ATOM     59  C   UNL A   1      43.149  26.703  26.717  1.00  0.00     0.131 A 
ATOM     60  C   UNL A   1      42.450  24.028  26.662  1.00  0.00     0.055 A 
ATOM     61  C   UNL A   1      43.540  25.909  25.637  1.00  0.00     0.041 A 
ATOM     62  F   UNL A   1      43.562  27.981  26.730  1.00  0.00    -0.206 F 
ATOM     63  C   UNL A   1      43.203  24.560  25.613  1.00  0.00     0.022 A 
BRANCH  60  64
ATOM     64  S   UNL A   1      42.166  22.238  26.755  1.00  0.00     0.124 S 
ATOM     65  O   UNL A   1      43.322  21.718  26.029  1.00  0.00    -0.237 OA
ATOM     66  O   UNL A   1      42.149  21.993  28.192  1.00  0.00    -0.237 OA
ATOM     67  O   UNL A   1      40.883  22.060  26.078  1.00  0.00    -0.744 OA
ENDBRANCH  60  64
ENDBRANCH  43  57
BRANCH  44  68
ATOM     68  C   UNL A   1      39.423  32.177  35.267  1.00  0.00     0.023 A 
ATOM     69  C   UNL A   1      38.756  31.614  36.365  1.00  0.00     0.031 A 
ATOM     70  C   UNL A   1      39.588  33.575  35.244  1.00  0.00     0.131 A 
ATOM     71  C   UNL A   1      38.230  32.446  37.368  1.00  0.00     0.055 A 
ATOM     72  C   UNL A   1      39.114  34.393  36.270  1.00  0.00     0.041 A 
ATOM     73  F   UNL A   1      40.217  34.168  34.217  1.00  0.00    -0.206 F 
ATOM     74  C   UNL A   1      38.415  33.829  37.334  1.00  0.00     0.022 A 
BRANCH  71  75
ATOM     75  S   UNL A   1      37.206  31.702  38.669  1.00  0.00     0.124 S 
ATOM     76  O   UNL A   1      36.025  32.556  38.644  1.00  0.00    -0.237 OA
ATOM     77  O   UNL A   1      37.027  30.342  38.171  1.00  0.00    -0.237 OA
ATOM     78  O   UNL A   1      38.038  31.820  39.866  1.00  0.00    -0.744 OA
ENDBRANCH  71  75
ENDBRANCH  44  68
BRANCH  56  79
ATOM     79  C   UNL A   1      44.984  28.089  34.271  1.00  0.00     0.023 A 
ATOM     80  C   UNL A   1      45.029  27.087  35.258  1.00  0.00     0.031 A 
ATOM     81  C   UNL A   1      46.120  28.899  34.099  1.00  0.00     0.131 A 
ATOM     82  C   UNL A   1      46.159  26.970  36.082  1.00  0.00     0.055 A 
ATOM     83  C   UNL A   1      47.264  28.737  34.881  1.00  0.00     0.041 A 
ATOM     84  F   UNL A   1      46.132  29.870  33.172  1.00  0.00    -0.206 F 
ATOM     85  C   UNL A   1      47.281  27.780  35.893  1.00  0.00     0.022 A 
BRANCH  82  86
ATOM     86  S   UNL A   1      46.097  25.823  37.488  1.00  0.00     0.124 S 
ATOM     87  O   UNL A   1      45.159  24.811  37.015  1.00  0.00    -0.237 OA
ATOM     88  O   UNL A   1      47.489  25.399  37.602  1.00  0.00    -0.237 OA
ATOM     89  O   UNL A   1      45.611  26.654  38.588  1.00  0.00    -0.744 OA
ENDBRANCH  82  86
ENDBRANCH  56  79
ENDBRANCH  30  31
ENDBRANCH  23  25
ENDBRANCH  22  23
ENDBRANCH  21  22
ENDBRANCH   1  21
TORSDOF 17
ENDMDL
MODEL 3
REMARK VINA RESULT:     -10.9      5.197      7.484
REMARK SMILES C[C@@H]1CN(S(=O)(=O)[C@@H](C)C(=O)OCCOC(=O)c2ccc(-c3c4nc(c(-c5cc(S(=O)(=O)[O-])ccc5F)c5ccc([nH]5)c(-c5cc(S(=O)(=O)[O-])ccc5F)c5nc(c(-c6cc(S(=O)(=O)[O-])ccc6F)c6ccc3[nH]6)C=C5)C=C4)cc2)CC[C@@H]1[NH3+]
REMARK SMILES IDX 13 1 12 2 10 3 11 4 8 5 9 6 5 7 6 8 7 9 4 10 1 11 2 12 3 13
REMARK SMILES IDX 83 14 82 15 81 16 84 17 14 21 15 22 16 23 17 24 18 25 19 26
REMARK SMILES IDX 80 27 20 28 79 29 21 30 22 31 23 32 73 33 24 34 78 35 72 36
REMARK SMILES IDX 74 37 25 38 77 39 71 40 70 41 26 43 58 44 38 45 57 46 39 47
REMARK SMILES IDX 42 48 56 49 75 50 40 51 41 52 55 54 76 55 43 56 27 57 28 58
REMARK SMILES IDX 36 59 29 60 35 61 37 62 34 63 30 64 31 65 32 66 33 67 59 68
REMARK SMILES IDX 60 69 68 70 61 71 67 72 69 73 66 74 62 75 63 76 64 77 65 78
REMARK SMILES IDX 44 79 45 80 53 81 46 82 52 83 54 84 51 85 47 86 48 87 49 88
REMARK SMILES IDX 50 89
REMARK H PARENT 84 18 84 19 84 20 74 42 42 53
REMARK Flexibility Score: inf
ROOT
ATOM      1  C   UNL A   1      31.708  28.422  26.227  1.00  0.00     0.274 C 
ENDROOT
BRANCH   1   2
ATOM      2  O   UNL A   1      31.242  27.525  25.191  1.00  0.00    -0.461 OA
BRANCH   2   3
ATOM      3  C   UNL A   1      31.623  27.795  23.921  1.00  0.00     0.325 C 
ATOM      4  O   UNL A   1      30.863  28.279  23.086  1.00  0.00    -0.251 OA
BRANCH   3   5
ATOM      5  C   UNL A   1      32.978  27.282  23.555  1.00  0.00     0.230 C 
ATOM      6  C   UNL A   1      33.835  28.346  22.900  1.00  0.00     0.039 C 
BRANCH   5   7
ATOM      7  S   UNL A   1      33.042  25.690  22.760  1.00  0.00     0.227 S 
ATOM      8  O   UNL A   1      33.675  25.813  21.468  1.00  0.00    -0.211 OA
ATOM      9  O   UNL A   1      31.684  25.178  22.838  1.00  0.00    -0.211 OA
BRANCH   7  10
ATOM     10  N   UNL A   1      33.997  24.634  23.701  1.00  0.00    -0.200 NA
ATOM     11  C   UNL A   1      36.547  23.174  23.525  1.00  0.00     0.015 C 
ATOM     12  C   UNL A   1      35.213  22.508  23.904  1.00  0.00     0.059 C 
ATOM     13  C   UNL A   1      34.017  23.212  23.252  1.00  0.00     0.111 C 
ATOM     14  C   UNL A   1      34.951  22.473  25.423  1.00  0.00     0.186 C 
ATOM     15  C   UNL A   1      34.671  23.876  25.984  1.00  0.00     0.082 C 
ATOM     16  C   UNL A   1      33.629  24.645  25.161  1.00  0.00     0.108 C 
BRANCH  14  17
ATOM     17  N   UNL A   1      36.056  21.836  26.150  1.00  0.00    -0.355 N 
ATOM     18  H   UNL A   1      36.213  20.900  25.777  1.00  0.00     0.344 HD
ATOM     19  H   UNL A   1      35.818  21.772  27.140  1.00  0.00     0.344 HD
ATOM     20  H   UNL A   1      36.902  22.394  26.038  1.00  0.00     0.344 HD
ENDBRANCH  14  17
ENDBRANCH   7  10
ENDBRANCH   5   7
ENDBRANCH   3   5
ENDBRANCH   2   3
ENDBRANCH   1   2
BRANCH   1  21
ATOM     21  C   UNL A   1      31.775  29.881  25.763  1.00  0.00     0.275 C 
BRANCH  21  22
ATOM     22  O   UNL A   1      33.106  30.398  25.925  1.00  0.00    -0.458 OA
BRANCH  22  23
ATOM     23  C   UNL A   1      33.277  31.294  26.928  1.00  0.00     0.338 C 
ATOM     24  O   UNL A   1      32.501  32.172  27.255  1.00  0.00    -0.246 OA
BRANCH  23  25
ATOM     25  C   UNL A   1      34.557  30.997  27.599  1.00  0.00     0.060 A 
ATOM     26  C   UNL A   1      34.839  29.686  27.990  1.00  0.00     0.016 A 
ATOM     27  C   UNL A   1      35.461  32.024  27.873  1.00  0.00     0.016 A 
ATOM     28  C   UNL A   1      36.023  29.391  28.663  1.00  0.00     0.010 A 
ATOM     29  C   UNL A   1      36.652  31.727  28.546  1.00  0.00     0.010 A 
ATOM     30  C   UNL A   1      36.933  30.412  28.958  1.00  0.00    -0.014 A 
BRANCH  30  31
ATOM     31  C   UNL A   1      38.123  30.111  29.791  1.00  0.00     0.031 A 
ATOM     32  C   UNL A   1      39.169  29.172  29.258  1.00  0.00     0.074 A 
ATOM     33  C   UNL A   1      38.286  30.704  30.988  1.00  0.00     0.049 A 
ATOM     34  N   UNL A   1      40.251  28.719  29.835  1.00  0.00    -0.248 NA
ATOM     35  C   UNL A   1      38.959  28.676  27.889  1.00  0.00     0.031 C 
ATOM     36  C   UNL A   1      37.362  31.671  31.582  1.00  0.00     0.029 A 
ATOM     37  N   UNL A   1      39.284  30.579  31.920  1.00  0.00    -0.354 N 
ATOM     38  C   UNL A   1      40.855  27.882  28.902  1.00  0.00     0.074 A 
ATOM     39  C   UNL A   1      39.993  27.861  27.738  1.00  0.00     0.031 C 
ATOM     40  C   UNL A   1      37.833  32.044  32.784  1.00  0.00     0.029 A 
ATOM     41  C   UNL A   1      39.070  31.316  33.061  1.00  0.00     0.049 A 
ATOM     42  H   UNL A   1      40.081  30.016  31.785  1.00  0.00     0.167 HD
ATOM     43  C   UNL A   1      42.025  27.203  29.005  1.00  0.00     0.034 A 
ATOM     44  C   UNL A   1      39.778  31.377  34.208  1.00  0.00     0.034 A 
ATOM     45  C   UNL A   1      42.861  27.221  30.182  1.00  0.00     0.049 A 
ATOM     46  C   UNL A   1      41.048  30.568  34.321  1.00  0.00     0.074 A 
ATOM     47  C   UNL A   1      44.036  26.529  30.421  1.00  0.00     0.029 A 
ATOM     48  N   UNL A   1      42.611  27.977  31.322  1.00  0.00    -0.354 N 
ATOM     49  N   UNL A   1      41.587  29.748  33.448  1.00  0.00    -0.248 NA
ATOM     50  C   UNL A   1      41.813  30.709  35.566  1.00  0.00     0.031 C 
ATOM     51  C   UNL A   1      44.468  26.827  31.719  1.00  0.00     0.029 A 
ATOM     52  C   UNL A   1      43.604  27.763  32.266  1.00  0.00     0.049 A 
ATOM     53  H   UNL A   1      41.840  28.577  31.441  1.00  0.00     0.167 HD
ATOM     54  C   UNL A   1      42.772  29.300  34.029  1.00  0.00     0.074 A 
ATOM     55  C   UNL A   1      42.875  29.958  35.315  1.00  0.00     0.031 C 
ATOM     56  C   UNL A   1      43.692  28.426  33.545  1.00  0.00     0.034 A 
BRANCH  43  57
ATOM     57  C   UNL A   1      42.426  26.346  27.828  1.00  0.00     0.023 A 
ATOM     58  C   UNL A   1      42.027  25.002  27.723  1.00  0.00     0.031 A 
ATOM     59  C   UNL A   1      43.257  26.867  26.820  1.00  0.00     0.131 A 
ATOM     60  C   UNL A   1      42.514  24.207  26.674  1.00  0.00     0.055 A 
ATOM     61  C   UNL A   1      43.675  26.091  25.737  1.00  0.00     0.041 A 
ATOM     62  F   UNL A   1      43.691  28.136  26.879  1.00  0.00    -0.206 F 
ATOM     63  C   UNL A   1      43.316  24.749  25.667  1.00  0.00     0.022 A 
BRANCH  60  64
ATOM     64  S   UNL A   1      42.196  22.421  26.714  1.00  0.00     0.124 S 
ATOM     65  O   UNL A   1      43.225  21.918  25.808  1.00  0.00    -0.237 OA
ATOM     66  O   UNL A   1      42.370  22.098  28.125  1.00  0.00    -0.237 OA
ATOM     67  O   UNL A   1      40.827  22.306  26.213  1.00  0.00    -0.744 OA
ENDBRANCH  60  64
ENDBRANCH  43  57
BRANCH  44  68
ATOM     68  C   UNL A   1      39.291  32.192  35.358  1.00  0.00     0.023 A 
ATOM     69  C   UNL A   1      39.701  33.522  35.541  1.00  0.00     0.031 A 
ATOM     70  C   UNL A   1      38.453  31.623  36.336  1.00  0.00     0.131 A 
ATOM     71  C   UNL A   1      39.321  34.220  36.700  1.00  0.00     0.055 A 
ATOM     72  C   UNL A   1      38.031  32.337  37.456  1.00  0.00     0.041 A 
ATOM     73  F   UNL A   1      38.031  30.354  36.212  1.00  0.00    -0.206 F 
ATOM     74  C   UNL A   1      38.479  33.641  37.652  1.00  0.00     0.022 A 
BRANCH  71  75
ATOM     75  S   UNL A   1      40.028  35.864  36.999  1.00  0.00     0.124 S 
ATOM     76  O   UNL A   1      41.441  35.552  37.184  1.00  0.00    -0.237 OA
ATOM     77  O   UNL A   1      39.682  36.569  35.769  1.00  0.00    -0.237 OA
ATOM     78  O   UNL A   1      39.327  36.324  38.196  1.00  0.00    -0.744 OA
ENDBRANCH  71  75
ENDBRANCH  44  68
BRANCH  56  79
ATOM     79  C   UNL A   1      44.917  28.187  34.396  1.00  0.00     0.023 A 
ATOM     80  C   UNL A   1      44.964  27.164  35.361  1.00  0.00     0.031 A 
ATOM     81  C   UNL A   1      46.041  29.022  34.262  1.00  0.00     0.131 A 
ATOM     82  C   UNL A   1      46.082  27.050  36.202  1.00  0.00     0.055 A 
ATOM     83  C   UNL A   1      47.174  28.863  35.060  1.00  0.00     0.041 A 
ATOM     84  F   UNL A   1      46.051  30.013  33.357  1.00  0.00    -0.206 F 
ATOM     85  C   UNL A   1      47.192  27.885  36.050  1.00  0.00     0.022 A 
BRANCH  82  86
ATOM     86  S   UNL A   1      46.018  25.870  37.580  1.00  0.00     0.124 S 
ATOM     87  O   UNL A   1      45.355  24.722  36.969  1.00  0.00    -0.237 OA
ATOM     88  O   UNL A   1      47.431  25.693  37.901  1.00  0.00    -0.237 OA
ATOM     89  O   UNL A   1      45.235  26.571  38.596  1.00  0.00    -0.744 OA
ENDBRANCH  82  86
ENDBRANCH  56  79
ENDBRANCH  30  31
ENDBRANCH  23  25
ENDBRANCH  22  23
ENDBRANCH  21  22
ENDBRANCH   1  21
TORSDOF 17
ENDMDL
