MODEL 1
REMARK VINA RESULT:     -11.8      0.000      0.000
REMARK SMILES CC(C)(C)OC(=O)N1CCC[C@](Cc2ccccc2)(C(=O)OCCOC(=O)c2ccc(-c3c4nc(c(-c5cc(S(=O)(=O)[O-])ccc5F)c5ccc([nH]5)c(-c5cc(S(=O)(=O)[O-])ccc5F)c5nc(c(-c6cc(S(=O)(=O)[O-])ccc6F)c6ccc3[nH]6)C=C5)C=C4)cc2)C1
REMARK SMILES IDX 23 1 22 2 20 3 21 4 12 5 8 6 9 7 91 8 10 9 11 10 6 11 7 12
REMARK SMILES IDX 5 13 2 14 1 15 3 16 4 17 13 18 14 19 15 20 19 21 16 22 18 23
REMARK SMILES IDX 17 24 24 25 25 26 26 27 27 28 28 29 29 30 90 31 30 32 89 33
REMARK SMILES IDX 31 34 32 35 33 36 83 37 34 38 88 39 82 40 84 41 35 42 87 43
REMARK SMILES IDX 81 44 80 45 36 47 68 48 48 49 67 50 49 51 52 52 66 53 85 54
REMARK SMILES IDX 50 55 51 56 65 58 86 59 53 60 37 61 38 62 46 63 39 64 45 65
REMARK SMILES IDX 47 66 44 67 40 68 41 69 42 70 43 71 69 72 70 73 78 74 71 75
REMARK SMILES IDX 77 76 79 77 76 78 72 79 73 80 74 81 75 82 54 83 55 84 63 85
REMARK SMILES IDX 56 86 62 87 64 88 61 89 57 90 58 91 59 92 60 93
REMARK H PARENT 84 46 52 57
REMARK Flexibility Score: inf
ROOT
ATOM      1  C   UNL A   1      36.174  22.979  23.166  1.00  0.00     0.274 C 
ENDROOT
BRANCH   1   2
ATOM      2  O   UNL A   1      34.765  22.928  23.496  1.00  0.00    -0.462 OA
BRANCH   2   3
ATOM      3  C   UNL A   1      34.070  24.099  23.391  1.00  0.00     0.314 C 
ATOM      4  O   UNL A   1      34.063  24.785  22.374  1.00  0.00    -0.252 OA
BRANCH   3   5
ATOM      5  C   UNL A   1      33.438  24.542  24.726  1.00  0.00     0.090 C 
ATOM      6  N   UNL A   1      32.579  22.338  25.657  1.00  0.00    -0.307 N 
ATOM      7  C   UNL A   1      31.188  22.722  25.440  1.00  0.00     0.123 C 
ATOM      8  C   UNL A   1      33.562  23.414  25.783  1.00  0.00     0.142 C 
ATOM      9  C   UNL A   1      31.032  23.724  24.311  1.00  0.00     0.023 C 
ATOM     10  C   UNL A   1      31.945  24.920  24.495  1.00  0.00     0.023 C 
BRANCH   6  11
ATOM     11  C   UNL A   1      32.833  21.018  26.044  1.00  0.00     0.410 C 
ATOM     12  O   UNL A   1      33.526  20.747  27.019  1.00  0.00    -0.224 OA
BRANCH  11  13
ATOM     13  O   UNL A   1      32.273  20.092  25.219  1.00  0.00    -0.444 OA
BRANCH  13  14
ATOM     14  C   UNL A   1      32.977  18.923  24.692  1.00  0.00     0.106 C 
ATOM     15  C   UNL A   1      32.354  18.669  23.313  1.00  0.00     0.056 C 
ATOM     16  C   UNL A   1      32.665  17.711  25.578  1.00  0.00     0.056 C 
ATOM     17  C   UNL A   1      34.498  19.039  24.532  1.00  0.00     0.056 C 
ENDBRANCH  13  14
ENDBRANCH  11  13
ENDBRANCH   6  11
BRANCH   5  18
ATOM     18  C   UNL A   1      34.253  25.814  25.147  1.00  0.00     0.056 C 
BRANCH  18  19
ATOM     19  C   UNL A   1      33.450  27.094  25.289  1.00  0.00    -0.047 A 
ATOM     20  C   UNL A   1      33.332  27.973  24.199  1.00  0.00     0.004 A 
ATOM     21  C   UNL A   1      32.715  27.360  26.451  1.00  0.00     0.004 A 
ATOM     22  C   UNL A   1      32.454  29.057  24.252  1.00  0.00     0.000 A 
ATOM     23  C   UNL A   1      31.830  28.438  26.498  1.00  0.00     0.000 A 
ATOM     24  C   UNL A   1      31.692  29.281  25.396  1.00  0.00     0.000 A 
ENDBRANCH  18  19
ENDBRANCH   5  18
ENDBRANCH   3   5
ENDBRANCH   2   3
ENDBRANCH   1   2
BRANCH   1  25
ATOM     25  C   UNL A   1      36.995  21.875  23.839  1.00  0.00     0.275 C 
BRANCH  25  26
ATOM     26  O   UNL A   1      37.061  22.060  25.265  1.00  0.00    -0.458 OA
BRANCH  26  27
ATOM     27  C   UNL A   1      38.268  21.720  25.773  1.00  0.00     0.338 C 
ATOM     28  O   UNL A   1      38.850  20.677  25.540  1.00  0.00    -0.246 OA
BRANCH  27  29
ATOM     29  C   UNL A   1      38.880  22.778  26.580  1.00  0.00     0.060 A 
ATOM     30  C   UNL A   1      38.440  24.079  26.388  1.00  0.00     0.016 A 
ATOM     31  C   UNL A   1      40.052  22.535  27.299  1.00  0.00     0.016 A 
ATOM     32  C   UNL A   1      39.241  25.142  26.801  1.00  0.00     0.010 A 
ATOM     33  C   UNL A   1      40.774  23.610  27.836  1.00  0.00     0.010 A 
ATOM     34  C   UNL A   1      40.398  24.936  27.568  1.00  0.00    -0.014 A 
BRANCH  34  35
ATOM     35  C   UNL A   1      41.190  26.090  28.101  1.00  0.00     0.031 A 
ATOM     36  C   UNL A   1      40.530  27.173  28.922  1.00  0.00     0.074 A 
ATOM     37  C   UNL A   1      42.507  26.195  27.824  1.00  0.00     0.049 A 
ATOM     38  N   UNL A   1      40.947  28.389  29.179  1.00  0.00    -0.248 NA
ATOM     39  C   UNL A   1      39.229  26.849  29.521  1.00  0.00     0.031 C 
ATOM     40  C   UNL A   1      43.315  25.196  27.119  1.00  0.00     0.029 A 
ATOM     41  N   UNL A   1      43.405  27.207  28.086  1.00  0.00    -0.354 N 
ATOM     42  C   UNL A   1      39.928  28.999  29.910  1.00  0.00     0.074 A 
ATOM     43  C   UNL A   1      38.882  28.009  30.065  1.00  0.00     0.031 C 
ATOM     44  C   UNL A   1      44.578  25.625  27.028  1.00  0.00     0.029 A 
ATOM     45  C   UNL A   1      44.640  26.992  27.519  1.00  0.00     0.049 A 
ATOM     46  H   UNL A   1      43.184  28.002  28.623  1.00  0.00     0.167 HD
ATOM     47  C   UNL A   1      39.872  30.271  30.381  1.00  0.00     0.034 A 
ATOM     48  C   UNL A   1      45.682  27.820  27.305  1.00  0.00     0.034 A 
ATOM     49  C   UNL A   1      40.955  31.224  30.245  1.00  0.00     0.049 A 
ATOM     50  C   UNL A   1      45.573  29.250  27.742  1.00  0.00     0.074 A 
ATOM     51  C   UNL A   1      41.017  32.533  30.696  1.00  0.00     0.029 A 
ATOM     52  N   UNL A   1      42.165  30.971  29.612  1.00  0.00    -0.354 N 
ATOM     53  N   UNL A   1      44.566  29.855  28.327  1.00  0.00    -0.248 NA
ATOM     54  C   UNL A   1      46.726  30.115  27.470  1.00  0.00     0.031 C 
ATOM     55  C   UNL A   1      42.230  33.088  30.276  1.00  0.00     0.029 A 
ATOM     56  C   UNL A   1      42.965  32.105  29.634  1.00  0.00     0.049 A 
ATOM     57  H   UNL A   1      42.420  30.111  29.207  1.00  0.00     0.167 HD
ATOM     58  C   UNL A   1      44.974  31.170  28.515  1.00  0.00     0.074 A 
ATOM     59  C   UNL A   1      46.318  31.269  27.980  1.00  0.00     0.031 C 
ATOM     60  C   UNL A   1      44.298  32.198  29.087  1.00  0.00     0.034 A 
BRANCH  47  61
ATOM     61  C   UNL A   1      38.575  30.743  31.006  1.00  0.00     0.023 A 
ATOM     62  C   UNL A   1      37.531  31.314  30.259  1.00  0.00     0.031 A 
ATOM     63  C   UNL A   1      38.390  30.617  32.397  1.00  0.00     0.131 A 
ATOM     64  C   UNL A   1      36.377  31.786  30.911  1.00  0.00     0.055 A 
ATOM     65  C   UNL A   1      37.212  31.020  33.030  1.00  0.00     0.041 A 
ATOM     66  F   UNL A   1      39.357  30.097  33.171  1.00  0.00    -0.206 F 
ATOM     67  C   UNL A   1      36.202  31.621  32.288  1.00  0.00     0.022 A 
BRANCH  64  68
ATOM     68  S   UNL A   1      35.155  32.733  29.959  1.00  0.00     0.124 S 
ATOM     69  O   UNL A   1      34.186  33.096  30.989  1.00  0.00    -0.237 OA
ATOM     70  O   UNL A   1      35.955  33.825  29.418  1.00  0.00    -0.237 OA
ATOM     71  O   UNL A   1      34.668  31.771  28.972  1.00  0.00    -0.744 OA
ENDBRANCH  64  68
ENDBRANCH  47  61
BRANCH  48  72
ATOM     72  C   UNL A   1      46.858  27.329  26.532  1.00  0.00     0.023 A 
ATOM     73  C   UNL A   1      47.958  26.741  27.169  1.00  0.00     0.031 A 
ATOM     74  C   UNL A   1      46.871  27.409  25.124  1.00  0.00     0.131 A 
ATOM     75  C   UNL A   1      49.029  26.258  26.401  1.00  0.00     0.055 A 
ATOM     76  C   UNL A   1      47.911  26.876  24.364  1.00  0.00     0.041 A 
ATOM     77  F   UNL A   1      45.839  27.961  24.465  1.00  0.00    -0.206 F 
ATOM     78  C   UNL A   1      49.003  26.302  25.003  1.00  0.00     0.022 A 
BRANCH  75  79
ATOM     79  S   UNL A   1      50.488  25.605  27.256  1.00  0.00     0.124 S 
ATOM     80  O   UNL A   1      50.049  24.260  27.609  1.00  0.00    -0.237 OA
ATOM     81  O   UNL A   1      51.513  25.695  26.221  1.00  0.00    -0.237 OA
ATOM     82  O   UNL A   1      50.661  26.520  28.382  1.00  0.00    -0.744 OA
ENDBRANCH  75  79
ENDBRANCH  48  72
BRANCH  60  83
ATOM     83  C   UNL A   1      45.037  33.504  29.224  1.00  0.00     0.023 A 
ATOM     84  C   UNL A   1      44.906  34.536  28.280  1.00  0.00     0.031 A 
ATOM     85  C   UNL A   1      45.894  33.709  30.320  1.00  0.00     0.131 A 
ATOM     86  C   UNL A   1      45.651  35.715  28.430  1.00  0.00     0.055 A 
ATOM     87  C   UNL A   1      46.594  34.902  30.491  1.00  0.00     0.041 A 
ATOM     88  F   UNL A   1      46.058  32.750  31.246  1.00  0.00    -0.206 F 
ATOM     89  C   UNL A   1      46.482  35.910  29.539  1.00  0.00     0.022 A 
BRANCH  86  90
ATOM     90  S   UNL A   1      45.575  36.973  27.126  1.00  0.00     0.124 S 
ATOM     91  O   UNL A   1      46.399  36.375  26.081  1.00  0.00    -0.237 OA
ATOM     92  O   UNL A   1      44.145  37.049  26.845  1.00  0.00    -0.237 OA
ATOM     93  O   UNL A   1      46.144  38.160  27.761  1.00  0.00    -0.744 OA
ENDBRANCH  86  90
ENDBRANCH  60  83
ENDBRANCH  34  35
ENDBRANCH  27  29
ENDBRANCH  26  27
ENDBRANCH  25  26
ENDBRANCH   1  25
TORSDOF 19
ENDMDL
MODEL 2
REMARK VINA RESULT:     -11.7      4.684      9.587
REMARK SMILES CC(C)(C)OC(=O)N1CCC[C@](Cc2ccccc2)(C(=O)OCCOC(=O)c2ccc(-c3c4nc(c(-c5cc(S(=O)(=O)[O-])ccc5F)c5ccc([nH]5)c(-c5cc(S(=O)(=O)[O-])ccc5F)c5nc(c(-c6cc(S(=O)(=O)[O-])ccc6F)c6ccc3[nH]6)C=C5)C=C4)cc2)C1
REMARK SMILES IDX 23 1 22 2 20 3 21 4 12 5 8 6 9 7 91 8 10 9 11 10 6 11 7 12
REMARK SMILES IDX 5 13 2 14 1 15 3 16 4 17 13 18 14 19 15 20 19 21 16 22 18 23
REMARK SMILES IDX 17 24 24 25 25 26 26 27 27 28 28 29 29 30 90 31 30 32 89 33
REMARK SMILES IDX 31 34 32 35 33 36 83 37 34 38 88 39 82 40 84 41 35 42 87 43
REMARK SMILES IDX 81 44 80 45 36 47 68 48 48 49 67 50 49 51 52 52 66 53 85 54
REMARK SMILES IDX 50 55 51 56 65 58 86 59 53 60 37 61 38 62 46 63 39 64 45 65
REMARK SMILES IDX 47 66 44 67 40 68 41 69 42 70 43 71 69 72 70 73 78 74 71 75
REMARK SMILES IDX 77 76 79 77 76 78 72 79 73 80 74 81 75 82 54 83 55 84 63 85
REMARK SMILES IDX 56 86 62 87 64 88 61 89 57 90 58 91 59 92 60 93
REMARK H PARENT 84 46 52 57
REMARK Flexibility Score: inf
ROOT
ATOM      1  C   UNL A   1      31.533  28.282  26.694  1.00  0.00     0.274 C 
ENDROOT
BRANCH   1   2
ATOM      2  O   UNL A   1      31.712  28.323  25.258  1.00  0.00    -0.462 OA
BRANCH   2   3
ATOM      3  C   UNL A   1      30.913  27.498  24.518  1.00  0.00     0.314 C 
ATOM      4  O   UNL A   1      30.369  26.501  24.980  1.00  0.00    -0.252 OA
BRANCH   3   5
ATOM      5  C   UNL A   1      30.904  27.862  23.020  1.00  0.00     0.090 C 
ATOM      6  N   UNL A   1      32.804  26.433  22.120  1.00  0.00    -0.307 N 
ATOM      7  C   UNL A   1      33.651  27.599  21.892  1.00  0.00     0.123 C 
ATOM      8  C   UNL A   1      31.358  26.650  22.166  1.00  0.00     0.142 C 
ATOM      9  C   UNL A   1      33.312  28.753  22.819  1.00  0.00     0.023 C 
ATOM     10  C   UNL A   1      31.833  29.088  22.777  1.00  0.00     0.023 C 
BRANCH   6  11
ATOM     11  C   UNL A   1      33.386  25.171  21.962  1.00  0.00     0.410 C 
ATOM     12  O   UNL A   1      33.024  24.392  21.087  1.00  0.00    -0.224 OA
BRANCH  11  13
ATOM     13  O   UNL A   1      34.345  24.895  22.886  1.00  0.00    -0.444 OA
BRANCH  13  14
ATOM     14  C   UNL A   1      34.073  24.568  24.286  1.00  0.00     0.106 C 
ATOM     15  C   UNL A   1      35.165  23.566  24.683  1.00  0.00     0.056 C 
ATOM     16  C   UNL A   1      32.721  23.849  24.377  1.00  0.00     0.056 C 
ATOM     17  C   UNL A   1      34.083  25.730  25.287  1.00  0.00     0.056 C 
ENDBRANCH  13  14
ENDBRANCH  11  13
ENDBRANCH   6  11
BRANCH   5  18
ATOM     18  C   UNL A   1      29.415  28.252  22.716  1.00  0.00     0.056 C 
BRANCH  18  19
ATOM     19  C   UNL A   1      29.147  29.734  22.531  1.00  0.00    -0.047 A 
ATOM     20  C   UNL A   1      28.869  30.242  21.250  1.00  0.00     0.004 A 
ATOM     21  C   UNL A   1      29.047  30.593  23.632  1.00  0.00     0.004 A 
ATOM     22  C   UNL A   1      28.443  31.562  21.087  1.00  0.00     0.000 A 
ATOM     23  C   UNL A   1      28.610  31.908  23.467  1.00  0.00     0.000 A 
ATOM     24  C   UNL A   1      28.299  32.390  22.197  1.00  0.00     0.000 A 
ENDBRANCH  18  19
ENDBRANCH   5  18
ENDBRANCH   3   5
ENDBRANCH   2   3
ENDBRANCH   1   2
BRANCH   1  25
ATOM     25  C   UNL A   1      32.006  29.554  27.401  1.00  0.00     0.275 C 
BRANCH  25  26
ATOM     26  O   UNL A   1      32.942  30.292  26.593  1.00  0.00    -0.458 OA
BRANCH  26  27
ATOM     27  C   UNL A   1      33.482  31.339  27.257  1.00  0.00     0.338 C 
ATOM     28  O   UNL A   1      32.880  32.349  27.567  1.00  0.00    -0.246 OA
BRANCH  27  29
ATOM     29  C   UNL A   1      34.872  31.116  27.665  1.00  0.00     0.060 A 
ATOM     30  C   UNL A   1      35.249  29.827  28.008  1.00  0.00     0.016 A 
ATOM     31  C   UNL A   1      35.702  32.195  27.975  1.00  0.00     0.016 A 
ATOM     32  C   UNL A   1      36.394  29.630  28.778  1.00  0.00     0.010 A 
ATOM     33  C   UNL A   1      36.924  31.968  28.623  1.00  0.00     0.010 A 
ATOM     34  C   UNL A   1      37.277  30.683  29.065  1.00  0.00    -0.014 A 
BRANCH  34  35
ATOM     35  C   UNL A   1      38.560  30.440  29.798  1.00  0.00     0.031 A 
ATOM     36  C   UNL A   1      39.614  29.514  29.236  1.00  0.00     0.074 A 
ATOM     37  C   UNL A   1      38.781  31.023  30.996  1.00  0.00     0.049 A 
ATOM     38  N   UNL A   1      40.609  28.920  29.848  1.00  0.00    -0.248 NA
ATOM     39  C   UNL A   1      39.529  29.210  27.801  1.00  0.00     0.031 C 
ATOM     40  C   UNL A   1      37.906  32.007  31.640  1.00  0.00     0.029 A 
ATOM     41  N   UNL A   1      39.803  30.859  31.903  1.00  0.00    -0.354 N 
ATOM     42  C   UNL A   1      41.226  28.117  28.890  1.00  0.00     0.074 A 
ATOM     43  C   UNL A   1      40.498  28.315  27.654  1.00  0.00     0.031 C 
ATOM     44  C   UNL A   1      38.435  32.377  32.811  1.00  0.00     0.029 A 
ATOM     45  C   UNL A   1      39.596  31.542  33.080  1.00  0.00     0.049 A 
ATOM     46  H   UNL A   1      40.601  30.309  31.728  1.00  0.00     0.167 HD
ATOM     47  C   UNL A   1      42.284  27.280  29.045  1.00  0.00     0.034 A 
ATOM     48  C   UNL A   1      40.186  31.444  34.287  1.00  0.00     0.034 A 
ATOM     49  C   UNL A   1      43.017  27.136  30.286  1.00  0.00     0.049 A 
ATOM     50  C   UNL A   1      41.290  30.447  34.475  1.00  0.00     0.074 A 
ATOM     51  C   UNL A   1      44.113  26.332  30.555  1.00  0.00     0.029 A 
ATOM     52  N   UNL A   1      42.729  27.812  31.465  1.00  0.00    -0.354 N 
ATOM     53  N   UNL A   1      41.794  29.606  33.602  1.00  0.00    -0.248 NA
ATOM     54  C   UNL A   1      41.888  30.366  35.812  1.00  0.00     0.031 C 
ATOM     55  C   UNL A   1      44.441  26.470  31.909  1.00  0.00     0.029 A 
ATOM     56  C   UNL A   1      43.604  27.421  32.469  1.00  0.00     0.049 A 
ATOM     57  H   UNL A   1      42.008  28.474  31.574  1.00  0.00     0.167 HD
ATOM     58  C   UNL A   1      42.787  28.909  34.280  1.00  0.00     0.074 A 
ATOM     59  C   UNL A   1      42.810  29.429  35.634  1.00  0.00     0.031 C 
ATOM     60  C   UNL A   1      43.610  27.936  33.819  1.00  0.00     0.034 A 
BRANCH  47  61
ATOM     61  C   UNL A   1      42.662  26.386  27.881  1.00  0.00     0.023 A 
ATOM     62  C   UNL A   1      42.104  25.112  27.684  1.00  0.00     0.031 A 
ATOM     63  C   UNL A   1      43.618  26.833  26.946  1.00  0.00     0.131 A 
ATOM     64  C   UNL A   1      42.545  24.310  26.615  1.00  0.00     0.055 A 
ATOM     65  C   UNL A   1      43.998  26.062  25.846  1.00  0.00     0.041 A 
ATOM     66  F   UNL A   1      44.204  28.033  27.089  1.00  0.00    -0.206 F 
ATOM     67  C   UNL A   1      43.470  24.787  25.683  1.00  0.00     0.022 A 
BRANCH  64  68
ATOM     68  S   UNL A   1      41.988  22.584  26.523  1.00  0.00     0.124 S 
ATOM     69  O   UNL A   1      40.556  22.716  26.776  1.00  0.00    -0.237 OA
ATOM     70  O   UNL A   1      42.366  22.202  25.168  1.00  0.00    -0.237 OA
ATOM     71  O   UNL A   1      42.740  21.923  27.589  1.00  0.00    -0.744 OA
ENDBRANCH  64  68
ENDBRANCH  47  61
BRANCH  48  72
ATOM     72  C   UNL A   1      39.647  32.234  35.430  1.00  0.00     0.023 A 
ATOM     73  C   UNL A   1      40.059  33.551  35.667  1.00  0.00     0.031 A 
ATOM     74  C   UNL A   1      38.669  31.681  36.282  1.00  0.00     0.131 A 
ATOM     75  C   UNL A   1      39.499  34.274  36.733  1.00  0.00     0.055 A 
ATOM     76  C   UNL A   1      38.075  32.422  37.304  1.00  0.00     0.041 A 
ATOM     77  F   UNL A   1      38.238  30.423  36.096  1.00  0.00    -0.206 F 
ATOM     78  C   UNL A   1      38.495  33.726  37.538  1.00  0.00     0.022 A 
BRANCH  75  79
ATOM     79  S   UNL A   1      40.132  35.935  37.086  1.00  0.00     0.124 S 
ATOM     80  O   UNL A   1      39.718  36.670  35.895  1.00  0.00    -0.237 OA
ATOM     81  O   UNL A   1      39.433  36.271  38.322  1.00  0.00    -0.237 OA
ATOM     82  O   UNL A   1      41.573  35.730  37.224  1.00  0.00    -0.744 OA
ENDBRANCH  75  79
ENDBRANCH  48  72
BRANCH  60  83
ATOM     83  C   UNL A   1      44.654  27.419  34.774  1.00  0.00     0.023 A 
ATOM     84  C   UNL A   1      45.914  28.029  34.902  1.00  0.00     0.031 A 
ATOM     85  C   UNL A   1      44.379  26.287  35.563  1.00  0.00     0.131 A 
ATOM     86  C   UNL A   1      46.867  27.480  35.773  1.00  0.00     0.055 A 
ATOM     87  C   UNL A   1      45.313  25.776  36.463  1.00  0.00     0.041 A 
ATOM     88  F   UNL A   1      43.193  25.664  35.471  1.00  0.00    -0.206 F 
ATOM     89  C   UNL A   1      46.568  26.367  36.566  1.00  0.00     0.022 A 
BRANCH  86  90
ATOM     90  S   UNL A   1      48.532  28.198  35.815  1.00  0.00     0.124 S 
ATOM     91  O   UNL A   1      49.347  27.105  35.297  1.00  0.00    -0.237 OA
ATOM     92  O   UNL A   1      48.396  29.360  34.942  1.00  0.00    -0.237 OA
ATOM     93  O   UNL A   1      48.736  28.509  37.229  1.00  0.00    -0.744 OA
ENDBRANCH  86  90
ENDBRANCH  60  83
ENDBRANCH  34  35
ENDBRANCH  27  29
ENDBRANCH  26  27
ENDBRANCH  25  26
ENDBRANCH   1  25
TORSDOF 19
ENDMDL
MODEL 3
REMARK VINA RESULT:     -11.6      2.099      4.241
REMARK SMILES CC(C)(C)OC(=O)N1CCC[C@](Cc2ccccc2)(C(=O)OCCOC(=O)c2ccc(-c3c4nc(c(-c5cc(S(=O)(=O)[O-])ccc5F)c5ccc([nH]5)c(-c5cc(S(=O)(=O)[O-])ccc5F)c5nc(c(-c6cc(S(=O)(=O)[O-])ccc6F)c6ccc3[nH]6)C=C5)C=C4)cc2)C1
REMARK SMILES IDX 23 1 22 2 20 3 21 4 12 5 8 6 9 7 91 8 10 9 11 10 6 11 7 12
REMARK SMILES IDX 5 13 2 14 1 15 3 16 4 17 13 18 14 19 15 20 19 21 16 22 18 23
REMARK SMILES IDX 17 24 24 25 25 26 26 27 27 28 28 29 29 30 90 31 30 32 89 33
REMARK SMILES IDX 31 34 32 35 33 36 83 37 34 38 88 39 82 40 84 41 35 42 87 43
REMARK SMILES IDX 81 44 80 45 36 47 68 48 48 49 67 50 49 51 52 52 66 53 85 54
REMARK SMILES IDX 50 55 51 56 65 58 86 59 53 60 37 61 38 62 46 63 39 64 45 65
REMARK SMILES IDX 47 66 44 67 40 68 41 69 42 70 43 71 69 72 70 73 78 74 71 75
REMARK SMILES IDX 77 76 79 77 76 78 72 79 73 80 74 81 75 82 54 83 55 84 63 85
REMARK SMILES IDX 56 86 62 87 64 88 61 89 57 90 58 91 59 92 60 93
REMARK H PARENT 84 46 52 57
REMARK Flexibility Score: inf
ROOT
ATOM      1  C   UNL A   1      36.404  22.022  24.063  1.00  0.00     0.274 C 
ENDROOT
BRANCH   1   2
ATOM      2  O   UNL A   1      35.225  21.184  24.129  1.00  0.00    -0.462 OA
BRANCH   2   3
ATOM      3  C   UNL A   1      34.020  21.827  24.186  1.00  0.00     0.314 C 
ATOM      4  O   UNL A   1      33.828  22.933  23.693  1.00  0.00    -0.252 OA
BRANCH   3   5
ATOM      5  C   UNL A   1      32.992  21.092  25.069  1.00  0.00     0.090 C 
ATOM      6  N   UNL A   1      31.972  23.005  26.395  1.00  0.00    -0.307 N 
ATOM      7  C   UNL A   1      32.610  22.566  27.631  1.00  0.00     0.123 C 
ATOM      8  C   UNL A   1      31.769  22.002  25.349  1.00  0.00     0.142 C 
ATOM      9  C   UNL A   1      33.890  21.789  27.380  1.00  0.00     0.023 C 
ATOM     10  C   UNL A   1      33.669  20.652  26.401  1.00  0.00     0.023 C 
BRANCH   6  11
ATOM     11  C   UNL A   1      31.319  24.243  26.407  1.00  0.00     0.410 C 
ATOM     12  O   UNL A   1      30.219  24.393  26.928  1.00  0.00    -0.224 OA
BRANCH  11  13
ATOM     13  O   UNL A   1      32.004  25.225  25.762  1.00  0.00    -0.444 OA
BRANCH  13  14
ATOM     14  C   UNL A   1      31.571  25.849  24.512  1.00  0.00     0.106 C 
ATOM     15  C   UNL A   1      32.864  26.304  23.822  1.00  0.00     0.056 C 
ATOM     16  C   UNL A   1      30.748  27.102  24.838  1.00  0.00     0.056 C 
ATOM     17  C   UNL A   1      30.774  24.975  23.536  1.00  0.00     0.056 C 
ENDBRANCH  13  14
ENDBRANCH  11  13
ENDBRANCH   6  11
BRANCH   5  18
ATOM     18  C   UNL A   1      32.586  19.827  24.234  1.00  0.00     0.056 C 
BRANCH  18  19
ATOM     19  C   UNL A   1      33.164  18.508  24.713  1.00  0.00    -0.047 A 
ATOM     20  C   UNL A   1      32.382  17.645  25.501  1.00  0.00     0.004 A 
ATOM     21  C   UNL A   1      34.422  18.071  24.282  1.00  0.00     0.004 A 
ATOM     22  C   UNL A   1      32.827  16.355  25.797  1.00  0.00     0.000 A 
ATOM     23  C   UNL A   1      34.859  16.778  24.571  1.00  0.00     0.000 A 
ATOM     24  C   UNL A   1      34.059  15.916  25.319  1.00  0.00     0.000 A 
ENDBRANCH  18  19
ENDBRANCH   5  18
ENDBRANCH   3   5
ENDBRANCH   2   3
ENDBRANCH   1   2
BRANCH   1  25
ATOM     25  C   UNL A   1      37.634  21.390  24.718  1.00  0.00     0.275 C 
BRANCH  25  26
ATOM     26  O   UNL A   1      37.901  21.967  26.010  1.00  0.00    -0.458 OA
BRANCH  26  27
ATOM     27  C   UNL A   1      39.205  21.873  26.356  1.00  0.00     0.338 C 
ATOM     28  O   UNL A   1      39.950  20.973  26.019  1.00  0.00    -0.246 OA
BRANCH  27  29
ATOM     29  C   UNL A   1      39.690  23.026  27.120  1.00  0.00     0.060 A 
ATOM     30  C   UNL A   1      39.102  24.259  26.880  1.00  0.00     0.016 A 
ATOM     31  C   UNL A   1      40.881  22.948  27.844  1.00  0.00     0.016 A 
ATOM     32  C   UNL A   1      39.774  25.423  27.249  1.00  0.00     0.010 A 
ATOM     33  C   UNL A   1      41.473  24.119  28.337  1.00  0.00     0.010 A 
ATOM     34  C   UNL A   1      40.946  25.382  28.019  1.00  0.00    -0.014 A 
BRANCH  34  35
ATOM     35  C   UNL A   1      41.598  26.639  28.505  1.00  0.00     0.031 A 
ATOM     36  C   UNL A   1      40.804  27.695  29.238  1.00  0.00     0.074 A 
ATOM     37  C   UNL A   1      42.908  26.863  28.264  1.00  0.00     0.049 A 
ATOM     38  N   UNL A   1      41.087  28.960  29.433  1.00  0.00    -0.248 NA
ATOM     39  C   UNL A   1      39.520  27.274  29.815  1.00  0.00     0.031 C 
ATOM     40  C   UNL A   1      43.837  25.912  27.646  1.00  0.00     0.029 A 
ATOM     41  N   UNL A   1      43.689  27.974  28.490  1.00  0.00    -0.354 N 
ATOM     42  C   UNL A   1      39.986  29.503  30.093  1.00  0.00     0.074 A 
ATOM     43  C   UNL A   1      39.039  28.422  30.277  1.00  0.00     0.031 C 
ATOM     44  C   UNL A   1      45.053  26.462  27.568  1.00  0.00     0.029 A 
ATOM     45  C   UNL A   1      44.960  27.855  27.976  1.00  0.00     0.049 A 
ATOM     46  H   UNL A   1      43.370  28.772  28.971  1.00  0.00     0.167 HD
ATOM     47  C   UNL A   1      39.785  30.788  30.484  1.00  0.00     0.034 A 
ATOM     48  C   UNL A   1      45.920  28.770  27.745  1.00  0.00     0.034 A 
ATOM     49  C   UNL A   1      40.771  31.838  30.324  1.00  0.00     0.049 A 
ATOM     50  C   UNL A   1      45.653  30.205  28.090  1.00  0.00     0.074 A 
ATOM     51  C   UNL A   1      40.685  33.170  30.696  1.00  0.00     0.029 A 
ATOM     52  N   UNL A   1      42.024  31.674  29.745  1.00  0.00    -0.354 N 
ATOM     53  N   UNL A   1      44.570  30.736  28.606  1.00  0.00    -0.248 NA
ATOM     54  C   UNL A   1      46.723  31.166  27.802  1.00  0.00     0.031 C 
ATOM     55  C   UNL A   1      41.852  33.821  30.280  1.00  0.00     0.029 A 
ATOM     56  C   UNL A   1      42.704  32.883  29.722  1.00  0.00     0.049 A 
ATOM     57  H   UNL A   1      42.378  30.822  29.401  1.00  0.00     0.167 HD
ATOM     58  C   UNL A   1      44.836  32.095  28.725  1.00  0.00     0.074 A 
ATOM     59  C   UNL A   1      46.182  32.299  28.227  1.00  0.00     0.031 C 
ATOM     60  C   UNL A   1      44.041  33.079  29.212  1.00  0.00     0.034 A 
BRANCH  47  61
ATOM     61  C   UNL A   1      38.425  31.161  31.038  1.00  0.00     0.023 A 
ATOM     62  C   UNL A   1      37.400  31.704  30.246  1.00  0.00     0.031 A 
ATOM     63  C   UNL A   1      38.158  30.965  32.408  1.00  0.00     0.131 A 
ATOM     64  C   UNL A   1      36.181  32.083  30.837  1.00  0.00     0.055 A 
ATOM     65  C   UNL A   1      36.921  31.276  32.976  1.00  0.00     0.041 A 
ATOM     66  F   UNL A   1      39.101  30.468  33.225  1.00  0.00    -0.206 F 
ATOM     67  C   UNL A   1      35.927  31.851  32.192  1.00  0.00     0.022 A 
BRANCH  64  68
ATOM     68  S   UNL A   1      34.970  33.001  29.843  1.00  0.00     0.124 S 
ATOM     69  O   UNL A   1      35.808  34.010  29.204  1.00  0.00    -0.237 OA
ATOM     70  O   UNL A   1      34.432  31.966  28.968  1.00  0.00    -0.237 OA
ATOM     71  O   UNL A   1      34.033  33.522  30.837  1.00  0.00    -0.744 OA
ENDBRANCH  64  68
ENDBRANCH  47  61
BRANCH  48  72
ATOM     72  C   UNL A   1      47.168  28.358  27.040  1.00  0.00     0.023 A 
ATOM     73  C   UNL A   1      47.196  28.174  25.652  1.00  0.00     0.031 A 
ATOM     74  C   UNL A   1      48.369  28.182  27.757  1.00  0.00     0.131 A 
ATOM     75  C   UNL A   1      48.400  27.821  25.022  1.00  0.00     0.055 A 
ATOM     76  C   UNL A   1      49.573  27.887  27.120  1.00  0.00     0.041 A 
ATOM     77  F   UNL A   1      48.396  28.349  29.089  1.00  0.00    -0.206 F 
ATOM     78  C   UNL A   1      49.592  27.698  25.743  1.00  0.00     0.022 A 
BRANCH  75  79
ATOM     79  S   UNL A   1      48.384  27.480  23.242  1.00  0.00     0.124 S 
ATOM     80  O   UNL A   1      48.294  26.024  23.219  1.00  0.00    -0.237 OA
ATOM     81  O   UNL A   1      47.195  28.204  22.804  1.00  0.00    -0.237 OA
ATOM     82  O   UNL A   1      49.654  28.034  22.776  1.00  0.00    -0.744 OA
ENDBRANCH  75  79
ENDBRANCH  48  72
BRANCH  60  83
ATOM     83  C   UNL A   1      44.639  34.460  29.292  1.00  0.00     0.023 A 
ATOM     84  C   UNL A   1      45.380  34.886  30.407  1.00  0.00     0.031 A 
ATOM     85  C   UNL A   1      44.453  35.364  28.231  1.00  0.00     0.131 A 
ATOM     86  C   UNL A   1      45.877  36.197  30.453  1.00  0.00     0.055 A 
ATOM     87  C   UNL A   1      44.992  36.649  28.260  1.00  0.00     0.041 A 
ATOM     88  F   UNL A   1      43.746  35.007  27.147  1.00  0.00    -0.206 F 
ATOM     89  C   UNL A   1      45.700  37.076  29.378  1.00  0.00     0.022 A 
BRANCH  86  90
ATOM     90  S   UNL A   1      46.705  36.769  31.961  1.00  0.00     0.124 S 
ATOM     91  O   UNL A   1      46.745  38.213  31.756  1.00  0.00    -0.237 OA
ATOM     92  O   UNL A   1      45.807  36.299  33.011  1.00  0.00    -0.237 OA
ATOM     93  O   UNL A   1      48.004  36.100  31.914  1.00  0.00    -0.744 OA
ENDBRANCH  86  90
ENDBRANCH  60  83
ENDBRANCH  34  35
ENDBRANCH  27  29
ENDBRANCH  26  27
ENDBRANCH  25  26
ENDBRANCH   1  25
TORSDOF 19
ENDMDL
