MODEL 1
REMARK VINA RESULT:     -11.7      0.000      0.000
REMARK SMILES COc1cccc(N(CC(=O)OCCOC(=O)c2ccc(-c3c4nc(c(-c5cc(S(=O)(=O)[O-])ccc5F)c5ccc([nH]5)c(-c5cc(S(=O)(=O)[O-])ccc5F)c5nc(c(-c6cc(S(=O)(=O)[O-])ccc6F)c6ccc3[nH]6)C=C5)C=C4)cc2)S(=O)(=O)c2ccc(C)cc2)c1
REMARK SMILES IDX 13 1 12 2 10 3 11 4 9 5 8 6 7 7 3 8 4 9 91 10 5 11 6 12 2 13
REMARK SMILES IDX 1 14 81 15 82 16 83 17 84 18 85 19 90 20 86 21 89 22 87 23
REMARK SMILES IDX 88 24 14 25 15 26 16 27 17 28 18 29 19 30 80 31 20 32 79 33
REMARK SMILES IDX 21 34 22 35 23 36 73 37 24 38 78 39 72 40 74 41 25 42 77 43
REMARK SMILES IDX 71 44 70 45 26 47 58 48 38 49 57 50 39 51 42 52 56 53 75 54
REMARK SMILES IDX 40 55 41 56 55 58 76 59 43 60 27 61 28 62 36 63 29 64 35 65
REMARK SMILES IDX 37 66 34 67 30 68 31 69 32 70 33 71 59 72 60 73 68 74 61 75
REMARK SMILES IDX 67 76 69 77 66 78 62 79 63 80 64 81 65 82 44 83 45 84 53 85
REMARK SMILES IDX 46 86 52 87 54 88 51 89 47 90 48 91 49 92 50 93
REMARK H PARENT 74 46 42 57
REMARK Flexibility Score: inf
ROOT
ATOM      1  C   UNL A   1      36.573  22.280  24.159  1.00  0.00     0.274 C 
ENDROOT
BRANCH   1   2
ATOM      2  O   UNL A   1      36.344  23.349  25.106  1.00  0.00    -0.461 OA
BRANCH   2   3
ATOM      3  C   UNL A   1      35.044  23.626  25.397  1.00  0.00     0.326 C 
ATOM      4  O   UNL A   1      34.522  24.724  25.214  1.00  0.00    -0.250 OA
BRANCH   3   5
ATOM      5  C   UNL A   1      34.240  22.422  25.855  1.00  0.00     0.258 C 
BRANCH   5   6
ATOM      6  N   UNL A   1      32.961  22.146  25.123  1.00  0.00    -0.255 N 
BRANCH   6   7
ATOM      7  C   UNL A   1      32.823  20.722  24.693  1.00  0.00     0.056 A 
ATOM      8  C   UNL A   1      32.822  18.312  25.175  1.00  0.00     0.120 A 
ATOM      9  C   UNL A   1      32.489  18.028  23.857  1.00  0.00     0.046 A 
ATOM     10  C   UNL A   1      32.991  19.644  25.574  1.00  0.00     0.073 A 
ATOM     11  C   UNL A   1      32.249  19.071  22.971  1.00  0.00     0.006 A 
ATOM     12  C   UNL A   1      32.380  20.400  23.397  1.00  0.00     0.027 A 
BRANCH   8  13
ATOM     13  O   UNL A   1      32.979  17.223  25.992  1.00  0.00    -0.497 OA
ATOM     14  C   UNL A   1      33.688  16.125  25.420  1.00  0.00     0.278 C 
ENDBRANCH   8  13
ENDBRANCH   6   7
BRANCH   6  15
ATOM     15  S   UNL A   1      31.567  22.771  25.989  1.00  0.00     0.264 S 
ATOM     16  O   UNL A   1      30.476  21.824  25.847  1.00  0.00    -0.201 OA
ATOM     17  O   UNL A   1      32.046  23.146  27.306  1.00  0.00    -0.201 OA
BRANCH  15  18
ATOM     18  C   UNL A   1      30.990  24.254  25.192  1.00  0.00     0.088 A 
ATOM     19  C   UNL A   1      30.249  25.191  25.920  1.00  0.00     0.022 A 
ATOM     20  C   UNL A   1      31.134  24.395  23.809  1.00  0.00     0.022 A 
ATOM     21  C   UNL A   1      29.717  26.309  25.270  1.00  0.00     0.005 A 
ATOM     22  C   UNL A   1      30.613  25.529  23.170  1.00  0.00     0.005 A 
ATOM     23  C   UNL A   1      29.926  26.507  23.900  1.00  0.00    -0.051 A 
ATOM     24  C   UNL A   1      29.416  27.748  23.227  1.00  0.00     0.044 C 
ENDBRANCH  15  18
ENDBRANCH   6  15
ENDBRANCH   5   6
ENDBRANCH   3   5
ENDBRANCH   2   3
ENDBRANCH   1   2
BRANCH   1  25
ATOM     25  C   UNL A   1      37.485  21.179  24.729  1.00  0.00     0.275 C 
BRANCH  25  26
ATOM     26  O   UNL A   1      37.931  21.459  26.075  1.00  0.00    -0.458 OA
BRANCH  26  27
ATOM     27  C   UNL A   1      39.274  21.378  26.184  1.00  0.00     0.338 C 
ATOM     28  O   UNL A   1      39.936  20.401  25.890  1.00  0.00    -0.246 OA
BRANCH  27  29
ATOM     29  C   UNL A   1      39.950  22.598  26.615  1.00  0.00     0.060 A 
ATOM     30  C   UNL A   1      40.825  22.533  27.705  1.00  0.00     0.016 A 
ATOM     31  C   UNL A   1      39.474  23.823  26.150  1.00  0.00     0.016 A 
ATOM     32  C   UNL A   1      41.211  23.702  28.353  1.00  0.00     0.010 A 
ATOM     33  C   UNL A   1      39.892  24.996  26.775  1.00  0.00     0.010 A 
ATOM     34  C   UNL A   1      40.761  24.941  27.879  1.00  0.00    -0.014 A 
BRANCH  34  35
ATOM     35  C   UNL A   1      41.380  26.191  28.364  1.00  0.00     0.031 A 
ATOM     36  C   UNL A   1      40.589  27.282  29.012  1.00  0.00     0.074 A 
ATOM     37  C   UNL A   1      42.686  26.344  28.082  1.00  0.00     0.049 A 
ATOM     38  N   UNL A   1      40.943  28.512  29.278  1.00  0.00    -0.248 NA
ATOM     39  C   UNL A   1      39.216  26.953  29.408  1.00  0.00     0.031 C 
ATOM     40  C   UNL A   1      43.533  25.317  27.465  1.00  0.00     0.029 A 
ATOM     41  N   UNL A   1      43.513  27.420  28.229  1.00  0.00    -0.354 N 
ATOM     42  C   UNL A   1      39.827  29.119  29.844  1.00  0.00     0.074 A 
ATOM     43  C   UNL A   1      38.778  28.119  29.868  1.00  0.00     0.031 C 
ATOM     44  C   UNL A   1      44.749  25.830  27.245  1.00  0.00     0.029 A 
ATOM     45  C   UNL A   1      44.747  27.225  27.659  1.00  0.00     0.049 A 
ATOM     46  H   UNL A   1      43.253  28.248  28.694  1.00  0.00     0.167 HD
ATOM     47  C   UNL A   1      39.711  30.392  30.302  1.00  0.00     0.034 A 
ATOM     48  C   UNL A   1      45.749  28.090  27.443  1.00  0.00     0.034 A 
ATOM     49  C   UNL A   1      40.805  31.340  30.290  1.00  0.00     0.049 A 
ATOM     50  C   UNL A   1      45.585  29.501  27.912  1.00  0.00     0.074 A 
ATOM     51  C   UNL A   1      40.854  32.615  30.829  1.00  0.00     0.029 A 
ATOM     52  N   UNL A   1      42.044  31.117  29.699  1.00  0.00    -0.354 N 
ATOM     53  N   UNL A   1      44.537  30.062  28.467  1.00  0.00    -0.248 NA
ATOM     54  C   UNL A   1      46.740  30.384  27.741  1.00  0.00     0.031 C 
ATOM     55  C   UNL A   1      42.094  33.182  30.509  1.00  0.00     0.029 A 
ATOM     56  C   UNL A   1      42.847  32.243  29.823  1.00  0.00     0.049 A 
ATOM     57  H   UNL A   1      42.313  30.281  29.255  1.00  0.00     0.167 HD
ATOM     58  C   UNL A   1      44.913  31.370  28.737  1.00  0.00     0.074 A 
ATOM     59  C   UNL A   1      46.286  31.506  28.282  1.00  0.00     0.031 C 
ATOM     60  C   UNL A   1      44.197  32.364  29.322  1.00  0.00     0.034 A 
BRANCH  47  61
ATOM     61  C   UNL A   1      38.362  30.850  30.809  1.00  0.00     0.023 A 
ATOM     62  C   UNL A   1      37.405  31.451  29.974  1.00  0.00     0.031 A 
ATOM     63  C   UNL A   1      38.025  30.672  32.166  1.00  0.00     0.131 A 
ATOM     64  C   UNL A   1      36.185  31.901  30.510  1.00  0.00     0.055 A 
ATOM     65  C   UNL A   1      36.786  31.061  32.679  1.00  0.00     0.041 A 
ATOM     66  F   UNL A   1      38.902  30.119  33.019  1.00  0.00    -0.206 F 
ATOM     67  C   UNL A   1      35.861  31.690  31.852  1.00  0.00     0.022 A 
BRANCH  64  68
ATOM     68  S   UNL A   1      35.075  32.875  29.456  1.00  0.00     0.124 S 
ATOM     69  O   UNL A   1      34.091  33.351  30.423  1.00  0.00    -0.237 OA
ATOM     70  O   UNL A   1      35.973  33.884  28.905  1.00  0.00    -0.237 OA
ATOM     71  O   UNL A   1      34.570  31.898  28.493  1.00  0.00    -0.744 OA
ENDBRANCH  64  68
ENDBRANCH  47  61
BRANCH  48  72
ATOM     72  C   UNL A   1      46.964  27.620  26.736  1.00  0.00     0.023 A 
ATOM     73  C   UNL A   1      47.071  27.744  25.346  1.00  0.00     0.031 A 
ATOM     74  C   UNL A   1      48.070  27.131  27.455  1.00  0.00     0.131 A 
ATOM     75  C   UNL A   1      48.265  27.381  24.709  1.00  0.00     0.055 A 
ATOM     76  C   UNL A   1      49.264  26.795  26.819  1.00  0.00     0.041 A 
ATOM     77  F   UNL A   1      48.018  27.027  28.792  1.00  0.00    -0.206 F 
ATOM     78  C   UNL A   1      49.366  26.918  25.437  1.00  0.00     0.022 A 
BRANCH  75  79
ATOM     79  S   UNL A   1      48.360  27.529  22.906  1.00  0.00     0.124 S 
ATOM     80  O   UNL A   1      49.617  28.249  22.731  1.00  0.00    -0.237 OA
ATOM     81  O   UNL A   1      48.357  26.131  22.488  1.00  0.00    -0.237 OA
ATOM     82  O   UNL A   1      47.156  28.282  22.563  1.00  0.00    -0.744 OA
ENDBRANCH  75  79
ENDBRANCH  48  72
BRANCH  60  83
ATOM     83  C   UNL A   1      44.923  33.667  29.512  1.00  0.00     0.023 A 
ATOM     84  C   UNL A   1      44.856  34.685  28.546  1.00  0.00     0.031 A 
ATOM     85  C   UNL A   1      45.748  33.860  30.632  1.00  0.00     0.131 A 
ATOM     86  C   UNL A   1      45.657  35.826  28.684  1.00  0.00     0.055 A 
ATOM     87  C   UNL A   1      46.500  35.024  30.792  1.00  0.00     0.041 A 
ATOM     88  F   UNL A   1      45.850  32.912  31.578  1.00  0.00    -0.206 F 
ATOM     89  C   UNL A   1      46.469  36.008  29.808  1.00  0.00     0.022 A 
BRANCH  86  90
ATOM     90  S   UNL A   1      45.705  37.022  27.322  1.00  0.00     0.124 S 
ATOM     91  O   UNL A   1      44.308  37.050  26.897  1.00  0.00    -0.237 OA
ATOM     92  O   UNL A   1      46.195  38.229  27.980  1.00  0.00    -0.237 OA
ATOM     93  O   UNL A   1      46.632  36.417  26.367  1.00  0.00    -0.744 OA
ENDBRANCH  86  90
ENDBRANCH  60  83
ENDBRANCH  34  35
ENDBRANCH  27  29
ENDBRANCH  26  27
ENDBRANCH  25  26
ENDBRANCH   1  25
TORSDOF 19
ENDMDL
MODEL 2
REMARK VINA RESULT:     -11.5      5.060      9.948
REMARK SMILES COc1cccc(N(CC(=O)OCCOC(=O)c2ccc(-c3c4nc(c(-c5cc(S(=O)(=O)[O-])ccc5F)c5ccc([nH]5)c(-c5cc(S(=O)(=O)[O-])ccc5F)c5nc(c(-c6cc(S(=O)(=O)[O-])ccc6F)c6ccc3[nH]6)C=C5)C=C4)cc2)S(=O)(=O)c2ccc(C)cc2)c1
REMARK SMILES IDX 13 1 12 2 10 3 11 4 9 5 8 6 7 7 3 8 4 9 91 10 5 11 6 12 2 13
REMARK SMILES IDX 1 14 81 15 82 16 83 17 84 18 85 19 90 20 86 21 89 22 87 23
REMARK SMILES IDX 88 24 14 25 15 26 16 27 17 28 18 29 19 30 80 31 20 32 79 33
REMARK SMILES IDX 21 34 22 35 23 36 73 37 24 38 78 39 72 40 74 41 25 42 77 43
REMARK SMILES IDX 71 44 70 45 26 47 58 48 38 49 57 50 39 51 42 52 56 53 75 54
REMARK SMILES IDX 40 55 41 56 55 58 76 59 43 60 27 61 28 62 36 63 29 64 35 65
REMARK SMILES IDX 37 66 34 67 30 68 31 69 32 70 33 71 59 72 60 73 68 74 61 75
REMARK SMILES IDX 67 76 69 77 66 78 62 79 63 80 64 81 65 82 44 83 45 84 53 85
REMARK SMILES IDX 46 86 52 87 54 88 51 89 47 90 48 91 49 92 50 93
REMARK H PARENT 74 46 42 57
REMARK Flexibility Score: inf
ROOT
ATOM      1  C   UNL A   1      31.410  29.427  24.924  1.00  0.00     0.274 C 
ENDROOT
BRANCH   1   2
ATOM      2  O   UNL A   1      31.622  28.084  25.418  1.00  0.00    -0.461 OA
BRANCH   2   3
ATOM      3  C   UNL A   1      32.067  27.172  24.510  1.00  0.00     0.326 C 
ATOM      4  O   UNL A   1      31.739  27.173  23.325  1.00  0.00    -0.250 OA
BRANCH   3   5
ATOM      5  C   UNL A   1      33.116  26.217  25.052  1.00  0.00     0.258 C 
BRANCH   5   6
ATOM      6  N   UNL A   1      33.133  24.834  24.474  1.00  0.00    -0.255 N 
BRANCH   6   7
ATOM      7  C   UNL A   1      34.500  24.232  24.426  1.00  0.00     0.056 A 
ATOM      8  C   UNL A   1      36.624  23.613  25.495  1.00  0.00     0.120 A 
ATOM      9  C   UNL A   1      37.066  23.020  24.319  1.00  0.00     0.046 A 
ATOM     10  C   UNL A   1      35.360  24.214  25.534  1.00  0.00     0.073 A 
ATOM     11  C   UNL A   1      36.217  22.960  23.221  1.00  0.00     0.006 A 
ATOM     12  C   UNL A   1      34.937  23.527  23.289  1.00  0.00     0.027 A 
BRANCH   8  13
ATOM     13  O   UNL A   1      37.505  23.571  26.544  1.00  0.00    -0.497 OA
ATOM     14  C   UNL A   1      38.535  24.558  26.519  1.00  0.00     0.278 C 
ENDBRANCH   8  13
ENDBRANCH   6   7
BRANCH   6  15
ATOM     15  S   UNL A   1      31.921  23.803  25.216  1.00  0.00     0.264 S 
ATOM     16  O   UNL A   1      32.035  23.925  26.658  1.00  0.00    -0.201 OA
ATOM     17  O   UNL A   1      30.669  24.111  24.551  1.00  0.00    -0.201 OA
BRANCH  15  18
ATOM     18  C   UNL A   1      32.300  22.099  24.871  1.00  0.00     0.088 A 
ATOM     19  C   UNL A   1      33.012  21.341  25.807  1.00  0.00     0.022 A 
ATOM     20  C   UNL A   1      32.033  21.575  23.602  1.00  0.00     0.022 A 
ATOM     21  C   UNL A   1      33.390  20.032  25.495  1.00  0.00     0.005 A 
ATOM     22  C   UNL A   1      32.400  20.255  23.306  1.00  0.00     0.005 A 
ATOM     23  C   UNL A   1      33.054  19.465  24.260  1.00  0.00    -0.051 A 
ATOM     24  C   UNL A   1      33.398  18.034  23.963  1.00  0.00     0.044 C 
ENDBRANCH  15  18
ENDBRANCH   6  15
ENDBRANCH   5   6
ENDBRANCH   3   5
ENDBRANCH   2   3
ENDBRANCH   1   2
BRANCH   1  25
ATOM     25  C   UNL A   1      31.797  30.498  25.958  1.00  0.00     0.275 C 
BRANCH  25  26
ATOM     26  O   UNL A   1      33.206  30.486  26.281  1.00  0.00    -0.458 OA
BRANCH  26  27
ATOM     27  C   UNL A   1      33.517  31.430  27.195  1.00  0.00     0.338 C 
ATOM     28  O   UNL A   1      32.836  32.407  27.442  1.00  0.00    -0.246 OA
BRANCH  27  29
ATOM     29  C   UNL A   1      34.727  31.184  27.975  1.00  0.00     0.060 A 
ATOM     30  C   UNL A   1      35.727  32.163  27.992  1.00  0.00     0.016 A 
ATOM     31  C   UNL A   1      34.988  29.884  28.406  1.00  0.00     0.016 A 
ATOM     32  C   UNL A   1      37.008  31.834  28.423  1.00  0.00     0.010 A 
ATOM     33  C   UNL A   1      36.261  29.566  28.874  1.00  0.00     0.010 A 
ATOM     34  C   UNL A   1      37.276  30.539  28.884  1.00  0.00    -0.014 A 
BRANCH  34  35
ATOM     35  C   UNL A   1      38.532  30.253  29.607  1.00  0.00     0.031 A 
ATOM     36  C   UNL A   1      39.513  29.226  29.139  1.00  0.00     0.074 A 
ATOM     37  C   UNL A   1      38.690  30.891  30.780  1.00  0.00     0.049 A 
ATOM     38  N   UNL A   1      40.530  28.707  29.776  1.00  0.00    -0.248 NA
ATOM     39  C   UNL A   1      39.323  28.704  27.783  1.00  0.00     0.031 C 
ATOM     40  C   UNL A   1      37.783  31.922  31.298  1.00  0.00     0.029 A 
ATOM     41  N   UNL A   1      39.626  30.740  31.762  1.00  0.00    -0.354 N 
ATOM     42  C   UNL A   1      41.088  27.771  28.911  1.00  0.00     0.074 A 
ATOM     43  C   UNL A   1      40.281  27.787  27.707  1.00  0.00     0.031 C 
ATOM     44  C   UNL A   1      38.184  32.279  32.524  1.00  0.00     0.029 A 
ATOM     45  C   UNL A   1      39.336  31.469  32.889  1.00  0.00     0.049 A 
ATOM     46  H   UNL A   1      40.423  30.170  31.672  1.00  0.00     0.167 HD
ATOM     47  C   UNL A   1      42.177  26.987  29.118  1.00  0.00     0.034 A 
ATOM     48  C   UNL A   1      39.905  31.449  34.104  1.00  0.00     0.034 A 
ATOM     49  C   UNL A   1      42.973  27.041  30.327  1.00  0.00     0.049 A 
ATOM     50  C   UNL A   1      41.074  30.544  34.328  1.00  0.00     0.074 A 
ATOM     51  C   UNL A   1      44.161  26.390  30.612  1.00  0.00     0.029 A 
ATOM     52  N   UNL A   1      42.651  27.784  31.457  1.00  0.00    -0.354 N 
ATOM     53  N   UNL A   1      41.611  29.680  33.499  1.00  0.00    -0.248 NA
ATOM     54  C   UNL A   1      41.721  30.626  35.638  1.00  0.00     0.031 C 
ATOM     55  C   UNL A   1      44.522  26.689  31.932  1.00  0.00     0.029 A 
ATOM     56  C   UNL A   1      43.594  27.576  32.455  1.00  0.00     0.049 A 
ATOM     57  H   UNL A   1      41.867  28.374  31.539  1.00  0.00     0.167 HD
ATOM     58  C   UNL A   1      42.683  29.124  34.182  1.00  0.00     0.074 A 
ATOM     59  C   UNL A   1      42.711  29.757  35.490  1.00  0.00     0.031 C 
ATOM     60  C   UNL A   1      43.573  28.188  33.763  1.00  0.00     0.034 A 
BRANCH  47  61
ATOM     61  C   UNL A   1      42.549  25.984  28.050  1.00  0.00     0.023 A 
ATOM     62  C   UNL A   1      41.982  24.699  27.990  1.00  0.00     0.031 A 
ATOM     63  C   UNL A   1      43.494  26.328  27.063  1.00  0.00     0.131 A 
ATOM     64  C   UNL A   1      42.401  23.789  27.003  1.00  0.00     0.055 A 
ATOM     65  C   UNL A   1      43.858  25.442  26.045  1.00  0.00     0.041 A 
ATOM     66  F   UNL A   1      44.085  27.533  27.075  1.00  0.00    -0.206 F 
ATOM     67  C   UNL A   1      43.320  24.160  26.017  1.00  0.00     0.022 A 
BRANCH  64  68
ATOM     68  S   UNL A   1      41.821  22.073  27.095  1.00  0.00     0.124 S 
ATOM     69  O   UNL A   1      42.838  21.463  27.947  1.00  0.00    -0.237 OA
ATOM     70  O   UNL A   1      40.496  22.222  27.685  1.00  0.00    -0.237 OA
ATOM     71  O   UNL A   1      41.838  21.630  25.702  1.00  0.00    -0.744 OA
ENDBRANCH  64  68
ENDBRANCH  47  61
BRANCH  48  72
ATOM     72  C   UNL A   1      39.342  32.306  35.174  1.00  0.00     0.023 A 
ATOM     73  C   UNL A   1      38.616  31.741  36.229  1.00  0.00     0.031 A 
ATOM     74  C   UNL A   1      39.608  33.687  35.205  1.00  0.00     0.131 A 
ATOM     75  C   UNL A   1      38.174  32.556  37.280  1.00  0.00     0.055 A 
ATOM     76  C   UNL A   1      39.188  34.489  36.264  1.00  0.00     0.041 A 
ATOM     77  F   UNL A   1      40.328  34.261  34.228  1.00  0.00    -0.206 F 
ATOM     78  C   UNL A   1      38.464  33.924  37.310  1.00  0.00     0.022 A 
BRANCH  75  79
ATOM     79  S   UNL A   1      37.214  31.797  38.615  1.00  0.00     0.124 S 
ATOM     80  O   UNL A   1      37.069  30.426  38.138  1.00  0.00    -0.237 OA
ATOM     81  O   UNL A   1      38.093  31.987  39.765  1.00  0.00    -0.237 OA
ATOM     82  O   UNL A   1      35.983  32.584  38.639  1.00  0.00    -0.744 OA
ENDBRANCH  75  79
ENDBRANCH  48  72
BRANCH  60  83
ATOM     83  C   UNL A   1      44.657  27.832  34.744  1.00  0.00     0.023 A 
ATOM     84  C   UNL A   1      44.418  26.935  35.798  1.00  0.00     0.031 A 
ATOM     85  C   UNL A   1      45.913  28.455  34.666  1.00  0.00     0.131 A 
ATOM     86  C   UNL A   1      45.402  26.736  36.776  1.00  0.00     0.055 A 
ATOM     87  C   UNL A   1      46.909  28.210  35.611  1.00  0.00     0.041 A 
ATOM     88  F   UNL A   1      46.185  29.326  33.681  1.00  0.00    -0.206 F 
ATOM     89  C   UNL A   1      46.650  27.358  36.682  1.00  0.00     0.022 A 
BRANCH  86  90
ATOM     90  S   UNL A   1      44.988  25.736  38.231  1.00  0.00     0.124 S 
ATOM     91  O   UNL A   1      46.216  25.822  39.015  1.00  0.00    -0.237 OA
ATOM     92  O   UNL A   1      43.832  26.441  38.777  1.00  0.00    -0.237 OA
ATOM     93  O   UNL A   1      44.701  24.417  37.669  1.00  0.00    -0.744 OA
ENDBRANCH  86  90
ENDBRANCH  60  83
ENDBRANCH  34  35
ENDBRANCH  27  29
ENDBRANCH  26  27
ENDBRANCH  25  26
ENDBRANCH   1  25
TORSDOF 19
ENDMDL
MODEL 3
REMARK VINA RESULT:     -11.5      5.028      9.742
REMARK SMILES COc1cccc(N(CC(=O)OCCOC(=O)c2ccc(-c3c4nc(c(-c5cc(S(=O)(=O)[O-])ccc5F)c5ccc([nH]5)c(-c5cc(S(=O)(=O)[O-])ccc5F)c5nc(c(-c6cc(S(=O)(=O)[O-])ccc6F)c6ccc3[nH]6)C=C5)C=C4)cc2)S(=O)(=O)c2ccc(C)cc2)c1
REMARK SMILES IDX 13 1 12 2 10 3 11 4 9 5 8 6 7 7 3 8 4 9 91 10 5 11 6 12 2 13
REMARK SMILES IDX 1 14 81 15 82 16 83 17 84 18 85 19 90 20 86 21 89 22 87 23
REMARK SMILES IDX 88 24 14 25 15 26 16 27 17 28 18 29 19 30 80 31 20 32 79 33
REMARK SMILES IDX 21 34 22 35 23 36 73 37 24 38 78 39 72 40 74 41 25 42 77 43
REMARK SMILES IDX 71 44 70 45 26 47 58 48 38 49 57 50 39 51 42 52 56 53 75 54
REMARK SMILES IDX 40 55 41 56 55 58 76 59 43 60 27 61 28 62 36 63 29 64 35 65
REMARK SMILES IDX 37 66 34 67 30 68 31 69 32 70 33 71 59 72 60 73 68 74 61 75
REMARK SMILES IDX 67 76 69 77 66 78 62 79 63 80 64 81 65 82 44 83 45 84 53 85
REMARK SMILES IDX 46 86 52 87 54 88 51 89 47 90 48 91 49 92 50 93
REMARK H PARENT 74 46 42 57
REMARK Flexibility Score: inf
ROOT
ATOM      1  C   UNL A   1      31.762  29.731  25.537  1.00  0.00     0.274 C 
ENDROOT
BRANCH   1   2
ATOM      2  O   UNL A   1      32.436  28.638  26.202  1.00  0.00    -0.461 OA
BRANCH   2   3
ATOM      3  C   UNL A   1      31.646  27.785  26.910  1.00  0.00     0.326 C 
ATOM      4  O   UNL A   1      31.132  28.069  27.990  1.00  0.00    -0.250 OA
BRANCH   3   5
ATOM      5  C   UNL A   1      31.338  26.483  26.193  1.00  0.00     0.258 C 
BRANCH   5   6
ATOM      6  N   UNL A   1      32.261  26.091  25.079  1.00  0.00    -0.255 N 
BRANCH   6   7
ATOM      7  C   UNL A   1      33.209  24.998  25.454  1.00  0.00     0.056 A 
ATOM      8  C   UNL A   1      35.434  23.956  25.394  1.00  0.00     0.120 A 
ATOM      9  C   UNL A   1      35.004  22.942  26.241  1.00  0.00     0.046 A 
ATOM     10  C   UNL A   1      34.538  24.961  25.007  1.00  0.00     0.073 A 
ATOM     11  C   UNL A   1      33.715  22.982  26.757  1.00  0.00     0.006 A 
ATOM     12  C   UNL A   1      32.843  24.018  26.395  1.00  0.00     0.027 A 
BRANCH   8  13
ATOM     13  O   UNL A   1      36.739  23.869  24.984  1.00  0.00    -0.497 OA
ATOM     14  C   UNL A   1      37.135  22.599  24.469  1.00  0.00     0.278 C 
ENDBRANCH   8  13
ENDBRANCH   6   7
BRANCH   6  15
ATOM     15  S   UNL A   1      31.390  25.801  23.582  1.00  0.00     0.264 S 
ATOM     16  O   UNL A   1      32.350  25.753  22.494  1.00  0.00    -0.201 OA
ATOM     17  O   UNL A   1      30.515  24.673  23.838  1.00  0.00    -0.201 OA
BRANCH  15  18
ATOM     18  C   UNL A   1      30.357  27.203  23.216  1.00  0.00     0.088 A 
ATOM     19  C   UNL A   1      28.996  27.167  23.540  1.00  0.00     0.022 A 
ATOM     20  C   UNL A   1      30.869  28.260  22.458  1.00  0.00     0.022 A 
ATOM     21  C   UNL A   1      28.168  28.230  23.168  1.00  0.00     0.005 A 
ATOM     22  C   UNL A   1      30.034  29.329  22.105  1.00  0.00     0.005 A 
ATOM     23  C   UNL A   1      28.685  29.335  22.483  1.00  0.00    -0.051 A 
ATOM     24  C   UNL A   1      27.804  30.505  22.154  1.00  0.00     0.044 C 
ENDBRANCH  15  18
ENDBRANCH   6  15
ENDBRANCH   5   6
ENDBRANCH   3   5
ENDBRANCH   2   3
ENDBRANCH   1   2
BRANCH   1  25
ATOM     25  C   UNL A   1      31.828  31.038  26.347  1.00  0.00     0.275 C 
BRANCH  25  26
ATOM     26  O   UNL A   1      32.668  30.932  27.519  1.00  0.00    -0.458 OA
BRANCH  26  27
ATOM     27  C   UNL A   1      33.599  31.908  27.556  1.00  0.00     0.338 C 
ATOM     28  O   UNL A   1      33.448  33.028  27.105  1.00  0.00    -0.246 OA
BRANCH  27  29
ATOM     29  C   UNL A   1      34.833  31.583  28.265  1.00  0.00     0.060 A 
ATOM     30  C   UNL A   1      35.895  32.493  28.221  1.00  0.00     0.016 A 
ATOM     31  C   UNL A   1      35.033  30.268  28.684  1.00  0.00     0.016 A 
ATOM     32  C   UNL A   1      37.175  32.080  28.577  1.00  0.00     0.010 A 
ATOM     33  C   UNL A   1      36.308  29.866  29.078  1.00  0.00     0.010 A 
ATOM     34  C   UNL A   1      37.384  30.770  29.025  1.00  0.00    -0.014 A 
BRANCH  34  35
ATOM     35  C   UNL A   1      38.658  30.400  29.674  1.00  0.00     0.031 A 
ATOM     36  C   UNL A   1      39.598  29.396  29.088  1.00  0.00     0.074 A 
ATOM     37  C   UNL A   1      38.873  30.937  30.888  1.00  0.00     0.049 A 
ATOM     38  N   UNL A   1      40.625  28.807  29.642  1.00  0.00    -0.248 NA
ATOM     39  C   UNL A   1      39.347  28.990  27.702  1.00  0.00     0.031 C 
ATOM     40  C   UNL A   1      38.010  31.941  31.522  1.00  0.00     0.029 A 
ATOM     41  N   UNL A   1      39.841  30.688  31.818  1.00  0.00    -0.354 N 
ATOM     42  C   UNL A   1      41.129  27.934  28.682  1.00  0.00     0.074 A 
ATOM     43  C   UNL A   1      40.280  28.064  27.516  1.00  0.00     0.031 C 
ATOM     44  C   UNL A   1      38.463  32.188  32.757  1.00  0.00     0.029 A 
ATOM     45  C   UNL A   1      39.609  31.328  33.011  1.00  0.00     0.049 A 
ATOM     46  H   UNL A   1      40.621  30.112  31.652  1.00  0.00     0.167 HD
ATOM     47  C   UNL A   1      42.207  27.114  28.784  1.00  0.00     0.034 A 
ATOM     48  C   UNL A   1      40.221  31.197  34.198  1.00  0.00     0.034 A 
ATOM     49  C   UNL A   1      43.047  27.053  29.962  1.00  0.00     0.049 A 
ATOM     50  C   UNL A   1      41.376  30.254  34.303  1.00  0.00     0.074 A 
ATOM     51  C   UNL A   1      44.230  26.357  30.148  1.00  0.00     0.029 A 
ATOM     52  N   UNL A   1      42.785  27.708  31.160  1.00  0.00    -0.354 N 
ATOM     53  N   UNL A   1      41.863  29.450  33.387  1.00  0.00    -0.248 NA
ATOM     54  C   UNL A   1      42.072  30.215  35.590  1.00  0.00     0.031 C 
ATOM     55  C   UNL A   1      44.645  26.541  31.473  1.00  0.00     0.029 A 
ATOM     56  C   UNL A   1      43.758  27.400  32.101  1.00  0.00     0.049 A 
ATOM     57  H   UNL A   1      42.017  28.304  31.319  1.00  0.00     0.167 HD
ATOM     58  C   UNL A   1      42.946  28.819  33.981  1.00  0.00     0.074 A 
ATOM     59  C   UNL A   1      43.036  29.342  35.334  1.00  0.00     0.031 C 
ATOM     60  C   UNL A   1      43.799  27.903  33.454  1.00  0.00     0.034 A 
BRANCH  47  61
ATOM     61  C   UNL A   1      42.517  26.194  27.625  1.00  0.00     0.023 A 
ATOM     62  C   UNL A   1      41.991  24.894  27.530  1.00  0.00     0.031 A 
ATOM     63  C   UNL A   1      43.358  26.635  26.584  1.00  0.00     0.131 A 
ATOM     64  C   UNL A   1      42.352  24.064  26.454  1.00  0.00     0.055 A 
ATOM     65  C   UNL A   1      43.660  25.830  25.483  1.00  0.00     0.041 A 
ATOM     66  F   UNL A   1      43.906  27.861  26.623  1.00  0.00    -0.206 F 
ATOM     67  C   UNL A   1      43.166  24.532  25.419  1.00  0.00     0.022 A 
BRANCH  64  68
ATOM     68  S   UNL A   1      41.841  22.324  26.484  1.00  0.00     0.124 S 
ATOM     69  O   UNL A   1      40.399  22.435  26.289  1.00  0.00    -0.237 OA
ATOM     70  O   UNL A   1      42.597  21.757  25.373  1.00  0.00    -0.237 OA
ATOM     71  O   UNL A   1      42.250  21.870  27.813  1.00  0.00    -0.744 OA
ENDBRANCH  64  68
ENDBRANCH  47  61
BRANCH  48  72
ATOM     72  C   UNL A   1      39.717  31.975  35.355  1.00  0.00     0.023 A 
ATOM     73  C   UNL A   1      40.144  33.291  35.567  1.00  0.00     0.031 A 
ATOM     74  C   UNL A   1      38.730  31.443  36.204  1.00  0.00     0.131 A 
ATOM     75  C   UNL A   1      39.584  34.040  36.610  1.00  0.00     0.055 A 
ATOM     76  C   UNL A   1      38.158  32.201  37.225  1.00  0.00     0.041 A 
ATOM     77  F   UNL A   1      38.271  30.196  36.014  1.00  0.00    -0.206 F 
ATOM     78  C   UNL A   1      38.587  33.509  37.434  1.00  0.00     0.022 A 
BRANCH  75  79
ATOM     79  S   UNL A   1      40.179  35.731  36.873  1.00  0.00     0.124 S 
ATOM     80  O   UNL A   1      39.558  36.072  38.148  1.00  0.00    -0.237 OA
ATOM     81  O   UNL A   1      41.627  35.542  36.894  1.00  0.00    -0.237 OA
ATOM     82  O   UNL A   1      39.665  36.457  35.714  1.00  0.00    -0.744 OA
ENDBRANCH  75  79
ENDBRANCH  48  72
BRANCH  60  83
ATOM     83  C   UNL A   1      44.909  27.447  34.361  1.00  0.00     0.023 A 
ATOM     84  C   UNL A   1      44.736  26.357  35.231  1.00  0.00     0.031 A 
ATOM     85  C   UNL A   1      46.120  28.157  34.408  1.00  0.00     0.131 A 
ATOM     86  C   UNL A   1      45.736  26.049  36.163  1.00  0.00     0.055 A 
ATOM     87  C   UNL A   1      47.135  27.809  35.299  1.00  0.00     0.041 A 
ATOM     88  F   UNL A   1      46.327  29.210  33.602  1.00  0.00    -0.206 F 
ATOM     89  C   UNL A   1      46.940  26.760  36.194  1.00  0.00     0.022 A 
BRANCH  86  90
ATOM     90  S   UNL A   1      45.398  24.773  37.406  1.00  0.00     0.124 S 
ATOM     91  O   UNL A   1      45.430  23.554  36.603  1.00  0.00    -0.237 OA
ATOM     92  O   UNL A   1      46.503  24.948  38.344  1.00  0.00    -0.237 OA
ATOM     93  O   UNL A   1      44.082  25.141  37.925  1.00  0.00    -0.744 OA
ENDBRANCH  86  90
ENDBRANCH  60  83
ENDBRANCH  34  35
ENDBRANCH  27  29
ENDBRANCH  26  27
ENDBRANCH  25  26
ENDBRANCH   1  25
TORSDOF 19
ENDMDL
