MODEL 1
REMARK VINA RESULT:      -9.7      0.000      0.000
REMARK SMILES O=C(OCCOC(=O)[C@@H](F)[C@H](O)c1cccc(Cl)c1)c1ccc(-c2c3nc(c(-c4cc(S(=O)(=O)[O-])ccc4F)c4ccc([nH]4)c(-c4cc(S(=O)(=O)[O-])ccc4F)c4nc(c(-c5cc(S(=O)(=O)[O-])ccc5F)c5ccc2[nH]5)C=C4)C=C3)cc1
REMARK SMILES IDX 4 1 3 2 2 3 1 4 20 5 21 6 82 7 22 8 81 9 23 10 24 11 25 12
REMARK SMILES IDX 75 13 26 14 80 15 74 16 76 17 27 18 79 19 73 20 72 21 28 23
REMARK SMILES IDX 60 24 40 25 59 26 41 27 44 28 58 29 77 30 42 31 43 32 57 34
REMARK SMILES IDX 78 35 45 36 29 37 30 38 38 39 31 40 37 41 39 42 36 43 32 44
REMARK SMILES IDX 33 45 34 46 35 47 61 48 62 49 70 50 63 51 69 52 71 53 68 54
REMARK SMILES IDX 64 55 65 56 66 57 67 58 46 59 47 60 55 61 48 62 54 63 56 64
REMARK SMILES IDX 53 65 49 66 50 67 51 68 52 69 5 70 6 71 7 72 8 73 9 74 10 75
REMARK SMILES IDX 11 76 13 77 14 78 19 79 15 80 17 81 16 82 18 83 12 84
REMARK H PARENT 76 22 44 33 12 85
REMARK Flexibility Score: inf
ROOT
ATOM      1  C   UNL A   1      41.374  21.472  26.833  1.00  0.00     0.275 C 
ENDROOT
BRANCH   1   2
ATOM      2  O   UNL A   1      40.054  21.579  26.271  1.00  0.00    -0.458 OA
BRANCH   2   3
ATOM      3  C   UNL A   1      39.161  22.599  26.329  1.00  0.00     0.338 C 
ATOM      4  O   UNL A   1      38.072  22.435  25.775  1.00  0.00    -0.246 OA
BRANCH   3   5
ATOM      5  C   UNL A   1      39.452  23.958  26.900  1.00  0.00     0.060 A 
ATOM      6  C   UNL A   1      39.195  24.384  28.207  1.00  0.00     0.016 A 
ATOM      7  C   UNL A   1      40.067  24.878  26.027  1.00  0.00     0.016 A 
ATOM      8  C   UNL A   1      39.624  25.638  28.662  1.00  0.00     0.010 A 
ATOM      9  C   UNL A   1      40.493  26.136  26.474  1.00  0.00     0.010 A 
ATOM     10  C   UNL A   1      40.293  26.513  27.807  1.00  0.00    -0.014 A 
BRANCH  10  11
ATOM     11  C   UNL A   1      40.691  27.860  28.273  1.00  0.00     0.031 A 
ATOM     12  C   UNL A   1      42.145  28.136  28.500  1.00  0.00     0.074 A 
ATOM     13  C   UNL A   1      39.769  28.821  28.483  1.00  0.00     0.049 A 
ATOM     14  N   UNL A   1      42.719  29.214  28.961  1.00  0.00    -0.248 NA
ATOM     15  C   UNL A   1      43.081  27.062  28.124  1.00  0.00     0.031 C 
ATOM     16  C   UNL A   1      38.341  28.702  28.191  1.00  0.00     0.029 A 
ATOM     17  N   UNL A   1      39.888  30.075  29.032  1.00  0.00    -0.354 N 
ATOM     18  C   UNL A   1      44.084  28.972  28.880  1.00  0.00     0.074 A 
ATOM     19  C   UNL A   1      44.251  27.619  28.397  1.00  0.00     0.031 C 
ATOM     20  C   UNL A   1      37.703  29.790  28.662  1.00  0.00     0.029 A 
ATOM     21  C   UNL A   1      38.674  30.674  29.295  1.00  0.00     0.049 A 
ATOM     22  H   UNL A   1      40.755  30.502  29.221  1.00  0.00     0.167 HD
ATOM     23  C   UNL A   1      45.102  29.823  29.151  1.00  0.00     0.034 A 
ATOM     24  C   UNL A   1      38.387  31.778  30.014  1.00  0.00     0.034 A 
ATOM     25  C   UNL A   1      44.908  31.148  29.679  1.00  0.00     0.049 A 
ATOM     26  C   UNL A   1      39.535  32.592  30.557  1.00  0.00     0.074 A 
ATOM     27  C   UNL A   1      45.853  32.117  29.958  1.00  0.00     0.029 A 
ATOM     28  N   UNL A   1      43.675  31.676  30.041  1.00  0.00    -0.354 N 
ATOM     29  N   UNL A   1      40.825  32.387  30.416  1.00  0.00    -0.248 NA
ATOM     30  C   UNL A   1      39.198  33.790  31.336  1.00  0.00     0.031 C 
ATOM     31  C   UNL A   1      45.200  33.199  30.561  1.00  0.00     0.029 A 
ATOM     32  C   UNL A   1      43.840  32.931  30.602  1.00  0.00     0.049 A 
ATOM     33  H   UNL A   1      42.809  31.223  29.919  1.00  0.00     0.167 HD
ATOM     34  C   UNL A   1      41.451  33.464  31.036  1.00  0.00     0.074 A 
ATOM     35  C   UNL A   1      40.397  34.303  31.570  1.00  0.00     0.031 C 
ATOM     36  C   UNL A   1      42.775  33.748  31.130  1.00  0.00     0.034 A 
BRANCH  23  37
ATOM     37  C   UNL A   1      46.497  29.313  28.914  1.00  0.00     0.023 A 
ATOM     38  C   UNL A   1      46.993  29.123  27.611  1.00  0.00     0.031 A 
ATOM     39  C   UNL A   1      47.323  28.968  29.996  1.00  0.00     0.131 A 
ATOM     40  C   UNL A   1      48.255  28.542  27.423  1.00  0.00     0.055 A 
ATOM     41  C   UNL A   1      48.603  28.448  29.802  1.00  0.00     0.041 A 
ATOM     42  F   UNL A   1      46.886  29.107  31.257  1.00  0.00    -0.206 F 
ATOM     43  C   UNL A   1      49.072  28.222  28.511  1.00  0.00     0.022 A 
BRANCH  40  44
ATOM     44  S   UNL A   1      48.773  28.109  25.739  1.00  0.00     0.124 S 
ATOM     45  O   UNL A   1      47.601  28.500  24.960  1.00  0.00    -0.237 OA
ATOM     46  O   UNL A   1      49.965  28.931  25.553  1.00  0.00    -0.237 OA
ATOM     47  O   UNL A   1      49.014  26.671  25.813  1.00  0.00    -0.744 OA
ENDBRANCH  40  44
ENDBRANCH  23  37
BRANCH  24  48
ATOM     48  C   UNL A   1      36.979  32.126  30.368  1.00  0.00     0.023 A 
ATOM     49  C   UNL A   1      36.119  32.776  29.471  1.00  0.00     0.031 A 
ATOM     50  C   UNL A   1      36.514  31.908  31.680  1.00  0.00     0.131 A 
ATOM     51  C   UNL A   1      34.864  33.233  29.911  1.00  0.00     0.055 A 
ATOM     52  C   UNL A   1      35.247  32.318  32.098  1.00  0.00     0.041 A 
ATOM     53  F   UNL A   1      37.304  31.312  32.586  1.00  0.00    -0.206 F 
ATOM     54  C   UNL A   1      34.419  33.001  31.215  1.00  0.00     0.022 A 
BRANCH  51  55
ATOM     55  S   UNL A   1      33.862  34.250  28.788  1.00  0.00     0.124 S 
ATOM     56  O   UNL A   1      32.845  34.778  29.691  1.00  0.00    -0.237 OA
ATOM     57  O   UNL A   1      34.845  35.209  28.296  1.00  0.00    -0.237 OA
ATOM     58  O   UNL A   1      33.380  33.290  27.798  1.00  0.00    -0.744 OA
ENDBRANCH  51  55
ENDBRANCH  24  48
BRANCH  36  59
ATOM     59  C   UNL A   1      43.139  35.054  31.780  1.00  0.00     0.023 A 
ATOM     60  C   UNL A   1      43.428  36.199  31.021  1.00  0.00     0.031 A 
ATOM     61  C   UNL A   1      43.207  35.146  33.181  1.00  0.00     0.131 A 
ATOM     62  C   UNL A   1      43.818  37.380  31.670  1.00  0.00     0.055 A 
ATOM     63  C   UNL A   1      43.540  36.338  33.822  1.00  0.00     0.041 A 
ATOM     64  F   UNL A   1      42.945  34.075  33.949  1.00  0.00    -0.206 F 
ATOM     65  C   UNL A   1      43.857  37.462  33.065  1.00  0.00     0.022 A 
BRANCH  62  66
ATOM     66  S   UNL A   1      44.339  38.793  30.661  1.00  0.00     0.124 S 
ATOM     67  O   UNL A   1      44.135  38.289  29.307  1.00  0.00    -0.237 OA
ATOM     68  O   UNL A   1      43.425  39.844  31.095  1.00  0.00    -0.237 OA
ATOM     69  O   UNL A   1      45.736  38.992  31.046  1.00  0.00    -0.744 OA
ENDBRANCH  62  66
ENDBRANCH  36  59
ENDBRANCH  10  11
ENDBRANCH   3   5
ENDBRANCH   2   3
ENDBRANCH   1   2
BRANCH   1  70
ATOM     70  C   UNL A   1      42.476  21.328  25.782  1.00  0.00     0.274 C 
BRANCH  70  71
ATOM     71  O   UNL A   1      42.767  22.590  25.170  1.00  0.00    -0.460 OA
BRANCH  71  72
ATOM     72  C   UNL A   1      43.948  22.701  24.500  1.00  0.00     0.343 C 
ATOM     73  O   UNL A   1      44.267  22.034  23.522  1.00  0.00    -0.249 OA
BRANCH  72  74
ATOM     74  C   UNL A   1      44.809  23.804  25.073  1.00  0.00     0.308 C 
ATOM     75  F   UNL A   1      44.092  24.707  25.801  1.00  0.00    -0.232 F 
BRANCH  74  76
ATOM     76  C   UNL A   1      45.913  23.229  25.956  1.00  0.00     0.190 C 
BRANCH  76  77
ATOM     77  C   UNL A   1      45.848  23.830  27.351  1.00  0.00    -0.015 A 
ATOM     78  C   UNL A   1      46.767  24.800  27.781  1.00  0.00     0.006 A 
ATOM     79  C   UNL A   1      44.890  23.374  28.267  1.00  0.00     0.027 A 
ATOM     80  C   UNL A   1      46.700  25.344  29.064  1.00  0.00     0.002 A 
ATOM     81  C   UNL A   1      44.839  23.904  29.558  1.00  0.00     0.041 A 
ATOM     82  C   UNL A   1      45.729  24.898  29.955  1.00  0.00     0.020 A 
ATOM     83  Cl  UNL A   1      43.670  23.309  30.672  1.00  0.00    -0.084 Cl
ENDBRANCH  76  77
BRANCH  76  84
ATOM     84  O   UNL A   1      45.837  21.799  26.001  1.00  0.00    -0.385 OA
ATOM     85  H   UNL A   1      45.143  21.493  25.398  1.00  0.00     0.211 HD
ENDBRANCH  76  84
ENDBRANCH  74  76
ENDBRANCH  72  74
ENDBRANCH  71  72
ENDBRANCH  70  71
ENDBRANCH   1  70
TORSDOF 17
ENDMDL
MODEL 2
REMARK VINA RESULT:      -9.6      4.862     10.678
REMARK SMILES O=C(OCCOC(=O)[C@@H](F)[C@H](O)c1cccc(Cl)c1)c1ccc(-c2c3nc(c(-c4cc(S(=O)(=O)[O-])ccc4F)c4ccc([nH]4)c(-c4cc(S(=O)(=O)[O-])ccc4F)c4nc(c(-c5cc(S(=O)(=O)[O-])ccc5F)c5ccc2[nH]5)C=C4)C=C3)cc1
REMARK SMILES IDX 4 1 3 2 2 3 1 4 20 5 21 6 82 7 22 8 81 9 23 10 24 11 25 12
REMARK SMILES IDX 75 13 26 14 80 15 74 16 76 17 27 18 79 19 73 20 72 21 28 23
REMARK SMILES IDX 60 24 40 25 59 26 41 27 44 28 58 29 77 30 42 31 43 32 57 34
REMARK SMILES IDX 78 35 45 36 29 37 30 38 38 39 31 40 37 41 39 42 36 43 32 44
REMARK SMILES IDX 33 45 34 46 35 47 61 48 62 49 70 50 63 51 69 52 71 53 68 54
REMARK SMILES IDX 64 55 65 56 66 57 67 58 46 59 47 60 55 61 48 62 54 63 56 64
REMARK SMILES IDX 53 65 49 66 50 67 51 68 52 69 5 70 6 71 7 72 8 73 9 74 10 75
REMARK SMILES IDX 11 76 13 77 14 78 19 79 15 80 17 81 16 82 18 83 12 84
REMARK H PARENT 76 22 44 33 12 85
REMARK Flexibility Score: inf
ROOT
ATOM      1  C   UNL A   1      33.928  33.412  28.215  1.00  0.00     0.275 C 
ENDROOT
BRANCH   1   2
ATOM      2  O   UNL A   1      33.478  32.133  27.731  1.00  0.00    -0.458 OA
BRANCH   2   3
ATOM      3  C   UNL A   1      34.191  31.038  27.367  1.00  0.00     0.338 C 
ATOM      4  O   UNL A   1      33.640  30.220  26.627  1.00  0.00    -0.246 OA
BRANCH   3   5
ATOM      5  C   UNL A   1      35.546  30.682  27.910  1.00  0.00     0.060 A 
ATOM      6  C   UNL A   1      36.746  31.355  27.658  1.00  0.00     0.016 A 
ATOM      7  C   UNL A   1      35.595  29.570  28.775  1.00  0.00     0.016 A 
ATOM      8  C   UNL A   1      37.930  31.005  28.319  1.00  0.00     0.010 A 
ATOM      9  C   UNL A   1      36.778  29.211  29.436  1.00  0.00     0.010 A 
ATOM     10  C   UNL A   1      37.951  29.946  29.226  1.00  0.00    -0.014 A 
BRANCH  10  11
ATOM     11  C   UNL A   1      39.217  29.539  29.877  1.00  0.00     0.031 A 
ATOM     12  C   UNL A   1      39.948  28.351  29.333  1.00  0.00     0.074 A 
ATOM     13  C   UNL A   1      39.706  30.224  30.930  1.00  0.00     0.049 A 
ATOM     14  N   UNL A   1      41.036  27.779  29.774  1.00  0.00    -0.248 NA
ATOM     15  C   UNL A   1      39.398  27.747  28.108  1.00  0.00     0.031 C 
ATOM     16  C   UNL A   1      39.140  31.458  31.473  1.00  0.00     0.029 A 
ATOM     17  N   UNL A   1      40.768  29.957  31.760  1.00  0.00    -0.354 N 
ATOM     18  C   UNL A   1      41.332  26.783  28.853  1.00  0.00     0.074 A 
ATOM     19  C   UNL A   1      40.271  26.781  27.870  1.00  0.00     0.031 C 
ATOM     20  C   UNL A   1      39.791  31.780  32.606  1.00  0.00     0.029 A 
ATOM     21  C   UNL A   1      40.811  30.773  32.871  1.00  0.00     0.049 A 
ATOM     22  H   UNL A   1      41.430  29.252  31.580  1.00  0.00     0.167 HD
ATOM     23  C   UNL A   1      42.416  25.973  28.816  1.00  0.00     0.034 A 
ATOM     24  C   UNL A   1      41.552  30.674  33.993  1.00  0.00     0.034 A 
ATOM     25  C   UNL A   1      43.433  25.963  29.835  1.00  0.00     0.049 A 
ATOM     26  C   UNL A   1      42.591  29.583  34.066  1.00  0.00     0.074 A 
ATOM     27  C   UNL A   1      44.596  25.218  29.892  1.00  0.00     0.029 A 
ATOM     28  N   UNL A   1      43.383  26.716  31.001  1.00  0.00    -0.354 N 
ATOM     29  N   UNL A   1      42.907  28.689  33.157  1.00  0.00    -0.248 NA
ATOM     30  C   UNL A   1      43.387  29.497  35.297  1.00  0.00     0.031 C 
ATOM     31  C   UNL A   1      45.208  25.464  31.127  1.00  0.00     0.029 A 
ATOM     32  C   UNL A   1      44.460  26.408  31.814  1.00  0.00     0.049 A 
ATOM     33  H   UNL A   1      42.683  27.374  31.219  1.00  0.00     0.167 HD
ATOM     34  C   UNL A   1      43.978  27.974  33.684  1.00  0.00     0.074 A 
ATOM     35  C   UNL A   1      44.239  28.527  34.997  1.00  0.00     0.031 C 
ATOM     36  C   UNL A   1      44.698  26.970  33.121  1.00  0.00     0.034 A 
BRANCH  23  37
ATOM     37  C   UNL A   1      42.515  25.019  27.657  1.00  0.00     0.023 A 
ATOM     38  C   UNL A   1      41.938  23.738  27.713  1.00  0.00     0.031 A 
ATOM     39  C   UNL A   1      43.233  25.374  26.503  1.00  0.00     0.131 A 
ATOM     40  C   UNL A   1      42.142  22.834  26.662  1.00  0.00     0.055 A 
ATOM     41  C   UNL A   1      43.380  24.491  25.433  1.00  0.00     0.041 A 
ATOM     42  F   UNL A   1      43.824  26.575  26.411  1.00  0.00    -0.206 F 
ATOM     43  C   UNL A   1      42.843  23.209  25.513  1.00  0.00     0.022 A 
BRANCH  40  44
ATOM     44  S   UNL A   1      41.572  21.123  26.861  1.00  0.00     0.124 S 
ATOM     45  O   UNL A   1      42.321  20.697  28.040  1.00  0.00    -0.237 OA
ATOM     46  O   UNL A   1      40.134  21.287  27.045  1.00  0.00    -0.237 OA
ATOM     47  O   UNL A   1      41.971  20.480  25.612  1.00  0.00    -0.744 OA
ENDBRANCH  40  44
ENDBRANCH  23  37
BRANCH  24  48
ATOM     48  C   UNL A   1      41.277  31.538  35.180  1.00  0.00     0.023 A 
ATOM     49  C   UNL A   1      40.116  31.400  35.955  1.00  0.00     0.031 A 
ATOM     50  C   UNL A   1      42.142  32.608  35.480  1.00  0.00     0.131 A 
ATOM     51  C   UNL A   1      39.825  32.346  36.954  1.00  0.00     0.055 A 
ATOM     52  C   UNL A   1      41.876  33.515  36.506  1.00  0.00     0.041 A 
ATOM     53  F   UNL A   1      43.255  32.800  34.755  1.00  0.00    -0.206 F 
ATOM     54  C   UNL A   1      40.701  33.397  37.240  1.00  0.00     0.022 A 
BRANCH  51  55
ATOM     55  S   UNL A   1      38.219  32.261  37.797  1.00  0.00     0.124 S 
ATOM     56  O   UNL A   1      37.565  33.474  37.319  1.00  0.00    -0.237 OA
ATOM     57  O   UNL A   1      37.685  31.000  37.294  1.00  0.00    -0.237 OA
ATOM     58  O   UNL A   1      38.578  32.264  39.214  1.00  0.00    -0.744 OA
ENDBRANCH  51  55
ENDBRANCH  24  48
BRANCH  36  59
ATOM     59  C   UNL A   1      45.875  26.462  33.908  1.00  0.00     0.023 A 
ATOM     60  C   UNL A   1      45.769  25.348  34.756  1.00  0.00     0.031 A 
ATOM     61  C   UNL A   1      47.117  27.114  33.812  1.00  0.00     0.131 A 
ATOM     62  C   UNL A   1      46.879  24.945  35.513  1.00  0.00     0.055 A 
ATOM     63  C   UNL A   1      48.231  26.674  34.523  1.00  0.00     0.041 A 
ATOM     64  F   UNL A   1      47.265  28.188  33.018  1.00  0.00    -0.206 F 
ATOM     65  C   UNL A   1      48.114  25.589  35.387  1.00  0.00     0.022 A 
BRANCH  62  66
ATOM     66  S   UNL A   1      46.670  23.606  36.716  1.00  0.00     0.124 S 
ATOM     67  O   UNL A   1      47.697  23.923  37.703  1.00  0.00    -0.237 OA
ATOM     68  O   UNL A   1      45.289  23.787  37.152  1.00  0.00    -0.237 OA
ATOM     69  O   UNL A   1      46.915  22.398  35.929  1.00  0.00    -0.744 OA
ENDBRANCH  62  66
ENDBRANCH  36  59
ENDBRANCH  10  11
ENDBRANCH   3   5
ENDBRANCH   2   3
ENDBRANCH   1   2
BRANCH   1  70
ATOM     70  C   UNL A   1      32.815  34.456  28.311  1.00  0.00     0.274 C 
BRANCH  70  71
ATOM     71  O   UNL A   1      32.716  34.977  29.641  1.00  0.00    -0.460 OA
BRANCH  71  72
ATOM     72  C   UNL A   1      33.033  36.290  29.821  1.00  0.00     0.343 C 
ATOM     73  O   UNL A   1      32.893  37.169  28.978  1.00  0.00    -0.249 OA
BRANCH  72  74
ATOM     74  C   UNL A   1      33.525  36.554  31.226  1.00  0.00     0.308 C 
ATOM     75  F   UNL A   1      33.247  37.819  31.653  1.00  0.00    -0.232 F 
BRANCH  74  76
ATOM     76  C   UNL A   1      32.917  35.560  32.211  1.00  0.00     0.190 C 
BRANCH  76  77
ATOM     77  C   UNL A   1      34.002  34.703  32.843  1.00  0.00    -0.015 A 
ATOM     78  C   UNL A   1      34.706  35.125  33.983  1.00  0.00     0.006 A 
ATOM     79  C   UNL A   1      34.366  33.485  32.254  1.00  0.00     0.027 A 
ATOM     80  C   UNL A   1      35.702  34.332  34.554  1.00  0.00     0.002 A 
ATOM     81  C   UNL A   1      35.378  32.704  32.815  1.00  0.00     0.041 A 
ATOM     82  C   UNL A   1      36.037  33.115  33.971  1.00  0.00     0.020 A 
ATOM     83  Cl  UNL A   1      35.824  31.224  32.058  1.00  0.00    -0.084 Cl
ENDBRANCH  76  77
BRANCH  76  84
ATOM     84  O   UNL A   1      32.144  36.239  33.208  1.00  0.00    -0.385 OA
ATOM     85  H   UNL A   1      32.200  37.196  33.065  1.00  0.00     0.211 HD
ENDBRANCH  76  84
ENDBRANCH  74  76
ENDBRANCH  72  74
ENDBRANCH  71  72
ENDBRANCH  70  71
ENDBRANCH   1  70
TORSDOF 17
ENDMDL
MODEL 3
REMARK VINA RESULT:      -9.6      4.008     11.145
REMARK SMILES O=C(OCCOC(=O)[C@@H](F)[C@H](O)c1cccc(Cl)c1)c1ccc(-c2c3nc(c(-c4cc(S(=O)(=O)[O-])ccc4F)c4ccc([nH]4)c(-c4cc(S(=O)(=O)[O-])ccc4F)c4nc(c(-c5cc(S(=O)(=O)[O-])ccc5F)c5ccc2[nH]5)C=C4)C=C3)cc1
REMARK SMILES IDX 4 1 3 2 2 3 1 4 20 5 21 6 82 7 22 8 81 9 23 10 24 11 25 12
REMARK SMILES IDX 75 13 26 14 80 15 74 16 76 17 27 18 79 19 73 20 72 21 28 23
REMARK SMILES IDX 60 24 40 25 59 26 41 27 44 28 58 29 77 30 42 31 43 32 57 34
REMARK SMILES IDX 78 35 45 36 29 37 30 38 38 39 31 40 37 41 39 42 36 43 32 44
REMARK SMILES IDX 33 45 34 46 35 47 61 48 62 49 70 50 63 51 69 52 71 53 68 54
REMARK SMILES IDX 64 55 65 56 66 57 67 58 46 59 47 60 55 61 48 62 54 63 56 64
REMARK SMILES IDX 53 65 49 66 50 67 51 68 52 69 5 70 6 71 7 72 8 73 9 74 10 75
REMARK SMILES IDX 11 76 13 77 14 78 19 79 15 80 17 81 16 82 18 83 12 84
REMARK H PARENT 76 22 44 33 12 85
REMARK Flexibility Score: inf
ROOT
ATOM      1  C   UNL A   1      34.451  33.547  28.553  1.00  0.00     0.275 C 
ENDROOT
BRANCH   1   2
ATOM      2  O   UNL A   1      33.878  32.323  28.056  1.00  0.00    -0.458 OA
BRANCH   2   3
ATOM      3  C   UNL A   1      34.481  31.168  27.680  1.00  0.00     0.338 C 
ATOM      4  O   UNL A   1      33.924  30.490  26.815  1.00  0.00    -0.246 OA
BRANCH   3   5
ATOM      5  C   UNL A   1      35.702  30.588  28.338  1.00  0.00     0.060 A 
ATOM      6  C   UNL A   1      35.749  29.924  29.568  1.00  0.00     0.016 A 
ATOM      7  C   UNL A   1      36.910  30.712  27.621  1.00  0.00     0.016 A 
ATOM      8  C   UNL A   1      36.926  29.317  30.023  1.00  0.00     0.010 A 
ATOM      9  C   UNL A   1      38.092  30.111  28.074  1.00  0.00     0.010 A 
ATOM     10  C   UNL A   1      38.098  29.388  29.272  1.00  0.00    -0.014 A 
BRANCH  10  11
ATOM     11  C   UNL A   1      39.355  28.797  29.784  1.00  0.00     0.031 A 
ATOM     12  C   UNL A   1      40.080  29.507  30.885  1.00  0.00     0.074 A 
ATOM     13  C   UNL A   1      39.835  27.643  29.279  1.00  0.00     0.049 A 
ATOM     14  N   UNL A   1      41.221  29.213  31.447  1.00  0.00    -0.248 NA
ATOM     15  C   UNL A   1      39.412  30.691  31.452  1.00  0.00     0.031 C 
ATOM     16  C   UNL A   1      39.160  26.809  28.286  1.00  0.00     0.029 A 
ATOM     17  N   UNL A   1      41.025  26.993  29.499  1.00  0.00    -0.354 N 
ATOM     18  C   UNL A   1      41.383  30.139  32.469  1.00  0.00     0.074 A 
ATOM     19  C   UNL A   1      40.262  31.050  32.402  1.00  0.00     0.031 C 
ATOM     20  C   UNL A   1      39.989  25.819  27.904  1.00  0.00     0.029 A 
ATOM     21  C   UNL A   1      41.253  25.957  28.618  1.00  0.00     0.049 A 
ATOM     22  H   UNL A   1      41.653  27.242  30.215  1.00  0.00     0.167 HD
ATOM     23  C   UNL A   1      42.365  30.194  33.400  1.00  0.00     0.034 A 
ATOM     24  C   UNL A   1      42.375  25.248  28.381  1.00  0.00     0.034 A 
ATOM     25  C   UNL A   1      43.496  29.305  33.412  1.00  0.00     0.049 A 
ATOM     26  C   UNL A   1      43.577  25.505  29.256  1.00  0.00     0.074 A 
ATOM     27  C   UNL A   1      44.534  29.235  34.323  1.00  0.00     0.029 A 
ATOM     28  N   UNL A   1      43.753  28.348  32.439  1.00  0.00    -0.354 N 
ATOM     29  N   UNL A   1      43.694  26.339  30.264  1.00  0.00    -0.248 NA
ATOM     30  C   UNL A   1      44.786  24.719  28.981  1.00  0.00     0.031 C 
ATOM     31  C   UNL A   1      45.457  28.290  33.857  1.00  0.00     0.029 A 
ATOM     32  C   UNL A   1      44.965  27.727  32.689  1.00  0.00     0.049 A 
ATOM     33  H   UNL A   1      43.161  28.142  31.679  1.00  0.00     0.167 HD
ATOM     34  C   UNL A   1      44.969  26.133  30.781  1.00  0.00     0.074 A 
ATOM     35  C   UNL A   1      45.589  25.113  29.960  1.00  0.00     0.031 C 
ATOM     36  C   UNL A   1      45.564  26.714  31.854  1.00  0.00     0.034 A 
BRANCH  23  37
ATOM     37  C   UNL A   1      42.257  31.276  34.439  1.00  0.00     0.023 A 
ATOM     38  C   UNL A   1      41.198  31.298  35.364  1.00  0.00     0.031 A 
ATOM     39  C   UNL A   1      43.192  32.324  34.476  1.00  0.00     0.131 A 
ATOM     40  C   UNL A   1      41.064  32.379  36.247  1.00  0.00     0.055 A 
ATOM     41  C   UNL A   1      43.088  33.365  35.398  1.00  0.00     0.041 A 
ATOM     42  F   UNL A   1      44.206  32.363  33.597  1.00  0.00    -0.206 F 
ATOM     43  C   UNL A   1      42.014  33.403  36.284  1.00  0.00     0.022 A 
BRANCH  40  44
ATOM     44  S   UNL A   1      39.572  32.486  37.274  1.00  0.00     0.124 S 
ATOM     45  O   UNL A   1      40.143  32.609  38.613  1.00  0.00    -0.237 OA
ATOM     46  O   UNL A   1      38.912  33.677  36.751  1.00  0.00    -0.237 OA
ATOM     47  O   UNL A   1      38.883  31.226  37.010  1.00  0.00    -0.744 OA
ENDBRANCH  40  44
ENDBRANCH  23  37
BRANCH  24  48
ATOM     48  C   UNL A   1      42.473  24.320  27.216  1.00  0.00     0.023 A 
ATOM     49  C   UNL A   1      41.994  23.002  27.265  1.00  0.00     0.031 A 
ATOM     50  C   UNL A   1      43.169  24.721  26.059  1.00  0.00     0.131 A 
ATOM     51  C   UNL A   1      42.264  22.120  26.204  1.00  0.00     0.055 A 
ATOM     52  C   UNL A   1      43.390  23.858  24.985  1.00  0.00     0.041 A 
ATOM     53  F   UNL A   1      43.669  25.963  25.969  1.00  0.00    -0.206 F 
ATOM     54  C   UNL A   1      42.950  22.541  25.061  1.00  0.00     0.022 A 
BRANCH  51  55
ATOM     55  S   UNL A   1      41.813  20.370  26.386  1.00  0.00     0.124 S 
ATOM     56  O   UNL A   1      42.230  20.095  27.757  1.00  0.00    -0.237 OA
ATOM     57  O   UNL A   1      40.375  20.406  26.146  1.00  0.00    -0.237 OA
ATOM     58  O   UNL A   1      42.601  19.706  25.350  1.00  0.00    -0.744 OA
ENDBRANCH  51  55
ENDBRANCH  24  48
BRANCH  36  59
ATOM     59  C   UNL A   1      46.928  26.202  32.229  1.00  0.00     0.023 A 
ATOM     60  C   UNL A   1      48.089  26.660  31.585  1.00  0.00     0.031 A 
ATOM     61  C   UNL A   1      47.060  25.234  33.239  1.00  0.00     0.131 A 
ATOM     62  C   UNL A   1      49.333  26.111  31.929  1.00  0.00     0.055 A 
ATOM     63  C   UNL A   1      48.305  24.736  33.616  1.00  0.00     0.041 A 
ATOM     64  F   UNL A   1      45.977  24.763  33.879  1.00  0.00    -0.206 F 
ATOM     65  C   UNL A   1      49.450  25.167  32.953  1.00  0.00     0.022 A 
BRANCH  62  66
ATOM     66  S   UNL A   1      50.792  26.603  30.973  1.00  0.00     0.124 S 
ATOM     67  O   UNL A   1      50.724  25.698  29.830  1.00  0.00    -0.237 OA
ATOM     68  O   UNL A   1      50.525  28.009  30.690  1.00  0.00    -0.237 OA
ATOM     69  O   UNL A   1      51.902  26.358  31.893  1.00  0.00    -0.744 OA
ENDBRANCH  62  66
ENDBRANCH  36  59
ENDBRANCH  10  11
ENDBRANCH   3   5
ENDBRANCH   2   3
ENDBRANCH   1   2
BRANCH   1  70
ATOM     70  C   UNL A   1      34.025  33.884  29.983  1.00  0.00     0.274 C 
BRANCH  70  71
ATOM     71  O   UNL A   1      34.483  32.885  30.902  1.00  0.00    -0.460 OA
BRANCH  71  72
ATOM     72  C   UNL A   1      34.486  33.210  32.225  1.00  0.00     0.343 C 
ATOM     73  O   UNL A   1      33.493  33.511  32.877  1.00  0.00    -0.249 OA
BRANCH  72  74
ATOM     74  C   UNL A   1      35.870  33.093  32.821  1.00  0.00     0.308 C 
ATOM     75  F   UNL A   1      36.625  32.131  32.216  1.00  0.00    -0.232 F 
BRANCH  74  76
ATOM     76  C   UNL A   1      36.613  34.423  32.738  1.00  0.00     0.190 C 
BRANCH  76  77
ATOM     77  C   UNL A   1      37.788  34.320  31.778  1.00  0.00    -0.015 A 
ATOM     78  C   UNL A   1      37.606  34.017  30.419  1.00  0.00     0.006 A 
ATOM     79  C   UNL A   1      39.098  34.468  32.254  1.00  0.00     0.027 A 
ATOM     80  C   UNL A   1      38.690  33.922  29.547  1.00  0.00     0.002 A 
ATOM     81  C   UNL A   1      40.182  34.351  31.382  1.00  0.00     0.041 A 
ATOM     82  C   UNL A   1      39.984  34.093  30.028  1.00  0.00     0.020 A 
ATOM     83  Cl  UNL A   1      41.782  34.512  31.996  1.00  0.00    -0.084 Cl
ENDBRANCH  76  77
BRANCH  76  84
ATOM     84  O   UNL A   1      35.724  35.480  32.359  1.00  0.00    -0.385 OA
ATOM     85  H   UNL A   1      36.086  36.330  32.653  1.00  0.00     0.211 HD
ENDBRANCH  76  84
ENDBRANCH  74  76
ENDBRANCH  72  74
ENDBRANCH  71  72
ENDBRANCH  70  71
ENDBRANCH   1  70
TORSDOF 17
ENDMDL
