MODEL 1
REMARK VINA RESULT:     -12.2      0.000      0.000
REMARK SMILES C[C@@H]1CN(C(=O)C[NH+]2CCC(CC(=O)OCCOC(=O)c3ccc(-c4c5nc(c(-c6cc(S(=O)(=O)[O-])ccc6F)c6ccc([nH]6)c(-c6cc(S(=O)(=O)[O-])ccc6F)c6nc(c(-c7cc(S(=O)(=O)[O-])ccc7F)c7ccc4[nH]7)C=C6)C=C5)cc3)CC2)C[C@@H](C)O1
REMARK SMILES IDX 16 1 15 2 13 3 14 4 12 5 11 6 8 7 9 8 85 9 10 11 84 12 7 13
REMARK SMILES IDX 5 14 1 15 2 16 3 17 89 18 4 19 87 20 86 21 88 22 6 23 17 24
REMARK SMILES IDX 18 25 19 26 20 27 21 28 22 29 83 30 23 31 82 32 24 33 25 34
REMARK SMILES IDX 26 35 76 36 27 37 81 38 75 39 77 40 28 41 80 42 74 43 73 44
REMARK SMILES IDX 29 46 61 47 41 48 60 49 42 50 45 51 59 52 78 53 43 54 44 55
REMARK SMILES IDX 58 57 79 58 46 59 30 60 31 61 39 62 32 63 38 64 40 65 37 66
REMARK SMILES IDX 33 67 34 68 35 69 36 70 62 71 63 72 71 73 64 74 70 75 72 76
REMARK SMILES IDX 69 77 65 78 66 79 67 80 68 81 47 82 48 83 56 84 49 85 55 86
REMARK SMILES IDX 57 87 54 88 50 89 51 90 52 91 53 92
REMARK H PARENT 8 10 77 45 45 56
REMARK Flexibility Score: inf
ROOT
ATOM      1  C   UNL A   1      35.288  22.503  26.076  1.00  0.00     0.274 C 
ENDROOT
BRANCH   1   2
ATOM      2  O   UNL A   1      34.646  22.001  27.270  1.00  0.00    -0.462 OA
BRANCH   2   3
ATOM      3  C   UNL A   1      33.297  21.938  27.261  1.00  0.00     0.306 C 
ATOM      4  O   UNL A   1      32.579  22.546  28.051  1.00  0.00    -0.252 OA
BRANCH   3   5
ATOM      5  C   UNL A   1      32.691  21.070  26.173  1.00  0.00     0.126 C 
BRANCH   5   6
ATOM      6  C   UNL A   1      31.890  21.616  24.967  1.00  0.00     0.011 C 
ATOM      7  N   UNL A   1      31.899  23.461  22.643  1.00  0.00    -0.327 N 
ATOM      8  C   UNL A   1      32.229  22.057  22.434  1.00  0.00     0.262 C 
ATOM      9  C   UNL A   1      30.955  23.639  23.732  1.00  0.00     0.262 C 
ATOM     10  H   UNL A   1      31.404  23.717  21.789  1.00  0.00     0.348 HD
ATOM     11  C   UNL A   1      32.732  21.351  23.694  1.00  0.00     0.066 C 
ATOM     12  C   UNL A   1      31.466  23.083  25.052  1.00  0.00     0.066 C 
BRANCH   7  13
ATOM     13  C   UNL A   1      32.963  24.471  22.512  1.00  0.00     0.363 C 
BRANCH  13  14
ATOM     14  C   UNL A   1      32.997  25.637  23.518  1.00  0.00     0.277 C 
ATOM     15  C   UNL A   1      29.100  26.914  23.695  1.00  0.00     0.040 C 
ATOM     16  C   UNL A   1      30.008  27.776  22.842  1.00  0.00     0.135 C 
ATOM     17  C   UNL A   1      31.214  26.986  22.266  1.00  0.00     0.151 C 
ATOM     18  O   UNL A   1      30.403  28.934  23.593  1.00  0.00    -0.372 OA
ATOM     19  N   UNL A   1      32.276  26.797  23.260  1.00  0.00    -0.333 N 
ATOM     20  C   UNL A   1      31.344  28.618  24.638  1.00  0.00     0.135 C 
ATOM     21  C   UNL A   1      32.605  28.022  24.008  1.00  0.00     0.151 C 
ATOM     22  C   UNL A   1      31.620  29.903  25.404  1.00  0.00     0.040 C 
ATOM     23  O   UNL A   1      33.755  25.582  24.494  1.00  0.00    -0.268 OA
ENDBRANCH  13  14
ENDBRANCH   7  13
ENDBRANCH   5   6
ENDBRANCH   3   5
ENDBRANCH   2   3
ENDBRANCH   1   2
BRANCH   1  24
ATOM     24  C   UNL A   1      36.141  21.410  25.441  1.00  0.00     0.275 C 
BRANCH  24  25
ATOM     25  O   UNL A   1      37.386  21.978  25.018  1.00  0.00    -0.458 OA
BRANCH  25  26
ATOM     26  C   UNL A   1      38.470  21.464  25.642  1.00  0.00     0.338 C 
ATOM     27  O   UNL A   1      38.898  20.325  25.591  1.00  0.00    -0.246 OA
BRANCH  26  28
ATOM     28  C   UNL A   1      39.151  22.558  26.332  1.00  0.00     0.060 A 
ATOM     29  C   UNL A   1      38.775  23.874  26.052  1.00  0.00     0.016 A 
ATOM     30  C   UNL A   1      40.211  22.279  27.185  1.00  0.00     0.016 A 
ATOM     31  C   UNL A   1      39.507  24.933  26.562  1.00  0.00     0.010 A 
ATOM     32  C   UNL A   1      40.897  23.344  27.760  1.00  0.00     0.010 A 
ATOM     33  C   UNL A   1      40.566  24.674  27.430  1.00  0.00    -0.014 A 
BRANCH  33  34
ATOM     34  C   UNL A   1      41.396  25.770  27.966  1.00  0.00     0.031 A 
ATOM     35  C   UNL A   1      40.724  26.823  28.790  1.00  0.00     0.074 A 
ATOM     36  C   UNL A   1      42.704  25.846  27.662  1.00  0.00     0.049 A 
ATOM     37  N   UNL A   1      41.091  28.049  29.029  1.00  0.00    -0.248 NA
ATOM     38  C   UNL A   1      39.439  26.440  29.397  1.00  0.00     0.031 C 
ATOM     39  C   UNL A   1      43.480  24.816  26.969  1.00  0.00     0.029 A 
ATOM     40  N   UNL A   1      43.604  26.859  27.869  1.00  0.00    -0.354 N 
ATOM     41  C   UNL A   1      40.053  28.612  29.763  1.00  0.00     0.074 A 
ATOM     42  C   UNL A   1      39.044  27.587  29.929  1.00  0.00     0.031 C 
ATOM     43  C   UNL A   1      44.735  25.257  26.791  1.00  0.00     0.029 A 
ATOM     44  C   UNL A   1      44.817  26.635  27.260  1.00  0.00     0.049 A 
ATOM     45  H   UNL A   1      43.404  27.663  28.400  1.00  0.00     0.167 HD
ATOM     46  C   UNL A   1      39.961  29.880  30.229  1.00  0.00     0.034 A 
ATOM     47  C   UNL A   1      45.841  27.480  27.032  1.00  0.00     0.034 A 
ATOM     48  C   UNL A   1      41.006  30.855  30.040  1.00  0.00     0.049 A 
ATOM     49  C   UNL A   1      45.690  28.909  27.483  1.00  0.00     0.074 A 
ATOM     50  C   UNL A   1      41.034  32.186  30.414  1.00  0.00     0.029 A 
ATOM     51  N   UNL A   1      42.225  30.589  29.422  1.00  0.00    -0.354 N 
ATOM     52  N   UNL A   1      44.664  29.483  28.075  1.00  0.00    -0.248 NA
ATOM     53  C   UNL A   1      46.818  29.809  27.225  1.00  0.00     0.031 C 
ATOM     54  C   UNL A   1      42.250  32.733  29.983  1.00  0.00     0.029 A 
ATOM     55  C   UNL A   1      43.009  31.729  29.401  1.00  0.00     0.049 A 
ATOM     56  H   UNL A   1      42.491  29.716  29.054  1.00  0.00     0.167 HD
ATOM     57  C   UNL A   1      45.044  30.803  28.294  1.00  0.00     0.074 A 
ATOM     58  C   UNL A   1      46.388  30.940  27.766  1.00  0.00     0.031 C 
ATOM     59  C   UNL A   1      44.353  31.813  28.881  1.00  0.00     0.034 A 
BRANCH  46  60
ATOM     60  C   UNL A   1      38.671  30.282  30.899  1.00  0.00     0.023 A 
ATOM     61  C   UNL A   1      37.628  30.907  30.194  1.00  0.00     0.031 A 
ATOM     62  C   UNL A   1      38.506  30.094  32.283  1.00  0.00     0.131 A 
ATOM     63  C   UNL A   1      36.504  31.386  30.885  1.00  0.00     0.055 A 
ATOM     64  C   UNL A   1      37.350  30.500  32.951  1.00  0.00     0.041 A 
ATOM     65  F   UNL A   1      39.480  29.530  33.017  1.00  0.00    -0.206 F 
ATOM     66  C   UNL A   1      36.346  31.166  32.255  1.00  0.00     0.022 A 
BRANCH  63  67
ATOM     67  S   UNL A   1      35.320  32.433  29.995  1.00  0.00     0.124 S 
ATOM     68  O   UNL A   1      34.914  31.555  28.901  1.00  0.00    -0.237 OA
ATOM     69  O   UNL A   1      34.308  32.700  31.010  1.00  0.00    -0.237 OA
ATOM     70  O   UNL A   1      36.120  33.589  29.592  1.00  0.00    -0.744 OA
ENDBRANCH  63  67
ENDBRANCH  46  60
BRANCH  47  71
ATOM     71  C   UNL A   1      47.046  27.024  26.284  1.00  0.00     0.023 A 
ATOM     72  C   UNL A   1      48.101  26.379  26.946  1.00  0.00     0.031 A 
ATOM     73  C   UNL A   1      47.177  27.248  24.900  1.00  0.00     0.131 A 
ATOM     74  C   UNL A   1      49.254  26.013  26.235  1.00  0.00     0.055 A 
ATOM     75  C   UNL A   1      48.302  26.831  24.186  1.00  0.00     0.041 A 
ATOM     76  F   UNL A   1      46.199  27.861  24.214  1.00  0.00    -0.206 F 
ATOM     77  C   UNL A   1      49.356  26.221  24.858  1.00  0.00     0.022 A 
BRANCH  74  78
ATOM     78  S   UNL A   1      50.662  25.338  27.158  1.00  0.00     0.124 S 
ATOM     79  O   UNL A   1      50.033  24.259  27.912  1.00  0.00    -0.237 OA
ATOM     80  O   UNL A   1      51.560  24.931  26.083  1.00  0.00    -0.237 OA
ATOM     81  O   UNL A   1      51.120  26.472  27.957  1.00  0.00    -0.744 OA
ENDBRANCH  74  78
ENDBRANCH  47  71
BRANCH  59  82
ATOM     82  C   UNL A   1      45.081  33.115  29.063  1.00  0.00     0.023 A 
ATOM     83  C   UNL A   1      45.113  34.095  28.059  1.00  0.00     0.031 A 
ATOM     84  C   UNL A   1      45.738  33.378  30.278  1.00  0.00     0.131 A 
ATOM     85  C   UNL A   1      45.822  35.285  28.275  1.00  0.00     0.055 A 
ATOM     86  C   UNL A   1      46.401  34.582  30.505  1.00  0.00     0.041 A 
ATOM     87  F   UNL A   1      45.733  32.469  31.266  1.00  0.00    -0.206 F 
ATOM     88  C   UNL A   1      46.452  35.540  29.497  1.00  0.00     0.022 A 
BRANCH  85  89
ATOM     89  S   UNL A   1      45.954  36.481  26.919  1.00  0.00     0.124 S 
ATOM     90  O   UNL A   1      47.108  37.276  27.328  1.00  0.00    -0.237 OA
ATOM     91  O   UNL A   1      46.155  35.619  25.759  1.00  0.00    -0.237 OA
ATOM     92  O   UNL A   1      44.672  37.182  26.954  1.00  0.00    -0.744 OA
ENDBRANCH  85  89
ENDBRANCH  59  82
ENDBRANCH  33  34
ENDBRANCH  26  28
ENDBRANCH  25  26
ENDBRANCH  24  25
ENDBRANCH   1  24
TORSDOF 17
ENDMDL
MODEL 2
REMARK VINA RESULT:     -12.1      4.560      9.951
REMARK SMILES C[C@@H]1CN(C(=O)C[NH+]2CCC(CC(=O)OCCOC(=O)c3ccc(-c4c5nc(c(-c6cc(S(=O)(=O)[O-])ccc6F)c6ccc([nH]6)c(-c6cc(S(=O)(=O)[O-])ccc6F)c6nc(c(-c7cc(S(=O)(=O)[O-])ccc7F)c7ccc4[nH]7)C=C6)C=C5)cc3)CC2)C[C@@H](C)O1
REMARK SMILES IDX 16 1 15 2 13 3 14 4 12 5 11 6 8 7 9 8 85 9 10 11 84 12 7 13
REMARK SMILES IDX 5 14 1 15 2 16 3 17 89 18 4 19 87 20 86 21 88 22 6 23 17 24
REMARK SMILES IDX 18 25 19 26 20 27 21 28 22 29 83 30 23 31 82 32 24 33 25 34
REMARK SMILES IDX 26 35 76 36 27 37 81 38 75 39 77 40 28 41 80 42 74 43 73 44
REMARK SMILES IDX 29 46 61 47 41 48 60 49 42 50 45 51 59 52 78 53 43 54 44 55
REMARK SMILES IDX 58 57 79 58 46 59 30 60 31 61 39 62 32 63 38 64 40 65 37 66
REMARK SMILES IDX 33 67 34 68 35 69 36 70 62 71 63 72 71 73 64 74 70 75 72 76
REMARK SMILES IDX 69 77 65 78 66 79 67 80 68 81 47 82 48 83 56 84 49 85 55 86
REMARK SMILES IDX 57 87 54 88 50 89 51 90 52 91 53 92
REMARK H PARENT 8 10 77 45 45 56
REMARK Flexibility Score: inf
ROOT
ATOM      1  C   UNL A   1      32.213  28.284  24.331  1.00  0.00     0.274 C 
ENDROOT
BRANCH   1   2
ATOM      2  O   UNL A   1      31.333  28.287  23.184  1.00  0.00    -0.462 OA
BRANCH   2   3
ATOM      3  C   UNL A   1      30.410  27.303  23.117  1.00  0.00     0.306 C 
ATOM      4  O   UNL A   1      29.198  27.500  23.153  1.00  0.00    -0.252 OA
BRANCH   3   5
ATOM      5  C   UNL A   1      30.962  25.898  22.963  1.00  0.00     0.126 C 
BRANCH   5   6
ATOM      6  C   UNL A   1      30.627  24.722  23.911  1.00  0.00     0.011 C 
ATOM      7  N   UNL A   1      31.492  23.143  26.269  1.00  0.00    -0.327 N 
ATOM      8  C   UNL A   1      30.535  24.226  26.455  1.00  0.00     0.262 C 
ATOM      9  C   UNL A   1      31.359  22.520  24.964  1.00  0.00     0.262 C 
ATOM     10  H   UNL A   1      31.194  22.446  26.952  1.00  0.00     0.348 HD
ATOM     11  C   UNL A   1      30.588  25.286  25.353  1.00  0.00     0.066 C 
ATOM     12  C   UNL A   1      31.547  23.503  23.820  1.00  0.00     0.066 C 
BRANCH   7  13
ATOM     13  C   UNL A   1      32.858  23.299  26.796  1.00  0.00     0.363 C 
BRANCH  13  14
ATOM     14  C   UNL A   1      33.848  22.130  26.630  1.00  0.00     0.277 C 
ATOM     15  C   UNL A   1      37.448  23.969  25.920  1.00  0.00     0.040 C 
ATOM     16  C   UNL A   1      36.768  23.415  24.685  1.00  0.00     0.135 C 
ATOM     17  C   UNL A   1      35.225  23.335  24.837  1.00  0.00     0.151 C 
ATOM     18  O   UNL A   1      37.364  22.154  24.342  1.00  0.00    -0.372 OA
ATOM     19  N   UNL A   1      34.808  22.171  25.627  1.00  0.00    -0.333 N 
ATOM     20  C   UNL A   1      37.002  21.106  25.261  1.00  0.00     0.135 C 
ATOM     21  C   UNL A   1      35.482  20.923  25.235  1.00  0.00     0.151 C 
ATOM     22  C   UNL A   1      37.753  19.852  24.839  1.00  0.00     0.040 C 
ATOM     23  O   UNL A   1      33.712  21.111  27.318  1.00  0.00    -0.268 OA
ENDBRANCH  13  14
ENDBRANCH   7  13
ENDBRANCH   5   6
ENDBRANCH   3   5
ENDBRANCH   2   3
ENDBRANCH   1   2
BRANCH   1  24
ATOM     24  C   UNL A   1      32.232  29.663  24.980  1.00  0.00     0.275 C 
BRANCH  24  25
ATOM     25  O   UNL A   1      33.341  29.737  25.884  1.00  0.00    -0.458 OA
BRANCH  25  26
ATOM     26  C   UNL A   1      33.283  30.775  26.749  1.00  0.00     0.338 C 
ATOM     27  O   UNL A   1      32.383  31.581  26.898  1.00  0.00    -0.246 OA
BRANCH  26  28
ATOM     28  C   UNL A   1      34.472  30.717  27.598  1.00  0.00     0.060 A 
ATOM     29  C   UNL A   1      35.226  31.877  27.789  1.00  0.00     0.016 A 
ATOM     30  C   UNL A   1      34.879  29.500  28.129  1.00  0.00     0.016 A 
ATOM     31  C   UNL A   1      36.441  31.820  28.449  1.00  0.00     0.010 A 
ATOM     32  C   UNL A   1      36.062  29.458  28.860  1.00  0.00     0.010 A 
ATOM     33  C   UNL A   1      36.861  30.611  29.001  1.00  0.00    -0.014 A 
BRANCH  33  34
ATOM     34  C   UNL A   1      38.167  30.495  29.679  1.00  0.00     0.031 A 
ATOM     35  C   UNL A   1      39.203  29.611  29.061  1.00  0.00     0.074 A 
ATOM     36  C   UNL A   1      38.384  31.119  30.850  1.00  0.00     0.049 A 
ATOM     37  N   UNL A   1      40.226  29.022  29.612  1.00  0.00    -0.248 NA
ATOM     38  C   UNL A   1      39.033  29.327  27.627  1.00  0.00     0.031 C 
ATOM     39  C   UNL A   1      37.490  32.095  31.477  1.00  0.00     0.029 A 
ATOM     40  N   UNL A   1      39.417  30.993  31.742  1.00  0.00    -0.354 N 
ATOM     41  C   UNL A   1      40.791  28.243  28.608  1.00  0.00     0.074 A 
ATOM     42  C   UNL A   1      39.994  28.439  27.416  1.00  0.00     0.031 C 
ATOM     43  C   UNL A   1      38.003  32.464  32.660  1.00  0.00     0.029 A 
ATOM     44  C   UNL A   1      39.201  31.673  32.918  1.00  0.00     0.049 A 
ATOM     45  H   UNL A   1      40.232  30.471  31.559  1.00  0.00     0.167 HD
ATOM     46  C   UNL A   1      41.868  27.426  28.701  1.00  0.00     0.034 A 
ATOM     47  C   UNL A   1      39.849  31.595  34.096  1.00  0.00     0.034 A 
ATOM     48  C   UNL A   1      42.629  27.280  29.917  1.00  0.00     0.049 A 
ATOM     49  C   UNL A   1      40.993  30.621  34.208  1.00  0.00     0.074 A 
ATOM     50  C   UNL A   1      43.712  26.459  30.173  1.00  0.00     0.029 A 
ATOM     51  N   UNL A   1      42.382  27.991  31.087  1.00  0.00    -0.354 N 
ATOM     52  N   UNL A   1      41.464  29.794  33.300  1.00  0.00    -0.248 NA
ATOM     53  C   UNL A   1      41.684  30.556  35.500  1.00  0.00     0.031 C 
ATOM     54  C   UNL A   1      44.090  26.642  31.509  1.00  0.00     0.029 A 
ATOM     55  C   UNL A   1      43.288  27.626  32.068  1.00  0.00     0.049 A 
ATOM     56  H   UNL A   1      41.667  28.659  31.201  1.00  0.00     0.167 HD
ATOM     57  C   UNL A   1      42.531  29.137  33.903  1.00  0.00     0.074 A 
ATOM     58  C   UNL A   1      42.631  29.663  35.251  1.00  0.00     0.031 C 
ATOM     59  C   UNL A   1      43.361  28.192  33.394  1.00  0.00     0.034 A 
BRANCH  46  60
ATOM     60  C   UNL A   1      42.212  26.592  27.493  1.00  0.00     0.023 A 
ATOM     61  C   UNL A   1      41.828  25.245  27.384  1.00  0.00     0.031 A 
ATOM     62  C   UNL A   1      42.996  27.137  26.459  1.00  0.00     0.131 A 
ATOM     63  C   UNL A   1      42.289  24.470  26.307  1.00  0.00     0.055 A 
ATOM     64  C   UNL A   1      43.382  26.383  25.350  1.00  0.00     0.041 A 
ATOM     65  F   UNL A   1      43.420  28.410  26.521  1.00  0.00    -0.206 F 
ATOM     66  C   UNL A   1      43.042  25.036  25.277  1.00  0.00     0.022 A 
BRANCH  63  67
ATOM     67  S   UNL A   1      42.013  22.678  26.348  1.00  0.00     0.124 S 
ATOM     68  O   UNL A   1      42.696  22.247  25.131  1.00  0.00    -0.237 OA
ATOM     69  O   UNL A   1      42.641  22.290  27.606  1.00  0.00    -0.237 OA
ATOM     70  O   UNL A   1      40.556  22.554  26.314  1.00  0.00    -0.744 OA
ENDBRANCH  63  67
ENDBRANCH  46  60
BRANCH  47  71
ATOM     71  C   UNL A   1      39.388  32.391  35.268  1.00  0.00     0.023 A 
ATOM     72  C   UNL A   1      39.833  33.708  35.462  1.00  0.00     0.031 A 
ATOM     73  C   UNL A   1      38.516  31.844  36.228  1.00  0.00     0.131 A 
ATOM     74  C   UNL A   1      39.437  34.419  36.604  1.00  0.00     0.055 A 
ATOM     75  C   UNL A   1      38.079  32.576  37.333  1.00  0.00     0.041 A 
ATOM     76  F   UNL A   1      38.058  30.589  36.095  1.00  0.00    -0.206 F 
ATOM     77  C   UNL A   1      38.551  33.869  37.533  1.00  0.00     0.022 A 
BRANCH  74  78
ATOM     78  S   UNL A   1      40.168  36.052  36.904  1.00  0.00     0.124 S 
ATOM     79  O   UNL A   1      39.939  36.719  35.627  1.00  0.00    -0.237 OA
ATOM     80  O   UNL A   1      39.378  36.534  38.031  1.00  0.00    -0.237 OA
ATOM     81  O   UNL A   1      41.565  35.747  37.207  1.00  0.00    -0.744 OA
ENDBRANCH  74  78
ENDBRANCH  47  71
BRANCH  59  82
ATOM     82  C   UNL A   1      44.497  27.745  34.272  1.00  0.00     0.023 A 
ATOM     83  C   UNL A   1      44.381  26.643  35.133  1.00  0.00     0.031 A 
ATOM     84  C   UNL A   1      45.723  28.432  34.221  1.00  0.00     0.131 A 
ATOM     85  C   UNL A   1      45.467  26.280  35.942  1.00  0.00     0.055 A 
ATOM     86  C   UNL A   1      46.814  28.038  34.993  1.00  0.00     0.041 A 
ATOM     87  F   UNL A   1      45.878  29.491  33.411  1.00  0.00    -0.206 F 
ATOM     88  C   UNL A   1      46.687  26.960  35.865  1.00  0.00     0.022 A 
BRANCH  85  89
ATOM     89  S   UNL A   1      45.253  24.933  37.136  1.00  0.00     0.124 S 
ATOM     90  O   UNL A   1      43.808  24.933  37.337  1.00  0.00    -0.237 OA
ATOM     91  O   UNL A   1      45.796  23.786  36.416  1.00  0.00    -0.237 OA
ATOM     92  O   UNL A   1      46.041  25.368  38.289  1.00  0.00    -0.744 OA
ENDBRANCH  85  89
ENDBRANCH  59  82
ENDBRANCH  33  34
ENDBRANCH  26  28
ENDBRANCH  25  26
ENDBRANCH  24  25
ENDBRANCH   1  24
TORSDOF 17
ENDMDL
MODEL 3
REMARK VINA RESULT:     -11.9      2.078      2.630
REMARK SMILES C[C@@H]1CN(C(=O)C[NH+]2CCC(CC(=O)OCCOC(=O)c3ccc(-c4c5nc(c(-c6cc(S(=O)(=O)[O-])ccc6F)c6ccc([nH]6)c(-c6cc(S(=O)(=O)[O-])ccc6F)c6nc(c(-c7cc(S(=O)(=O)[O-])ccc7F)c7ccc4[nH]7)C=C6)C=C5)cc3)CC2)C[C@@H](C)O1
REMARK SMILES IDX 16 1 15 2 13 3 14 4 12 5 11 6 8 7 9 8 85 9 10 11 84 12 7 13
REMARK SMILES IDX 5 14 1 15 2 16 3 17 89 18 4 19 87 20 86 21 88 22 6 23 17 24
REMARK SMILES IDX 18 25 19 26 20 27 21 28 22 29 83 30 23 31 82 32 24 33 25 34
REMARK SMILES IDX 26 35 76 36 27 37 81 38 75 39 77 40 28 41 80 42 74 43 73 44
REMARK SMILES IDX 29 46 61 47 41 48 60 49 42 50 45 51 59 52 78 53 43 54 44 55
REMARK SMILES IDX 58 57 79 58 46 59 30 60 31 61 39 62 32 63 38 64 40 65 37 66
REMARK SMILES IDX 33 67 34 68 35 69 36 70 62 71 63 72 71 73 64 74 70 75 72 76
REMARK SMILES IDX 69 77 65 78 66 79 67 80 68 81 47 82 48 83 56 84 49 85 55 86
REMARK SMILES IDX 57 87 54 88 50 89 51 90 52 91 53 92
REMARK H PARENT 8 10 77 45 45 56
REMARK Flexibility Score: inf
ROOT
ATOM      1  C   UNL A   1      35.060  21.706  24.859  1.00  0.00     0.274 C 
ENDROOT
BRANCH   1   2
ATOM      2  O   UNL A   1      33.971  21.021  25.520  1.00  0.00    -0.462 OA
BRANCH   2   3
ATOM      3  C   UNL A   1      32.862  20.785  24.788  1.00  0.00     0.306 C 
ATOM      4  O   UNL A   1      31.835  20.287  25.244  1.00  0.00    -0.252 OA
BRANCH   3   5
ATOM      5  C   UNL A   1      32.938  21.202  23.330  1.00  0.00     0.126 C 
BRANCH   5   6
ATOM      6  C   UNL A   1      32.203  22.426  22.735  1.00  0.00     0.011 C 
ATOM      7  N   UNL A   1      32.035  25.387  22.641  1.00  0.00    -0.327 N 
ATOM      8  C   UNL A   1      32.773  24.686  21.597  1.00  0.00     0.262 C 
ATOM      9  C   UNL A   1      30.930  24.594  23.148  1.00  0.00     0.262 C 
ATOM     10  H   UNL A   1      31.620  26.176  22.146  1.00  0.00     0.348 HD
ATOM     11  C   UNL A   1      33.263  23.300  22.019  1.00  0.00     0.066 C 
ATOM     12  C   UNL A   1      31.376  23.257  23.717  1.00  0.00     0.066 C 
BRANCH   7  13
ATOM     13  C   UNL A   1      32.780  26.195  23.620  1.00  0.00     0.363 C 
BRANCH  13  14
ATOM     14  C   UNL A   1      32.361  27.662  23.833  1.00  0.00     0.277 C 
ATOM     15  C   UNL A   1      34.624  28.892  27.029  1.00  0.00     0.040 C 
ATOM     16  C   UNL A   1      33.186  28.554  27.367  1.00  0.00     0.135 C 
ATOM     17  C   UNL A   1      32.567  27.525  26.383  1.00  0.00     0.151 C 
ATOM     18  O   UNL A   1      32.425  29.767  27.461  1.00  0.00    -0.372 OA
ATOM     19  N   UNL A   1      32.157  28.147  25.119  1.00  0.00    -0.333 N 
ATOM     20  C   UNL A   1      32.195  30.375  26.175  1.00  0.00     0.135 C 
ATOM     21  C   UNL A   1      31.405  29.400  25.298  1.00  0.00     0.151 C 
ATOM     22  C   UNL A   1      31.454  31.682  26.416  1.00  0.00     0.040 C 
ATOM     23  O   UNL A   1      32.098  28.372  22.854  1.00  0.00    -0.268 OA
ENDBRANCH  13  14
ENDBRANCH   7  13
ENDBRANCH   5   6
ENDBRANCH   3   5
ENDBRANCH   2   3
ENDBRANCH   1   2
BRANCH   1  24
ATOM     24  C   UNL A   1      36.393  21.095  25.276  1.00  0.00     0.275 C 
BRANCH  24  25
ATOM     25  O   UNL A   1      37.361  22.143  25.416  1.00  0.00    -0.458 OA
BRANCH  25  26
ATOM     26  C   UNL A   1      38.573  21.724  25.846  1.00  0.00     0.338 C 
ATOM     27  O   UNL A   1      39.112  20.651  25.647  1.00  0.00    -0.246 OA
BRANCH  26  28
ATOM     28  C   UNL A   1      39.219  22.846  26.525  1.00  0.00     0.060 A 
ATOM     29  C   UNL A   1      38.883  24.149  26.150  1.00  0.00     0.016 A 
ATOM     30  C   UNL A   1      40.210  22.601  27.466  1.00  0.00     0.016 A 
ATOM     31  C   UNL A   1      39.593  25.226  26.655  1.00  0.00     0.010 A 
ATOM     32  C   UNL A   1      40.869  23.688  28.033  1.00  0.00     0.010 A 
ATOM     33  C   UNL A   1      40.582  25.002  27.610  1.00  0.00    -0.014 A 
BRANCH  33  34
ATOM     34  C   UNL A   1      41.389  26.116  28.147  1.00  0.00     0.031 A 
ATOM     35  C   UNL A   1      40.689  27.165  28.950  1.00  0.00     0.074 A 
ATOM     36  C   UNL A   1      42.699  26.209  27.860  1.00  0.00     0.049 A 
ATOM     37  N   UNL A   1      41.034  28.400  29.182  1.00  0.00    -0.248 NA
ATOM     38  C   UNL A   1      39.402  26.769  29.544  1.00  0.00     0.031 C 
ATOM     39  C   UNL A   1      43.501  25.183  27.187  1.00  0.00     0.029 A 
ATOM     40  N   UNL A   1      43.581  27.236  28.069  1.00  0.00    -0.354 N 
ATOM     41  C   UNL A   1      39.978  28.954  29.896  1.00  0.00     0.074 A 
ATOM     42  C   UNL A   1      38.983  27.915  30.058  1.00  0.00     0.031 C 
ATOM     43  C   UNL A   1      44.751  25.642  27.022  1.00  0.00     0.029 A 
ATOM     44  C   UNL A   1      44.805  27.026  27.478  1.00  0.00     0.049 A 
ATOM     45  H   UNL A   1      43.361  28.043  28.589  1.00  0.00     0.167 HD
ATOM     46  C   UNL A   1      39.860  30.225  30.348  1.00  0.00     0.034 A 
ATOM     47  C   UNL A   1      45.819  27.883  27.256  1.00  0.00     0.034 A 
ATOM     48  C   UNL A   1      40.893  31.214  30.164  1.00  0.00     0.049 A 
ATOM     49  C   UNL A   1      45.640  29.315  27.691  1.00  0.00     0.074 A 
ATOM     50  C   UNL A   1      40.896  32.549  30.525  1.00  0.00     0.029 A 
ATOM     51  N   UNL A   1      42.124  30.960  29.565  1.00  0.00    -0.354 N 
ATOM     52  N   UNL A   1      44.599  29.879  28.263  1.00  0.00    -0.248 NA
ATOM     53  C   UNL A   1      46.759  30.229  27.439  1.00  0.00     0.031 C 
ATOM     54  C   UNL A   1      42.109  33.110  30.105  1.00  0.00     0.029 A 
ATOM     55  C   UNL A   1      42.891  32.112  29.544  1.00  0.00     0.049 A 
ATOM     56  H   UNL A   1      42.409  30.087  29.209  1.00  0.00     0.167 HD
ATOM     57  C   UNL A   1      44.955  31.207  28.473  1.00  0.00     0.074 A 
ATOM     58  C   UNL A   1      46.304  31.358  27.963  1.00  0.00     0.031 C 
ATOM     59  C   UNL A   1      44.240  32.211  29.041  1.00  0.00     0.034 A 
BRANCH  46  60
ATOM     60  C   UNL A   1      38.555  30.613  30.996  1.00  0.00     0.023 A 
ATOM     61  C   UNL A   1      37.511  31.212  30.270  1.00  0.00     0.031 A 
ATOM     62  C   UNL A   1      38.376  30.439  32.381  1.00  0.00     0.131 A 
ATOM     63  C   UNL A   1      36.371  31.681  30.941  1.00  0.00     0.055 A 
ATOM     64  C   UNL A   1      37.204  30.835  33.029  1.00  0.00     0.041 A 
ATOM     65  F   UNL A   1      39.349  29.902  33.134  1.00  0.00    -0.206 F 
ATOM     66  C   UNL A   1      36.199  31.475  32.312  1.00  0.00     0.022 A 
BRANCH  63  67
ATOM     67  S   UNL A   1      35.181  32.697  30.022  1.00  0.00     0.124 S 
ATOM     68  O   UNL A   1      34.751  31.773  28.976  1.00  0.00    -0.237 OA
ATOM     69  O   UNL A   1      34.188  33.019  31.040  1.00  0.00    -0.237 OA
ATOM     70  O   UNL A   1      35.985  33.826  29.555  1.00  0.00    -0.744 OA
ENDBRANCH  63  67
ENDBRANCH  46  60
BRANCH  47  71
ATOM     71  C   UNL A   1      47.042  27.439  26.529  1.00  0.00     0.023 A 
ATOM     72  C   UNL A   1      47.217  27.740  25.169  1.00  0.00     0.031 A 
ATOM     73  C   UNL A   1      48.044  26.687  27.171  1.00  0.00     0.131 A 
ATOM     74  C   UNL A   1      48.346  27.261  24.487  1.00  0.00     0.055 A 
ATOM     75  C   UNL A   1      49.192  26.261  26.501  1.00  0.00     0.041 A 
ATOM     76  F   UNL A   1      47.929  26.369  28.470  1.00  0.00    -0.206 F 
ATOM     77  C   UNL A   1      49.341  26.536  25.146  1.00  0.00     0.022 A 
BRANCH  74  78
ATOM     78  S   UNL A   1      48.450  27.525  22.696  1.00  0.00     0.124 S 
ATOM     79  O   UNL A   1      48.517  26.155  22.197  1.00  0.00    -0.237 OA
ATOM     80  O   UNL A   1      47.212  28.247  22.424  1.00  0.00    -0.237 OA
ATOM     81  O   UNL A   1      49.675  28.307  22.538  1.00  0.00    -0.744 OA
ENDBRANCH  74  78
ENDBRANCH  47  71
BRANCH  59  82
ATOM     82  C   UNL A   1      44.947  33.526  29.220  1.00  0.00     0.023 A 
ATOM     83  C   UNL A   1      45.703  33.814  30.366  1.00  0.00     0.031 A 
ATOM     84  C   UNL A   1      44.870  34.497  28.205  1.00  0.00     0.131 A 
ATOM     85  C   UNL A   1      46.327  35.063  30.488  1.00  0.00     0.055 A 
ATOM     86  C   UNL A   1      45.532  35.718  28.310  1.00  0.00     0.041 A 
ATOM     87  F   UNL A   1      44.158  34.263  27.090  1.00  0.00    -0.206 F 
ATOM     88  C   UNL A   1      46.259  36.010  29.461  1.00  0.00     0.022 A 
BRANCH  85  89
ATOM     89  S   UNL A   1      47.193  35.460  32.031  1.00  0.00     0.124 S 
ATOM     90  O   UNL A   1      46.088  35.817  32.915  1.00  0.00    -0.237 OA
ATOM     91  O   UNL A   1      47.874  34.206  32.339  1.00  0.00    -0.237 OA
ATOM     92  O   UNL A   1      48.072  36.565  31.657  1.00  0.00    -0.744 OA
ENDBRANCH  85  89
ENDBRANCH  59  82
ENDBRANCH  33  34
ENDBRANCH  26  28
ENDBRANCH  25  26
ENDBRANCH  24  25
ENDBRANCH   1  24
TORSDOF 17
ENDMDL
