MODEL 1
REMARK VINA RESULT:     -10.4      0.000      0.000
REMARK SMILES Cc1c(C(=O)OCCOC(=O)c2ccc(-c3c4nc(c(-c5cc(S(=O)(=O)[O-])ccc5F)c5ccc([nH]5)c(-c5cc(S(=O)(=O)[O-])ccc5F)c5nc(c(-c6cc(S(=O)(=O)[O-])ccc6F)c6ccc3[nH]6)C=C5)C=C4)cc2)cccc1N1[C@@H](C)C=C(/C=C(\C#N)C(=O)NCCc2c[nH]c3ccccc23)[C@@H]1C
REMARK SMILES IDX 6 1 4 2 5 3 3 4 1 5 2 6 78 7 75 8 77 9 76 10 79 11 80 12
REMARK SMILES IDX 102 13 82 14 81 15 83 16 103 17 84 18 85 19 86 20 87 21
REMARK SMILES IDX 88 22 89 23 90 24 91 26 92 27 93 28 94 29 101 30 95 31 96 32
REMARK SMILES IDX 100 33 97 35 99 36 98 37 7 38 8 39 9 40 10 41 11 42 12 43
REMARK SMILES IDX 13 44 74 45 14 46 73 47 15 48 16 49 17 50 67 51 18 52 72 53
REMARK SMILES IDX 66 54 68 55 19 56 71 57 65 58 64 59 20 61 52 62 32 63 51 64
REMARK SMILES IDX 33 65 36 66 50 67 69 68 34 69 35 70 49 72 70 73 37 74 21 75
REMARK SMILES IDX 22 76 30 77 23 78 29 79 31 80 28 81 24 82 25 83 26 84 27 85
REMARK SMILES IDX 53 86 54 87 62 88 55 89 61 90 63 91 60 92 56 93 57 94 58 95
REMARK SMILES IDX 59 96 38 97 39 98 47 99 40 100 46 101 48 102 45 103 41 104
REMARK SMILES IDX 42 105 43 106 44 107
REMARK H PARENT 90 25 95 34 68 60 36 71
REMARK Flexibility Score: inf
ROOT
ATOM      1  O   UNL A   1      41.469  32.130  35.776  1.00  0.00    -0.458 OA
ENDROOT
BRANCH   1   2
ATOM      2  C   UNL A   1      40.420  31.285  35.698  1.00  0.00     0.338 C 
ATOM      3  O   UNL A   1      40.378  30.164  36.185  1.00  0.00    -0.246 OA
BRANCH   2   4
ATOM      4  C   UNL A   1      39.357  31.699  34.781  1.00  0.00     0.065 A 
ATOM      5  C   UNL A   1      40.792  30.586  33.072  1.00  0.00     0.047 C 
ATOM      6  C   UNL A   1      39.448  31.130  33.505  1.00  0.00    -0.013 A 
ATOM      7  C   UNL A   1      38.302  31.132  32.697  1.00  0.00     0.041 A 
ATOM      8  C   UNL A   1      38.220  32.400  35.192  1.00  0.00     0.016 A 
ATOM      9  C   UNL A   1      37.113  31.714  33.180  1.00  0.00     0.026 A 
ATOM     10  C   UNL A   1      37.078  32.376  34.401  1.00  0.00     0.003 A 
BRANCH   7  11
ATOM     11  N   UNL A   1      38.336  30.782  31.362  1.00  0.00    -0.358 N 
ATOM     12  C   UNL A   1      38.302  29.337  31.084  1.00  0.00     0.103 C 
ATOM     13  C   UNL A   1      37.705  31.592  30.311  1.00  0.00     0.110 C 
ATOM     14  C   UNL A   1      37.471  29.303  29.850  1.00  0.00     0.003 C 
ATOM     15  C   UNL A   1      37.595  28.472  32.146  1.00  0.00     0.035 C 
ATOM     16  C   UNL A   1      37.013  30.515  29.507  1.00  0.00    -0.026 C 
ATOM     17  C   UNL A   1      38.774  32.352  29.532  1.00  0.00     0.036 C 
BRANCH  16  18
ATOM     18  C   UNL A   1      35.981  30.812  28.542  1.00  0.00     0.031 C 
ATOM     19  C   UNL A   1      34.924  31.636  28.709  1.00  0.00     0.117 C 
BRANCH  19  20
ATOM     20  C   UNL A   1      34.684  32.382  29.898  1.00  0.00     0.105 C 
ATOM     21  N   UNL A   1      34.441  32.984  30.856  1.00  0.00    -0.192 NA
ENDBRANCH  19  20
BRANCH  19  22
ATOM     22  C   UNL A   1      33.840  31.498  27.700  1.00  0.00     0.261 C 
ATOM     23  O   UNL A   1      33.134  32.453  27.372  1.00  0.00    -0.268 OA
ATOM     24  N   UNL A   1      33.837  30.390  26.907  1.00  0.00    -0.351 N 
ATOM     25  H   UNL A   1      33.918  30.577  25.944  1.00  0.00     0.163 HD
BRANCH  24  26
ATOM     26  C   UNL A   1      33.732  28.963  27.244  1.00  0.00     0.121 C 
BRANCH  26  27
ATOM     27  C   UNL A   1      34.214  27.963  26.151  1.00  0.00     0.059 C 
BRANCH  27  28
ATOM     28  C   UNL A   1      33.188  26.886  25.785  1.00  0.00    -0.021 A 
ATOM     29  C   UNL A   1      33.545  25.556  25.559  1.00  0.00     0.087 A 
ATOM     30  C   UNL A   1      32.162  27.030  24.795  1.00  0.00     0.003 A 
ATOM     31  N   UNL A   1      33.745  25.631  24.174  1.00  0.00    -0.361 N 
ATOM     32  C   UNL A   1      32.739  26.430  23.675  1.00  0.00     0.046 A 
ATOM     33  C   UNL A   1      30.904  27.638  24.649  1.00  0.00     0.010 A 
ATOM     34  H   UNL A   1      34.464  25.197  23.659  1.00  0.00     0.166 HD
ATOM     35  C   UNL A   1      32.285  26.622  22.375  1.00  0.00     0.026 A 
ATOM     36  C   UNL A   1      30.319  27.649  23.371  1.00  0.00     0.001 A 
ATOM     37  C   UNL A   1      31.032  27.221  22.247  1.00  0.00     0.002 A 
ENDBRANCH  27  28
ENDBRANCH  26  27
ENDBRANCH  24  26
ENDBRANCH  19  22
ENDBRANCH  16  18
ENDBRANCH   7  11
ENDBRANCH   2   4
ENDBRANCH   1   2
BRANCH   1  38
ATOM     38  C   UNL A   1      41.279  33.103  36.811  1.00  0.00     0.275 C 
BRANCH  38  39
ATOM     39  C   UNL A   1      42.092  34.373  36.567  1.00  0.00     0.275 C 
BRANCH  39  40
ATOM     40  O   UNL A   1      41.548  35.386  35.672  1.00  0.00    -0.458 OA
BRANCH  40  41
ATOM     41  C   UNL A   1      40.650  35.201  34.663  1.00  0.00     0.338 C 
ATOM     42  O   UNL A   1      39.472  35.518  34.798  1.00  0.00    -0.246 OA
BRANCH  41  43
ATOM     43  C   UNL A   1      41.175  34.781  33.342  1.00  0.00     0.060 A 
ATOM     44  C   UNL A   1      40.283  34.489  32.288  1.00  0.00     0.016 A 
ATOM     45  C   UNL A   1      42.533  34.873  33.100  1.00  0.00     0.016 A 
ATOM     46  C   UNL A   1      40.733  34.433  30.976  1.00  0.00     0.010 A 
ATOM     47  C   UNL A   1      42.952  35.033  31.810  1.00  0.00     0.010 A 
ATOM     48  C   UNL A   1      42.071  34.734  30.760  1.00  0.00    -0.014 A 
BRANCH  48  49
ATOM     49  C   UNL A   1      42.773  34.442  29.525  1.00  0.00     0.031 A 
ATOM     50  C   UNL A   1      43.445  33.142  29.368  1.00  0.00     0.074 A 
ATOM     51  C   UNL A   1      42.548  35.445  28.640  1.00  0.00     0.049 A 
ATOM     52  N   UNL A   1      44.576  32.953  28.784  1.00  0.00    -0.248 NA
ATOM     53  C   UNL A   1      42.942  31.901  29.975  1.00  0.00     0.031 C 
ATOM     54  C   UNL A   1      42.685  35.589  27.208  1.00  0.00     0.029 A 
ATOM     55  N   UNL A   1      42.176  36.738  29.036  1.00  0.00    -0.354 N 
ATOM     56  C   UNL A   1      44.610  31.598  28.497  1.00  0.00     0.074 A 
ATOM     57  C   UNL A   1      43.770  30.973  29.479  1.00  0.00     0.031 C 
ATOM     58  C   UNL A   1      42.740  36.910  26.913  1.00  0.00     0.029 A 
ATOM     59  C   UNL A   1      42.742  37.655  28.170  1.00  0.00     0.049 A 
ATOM     60  H   UNL A   1      41.603  36.957  29.806  1.00  0.00     0.167 HD
ATOM     61  C   UNL A   1      44.973  31.195  27.245  1.00  0.00     0.034 A 
ATOM     62  C   UNL A   1      43.766  38.390  28.704  1.00  0.00     0.034 A 
ATOM     63  C   UNL A   1      45.182  32.375  26.410  1.00  0.00     0.049 A 
ATOM     64  C   UNL A   1      45.090  37.888  28.162  1.00  0.00     0.074 A 
ATOM     65  C   UNL A   1      44.391  33.016  25.472  1.00  0.00     0.029 A 
ATOM     66  N   UNL A   1      46.153  33.281  26.776  1.00  0.00    -0.354 N 
ATOM     67  N   UNL A   1      45.285  36.693  27.669  1.00  0.00    -0.248 NA
ATOM     68  C   UNL A   1      46.289  38.710  28.118  1.00  0.00     0.031 C 
ATOM     69  C   UNL A   1      44.921  34.326  25.277  1.00  0.00     0.029 A 
ATOM     70  C   UNL A   1      46.003  34.481  26.123  1.00  0.00     0.049 A 
ATOM     71  H   UNL A   1      46.867  33.092  27.428  1.00  0.00     0.167 HD
ATOM     72  C   UNL A   1      46.545  36.604  27.145  1.00  0.00     0.074 A 
ATOM     73  C   UNL A   1      47.163  37.863  27.545  1.00  0.00     0.031 C 
ATOM     74  C   UNL A   1      46.966  35.528  26.402  1.00  0.00     0.034 A 
BRANCH  61  75
ATOM     75  C   UNL A   1      44.803  29.818  26.649  1.00  0.00     0.023 A 
ATOM     76  C   UNL A   1      45.961  29.126  26.232  1.00  0.00     0.031 A 
ATOM     77  C   UNL A   1      43.594  29.111  26.508  1.00  0.00     0.131 A 
ATOM     78  C   UNL A   1      45.905  27.847  25.660  1.00  0.00     0.055 A 
ATOM     79  C   UNL A   1      43.532  27.834  25.920  1.00  0.00     0.041 A 
ATOM     80  F   UNL A   1      42.435  29.604  26.968  1.00  0.00    -0.206 F 
ATOM     81  C   UNL A   1      44.691  27.195  25.489  1.00  0.00     0.022 A 
BRANCH  78  82
ATOM     82  S   UNL A   1      47.463  27.059  25.169  1.00  0.00     0.124 S 
ATOM     83  O   UNL A   1      47.996  26.610  26.452  1.00  0.00    -0.237 OA
ATOM     84  O   UNL A   1      47.010  26.013  24.259  1.00  0.00    -0.237 OA
ATOM     85  O   UNL A   1      48.208  28.145  24.536  1.00  0.00    -0.744 OA
ENDBRANCH  78  82
ENDBRANCH  61  75
BRANCH  62  86
ATOM     86  C   UNL A   1      43.497  38.820  30.136  1.00  0.00     0.023 A 
ATOM     87  C   UNL A   1      44.186  38.130  31.169  1.00  0.00     0.031 A 
ATOM     88  C   UNL A   1      42.909  40.043  30.486  1.00  0.00     0.131 A 
ATOM     89  C   UNL A   1      44.427  38.733  32.415  1.00  0.00     0.055 A 
ATOM     90  C   UNL A   1      43.063  40.597  31.772  1.00  0.00     0.041 A 
ATOM     91  F   UNL A   1      42.266  40.783  29.571  1.00  0.00    -0.206 F 
ATOM     92  C   UNL A   1      43.856  39.962  32.732  1.00  0.00     0.022 A 
BRANCH  89  93
ATOM     93  S   UNL A   1      45.754  38.035  33.455  1.00  0.00     0.124 S 
ATOM     94  O   UNL A   1      46.803  39.040  33.336  1.00  0.00    -0.237 OA
ATOM     95  O   UNL A   1      45.105  37.939  34.762  1.00  0.00    -0.237 OA
ATOM     96  O   UNL A   1      46.046  36.749  32.832  1.00  0.00    -0.744 OA
ENDBRANCH  89  93
ENDBRANCH  62  86
BRANCH  74  97
ATOM     97  C   UNL A   1      48.362  35.342  25.863  1.00  0.00     0.023 A 
ATOM     98  C   UNL A   1      49.126  34.227  26.198  1.00  0.00     0.031 A 
ATOM     99  C   UNL A   1      48.997  36.282  25.008  1.00  0.00     0.131 A 
ATOM    100  C   UNL A   1      50.343  33.971  25.556  1.00  0.00     0.055 A 
ATOM    101  C   UNL A   1      50.255  36.076  24.447  1.00  0.00     0.041 A 
ATOM    102  F   UNL A   1      48.429  37.439  24.644  1.00  0.00    -0.206 F 
ATOM    103  C   UNL A   1      50.921  34.890  24.686  1.00  0.00     0.022 A 
BRANCH 100 104
ATOM    104  S   UNL A   1      51.089  32.353  25.820  1.00  0.00     0.124 S 
ATOM    105  O   UNL A   1      52.089  32.631  26.846  1.00  0.00    -0.237 OA
ATOM    106  O   UNL A   1      49.938  31.566  26.258  1.00  0.00    -0.237 OA
ATOM    107  O   UNL A   1      51.620  32.003  24.506  1.00  0.00    -0.744 OA
ENDBRANCH 100 104
ENDBRANCH  74  97
ENDBRANCH  48  49
ENDBRANCH  41  43
ENDBRANCH  40  41
ENDBRANCH  39  40
ENDBRANCH  38  39
ENDBRANCH   1  38
TORSDOF 21
ENDMDL
MODEL 2
REMARK VINA RESULT:      -9.9      5.270      9.342
REMARK SMILES Cc1c(C(=O)OCCOC(=O)c2ccc(-c3c4nc(c(-c5cc(S(=O)(=O)[O-])ccc5F)c5ccc([nH]5)c(-c5cc(S(=O)(=O)[O-])ccc5F)c5nc(c(-c6cc(S(=O)(=O)[O-])ccc6F)c6ccc3[nH]6)C=C5)C=C4)cc2)cccc1N1[C@@H](C)C=C(/C=C(\C#N)C(=O)NCCc2c[nH]c3ccccc23)[C@@H]1C
REMARK SMILES IDX 6 1 4 2 5 3 3 4 1 5 2 6 78 7 75 8 77 9 76 10 79 11 80 12
REMARK SMILES IDX 102 13 82 14 81 15 83 16 103 17 84 18 85 19 86 20 87 21
REMARK SMILES IDX 88 22 89 23 90 24 91 26 92 27 93 28 94 29 101 30 95 31 96 32
REMARK SMILES IDX 100 33 97 35 99 36 98 37 7 38 8 39 9 40 10 41 11 42 12 43
REMARK SMILES IDX 13 44 74 45 14 46 73 47 15 48 16 49 17 50 67 51 18 52 72 53
REMARK SMILES IDX 66 54 68 55 19 56 71 57 65 58 64 59 20 61 52 62 32 63 51 64
REMARK SMILES IDX 33 65 36 66 50 67 69 68 34 69 35 70 49 72 70 73 37 74 21 75
REMARK SMILES IDX 22 76 30 77 23 78 29 79 31 80 28 81 24 82 25 83 26 84 27 85
REMARK SMILES IDX 53 86 54 87 62 88 55 89 61 90 63 91 60 92 56 93 57 94 58 95
REMARK SMILES IDX 59 96 38 97 39 98 47 99 40 100 46 101 48 102 45 103 41 104
REMARK SMILES IDX 42 105 43 106 44 107
REMARK H PARENT 90 25 95 34 68 60 36 71
REMARK Flexibility Score: inf
ROOT
ATOM      1  O   UNL A   1      35.620  32.341  27.613  1.00  0.00    -0.458 OA
ENDROOT
BRANCH   1   2
ATOM      2  C   UNL A   1      34.691  31.486  28.087  1.00  0.00     0.338 C 
ATOM      3  O   UNL A   1      34.773  30.862  29.135  1.00  0.00    -0.246 OA
BRANCH   2   4
ATOM      4  C   UNL A   1      33.618  31.154  27.147  1.00  0.00     0.065 A 
ATOM      5  C   UNL A   1      34.865  29.004  26.930  1.00  0.00     0.047 C 
ATOM      6  C   UNL A   1      33.595  29.809  26.757  1.00  0.00    -0.013 A 
ATOM      7  C   UNL A   1      32.411  29.303  26.201  1.00  0.00     0.041 A 
ATOM      8  C   UNL A   1      32.566  32.023  26.847  1.00  0.00     0.016 A 
ATOM      9  C   UNL A   1      31.302  30.155  26.036  1.00  0.00     0.026 A 
ATOM     10  C   UNL A   1      31.385  31.513  26.321  1.00  0.00     0.003 A 
BRANCH   7  11
ATOM     11  N   UNL A   1      32.346  28.060  25.604  1.00  0.00    -0.358 N 
ATOM     12  C   UNL A   1      32.769  28.009  24.195  1.00  0.00     0.103 C 
ATOM     13  C   UNL A   1      32.606  26.812  26.336  1.00  0.00     0.110 C 
ATOM     14  C   UNL A   1      33.446  26.684  24.148  1.00  0.00     0.003 C 
ATOM     15  C   UNL A   1      33.800  29.074  23.773  1.00  0.00     0.035 C 
ATOM     16  C   UNL A   1      33.495  26.090  25.349  1.00  0.00    -0.026 C 
ATOM     17  C   UNL A   1      31.289  26.093  26.617  1.00  0.00     0.036 C 
BRANCH  16  18
ATOM     18  C   UNL A   1      34.295  24.947  25.719  1.00  0.00     0.031 C 
ATOM     19  C   UNL A   1      33.943  23.645  25.633  1.00  0.00     0.117 C 
BRANCH  19  20
ATOM     20  C   UNL A   1      32.694  23.198  25.116  1.00  0.00     0.105 C 
ATOM     21  N   UNL A   1      31.703  22.814  24.659  1.00  0.00    -0.192 NA
ENDBRANCH  19  20
BRANCH  19  22
ATOM     22  C   UNL A   1      34.804  22.699  26.391  1.00  0.00     0.261 C 
ATOM     23  O   UNL A   1      34.513  22.327  27.528  1.00  0.00    -0.268 OA
ATOM     24  N   UNL A   1      35.748  21.997  25.704  1.00  0.00    -0.351 N 
ATOM     25  H   UNL A   1      35.638  21.020  25.741  1.00  0.00     0.163 HD
BRANCH  24  26
ATOM     26  C   UNL A   1      36.905  22.451  24.919  1.00  0.00     0.121 C 
BRANCH  26  27
ATOM     27  C   UNL A   1      38.159  21.525  24.948  1.00  0.00     0.059 C 
BRANCH  27  28
ATOM     28  C   UNL A   1      39.040  21.696  26.189  1.00  0.00    -0.021 A 
ATOM     29  C   UNL A   1      39.305  22.945  26.754  1.00  0.00     0.087 A 
ATOM     30  C   UNL A   1      40.313  21.068  26.387  1.00  0.00     0.003 A 
ATOM     31  N   UNL A   1      40.483  23.239  26.055  1.00  0.00    -0.361 N 
ATOM     32  C   UNL A   1      41.205  22.066  25.990  1.00  0.00     0.046 A 
ATOM     33  C   UNL A   1      40.836  19.814  26.745  1.00  0.00     0.010 A 
ATOM     34  H   UNL A   1      40.744  24.113  25.684  1.00  0.00     0.166 HD
ATOM     35  C   UNL A   1      42.537  21.829  25.669  1.00  0.00     0.026 A 
ATOM     36  C   UNL A   1      42.224  19.621  26.636  1.00  0.00     0.001 A 
ATOM     37  C   UNL A   1      43.041  20.583  26.036  1.00  0.00     0.002 A 
ENDBRANCH  27  28
ENDBRANCH  26  27
ENDBRANCH  24  26
ENDBRANCH  19  22
ENDBRANCH  16  18
ENDBRANCH   7  11
ENDBRANCH   2   4
ENDBRANCH   1   2
BRANCH   1  38
ATOM     38  C   UNL A   1      35.442  33.657  28.154  1.00  0.00     0.275 C 
BRANCH  38  39
ATOM     39  C   UNL A   1      36.573  34.049  29.102  1.00  0.00     0.275 C 
BRANCH  39  40
ATOM     40  O   UNL A   1      36.359  33.907  30.537  1.00  0.00    -0.458 OA
BRANCH  40  41
ATOM     41  C   UNL A   1      36.624  32.814  31.307  1.00  0.00     0.338 C 
ATOM     42  O   UNL A   1      35.756  32.315  32.017  1.00  0.00    -0.246 OA
BRANCH  41  43
ATOM     43  C   UNL A   1      37.929  32.138  31.118  1.00  0.00     0.060 A 
ATOM     44  C   UNL A   1      39.089  32.900  30.860  1.00  0.00     0.016 A 
ATOM     45  C   UNL A   1      38.032  30.787  31.394  1.00  0.00     0.016 A 
ATOM     46  C   UNL A   1      40.351  32.346  31.020  1.00  0.00     0.010 A 
ATOM     47  C   UNL A   1      39.250  30.291  31.760  1.00  0.00     0.010 A 
ATOM     48  C   UNL A   1      40.406  31.042  31.496  1.00  0.00    -0.014 A 
BRANCH  48  49
ATOM     49  C   UNL A   1      41.594  30.215  31.443  1.00  0.00     0.031 A 
ATOM     50  C   UNL A   1      41.676  29.134  30.446  1.00  0.00     0.074 A 
ATOM     51  C   UNL A   1      42.522  30.715  32.297  1.00  0.00     0.049 A 
ATOM     52  N   UNL A   1      42.198  27.974  30.645  1.00  0.00    -0.248 NA
ATOM     53  C   UNL A   1      41.054  29.220  29.118  1.00  0.00     0.031 C 
ATOM     54  C   UNL A   1      43.949  30.554  32.458  1.00  0.00     0.029 A 
ATOM     55  N   UNL A   1      42.187  31.526  33.391  1.00  0.00    -0.354 N 
ATOM     56  C   UNL A   1      42.439  27.468  29.378  1.00  0.00     0.074 A 
ATOM     57  C   UNL A   1      41.478  28.100  28.519  1.00  0.00     0.031 C 
ATOM     58  C   UNL A   1      44.284  30.934  33.714  1.00  0.00     0.029 A 
ATOM     59  C   UNL A   1      43.054  31.256  34.434  1.00  0.00     0.049 A 
ATOM     60  H   UNL A   1      41.453  32.181  33.414  1.00  0.00     0.167 HD
ATOM     61  C   UNL A   1      43.658  26.919  29.105  1.00  0.00     0.034 A 
ATOM     62  C   UNL A   1      42.496  30.573  35.481  1.00  0.00     0.034 A 
ATOM     63  C   UNL A   1      44.520  27.076  30.273  1.00  0.00     0.049 A 
ATOM     64  C   UNL A   1      42.957  29.129  35.451  1.00  0.00     0.074 A 
ATOM     65  C   UNL A   1      45.516  27.983  30.594  1.00  0.00     0.029 A 
ATOM     66  N   UNL A   1      44.137  26.491  31.461  1.00  0.00    -0.354 N 
ATOM     67  N   UNL A   1      43.400  28.513  34.387  1.00  0.00    -0.248 NA
ATOM     68  C   UNL A   1      42.970  28.278  36.631  1.00  0.00     0.031 C 
ATOM     69  C   UNL A   1      45.728  27.917  32.002  1.00  0.00     0.029 A 
ATOM     70  C   UNL A   1      44.836  27.002  32.529  1.00  0.00     0.049 A 
ATOM     71  H   UNL A   1      43.446  25.793  31.535  1.00  0.00     0.167 HD
ATOM     72  C   UNL A   1      43.859  27.270  34.724  1.00  0.00     0.074 A 
ATOM     73  C   UNL A   1      43.472  27.139  36.124  1.00  0.00     0.031 C 
ATOM     74  C   UNL A   1      44.546  26.467  33.845  1.00  0.00     0.034 A 
BRANCH  61  75
ATOM     75  C   UNL A   1      44.216  26.579  27.743  1.00  0.00     0.023 A 
ATOM     76  C   UNL A   1      45.248  27.392  27.226  1.00  0.00     0.031 A 
ATOM     77  C   UNL A   1      43.849  25.485  26.938  1.00  0.00     0.131 A 
ATOM     78  C   UNL A   1      45.825  27.162  25.969  1.00  0.00     0.055 A 
ATOM     79  C   UNL A   1      44.415  25.259  25.670  1.00  0.00     0.041 A 
ATOM     80  F   UNL A   1      42.964  24.570  27.360  1.00  0.00    -0.206 F 
ATOM     81  C   UNL A   1      45.406  26.101  25.176  1.00  0.00     0.022 A 
BRANCH  78  82
ATOM     82  S   UNL A   1      47.148  28.272  25.415  1.00  0.00     0.124 S 
ATOM     83  O   UNL A   1      47.682  28.766  26.681  1.00  0.00    -0.237 OA
ATOM     84  O   UNL A   1      48.012  27.375  24.657  1.00  0.00    -0.237 OA
ATOM     85  O   UNL A   1      46.439  29.269  24.613  1.00  0.00    -0.744 OA
ENDBRANCH  78  82
ENDBRANCH  61  75
BRANCH  62  86
ATOM     86  C   UNL A   1      41.093  31.052  35.815  1.00  0.00     0.023 A 
ATOM     87  C   UNL A   1      40.960  32.350  36.377  1.00  0.00     0.031 A 
ATOM     88  C   UNL A   1      39.926  30.472  35.299  1.00  0.00     0.131 A 
ATOM     89  C   UNL A   1      39.769  33.084  36.246  1.00  0.00     0.055 A 
ATOM     90  C   UNL A   1      38.705  31.171  35.266  1.00  0.00     0.041 A 
ATOM     91  F   UNL A   1      39.959  29.263  34.718  1.00  0.00    -0.206 F 
ATOM     92  C   UNL A   1      38.628  32.496  35.705  1.00  0.00     0.022 A 
BRANCH  89  93
ATOM     93  S   UNL A   1      39.851  34.890  36.489  1.00  0.00     0.124 S 
ATOM     94  O   UNL A   1      38.941  35.383  35.463  1.00  0.00    -0.237 OA
ATOM     95  O   UNL A   1      39.397  35.038  37.871  1.00  0.00    -0.237 OA
ATOM     96  O   UNL A   1      41.259  35.207  36.281  1.00  0.00    -0.744 OA
ENDBRANCH  89  93
ENDBRANCH  62  86
BRANCH  74  97
ATOM     97  C   UNL A   1      45.010  25.063  34.137  1.00  0.00     0.023 A 
ATOM     98  C   UNL A   1      46.362  24.761  34.277  1.00  0.00     0.031 A 
ATOM     99  C   UNL A   1      44.122  23.962  34.266  1.00  0.00     0.131 A 
ATOM    100  C   UNL A   1      46.773  23.500  34.724  1.00  0.00     0.055 A 
ATOM    101  C   UNL A   1      44.540  22.679  34.612  1.00  0.00     0.041 A 
ATOM    102  F   UNL A   1      42.798  24.066  34.093  1.00  0.00    -0.206 F 
ATOM    103  C   UNL A   1      45.874  22.450  34.887  1.00  0.00     0.022 A 
BRANCH 100 104
ATOM    104  S   UNL A   1      48.505  23.313  35.181  1.00  0.00     0.124 S 
ATOM    105  O   UNL A   1      48.417  22.783  36.538  1.00  0.00    -0.237 OA
ATOM    106  O   UNL A   1      48.978  22.372  34.167  1.00  0.00    -0.237 OA
ATOM    107  O   UNL A   1      49.037  24.668  35.071  1.00  0.00    -0.744 OA
ENDBRANCH 100 104
ENDBRANCH  74  97
ENDBRANCH  48  49
ENDBRANCH  41  43
ENDBRANCH  40  41
ENDBRANCH  39  40
ENDBRANCH  38  39
ENDBRANCH   1  38
TORSDOF 21
ENDMDL
MODEL 3
REMARK VINA RESULT:      -9.9      4.412      9.492
REMARK SMILES Cc1c(C(=O)OCCOC(=O)c2ccc(-c3c4nc(c(-c5cc(S(=O)(=O)[O-])ccc5F)c5ccc([nH]5)c(-c5cc(S(=O)(=O)[O-])ccc5F)c5nc(c(-c6cc(S(=O)(=O)[O-])ccc6F)c6ccc3[nH]6)C=C5)C=C4)cc2)cccc1N1[C@@H](C)C=C(/C=C(\C#N)C(=O)NCCc2c[nH]c3ccccc23)[C@@H]1C
REMARK SMILES IDX 6 1 4 2 5 3 3 4 1 5 2 6 78 7 75 8 77 9 76 10 79 11 80 12
REMARK SMILES IDX 102 13 82 14 81 15 83 16 103 17 84 18 85 19 86 20 87 21
REMARK SMILES IDX 88 22 89 23 90 24 91 26 92 27 93 28 94 29 101 30 95 31 96 32
REMARK SMILES IDX 100 33 97 35 99 36 98 37 7 38 8 39 9 40 10 41 11 42 12 43
REMARK SMILES IDX 13 44 74 45 14 46 73 47 15 48 16 49 17 50 67 51 18 52 72 53
REMARK SMILES IDX 66 54 68 55 19 56 71 57 65 58 64 59 20 61 52 62 32 63 51 64
REMARK SMILES IDX 33 65 36 66 50 67 69 68 34 69 35 70 49 72 70 73 37 74 21 75
REMARK SMILES IDX 22 76 30 77 23 78 29 79 31 80 28 81 24 82 25 83 26 84 27 85
REMARK SMILES IDX 53 86 54 87 62 88 55 89 61 90 63 91 60 92 56 93 57 94 58 95
REMARK SMILES IDX 59 96 38 97 39 98 47 99 40 100 46 101 48 102 45 103 41 104
REMARK SMILES IDX 42 105 43 106 44 107
REMARK H PARENT 90 25 95 34 68 60 36 71
REMARK Flexibility Score: inf
ROOT
ATOM      1  O   UNL A   1      45.780  36.919  29.685  1.00  0.00    -0.458 OA
ENDROOT
BRANCH   1   2
ATOM      2  C   UNL A   1      44.508  37.361  29.781  1.00  0.00     0.338 C 
ATOM      3  O   UNL A   1      44.074  38.382  29.269  1.00  0.00    -0.246 OA
BRANCH   2   4
ATOM      4  C   UNL A   1      43.674  36.642  30.746  1.00  0.00     0.065 A 
ATOM      5  C   UNL A   1      42.958  35.354  28.734  1.00  0.00     0.047 C 
ATOM      6  C   UNL A   1      43.081  35.480  30.237  1.00  0.00    -0.013 A 
ATOM      7  C   UNL A   1      42.608  34.525  31.148  1.00  0.00     0.041 A 
ATOM      8  C   UNL A   1      43.655  36.937  32.112  1.00  0.00     0.016 A 
ATOM      9  C   UNL A   1      42.726  34.768  32.531  1.00  0.00     0.026 A 
ATOM     10  C   UNL A   1      43.211  35.978  33.013  1.00  0.00     0.003 A 
BRANCH   7  11
ATOM     11  N   UNL A   1      41.835  33.450  30.760  1.00  0.00    -0.358 N 
ATOM     12  C   UNL A   1      42.560  32.183  30.568  1.00  0.00     0.103 C 
ATOM     13  C   UNL A   1      40.448  33.265  31.209  1.00  0.00     0.110 C 
ATOM     14  C   UNL A   1      41.560  31.203  31.074  1.00  0.00     0.003 C 
ATOM     15  C   UNL A   1      43.842  32.018  31.408  1.00  0.00     0.035 C 
ATOM     16  C   UNL A   1      40.465  31.796  31.567  1.00  0.00    -0.026 C 
ATOM     17  C   UNL A   1      39.487  33.611  30.075  1.00  0.00     0.036 C 
BRANCH  16  18
ATOM     18  C   UNL A   1      39.432  31.182  32.367  1.00  0.00     0.031 C 
ATOM     19  C   UNL A   1      38.970  29.916  32.269  1.00  0.00     0.117 C 
BRANCH  19  20
ATOM     20  C   UNL A   1      39.478  28.960  31.343  1.00  0.00     0.105 C 
ATOM     21  N   UNL A   1      39.850  28.157  30.598  1.00  0.00    -0.192 NA
ENDBRANCH  19  20
BRANCH  19  22
ATOM     22  C   UNL A   1      37.685  29.648  32.968  1.00  0.00     0.261 C 
ATOM     23  O   UNL A   1      37.314  28.502  33.225  1.00  0.00    -0.268 OA
ATOM     24  N   UNL A   1      37.072  30.684  33.604  1.00  0.00    -0.351 N 
ATOM     25  H   UNL A   1      36.957  30.557  34.574  1.00  0.00     0.163 HD
BRANCH  24  26
ATOM     26  C   UNL A   1      36.549  31.958  33.091  1.00  0.00     0.121 C 
BRANCH  26  27
ATOM     27  C   UNL A   1      35.494  31.856  31.948  1.00  0.00     0.059 C 
BRANCH  27  28
ATOM     28  C   UNL A   1      35.997  32.333  30.582  1.00  0.00    -0.021 A 
ATOM     29  C   UNL A   1      35.361  33.344  29.860  1.00  0.00     0.087 A 
ATOM     30  C   UNL A   1      36.382  31.474  29.501  1.00  0.00     0.003 A 
ATOM     31  N   UNL A   1      34.498  32.542  29.101  1.00  0.00    -0.361 N 
ATOM     32  C   UNL A   1      35.225  31.434  28.722  1.00  0.00     0.046 A 
ATOM     33  C   UNL A   1      37.470  30.672  29.117  1.00  0.00     0.010 A 
ATOM     34  H   UNL A   1      33.558  32.733  28.882  1.00  0.00     0.166 HD
ATOM     35  C   UNL A   1      34.978  30.465  27.756  1.00  0.00     0.026 A 
ATOM     36  C   UNL A   1      37.314  29.839  27.996  1.00  0.00     0.001 A 
ATOM     37  C   UNL A   1      36.069  29.683  27.381  1.00  0.00     0.002 A 
ENDBRANCH  27  28
ENDBRANCH  26  27
ENDBRANCH  24  26
ENDBRANCH  19  22
ENDBRANCH  16  18
ENDBRANCH   7  11
ENDBRANCH   2   4
ENDBRANCH   1   2
BRANCH   1  38
ATOM     38  C   UNL A   1      46.315  37.152  28.376  1.00  0.00     0.275 C 
BRANCH  38  39
ATOM     39  C   UNL A   1      46.785  35.862  27.707  1.00  0.00     0.275 C 
BRANCH  39  40
ATOM     40  O   UNL A   1      45.781  34.923  27.224  1.00  0.00    -0.458 OA
BRANCH  40  41
ATOM     41  C   UNL A   1      45.927  33.989  26.242  1.00  0.00     0.338 C 
ATOM     42  O   UNL A   1      46.472  34.270  25.178  1.00  0.00    -0.246 OA
BRANCH  41  43
ATOM     43  C   UNL A   1      45.580  32.586  26.568  1.00  0.00     0.060 A 
ATOM     44  C   UNL A   1      46.004  31.538  25.723  1.00  0.00     0.016 A 
ATOM     45  C   UNL A   1      45.017  32.304  27.799  1.00  0.00     0.016 A 
ATOM     46  C   UNL A   1      45.997  30.224  26.168  1.00  0.00     0.010 A 
ATOM     47  C   UNL A   1      45.201  31.057  28.325  1.00  0.00     0.010 A 
ATOM     48  C   UNL A   1      45.613  30.011  27.485  1.00  0.00    -0.014 A 
BRANCH  48  49
ATOM     49  C   UNL A   1      45.266  28.711  28.023  1.00  0.00     0.031 A 
ATOM     50  C   UNL A   1      43.852  28.303  28.064  1.00  0.00     0.074 A 
ATOM     51  C   UNL A   1      46.404  28.019  28.283  1.00  0.00     0.049 A 
ATOM     52  N   UNL A   1      43.295  27.637  29.015  1.00  0.00    -0.248 NA
ATOM     53  C   UNL A   1      42.868  28.717  27.053  1.00  0.00     0.031 C 
ATOM     54  C   UNL A   1      46.720  26.627  28.508  1.00  0.00     0.029 A 
ATOM     55  N   UNL A   1      47.639  28.646  28.501  1.00  0.00    -0.354 N 
ATOM     56  C   UNL A   1      42.133  27.125  28.461  1.00  0.00     0.074 A 
ATOM     57  C   UNL A   1      41.774  28.030  27.406  1.00  0.00     0.031 C 
ATOM     58  C   UNL A   1      47.915  26.556  29.142  1.00  0.00     0.029 A 
ATOM     59  C   UNL A   1      48.354  27.919  29.435  1.00  0.00     0.049 A 
ATOM     60  H   UNL A   1      47.947  29.471  28.061  1.00  0.00     0.167 HD
ATOM     61  C   UNL A   1      41.837  25.806  28.646  1.00  0.00     0.034 A 
ATOM     62  C   UNL A   1      48.466  28.514  30.662  1.00  0.00     0.034 A 
ATOM     63  C   UNL A   1      42.934  25.171  29.371  1.00  0.00     0.049 A 
ATOM     64  C   UNL A   1      47.542  27.828  31.648  1.00  0.00     0.074 A 
ATOM     65  C   UNL A   1      44.007  24.397  28.966  1.00  0.00     0.029 A 
ATOM     66  N   UNL A   1      43.249  25.634  30.630  1.00  0.00    -0.354 N 
ATOM     67  N   UNL A   1      46.487  27.132  31.316  1.00  0.00    -0.248 NA
ATOM     68  C   UNL A   1      47.754  27.861  33.087  1.00  0.00     0.031 C 
ATOM     69  C   UNL A   1      44.968  24.398  30.020  1.00  0.00     0.029 A 
ATOM     70  C   UNL A   1      44.488  25.201  31.038  1.00  0.00     0.049 A 
ATOM     71  H   UNL A   1      42.658  26.207  31.173  1.00  0.00     0.167 HD
ATOM     72  C   UNL A   1      45.952  26.536  32.424  1.00  0.00     0.074 A 
ATOM     73  C   UNL A   1      46.727  27.109  33.518  1.00  0.00     0.031 C 
ATOM     74  C   UNL A   1      44.947  25.601  32.353  1.00  0.00     0.034 A 
BRANCH  61  75
ATOM     75  C   UNL A   1      40.797  24.996  27.908  1.00  0.00     0.023 A 
ATOM     76  C   UNL A   1      41.107  23.659  27.579  1.00  0.00     0.031 A 
ATOM     77  C   UNL A   1      39.505  25.421  27.550  1.00  0.00     0.131 A 
ATOM     78  C   UNL A   1      40.212  22.829  26.889  1.00  0.00     0.055 A 
ATOM     79  C   UNL A   1      38.609  24.598  26.844  1.00  0.00     0.041 A 
ATOM     80  F   UNL A   1      39.040  26.629  27.903  1.00  0.00    -0.206 F 
ATOM     81  C   UNL A   1      38.961  23.294  26.505  1.00  0.00     0.022 A 
BRANCH  78  82
ATOM     82  S   UNL A   1      40.723  21.127  26.528  1.00  0.00     0.124 S 
ATOM     83  O   UNL A   1      40.890  20.567  27.866  1.00  0.00    -0.237 OA
ATOM     84  O   UNL A   1      39.595  20.620  25.753  1.00  0.00    -0.237 OA
ATOM     85  O   UNL A   1      41.962  21.298  25.771  1.00  0.00    -0.744 OA
ENDBRANCH  78  82
ENDBRANCH  61  75
BRANCH  62  86
ATOM     86  C   UNL A   1      48.714  30.011  30.569  1.00  0.00     0.023 A 
ATOM     87  C   UNL A   1      49.727  30.454  29.676  1.00  0.00     0.031 A 
ATOM     88  C   UNL A   1      47.808  30.982  31.017  1.00  0.00     0.131 A 
ATOM     89  C   UNL A   1      49.701  31.746  29.127  1.00  0.00     0.055 A 
ATOM     90  C   UNL A   1      47.851  32.308  30.545  1.00  0.00     0.041 A 
ATOM     91  F   UNL A   1      46.798  30.653  31.836  1.00  0.00    -0.206 F 
ATOM     92  C   UNL A   1      48.775  32.687  29.566  1.00  0.00     0.022 A 
BRANCH  89  93
ATOM     93  S   UNL A   1      50.676  32.046  27.614  1.00  0.00     0.124 S 
ATOM     94  O   UNL A   1      50.829  33.496  27.625  1.00  0.00    -0.237 OA
ATOM     95  O   UNL A   1      51.891  31.273  27.870  1.00  0.00    -0.237 OA
ATOM     96  O   UNL A   1      49.838  31.514  26.546  1.00  0.00    -0.744 OA
ENDBRANCH  89  93
ENDBRANCH  62  86
BRANCH  74  97
ATOM     97  C   UNL A   1      44.270  24.967  33.542  1.00  0.00     0.023 A 
ATOM     98  C   UNL A   1      43.547  25.729  34.456  1.00  0.00     0.031 A 
ATOM     99  C   UNL A   1      44.335  23.577  33.823  1.00  0.00     0.131 A 
ATOM    100  C   UNL A   1      42.775  25.116  35.449  1.00  0.00     0.055 A 
ATOM    101  C   UNL A   1      43.648  22.977  34.876  1.00  0.00     0.041 A 
ATOM    102  F   UNL A   1      45.044  22.713  33.084  1.00  0.00    -0.206 F 
ATOM    103  C   UNL A   1      42.823  23.744  35.674  1.00  0.00     0.022 A 
BRANCH 100 104
ATOM    104  S   UNL A   1      41.631  26.164  36.366  1.00  0.00     0.124 S 
ATOM    105  O   UNL A   1      41.565  27.361  35.535  1.00  0.00    -0.237 OA
ATOM    106  O   UNL A   1      40.425  25.339  36.382  1.00  0.00    -0.237 OA
ATOM    107  O   UNL A   1      42.286  26.335  37.660  1.00  0.00    -0.744 OA
ENDBRANCH 100 104
ENDBRANCH  74  97
ENDBRANCH  48  49
ENDBRANCH  41  43
ENDBRANCH  40  41
ENDBRANCH  39  40
ENDBRANCH  38  39
ENDBRANCH   1  38
TORSDOF 21
ENDMDL
