MODEL 1
REMARK VINA RESULT:     -10.6      0.000      0.000
REMARK SMILES O=C(OCCOC(=O)[C@H]1/C(=C/CO)O[C@@H]2CC(=O)N21)c1ccc(-c2c3nc(c(-c4cc(S(=O)(=O)[O-])ccc4F)c4ccc([nH]4)c(-c4cc(S(=O)(=O)[O-])ccc4F)c4nc(c(-c5cc(S(=O)(=O)[O-])ccc5F)c5ccc2[nH]5)C=C4)C=C3)cc1
REMARK SMILES IDX 4 1 3 2 2 3 1 4 20 5 21 6 82 7 22 8 81 9 23 10 24 11 25 12
REMARK SMILES IDX 75 13 26 14 80 15 74 16 76 17 27 18 79 19 73 20 72 21 28 23
REMARK SMILES IDX 60 24 40 25 59 26 41 27 44 28 58 29 77 30 42 31 43 32 57 34
REMARK SMILES IDX 78 35 45 36 29 37 30 38 38 39 31 40 37 41 39 42 36 43 32 44
REMARK SMILES IDX 33 45 34 46 35 47 61 48 62 49 70 50 63 51 69 52 71 53 68 54
REMARK SMILES IDX 64 55 65 56 66 57 67 58 46 59 47 60 55 61 48 62 54 63 56 64
REMARK SMILES IDX 53 65 49 66 50 67 51 68 52 69 5 70 6 71 7 72 8 73 9 74 10 75
REMARK SMILES IDX 19 76 11 77 14 78 15 79 17 80 16 81 18 82 12 83 13 84
REMARK H PARENT 76 22 44 33 13 85
REMARK Flexibility Score: inf
ROOT
ATOM      1  C   UNL A   1      40.379  20.974  26.862  1.00  0.00     0.275 C 
ENDROOT
BRANCH   1   2
ATOM      2  O   UNL A   1      39.387  21.500  25.963  1.00  0.00    -0.458 OA
BRANCH   2   3
ATOM      3  C   UNL A   1      38.549  22.550  26.166  1.00  0.00     0.338 C 
ATOM      4  O   UNL A   1      37.379  22.467  25.800  1.00  0.00    -0.246 OA
BRANCH   3   5
ATOM      5  C   UNL A   1      39.056  23.877  26.616  1.00  0.00     0.060 A 
ATOM      6  C   UNL A   1      39.711  24.807  25.806  1.00  0.00     0.016 A 
ATOM      7  C   UNL A   1      38.902  24.174  27.979  1.00  0.00     0.016 A 
ATOM      8  C   UNL A   1      40.104  26.049  26.320  1.00  0.00     0.010 A 
ATOM      9  C   UNL A   1      39.311  25.407  28.501  1.00  0.00     0.010 A 
ATOM     10  C   UNL A   1      39.902  26.360  27.669  1.00  0.00    -0.014 A 
BRANCH  10  11
ATOM     11  C   UNL A   1      40.418  27.639  28.207  1.00  0.00     0.031 A 
ATOM     12  C   UNL A   1      41.892  27.912  28.138  1.00  0.00     0.074 A 
ATOM     13  C   UNL A   1      39.574  28.566  28.694  1.00  0.00     0.049 A 
ATOM     14  N   UNL A   1      42.539  29.025  28.369  1.00  0.00    -0.248 NA
ATOM     15  C   UNL A   1      42.747  26.782  27.746  1.00  0.00     0.031 C 
ATOM     16  C   UNL A   1      38.128  28.398  28.839  1.00  0.00     0.029 A 
ATOM     17  N   UNL A   1      39.809  29.838  29.150  1.00  0.00    -0.354 N 
ATOM     18  C   UNL A   1      43.870  28.746  28.092  1.00  0.00     0.074 A 
ATOM     19  C   UNL A   1      43.947  27.339  27.757  1.00  0.00     0.031 C 
ATOM     20  C   UNL A   1      37.604  29.526  29.350  1.00  0.00     0.029 A 
ATOM     21  C   UNL A   1      38.674  30.499  29.559  1.00  0.00     0.049 A 
ATOM     22  H   UNL A   1      40.706  30.242  29.180  1.00  0.00     0.167 HD
ATOM     23  C   UNL A   1      44.930  29.592  28.084  1.00  0.00     0.034 A 
ATOM     24  C   UNL A   1      38.519  31.751  30.033  1.00  0.00     0.034 A 
ATOM     25  C   UNL A   1      44.856  30.969  28.499  1.00  0.00     0.049 A 
ATOM     26  C   UNL A   1      39.725  32.658  30.093  1.00  0.00     0.074 A 
ATOM     27  C   UNL A   1      45.869  31.907  28.586  1.00  0.00     0.029 A 
ATOM     28  N   UNL A   1      43.693  31.600  28.926  1.00  0.00    -0.354 N 
ATOM     29  N   UNL A   1      40.968  32.402  29.754  1.00  0.00    -0.248 NA
ATOM     30  C   UNL A   1      39.501  34.028  30.570  1.00  0.00     0.031 C 
ATOM     31  C   UNL A   1      45.328  33.090  29.108  1.00  0.00     0.029 A 
ATOM     32  C   UNL A   1      43.966  32.908  29.295  1.00  0.00     0.049 A 
ATOM     33  H   UNL A   1      42.804  31.179  28.961  1.00  0.00     0.167 HD
ATOM     34  C   UNL A   1      41.668  33.590  29.952  1.00  0.00     0.074 A 
ATOM     35  C   UNL A   1      40.703  34.566  30.419  1.00  0.00     0.031 C 
ATOM     36  C   UNL A   1      42.986  33.857  29.766  1.00  0.00     0.034 A 
BRANCH  23  37
ATOM     37  C   UNL A   1      46.243  29.011  27.629  1.00  0.00     0.023 A 
ATOM     38  C   UNL A   1      46.516  28.842  26.258  1.00  0.00     0.031 A 
ATOM     39  C   UNL A   1      47.188  28.543  28.555  1.00  0.00     0.131 A 
ATOM     40  C   UNL A   1      47.665  28.148  25.854  1.00  0.00     0.055 A 
ATOM     41  C   UNL A   1      48.366  27.915  28.143  1.00  0.00     0.041 A 
ATOM     42  F   UNL A   1      46.968  28.659  29.873  1.00  0.00    -0.206 F 
ATOM     43  C   UNL A   1      48.602  27.699  26.787  1.00  0.00     0.022 A 
BRANCH  40  44
ATOM     44  S   UNL A   1      47.846  27.720  24.100  1.00  0.00     0.124 S 
ATOM     45  O   UNL A   1      47.555  26.289  24.113  1.00  0.00    -0.237 OA
ATOM     46  O   UNL A   1      46.847  28.569  23.462  1.00  0.00    -0.237 OA
ATOM     47  O   UNL A   1      49.235  28.065  23.806  1.00  0.00    -0.744 OA
ENDBRANCH  40  44
ENDBRANCH  23  37
BRANCH  24  48
ATOM     48  C   UNL A   1      37.183  32.233  30.489  1.00  0.00     0.023 A 
ATOM     49  C   UNL A   1      36.252  32.770  29.586  1.00  0.00     0.031 A 
ATOM     50  C   UNL A   1      36.846  32.217  31.854  1.00  0.00     0.131 A 
ATOM     51  C   UNL A   1      35.050  33.316  30.063  1.00  0.00     0.055 A 
ATOM     52  C   UNL A   1      35.631  32.721  32.319  1.00  0.00     0.041 A 
ATOM     53  F   UNL A   1      37.701  31.710  32.758  1.00  0.00    -0.206 F 
ATOM     54  C   UNL A   1      34.731  33.289  31.424  1.00  0.00     0.022 A 
BRANCH  51  55
ATOM     55  S   UNL A   1      33.945  34.148  28.889  1.00  0.00     0.124 S 
ATOM     56  O   UNL A   1      34.813  35.185  28.342  1.00  0.00    -0.237 OA
ATOM     57  O   UNL A   1      33.596  33.059  27.982  1.00  0.00    -0.237 OA
ATOM     58  O   UNL A   1      32.852  34.630  29.731  1.00  0.00    -0.744 OA
ENDBRANCH  51  55
ENDBRANCH  24  48
BRANCH  36  59
ATOM     59  C   UNL A   1      43.436  35.269  30.041  1.00  0.00     0.023 A 
ATOM     60  C   UNL A   1      43.444  36.247  29.032  1.00  0.00     0.031 A 
ATOM     61  C   UNL A   1      43.885  35.630  31.323  1.00  0.00     0.131 A 
ATOM     62  C   UNL A   1      43.944  37.528  29.307  1.00  0.00     0.055 A 
ATOM     63  C   UNL A   1      44.335  36.921  31.603  1.00  0.00     0.041 A 
ATOM     64  F   UNL A   1      43.897  34.733  32.321  1.00  0.00    -0.206 F 
ATOM     65  C   UNL A   1      44.379  37.874  30.589  1.00  0.00     0.022 A 
BRANCH  62  66
ATOM     66  S   UNL A   1      44.100  38.713  27.942  1.00  0.00     0.124 S 
ATOM     67  O   UNL A   1      42.825  38.549  27.250  1.00  0.00    -0.237 OA
ATOM     68  O   UNL A   1      44.285  39.977  28.647  1.00  0.00    -0.237 OA
ATOM     69  O   UNL A   1      45.270  38.238  27.207  1.00  0.00    -0.744 OA
ENDBRANCH  62  66
ENDBRANCH  36  59
ENDBRANCH  10  11
ENDBRANCH   3   5
ENDBRANCH   2   3
ENDBRANCH   1   2
BRANCH   1  70
ATOM     70  C   UNL A   1      41.819  21.229  26.421  1.00  0.00     0.274 C 
BRANCH  70  71
ATOM     71  O   UNL A   1      41.913  22.206  25.374  1.00  0.00    -0.460 OA
BRANCH  71  72
ATOM     72  C   UNL A   1      43.185  22.506  24.972  1.00  0.00     0.337 C 
ATOM     73  O   UNL A   1      43.473  22.950  23.864  1.00  0.00    -0.249 OA
BRANCH  72  74
ATOM     74  C   UNL A   1      44.199  22.229  26.090  1.00  0.00     0.264 C 
ATOM     75  C   UNL A   1      45.397  21.482  25.518  1.00  0.00     0.131 C 
ATOM     76  N   UNL A   1      44.860  23.467  26.438  1.00  0.00    -0.285 N 
ATOM     77  C   UNL A   1      45.557  20.150  25.557  1.00  0.00     0.045 C 
ATOM     78  O   UNL A   1      46.452  22.330  25.116  1.00  0.00    -0.472 OA
ATOM     79  C   UNL A   1      46.040  23.640  25.593  1.00  0.00     0.283 C 
ATOM     80  C   UNL A   1      45.559  23.643  27.590  1.00  0.00     0.232 C 
ATOM     81  C   UNL A   1      46.746  24.230  26.825  1.00  0.00     0.169 C 
ATOM     82  O   UNL A   1      45.358  23.280  28.729  1.00  0.00    -0.275 OA
BRANCH  77  83
ATOM     83  C   UNL A   1      46.797  19.426  25.153  1.00  0.00     0.187 C 
BRANCH  83  84
ATOM     84  O   UNL A   1      47.178  19.868  23.861  1.00  0.00    -0.392 OA
ATOM     85  H   UNL A   1      46.964  20.809  23.765  1.00  0.00     0.211 HD
ENDBRANCH  83  84
ENDBRANCH  77  83
ENDBRANCH  72  74
ENDBRANCH  71  72
ENDBRANCH  70  71
ENDBRANCH   1  70
TORSDOF 16
ENDMDL
MODEL 2
REMARK VINA RESULT:     -10.5      4.829     12.497
REMARK SMILES O=C(OCCOC(=O)[C@H]1/C(=C/CO)O[C@@H]2CC(=O)N21)c1ccc(-c2c3nc(c(-c4cc(S(=O)(=O)[O-])ccc4F)c4ccc([nH]4)c(-c4cc(S(=O)(=O)[O-])ccc4F)c4nc(c(-c5cc(S(=O)(=O)[O-])ccc5F)c5ccc2[nH]5)C=C4)C=C3)cc1
REMARK SMILES IDX 4 1 3 2 2 3 1 4 20 5 21 6 82 7 22 8 81 9 23 10 24 11 25 12
REMARK SMILES IDX 75 13 26 14 80 15 74 16 76 17 27 18 79 19 73 20 72 21 28 23
REMARK SMILES IDX 60 24 40 25 59 26 41 27 44 28 58 29 77 30 42 31 43 32 57 34
REMARK SMILES IDX 78 35 45 36 29 37 30 38 38 39 31 40 37 41 39 42 36 43 32 44
REMARK SMILES IDX 33 45 34 46 35 47 61 48 62 49 70 50 63 51 69 52 71 53 68 54
REMARK SMILES IDX 64 55 65 56 66 57 67 58 46 59 47 60 55 61 48 62 54 63 56 64
REMARK SMILES IDX 53 65 49 66 50 67 51 68 52 69 5 70 6 71 7 72 8 73 9 74 10 75
REMARK SMILES IDX 19 76 11 77 14 78 15 79 17 80 16 81 18 82 12 83 13 84
REMARK H PARENT 76 22 44 33 13 85
REMARK Flexibility Score: inf
ROOT
ATOM      1  C   UNL A   1      34.159  33.108  28.021  1.00  0.00     0.275 C 
ENDROOT
BRANCH   1   2
ATOM      2  O   UNL A   1      33.584  31.797  27.875  1.00  0.00    -0.458 OA
BRANCH   2   3
ATOM      3  C   UNL A   1      34.176  30.676  27.390  1.00  0.00     0.338 C 
ATOM      4  O   UNL A   1      33.580  29.985  26.568  1.00  0.00    -0.246 OA
BRANCH   3   5
ATOM      5  C   UNL A   1      35.431  30.137  27.988  1.00  0.00     0.060 A 
ATOM      6  C   UNL A   1      35.533  29.536  29.245  1.00  0.00     0.016 A 
ATOM      7  C   UNL A   1      36.604  30.303  27.235  1.00  0.00     0.016 A 
ATOM      8  C   UNL A   1      36.755  29.018  29.692  1.00  0.00     0.010 A 
ATOM      9  C   UNL A   1      37.831  29.803  27.687  1.00  0.00     0.010 A 
ATOM     10  C   UNL A   1      37.910  29.142  28.913  1.00  0.00    -0.014 A 
BRANCH  10  11
ATOM     11  C   UNL A   1      39.207  28.675  29.454  1.00  0.00     0.031 A 
ATOM     12  C   UNL A   1      39.742  29.310  30.704  1.00  0.00     0.074 A 
ATOM     13  C   UNL A   1      39.864  27.656  28.870  1.00  0.00     0.049 A 
ATOM     14  N   UNL A   1      40.746  28.940  31.455  1.00  0.00    -0.248 NA
ATOM     15  C   UNL A   1      39.045  30.517  31.172  1.00  0.00     0.031 C 
ATOM     16  C   UNL A   1      39.454  26.984  27.637  1.00  0.00     0.029 A 
ATOM     17  N   UNL A   1      41.010  27.002  29.242  1.00  0.00    -0.354 N 
ATOM     18  C   UNL A   1      40.765  29.833  32.518  1.00  0.00     0.074 A 
ATOM     19  C   UNL A   1      39.724  30.809  32.270  1.00  0.00     0.031 C 
ATOM     20  C   UNL A   1      40.338  26.013  27.353  1.00  0.00     0.029 A 
ATOM     21  C   UNL A   1      41.370  25.986  28.387  1.00  0.00     0.049 A 
ATOM     22  H   UNL A   1      41.528  27.238  30.045  1.00  0.00     0.167 HD
ATOM     23  C   UNL A   1      41.554  29.822  33.620  1.00  0.00     0.034 A 
ATOM     24  C   UNL A   1      42.406  25.125  28.446  1.00  0.00     0.034 A 
ATOM     25  C   UNL A   1      42.640  28.896  33.816  1.00  0.00     0.049 A 
ATOM     26  C   UNL A   1      43.325  25.178  29.643  1.00  0.00     0.074 A 
ATOM     27  C   UNL A   1      43.541  28.822  34.863  1.00  0.00     0.029 A 
ATOM     28  N   UNL A   1      42.988  27.891  32.921  1.00  0.00    -0.354 N 
ATOM     29  N   UNL A   1      43.283  25.980  30.682  1.00  0.00    -0.248 NA
ATOM     30  C   UNL A   1      44.410  24.189  29.689  1.00  0.00     0.031 C 
ATOM     31  C   UNL A   1      44.460  27.803  34.579  1.00  0.00     0.029 A 
ATOM     32  C   UNL A   1      44.100  27.204  33.382  1.00  0.00     0.049 A 
ATOM     33  H   UNL A   1      42.513  27.696  32.082  1.00  0.00     0.167 HD
ATOM     34  C   UNL A   1      44.321  25.575  31.517  1.00  0.00     0.074 A 
ATOM     35  C   UNL A   1      44.955  24.443  30.870  1.00  0.00     0.031 C 
ATOM     36  C   UNL A   1      44.718  26.085  32.711  1.00  0.00     0.034 A 
BRANCH  23  37
ATOM     37  C   UNL A   1      41.258  30.869  34.662  1.00  0.00     0.023 A 
ATOM     38  C   UNL A   1      40.153  30.730  35.524  1.00  0.00     0.031 A 
ATOM     39  C   UNL A   1      42.017  32.046  34.744  1.00  0.00     0.131 A 
ATOM     40  C   UNL A   1      39.790  31.785  36.372  1.00  0.00     0.055 A 
ATOM     41  C   UNL A   1      41.691  33.065  35.641  1.00  0.00     0.041 A 
ATOM     42  F   UNL A   1      43.067  32.239  33.931  1.00  0.00    -0.206 F 
ATOM     43  C   UNL A   1      40.563  32.946  36.450  1.00  0.00     0.022 A 
BRANCH  40  44
ATOM     44  S   UNL A   1      38.216  31.675  37.268  1.00  0.00     0.124 S 
ATOM     45  O   UNL A   1      38.635  31.957  38.638  1.00  0.00    -0.237 OA
ATOM     46  O   UNL A   1      37.411  32.704  36.622  1.00  0.00    -0.237 OA
ATOM     47  O   UNL A   1      37.781  30.301  37.026  1.00  0.00    -0.744 OA
ENDBRANCH  40  44
ENDBRANCH  23  37
BRANCH  24  48
ATOM     48  C   UNL A   1      42.639  24.139  27.352  1.00  0.00     0.023 A 
ATOM     49  C   UNL A   1      41.982  22.898  27.331  1.00  0.00     0.031 A 
ATOM     50  C   UNL A   1      43.577  24.407  26.338  1.00  0.00     0.131 A 
ATOM     51  C   UNL A   1      42.309  21.950  26.349  1.00  0.00     0.055 A 
ATOM     52  C   UNL A   1      43.865  23.477  25.337  1.00  0.00     0.041 A 
ATOM     53  F   UNL A   1      44.229  25.581  26.310  1.00  0.00    -0.206 F 
ATOM     54  C   UNL A   1      43.241  22.234  25.348  1.00  0.00     0.022 A 
BRANCH  51  55
ATOM     55  S   UNL A   1      41.563  20.299  26.451  1.00  0.00     0.124 S 
ATOM     56  O   UNL A   1      41.924  19.888  27.804  1.00  0.00    -0.237 OA
ATOM     57  O   UNL A   1      40.151  20.594  26.226  1.00  0.00    -0.237 OA
ATOM     58  O   UNL A   1      42.223  19.559  25.378  1.00  0.00    -0.744 OA
ENDBRANCH  51  55
ENDBRANCH  24  48
BRANCH  36  59
ATOM     59  C   UNL A   1      45.870  25.394  33.394  1.00  0.00     0.023 A 
ATOM     60  C   UNL A   1      45.668  24.281  34.228  1.00  0.00     0.031 A 
ATOM     61  C   UNL A   1      47.181  25.870  33.224  1.00  0.00     0.131 A 
ATOM     62  C   UNL A   1      46.755  23.713  34.908  1.00  0.00     0.055 A 
ATOM     63  C   UNL A   1      48.266  25.270  33.865  1.00  0.00     0.041 A 
ATOM     64  F   UNL A   1      47.427  26.930  32.438  1.00  0.00    -0.206 F 
ATOM     65  C   UNL A   1      48.054  24.194  34.723  1.00  0.00     0.022 A 
BRANCH  62  66
ATOM     66  S   UNL A   1      46.437  22.390  36.107  1.00  0.00     0.124 S 
ATOM     67  O   UNL A   1      45.413  22.989  36.957  1.00  0.00    -0.237 OA
ATOM     68  O   UNL A   1      45.995  21.294  35.252  1.00  0.00    -0.237 OA
ATOM     69  O   UNL A   1      47.735  22.189  36.748  1.00  0.00    -0.744 OA
ENDBRANCH  62  66
ENDBRANCH  36  59
ENDBRANCH  10  11
ENDBRANCH   3   5
ENDBRANCH   2   3
ENDBRANCH   1   2
BRANCH   1  70
ATOM     70  C   UNL A   1      34.269  33.583  29.469  1.00  0.00     0.274 C 
BRANCH  70  71
ATOM     71  O   UNL A   1      34.160  32.508  30.414  1.00  0.00    -0.460 OA
BRANCH  71  72
ATOM     72  C   UNL A   1      35.039  32.564  31.460  1.00  0.00     0.337 C 
ATOM     73  O   UNL A   1      35.189  31.667  32.285  1.00  0.00    -0.249 OA
BRANCH  72  74
ATOM     74  C   UNL A   1      35.822  33.884  31.457  1.00  0.00     0.264 C 
ATOM     75  C   UNL A   1      35.309  34.784  32.573  1.00  0.00     0.131 C 
ATOM     76  N   UNL A   1      37.152  33.639  31.967  1.00  0.00    -0.285 N 
ATOM     77  C   UNL A   1      34.400  35.758  32.414  1.00  0.00     0.045 C 
ATOM     78  O   UNL A   1      36.030  34.652  33.780  1.00  0.00    -0.472 OA
ATOM     79  C   UNL A   1      37.150  33.800  33.420  1.00  0.00     0.283 C 
ATOM     80  C   UNL A   1      38.190  34.500  31.792  1.00  0.00     0.232 C 
ATOM     81  C   UNL A   1      38.543  34.435  33.279  1.00  0.00     0.169 C 
ATOM     82  O   UNL A   1      38.537  35.178  30.850  1.00  0.00    -0.275 OA
BRANCH  77  83
ATOM     83  C   UNL A   1      34.017  36.749  33.461  1.00  0.00     0.187 C 
BRANCH  83  84
ATOM     84  O   UNL A   1      32.604  36.856  33.488  1.00  0.00    -0.392 OA
ATOM     85  H   UNL A   1      32.348  37.782  33.353  1.00  0.00     0.211 HD
ENDBRANCH  83  84
ENDBRANCH  77  83
ENDBRANCH  72  74
ENDBRANCH  71  72
ENDBRANCH  70  71
ENDBRANCH   1  70
TORSDOF 16
ENDMDL
MODEL 3
REMARK VINA RESULT:     -10.3      2.827      5.597
REMARK SMILES O=C(OCCOC(=O)[C@H]1/C(=C/CO)O[C@@H]2CC(=O)N21)c1ccc(-c2c3nc(c(-c4cc(S(=O)(=O)[O-])ccc4F)c4ccc([nH]4)c(-c4cc(S(=O)(=O)[O-])ccc4F)c4nc(c(-c5cc(S(=O)(=O)[O-])ccc5F)c5ccc2[nH]5)C=C4)C=C3)cc1
REMARK SMILES IDX 4 1 3 2 2 3 1 4 20 5 21 6 82 7 22 8 81 9 23 10 24 11 25 12
REMARK SMILES IDX 75 13 26 14 80 15 74 16 76 17 27 18 79 19 73 20 72 21 28 23
REMARK SMILES IDX 60 24 40 25 59 26 41 27 44 28 58 29 77 30 42 31 43 32 57 34
REMARK SMILES IDX 78 35 45 36 29 37 30 38 38 39 31 40 37 41 39 42 36 43 32 44
REMARK SMILES IDX 33 45 34 46 35 47 61 48 62 49 70 50 63 51 69 52 71 53 68 54
REMARK SMILES IDX 64 55 65 56 66 57 67 58 46 59 47 60 55 61 48 62 54 63 56 64
REMARK SMILES IDX 53 65 49 66 50 67 51 68 52 69 5 70 6 71 7 72 8 73 9 74 10 75
REMARK SMILES IDX 19 76 11 77 14 78 15 79 17 80 16 81 18 82 12 83 13 84
REMARK H PARENT 76 22 44 33 13 85
REMARK Flexibility Score: inf
ROOT
ATOM      1  C   UNL A   1      37.201  21.921  25.623  1.00  0.00     0.275 C 
ENDROOT
BRANCH   1   2
ATOM      2  O   UNL A   1      38.565  21.476  25.505  1.00  0.00    -0.458 OA
BRANCH   2   3
ATOM      3  C   UNL A   1      39.580  21.654  26.390  1.00  0.00     0.338 C 
ATOM      4  O   UNL A   1      40.051  20.679  26.971  1.00  0.00    -0.246 OA
BRANCH   3   5
ATOM      5  C   UNL A   1      39.991  23.014  26.842  1.00  0.00     0.060 A 
ATOM      6  C   UNL A   1      39.542  24.217  26.292  1.00  0.00     0.016 A 
ATOM      7  C   UNL A   1      40.947  23.067  27.869  1.00  0.00     0.016 A 
ATOM      8  C   UNL A   1      39.954  25.443  26.827  1.00  0.00     0.010 A 
ATOM      9  C   UNL A   1      41.376  24.293  28.392  1.00  0.00     0.010 A 
ATOM     10  C   UNL A   1      40.869  25.490  27.885  1.00  0.00    -0.014 A 
BRANCH  10  11
ATOM     11  C   UNL A   1      41.365  26.801  28.362  1.00  0.00     0.031 A 
ATOM     12  C   UNL A   1      42.802  27.162  28.128  1.00  0.00     0.074 A 
ATOM     13  C   UNL A   1      40.525  27.678  28.941  1.00  0.00     0.049 A 
ATOM     14  N   UNL A   1      43.401  28.313  28.286  1.00  0.00    -0.248 NA
ATOM     15  C   UNL A   1      43.674  26.083  27.643  1.00  0.00     0.031 C 
ATOM     16  C   UNL A   1      39.117  27.425  29.247  1.00  0.00     0.029 A 
ATOM     17  N   UNL A   1      40.732  28.965  29.368  1.00  0.00    -0.354 N 
ATOM     18  C   UNL A   1      44.708  28.113  27.862  1.00  0.00     0.074 A 
ATOM     19  C   UNL A   1      44.833  26.711  27.519  1.00  0.00     0.031 C 
ATOM     20  C   UNL A   1      38.586  28.522  29.814  1.00  0.00     0.029 A 
ATOM     21  C   UNL A   1      39.612  29.559  29.903  1.00  0.00     0.049 A 
ATOM     22  H   UNL A   1      41.601  29.422  29.298  1.00  0.00     0.167 HD
ATOM     23  C   UNL A   1      45.707  29.021  27.735  1.00  0.00     0.034 A 
ATOM     24  C   UNL A   1      39.436  30.802  30.392  1.00  0.00     0.034 A 
ATOM     25  C   UNL A   1      45.596  30.394  28.157  1.00  0.00     0.049 A 
ATOM     26  C   UNL A   1      40.584  31.780  30.317  1.00  0.00     0.074 A 
ATOM     27  C   UNL A   1      46.554  31.392  28.131  1.00  0.00     0.029 A 
ATOM     28  N   UNL A   1      44.453  30.957  28.712  1.00  0.00    -0.354 N 
ATOM     29  N   UNL A   1      41.794  31.598  29.840  1.00  0.00    -0.248 NA
ATOM     30  C   UNL A   1      40.332  33.138  30.816  1.00  0.00     0.031 C 
ATOM     31  C   UNL A   1      46.004  32.543  28.710  1.00  0.00     0.029 A 
ATOM     32  C   UNL A   1      44.686  32.281  29.048  1.00  0.00     0.049 A 
ATOM     33  H   UNL A   1      43.600  30.483  28.846  1.00  0.00     0.167 HD
ATOM     34  C   UNL A   1      42.438  32.827  29.960  1.00  0.00     0.074 A 
ATOM     35  C   UNL A   1      41.474  33.745  30.532  1.00  0.00     0.031 C 
ATOM     36  C   UNL A   1      43.709  33.172  29.627  1.00  0.00     0.034 A 
BRANCH  23  37
ATOM     37  C   UNL A   1      46.994  28.518  27.136  1.00  0.00     0.023 A 
ATOM     38  C   UNL A   1      47.133  28.390  25.741  1.00  0.00     0.031 A 
ATOM     39  C   UNL A   1      48.050  28.081  27.950  1.00  0.00     0.131 A 
ATOM     40  C   UNL A   1      48.268  27.764  25.206  1.00  0.00     0.055 A 
ATOM     41  C   UNL A   1      49.209  27.523  27.406  1.00  0.00     0.041 A 
ATOM     42  F   UNL A   1      47.961  28.159  29.286  1.00  0.00    -0.206 F 
ATOM     43  C   UNL A   1      49.316  27.346  26.028  1.00  0.00     0.022 A 
BRANCH  40  44
ATOM     44  S   UNL A   1      48.290  27.381  23.432  1.00  0.00     0.124 S 
ATOM     45  O   UNL A   1      49.601  27.886  23.037  1.00  0.00    -0.237 OA
ATOM     46  O   UNL A   1      48.135  25.931  23.420  1.00  0.00    -0.237 OA
ATOM     47  O   UNL A   1      47.153  28.133  22.906  1.00  0.00    -0.744 OA
ENDBRANCH  40  44
ENDBRANCH  23  37
BRANCH  24  48
ATOM     48  C   UNL A   1      38.133  31.205  30.995  1.00  0.00     0.023 A 
ATOM     49  C   UNL A   1      37.138  31.840  30.233  1.00  0.00     0.031 A 
ATOM     50  C   UNL A   1      37.891  31.013  32.367  1.00  0.00     0.131 A 
ATOM     51  C   UNL A   1      35.970  32.306  30.856  1.00  0.00     0.055 A 
ATOM     52  C   UNL A   1      36.708  31.439  32.973  1.00  0.00     0.041 A 
ATOM     53  F   UNL A   1      38.808  30.407  33.139  1.00  0.00    -0.206 F 
ATOM     54  C   UNL A   1      35.746  32.104  32.220  1.00  0.00     0.022 A 
BRANCH  51  55
ATOM     55  S   UNL A   1      34.784  33.266  29.875  1.00  0.00     0.124 S 
ATOM     56  O   UNL A   1      34.159  32.230  29.058  1.00  0.00    -0.237 OA
ATOM     57  O   UNL A   1      33.944  33.856  30.914  1.00  0.00    -0.237 OA
ATOM     58  O   UNL A   1      35.627  34.210  29.146  1.00  0.00    -0.744 OA
ENDBRANCH  51  55
ENDBRANCH  24  48
BRANCH  36  59
ATOM     59  C   UNL A   1      44.101  34.610  29.852  1.00  0.00     0.023 A 
ATOM     60  C   UNL A   1      44.026  35.560  28.818  1.00  0.00     0.031 A 
ATOM     61  C   UNL A   1      44.576  35.026  31.107  1.00  0.00     0.131 A 
ATOM     62  C   UNL A   1      44.474  36.870  29.043  1.00  0.00     0.055 A 
ATOM     63  C   UNL A   1      44.974  36.343  31.338  1.00  0.00     0.041 A 
ATOM     64  F   UNL A   1      44.666  34.157  32.125  1.00  0.00    -0.206 F 
ATOM     65  C   UNL A   1      44.937  37.270  30.300  1.00  0.00     0.022 A 
BRANCH  62  66
ATOM     66  S   UNL A   1      44.526  38.025  27.645  1.00  0.00     0.124 S 
ATOM     67  O   UNL A   1      44.959  39.262  28.288  1.00  0.00    -0.237 OA
ATOM     68  O   UNL A   1      45.496  37.394  26.756  1.00  0.00    -0.237 OA
ATOM     69  O   UNL A   1      43.149  38.030  27.154  1.00  0.00    -0.744 OA
ENDBRANCH  62  66
ENDBRANCH  36  59
ENDBRANCH  10  11
ENDBRANCH   3   5
ENDBRANCH   2   3
ENDBRANCH   1   2
BRANCH   1  70
ATOM     70  C   UNL A   1      36.165  20.834  25.347  1.00  0.00     0.274 C 
BRANCH  70  71
ATOM     71  O   UNL A   1      35.189  21.234  24.372  1.00  0.00    -0.460 OA
BRANCH  71  72
ATOM     72  C   UNL A   1      33.889  21.172  24.793  1.00  0.00     0.337 C 
ATOM     73  O   UNL A   1      33.387  20.197  25.343  1.00  0.00    -0.249 OA
BRANCH  72  74
ATOM     74  C   UNL A   1      33.150  22.485  24.501  1.00  0.00     0.264 C 
ATOM     75  C   UNL A   1      32.231  22.823  25.668  1.00  0.00     0.131 C 
ATOM     76  N   UNL A   1      34.079  23.584  24.630  1.00  0.00    -0.285 N 
ATOM     77  C   UNL A   1      30.922  22.533  25.720  1.00  0.00     0.045 C 
ATOM     78  O   UNL A   1      32.828  23.667  26.630  1.00  0.00    -0.472 OA
ATOM     79  C   UNL A   1      34.087  24.052  26.015  1.00  0.00     0.283 C 
ATOM     80  C   UNL A   1      33.845  24.825  24.127  1.00  0.00     0.232 C 
ATOM     81  C   UNL A   1      34.228  25.477  25.456  1.00  0.00     0.169 C 
ATOM     82  O   UNL A   1      33.342  25.203  23.090  1.00  0.00    -0.275 OA
BRANCH  77  83
ATOM     83  C   UNL A   1      29.984  23.006  26.779  1.00  0.00     0.187 C 
BRANCH  83  84
ATOM     84  O   UNL A   1      29.041  21.979  27.039  1.00  0.00    -0.392 OA
ATOM     85  H   UNL A   1      28.237  22.368  27.418  1.00  0.00     0.211 HD
ENDBRANCH  83  84
ENDBRANCH  77  83
ENDBRANCH  72  74
ENDBRANCH  71  72
ENDBRANCH  70  71
ENDBRANCH   1  70
TORSDOF 16
ENDMDL
