MODEL 1
REMARK VINA RESULT:     -11.4      0.000      0.000
REMARK SMILES CC(=O)N/N=C/c1ccc(O[C@H](C)C(=O)OCCOC(=O)c2ccc(-c3c4nc(c(-c5cc(S(=O)(=O)[O-])ccc5F)c5ccc([nH]5)c(-c5cc(S(=O)(=O)[O-])ccc5F)c5nc(c(-c6cc(S(=O)(=O)[O-])ccc6F)c6ccc3[nH]6)C=C5)C=C4)cc2)cc1
REMARK SMILES IDX 17 1 16 2 14 3 15 4 12 5 13 6 11 7 10 8 7 9 8 10 86 11 9 12
REMARK SMILES IDX 85 13 6 14 5 15 4 16 1 17 2 18 3 19 18 21 19 22 20 23 21 24
REMARK SMILES IDX 22 25 23 26 84 27 24 28 83 29 25 30 26 31 27 32 77 33 28 34
REMARK SMILES IDX 82 35 76 36 78 37 29 38 81 39 75 40 74 41 30 43 62 44 42 45
REMARK SMILES IDX 61 46 43 47 46 48 60 49 79 50 44 51 45 52 59 54 80 55 47 56
REMARK SMILES IDX 31 57 32 58 40 59 33 60 39 61 41 62 38 63 34 64 35 65 36 66
REMARK SMILES IDX 37 67 63 68 64 69 72 70 65 71 71 72 73 73 70 74 66 75 67 76
REMARK SMILES IDX 68 77 69 78 48 79 49 80 57 81 50 82 56 83 58 84 55 85 51 86
REMARK SMILES IDX 52 87 53 88 54 89
REMARK H PARENT 4 20 78 42 46 53
REMARK Flexibility Score: inf
ROOT
ATOM      1  C   UNL A   1      35.784  20.061  25.055  1.00  0.00     0.274 C 
ENDROOT
BRANCH   1   2
ATOM      2  O   UNL A   1      34.799  20.941  24.471  1.00  0.00    -0.459 OA
BRANCH   2   3
ATOM      3  C   UNL A   1      34.376  21.956  25.277  1.00  0.00     0.347 C 
ATOM      4  O   UNL A   1      34.058  21.804  26.454  1.00  0.00    -0.248 OA
BRANCH   3   5
ATOM      5  C   UNL A   1      34.193  23.301  24.543  1.00  0.00     0.279 C 
ATOM      6  C   UNL A   1      35.172  23.380  23.367  1.00  0.00     0.066 C 
BRANCH   5   7
ATOM      7  O   UNL A   1      32.939  23.785  24.065  1.00  0.00    -0.479 OA
BRANCH   7   8
ATOM      8  C   UNL A   1      32.762  25.077  23.678  1.00  0.00     0.120 A 
ATOM      9  C   UNL A   1      31.978  27.608  22.826  1.00  0.00    -0.005 A 
ATOM     10  C   UNL A   1      32.742  27.471  23.981  1.00  0.00     0.013 A 
ATOM     11  C   UNL A   1      31.706  26.510  22.018  1.00  0.00     0.013 A 
ATOM     12  C   UNL A   1      33.188  26.211  24.360  1.00  0.00     0.047 A 
ATOM     13  C   UNL A   1      32.085  25.240  22.463  1.00  0.00     0.047 A 
BRANCH   9  14
ATOM     14  C   UNL A   1      31.437  28.940  22.554  1.00  0.00     0.141 C 
ATOM     15  N   UNL A   1      30.273  29.139  22.030  1.00  0.00    -0.181 NA
BRANCH  15  16
ATOM     16  N   UNL A   1      29.952  30.436  21.742  1.00  0.00    -0.247 N 
ATOM     17  C   UNL A   1      27.899  30.597  23.158  1.00  0.00     0.116 C 
ATOM     18  C   UNL A   1      28.887  31.189  22.182  1.00  0.00     0.236 C 
ATOM     19  O   UNL A   1      28.748  32.345  21.774  1.00  0.00    -0.274 OA
ATOM     20  H   UNL A   1      30.571  30.898  21.131  1.00  0.00     0.193 HD
ENDBRANCH  15  16
ENDBRANCH   9  14
ENDBRANCH   7   8
ENDBRANCH   5   7
ENDBRANCH   3   5
ENDBRANCH   2   3
ENDBRANCH   1   2
BRANCH   1  21
ATOM     21  C   UNL A   1      37.236  20.395  24.686  1.00  0.00     0.275 C 
BRANCH  21  22
ATOM     22  O   UNL A   1      37.780  21.453  25.495  1.00  0.00    -0.458 OA
BRANCH  22  23
ATOM     23  C   UNL A   1      39.026  21.201  25.969  1.00  0.00     0.338 C 
ATOM     24  O   UNL A   1      39.704  20.218  25.718  1.00  0.00    -0.246 OA
BRANCH  23  25
ATOM     25  C   UNL A   1      39.566  22.387  26.662  1.00  0.00     0.060 A 
ATOM     26  C   UNL A   1      38.968  23.616  26.357  1.00  0.00     0.016 A 
ATOM     27  C   UNL A   1      40.642  22.326  27.550  1.00  0.00     0.016 A 
ATOM     28  C   UNL A   1      39.451  24.791  26.915  1.00  0.00     0.010 A 
ATOM     29  C   UNL A   1      41.147  23.514  28.094  1.00  0.00     0.010 A 
ATOM     30  C   UNL A   1      40.570  24.751  27.752  1.00  0.00    -0.014 A 
BRANCH  30  31
ATOM     31  C   UNL A   1      41.225  26.037  28.080  1.00  0.00     0.031 A 
ATOM     32  C   UNL A   1      42.613  26.281  27.563  1.00  0.00     0.074 A 
ATOM     33  C   UNL A   1      40.551  27.003  28.728  1.00  0.00     0.049 A 
ATOM     34  N   UNL A   1      43.367  27.344  27.665  1.00  0.00    -0.248 NA
ATOM     35  C   UNL A   1      43.233  25.167  26.831  1.00  0.00     0.031 C 
ATOM     36  C   UNL A   1      39.180  26.886  29.222  1.00  0.00     0.029 A 
ATOM     37  N   UNL A   1      40.927  28.275  29.066  1.00  0.00    -0.354 N 
ATOM     38  C   UNL A   1      44.554  27.027  27.011  1.00  0.00     0.074 A 
ATOM     39  C   UNL A   1      44.430  25.658  26.559  1.00  0.00     0.031 C 
ATOM     40  C   UNL A   1      38.832  28.042  29.811  1.00  0.00     0.029 A 
ATOM     41  C   UNL A   1      39.961  28.968  29.756  1.00  0.00     0.049 A 
ATOM     42  H   UNL A   1      41.805  28.658  28.838  1.00  0.00     0.167 HD
ATOM     43  C   UNL A   1      45.641  27.811  26.802  1.00  0.00     0.034 A 
ATOM     44  C   UNL A   1      39.996  30.202  30.296  1.00  0.00     0.034 A 
ATOM     45  C   UNL A   1      45.746  29.167  27.287  1.00  0.00     0.049 A 
ATOM     46  C   UNL A   1      41.234  31.041  30.104  1.00  0.00     0.074 A 
ATOM     47  C   UNL A   1      46.798  30.056  27.154  1.00  0.00     0.029 A 
ATOM     48  N   UNL A   1      44.762  29.827  28.017  1.00  0.00    -0.354 N 
ATOM     49  N   UNL A   1      42.353  30.737  29.485  1.00  0.00    -0.248 NA
ATOM     50  C   UNL A   1      41.203  32.397  30.662  1.00  0.00     0.031 C 
ATOM     51  C   UNL A   1      46.479  31.223  27.860  1.00  0.00     0.029 A 
ATOM     52  C   UNL A   1      45.194  31.099  28.367  1.00  0.00     0.049 A 
ATOM     53  H   UNL A   1      43.886  29.447  28.252  1.00  0.00     0.167 HD
ATOM     54  C   UNL A   1      43.155  31.873  29.566  1.00  0.00     0.074 A 
ATOM     55  C   UNL A   1      42.377  32.873  30.273  1.00  0.00     0.031 C 
ATOM     56  C   UNL A   1      44.415  32.075  29.098  1.00  0.00     0.034 A 
BRANCH  43  57
ATOM     57  C   UNL A   1      46.812  27.173  26.091  1.00  0.00     0.023 A 
ATOM     58  C   UNL A   1      47.817  26.475  26.789  1.00  0.00     0.031 A 
ATOM     59  C   UNL A   1      46.982  27.352  24.707  1.00  0.00     0.131 A 
ATOM     60  C   UNL A   1      48.989  26.082  26.125  1.00  0.00     0.055 A 
ATOM     61  C   UNL A   1      48.110  26.874  24.034  1.00  0.00     0.041 A 
ATOM     62  F   UNL A   1      46.074  28.031  23.988  1.00  0.00    -0.206 F 
ATOM     63  C   UNL A   1      49.131  26.254  24.746  1.00  0.00     0.022 A 
BRANCH  60  64
ATOM     64  S   UNL A   1      50.404  25.528  27.118  1.00  0.00     0.124 S 
ATOM     65  O   UNL A   1      51.418  25.306  26.089  1.00  0.00    -0.237 OA
ATOM     66  O   UNL A   1      50.630  26.662  28.005  1.00  0.00    -0.237 OA
ATOM     67  O   UNL A   1      49.913  24.313  27.767  1.00  0.00    -0.744 OA
ENDBRANCH  60  64
ENDBRANCH  43  57
BRANCH  44  68
ATOM     68  C   UNL A   1      38.842  30.693  31.100  1.00  0.00     0.023 A 
ATOM     69  C   UNL A   1      37.732  31.310  30.503  1.00  0.00     0.031 A 
ATOM     70  C   UNL A   1      38.848  30.555  32.500  1.00  0.00     0.131 A 
ATOM     71  C   UNL A   1      36.684  31.788  31.307  1.00  0.00     0.055 A 
ATOM     72  C   UNL A   1      37.784  30.992  33.290  1.00  0.00     0.041 A 
ATOM     73  F   UNL A   1      39.885  29.969  33.120  1.00  0.00    -0.206 F 
ATOM     74  C   UNL A   1      36.696  31.620  32.694  1.00  0.00     0.022 A 
BRANCH  71  75
ATOM     75  S   UNL A   1      35.310  32.672  30.517  1.00  0.00     0.124 S 
ATOM     76  O   UNL A   1      35.966  33.887  30.049  1.00  0.00    -0.237 OA
ATOM     77  O   UNL A   1      34.895  31.728  29.484  1.00  0.00    -0.237 OA
ATOM     78  O   UNL A   1      34.353  32.858  31.607  1.00  0.00    -0.744 OA
ENDBRANCH  71  75
ENDBRANCH  44  68
BRANCH  56  79
ATOM     79  C   UNL A   1      45.008  33.448  29.315  1.00  0.00     0.023 A 
ATOM     80  C   UNL A   1      44.809  34.495  28.396  1.00  0.00     0.031 A 
ATOM     81  C   UNL A   1      45.812  33.702  30.440  1.00  0.00     0.131 A 
ATOM     82  C   UNL A   1      45.467  35.720  28.579  1.00  0.00     0.055 A 
ATOM     83  C   UNL A   1      46.409  34.945  30.652  1.00  0.00     0.041 A 
ATOM     84  F   UNL A   1      46.040  32.740  31.349  1.00  0.00    -0.206 F 
ATOM     85  C   UNL A   1      46.253  35.958  29.710  1.00  0.00     0.022 A 
BRANCH  82  86
ATOM     86  S   UNL A   1      45.390  36.956  27.253  1.00  0.00     0.124 S 
ATOM     87  O   UNL A   1      43.992  36.872  26.840  1.00  0.00    -0.237 OA
ATOM     88  O   UNL A   1      45.777  38.180  27.947  1.00  0.00    -0.237 OA
ATOM     89  O   UNL A   1      46.356  36.467  26.273  1.00  0.00    -0.744 OA
ENDBRANCH  82  86
ENDBRANCH  56  79
ENDBRANCH  30  31
ENDBRANCH  23  25
ENDBRANCH  22  23
ENDBRANCH  21  22
ENDBRANCH   1  21
TORSDOF 18
ENDMDL
MODEL 2
REMARK VINA RESULT:     -11.3      5.023     10.582
REMARK SMILES CC(=O)N/N=C/c1ccc(O[C@H](C)C(=O)OCCOC(=O)c2ccc(-c3c4nc(c(-c5cc(S(=O)(=O)[O-])ccc5F)c5ccc([nH]5)c(-c5cc(S(=O)(=O)[O-])ccc5F)c5nc(c(-c6cc(S(=O)(=O)[O-])ccc6F)c6ccc3[nH]6)C=C5)C=C4)cc2)cc1
REMARK SMILES IDX 17 1 16 2 14 3 15 4 12 5 13 6 11 7 10 8 7 9 8 10 86 11 9 12
REMARK SMILES IDX 85 13 6 14 5 15 4 16 1 17 2 18 3 19 18 21 19 22 20 23 21 24
REMARK SMILES IDX 22 25 23 26 84 27 24 28 83 29 25 30 26 31 27 32 77 33 28 34
REMARK SMILES IDX 82 35 76 36 78 37 29 38 81 39 75 40 74 41 30 43 62 44 42 45
REMARK SMILES IDX 61 46 43 47 46 48 60 49 79 50 44 51 45 52 59 54 80 55 47 56
REMARK SMILES IDX 31 57 32 58 40 59 33 60 39 61 41 62 38 63 34 64 35 65 36 66
REMARK SMILES IDX 37 67 63 68 64 69 72 70 65 71 71 72 73 73 70 74 66 75 67 76
REMARK SMILES IDX 68 77 69 78 48 79 49 80 57 81 50 82 56 83 58 84 55 85 51 86
REMARK SMILES IDX 52 87 53 88 54 89
REMARK H PARENT 4 20 78 42 46 53
REMARK Flexibility Score: inf
ROOT
ATOM      1  C   UNL A   1      31.778  30.010  25.146  1.00  0.00     0.274 C 
ENDROOT
BRANCH   1   2
ATOM      2  O   UNL A   1      31.815  28.678  25.699  1.00  0.00    -0.459 OA
BRANCH   2   3
ATOM      3  C   UNL A   1      31.658  27.668  24.796  1.00  0.00     0.347 C 
ATOM      4  O   UNL A   1      30.567  27.295  24.373  1.00  0.00    -0.248 OA
BRANCH   3   5
ATOM      5  C   UNL A   1      32.970  26.932  24.452  1.00  0.00     0.279 C 
ATOM      6  C   UNL A   1      33.576  26.339  25.728  1.00  0.00     0.066 C 
BRANCH   5   7
ATOM      7  O   UNL A   1      33.081  25.929  23.442  1.00  0.00    -0.479 OA
BRANCH   7   8
ATOM      8  C   UNL A   1      32.749  24.631  23.672  1.00  0.00     0.120 A 
ATOM      9  C   UNL A   1      32.438  21.959  24.387  1.00  0.00    -0.005 A 
ATOM     10  C   UNL A   1      31.366  22.838  24.506  1.00  0.00     0.013 A 
ATOM     11  C   UNL A   1      33.630  22.364  23.796  1.00  0.00     0.013 A 
ATOM     12  C   UNL A   1      31.510  24.153  24.081  1.00  0.00     0.047 A 
ATOM     13  C   UNL A   1      33.785  23.712  23.458  1.00  0.00     0.047 A 
BRANCH   9  14
ATOM     14  C   UNL A   1      32.260  20.628  24.967  1.00  0.00     0.141 C 
ATOM     15  N   UNL A   1      33.187  20.009  25.621  1.00  0.00    -0.181 NA
BRANCH  15  16
ATOM     16  N   UNL A   1      32.903  18.730  26.012  1.00  0.00    -0.247 N 
ATOM     17  C   UNL A   1      33.950  17.546  24.077  1.00  0.00     0.116 C 
ATOM     18  C   UNL A   1      33.185  17.541  25.378  1.00  0.00     0.236 C 
ATOM     19  O   UNL A   1      32.810  16.479  25.879  1.00  0.00    -0.274 OA
ATOM     20  H   UNL A   1      32.428  18.648  26.871  1.00  0.00     0.193 HD
ENDBRANCH  15  16
ENDBRANCH   9  14
ENDBRANCH   7   8
ENDBRANCH   5   7
ENDBRANCH   3   5
ENDBRANCH   2   3
ENDBRANCH   1   2
BRANCH   1  21
ATOM     21  C   UNL A   1      31.621  31.128  26.185  1.00  0.00     0.275 C 
BRANCH  21  22
ATOM     22  O   UNL A   1      32.512  30.970  27.303  1.00  0.00    -0.458 OA
BRANCH  22  23
ATOM     23  C   UNL A   1      33.292  32.054  27.545  1.00  0.00     0.338 C 
ATOM     24  O   UNL A   1      32.910  33.210  27.625  1.00  0.00    -0.246 OA
BRANCH  23  25
ATOM     25  C   UNL A   1      34.655  31.635  27.931  1.00  0.00     0.060 A 
ATOM     26  C   UNL A   1      34.833  30.277  28.223  1.00  0.00     0.016 A 
ATOM     27  C   UNL A   1      35.723  32.528  28.045  1.00  0.00     0.016 A 
ATOM     28  C   UNL A   1      36.065  29.807  28.653  1.00  0.00     0.010 A 
ATOM     29  C   UNL A   1      36.960  32.059  28.502  1.00  0.00     0.010 A 
ATOM     30  C   UNL A   1      37.122  30.701  28.837  1.00  0.00    -0.014 A 
BRANCH  30  31
ATOM     31  C   UNL A   1      38.312  30.214  29.570  1.00  0.00     0.031 A 
ATOM     32  C   UNL A   1      38.512  30.672  30.987  1.00  0.00     0.074 A 
ATOM     33  C   UNL A   1      39.128  29.299  29.020  1.00  0.00     0.049 A 
ATOM     34  N   UNL A   1      39.436  30.339  31.849  1.00  0.00    -0.248 NA
ATOM     35  C   UNL A   1      37.530  31.641  31.494  1.00  0.00     0.031 C 
ATOM     36  C   UNL A   1      38.989  28.748  27.673  1.00  0.00     0.029 A 
ATOM     37  N   UNL A   1      40.227  28.664  29.535  1.00  0.00    -0.354 N 
ATOM     38  C   UNL A   1      39.149  31.060  33.004  1.00  0.00     0.074 A 
ATOM     39  C   UNL A   1      37.992  31.878  32.710  1.00  0.00     0.031 C 
ATOM     40  C   UNL A   1      39.975  27.860  27.464  1.00  0.00     0.029 A 
ATOM     41  C   UNL A   1      40.825  27.799  28.651  1.00  0.00     0.049 A 
ATOM     42  H   UNL A   1      40.557  28.812  30.451  1.00  0.00     0.167 HD
ATOM     43  C   UNL A   1      39.789  31.032  34.200  1.00  0.00     0.034 A 
ATOM     44  C   UNL A   1      41.943  27.058  28.782  1.00  0.00     0.034 A 
ATOM     45  C   UNL A   1      40.957  30.223  34.456  1.00  0.00     0.049 A 
ATOM     46  C   UNL A   1      42.676  27.081  30.099  1.00  0.00     0.074 A 
ATOM     47  C   UNL A   1      41.702  30.120  35.618  1.00  0.00     0.029 A 
ATOM     48  N   UNL A   1      41.562  29.384  33.524  1.00  0.00    -0.354 N 
ATOM     49  N   UNL A   1      42.401  27.765  31.188  1.00  0.00    -0.248 NA
ATOM     50  C   UNL A   1      43.855  26.216  30.212  1.00  0.00     0.031 C 
ATOM     51  C   UNL A   1      42.792  29.277  35.367  1.00  0.00     0.029 A 
ATOM     52  C   UNL A   1      42.686  28.786  34.074  1.00  0.00     0.049 A 
ATOM     53  H   UNL A   1      41.239  29.237  32.607  1.00  0.00     0.167 HD
ATOM     54  C   UNL A   1      43.366  27.398  32.123  1.00  0.00     0.074 A 
ATOM     55  C   UNL A   1      44.213  26.415  31.472  1.00  0.00     0.031 C 
ATOM     56  C   UNL A   1      43.537  27.828  33.401  1.00  0.00     0.034 A 
BRANCH  43  57
ATOM     57  C   UNL A   1      39.272  31.968  35.268  1.00  0.00     0.023 A 
ATOM     58  C   UNL A   1      39.727  33.296  35.378  1.00  0.00     0.031 A 
ATOM     59  C   UNL A   1      38.389  31.496  36.255  1.00  0.00     0.131 A 
ATOM     60  C   UNL A   1      39.386  34.064  36.502  1.00  0.00     0.055 A 
ATOM     61  C   UNL A   1      37.978  32.299  37.322  1.00  0.00     0.041 A 
ATOM     62  F   UNL A   1      37.939  30.232  36.223  1.00  0.00    -0.206 F 
ATOM     63  C   UNL A   1      38.494  33.583  37.463  1.00  0.00     0.022 A 
BRANCH  60  64
ATOM     64  S   UNL A   1      40.280  35.617  36.795  1.00  0.00     0.124 S 
ATOM     65  O   UNL A   1      41.657  35.227  36.497  1.00  0.00    -0.237 OA
ATOM     66  O   UNL A   1      39.652  36.526  35.844  1.00  0.00    -0.237 OA
ATOM     67  O   UNL A   1      40.015  35.904  38.204  1.00  0.00    -0.744 OA
ENDBRANCH  60  64
ENDBRANCH  43  57
BRANCH  44  68
ATOM     68  C   UNL A   1      42.452  26.272  27.624  1.00  0.00     0.023 A 
ATOM     69  C   UNL A   1      42.132  24.916  27.450  1.00  0.00     0.031 A 
ATOM     70  C   UNL A   1      43.289  26.881  26.670  1.00  0.00     0.131 A 
ATOM     71  C   UNL A   1      42.666  24.208  26.360  1.00  0.00     0.055 A 
ATOM     72  C   UNL A   1      43.780  26.184  25.566  1.00  0.00     0.041 A 
ATOM     73  F   UNL A   1      43.622  28.176  26.790  1.00  0.00    -0.206 F 
ATOM     74  C   UNL A   1      43.475  24.837  25.410  1.00  0.00     0.022 A 
BRANCH  71  75
ATOM     75  S   UNL A   1      42.317  22.433  26.216  1.00  0.00     0.124 S 
ATOM     76  O   UNL A   1      40.862  22.421  26.126  1.00  0.00    -0.237 OA
ATOM     77  O   UNL A   1      43.039  22.079  24.999  1.00  0.00    -0.237 OA
ATOM     78  O   UNL A   1      42.872  21.877  27.450  1.00  0.00    -0.744 OA
ENDBRANCH  71  75
ENDBRANCH  44  68
BRANCH  56  79
ATOM     79  C   UNL A   1      44.671  27.204  34.181  1.00  0.00     0.023 A 
ATOM     80  C   UNL A   1      44.518  25.983  34.863  1.00  0.00     0.031 A 
ATOM     81  C   UNL A   1      45.912  27.859  34.273  1.00  0.00     0.131 A 
ATOM     82  C   UNL A   1      45.561  25.495  35.665  1.00  0.00     0.055 A 
ATOM     83  C   UNL A   1      46.969  27.334  35.017  1.00  0.00     0.041 A 
ATOM     84  F   UNL A   1      46.116  29.029  33.645  1.00  0.00    -0.206 F 
ATOM     85  C   UNL A   1      46.791  26.153  35.733  1.00  0.00     0.022 A 
BRANCH  82  86
ATOM     86  S   UNL A   1      45.243  24.055  36.723  1.00  0.00     0.124 S 
ATOM     87  O   UNL A   1      46.594  23.573  36.995  1.00  0.00    -0.237 OA
ATOM     88  O   UNL A   1      44.539  24.651  37.854  1.00  0.00    -0.237 OA
ATOM     89  O   UNL A   1      44.432  23.182  35.878  1.00  0.00    -0.744 OA
ENDBRANCH  82  86
ENDBRANCH  56  79
ENDBRANCH  30  31
ENDBRANCH  23  25
ENDBRANCH  22  23
ENDBRANCH  21  22
ENDBRANCH   1  21
TORSDOF 18
ENDMDL
MODEL 3
REMARK VINA RESULT:     -11.1      1.965      2.360
REMARK SMILES CC(=O)N/N=C/c1ccc(O[C@H](C)C(=O)OCCOC(=O)c2ccc(-c3c4nc(c(-c5cc(S(=O)(=O)[O-])ccc5F)c5ccc([nH]5)c(-c5cc(S(=O)(=O)[O-])ccc5F)c5nc(c(-c6cc(S(=O)(=O)[O-])ccc6F)c6ccc3[nH]6)C=C5)C=C4)cc2)cc1
REMARK SMILES IDX 17 1 16 2 14 3 15 4 12 5 13 6 11 7 10 8 7 9 8 10 86 11 9 12
REMARK SMILES IDX 85 13 6 14 5 15 4 16 1 17 2 18 3 19 18 21 19 22 20 23 21 24
REMARK SMILES IDX 22 25 23 26 84 27 24 28 83 29 25 30 26 31 27 32 77 33 28 34
REMARK SMILES IDX 82 35 76 36 78 37 29 38 81 39 75 40 74 41 30 43 62 44 42 45
REMARK SMILES IDX 61 46 43 47 46 48 60 49 79 50 44 51 45 52 59 54 80 55 47 56
REMARK SMILES IDX 31 57 32 58 40 59 33 60 39 61 41 62 38 63 34 64 35 65 36 66
REMARK SMILES IDX 37 67 63 68 64 69 72 70 65 71 71 72 73 73 70 74 66 75 67 76
REMARK SMILES IDX 68 77 69 78 48 79 49 80 57 81 50 82 56 83 58 84 55 85 51 86
REMARK SMILES IDX 52 87 53 88 54 89
REMARK H PARENT 4 20 78 42 46 53
REMARK Flexibility Score: inf
ROOT
ATOM      1  C   UNL A   1      35.889  20.433  25.346  1.00  0.00     0.274 C 
ENDROOT
BRANCH   1   2
ATOM      2  O   UNL A   1      35.079  21.615  25.520  1.00  0.00    -0.459 OA
BRANCH   2   3
ATOM      3  C   UNL A   1      33.772  21.483  25.157  1.00  0.00     0.347 C 
ATOM      4  O   UNL A   1      33.407  21.020  24.079  1.00  0.00    -0.248 OA
BRANCH   3   5
ATOM      5  C   UNL A   1      32.779  22.098  26.166  1.00  0.00     0.279 C 
ATOM      6  C   UNL A   1      33.531  22.520  27.432  1.00  0.00     0.066 C 
BRANCH   5   7
ATOM      7  O   UNL A   1      31.877  23.158  25.853  1.00  0.00    -0.479 OA
BRANCH   7   8
ATOM      8  C   UNL A   1      32.299  24.439  25.676  1.00  0.00     0.120 A 
ATOM      9  C   UNL A   1      33.141  27.091  25.752  1.00  0.00    -0.005 A 
ATOM     10  C   UNL A   1      33.844  26.161  24.993  1.00  0.00     0.013 A 
ATOM     11  C   UNL A   1      31.946  26.744  26.375  1.00  0.00     0.013 A 
ATOM     12  C   UNL A   1      33.377  24.856  24.904  1.00  0.00     0.047 A 
ATOM     13  C   UNL A   1      31.541  25.406  26.349  1.00  0.00     0.047 A 
BRANCH   9  14
ATOM     14  C   UNL A   1      33.754  28.410  25.905  1.00  0.00     0.141 C 
ATOM     15  N   UNL A   1      33.640  29.126  26.974  1.00  0.00    -0.181 NA
BRANCH  15  16
ATOM     16  N   UNL A   1      34.183  30.379  26.926  1.00  0.00    -0.247 N 
ATOM     17  C   UNL A   1      36.003  30.022  28.601  1.00  0.00     0.116 C 
ATOM     18  C   UNL A   1      35.243  30.898  27.636  1.00  0.00     0.236 C 
ATOM     19  O   UNL A   1      35.563  32.079  27.476  1.00  0.00    -0.274 OA
ATOM     20  H   UNL A   1      33.755  31.000  26.293  1.00  0.00     0.193 HD
ENDBRANCH  15  16
ENDBRANCH   9  14
ENDBRANCH   7   8
ENDBRANCH   5   7
ENDBRANCH   3   5
ENDBRANCH   2   3
ENDBRANCH   1   2
BRANCH   1  21
ATOM     21  C   UNL A   1      37.217  20.671  24.615  1.00  0.00     0.275 C 
BRANCH  21  22
ATOM     22  O   UNL A   1      37.959  21.772  25.168  1.00  0.00    -0.458 OA
BRANCH  22  23
ATOM     23  C   UNL A   1      39.016  21.398  25.933  1.00  0.00     0.338 C 
ATOM     24  O   UNL A   1      39.564  20.308  25.915  1.00  0.00    -0.246 OA
BRANCH  23  25
ATOM     25  C   UNL A   1      39.579  22.562  26.645  1.00  0.00     0.060 A 
ATOM     26  C   UNL A   1      39.059  23.817  26.301  1.00  0.00     0.016 A 
ATOM     27  C   UNL A   1      40.602  22.457  27.589  1.00  0.00     0.016 A 
ATOM     28  C   UNL A   1      39.572  24.971  26.875  1.00  0.00     0.010 A 
ATOM     29  C   UNL A   1      41.137  23.623  28.150  1.00  0.00     0.010 A 
ATOM     30  C   UNL A   1      40.641  24.884  27.769  1.00  0.00    -0.014 A 
BRANCH  30  31
ATOM     31  C   UNL A   1      41.342  26.138  28.123  1.00  0.00     0.031 A 
ATOM     32  C   UNL A   1      42.736  26.346  27.604  1.00  0.00     0.074 A 
ATOM     33  C   UNL A   1      40.706  27.112  28.795  1.00  0.00     0.049 A 
ATOM     34  N   UNL A   1      43.527  27.380  27.725  1.00  0.00    -0.248 NA
ATOM     35  C   UNL A   1      43.313  25.227  26.844  1.00  0.00     0.031 C 
ATOM     36  C   UNL A   1      39.334  27.033  29.294  1.00  0.00     0.029 A 
ATOM     37  N   UNL A   1      41.127  28.363  29.160  1.00  0.00    -0.354 N 
ATOM     38  C   UNL A   1      44.699  27.036  27.059  1.00  0.00     0.074 A 
ATOM     39  C   UNL A   1      44.526  25.682  26.577  1.00  0.00     0.031 C 
ATOM     40  C   UNL A   1      39.029  28.186  29.911  1.00  0.00     0.029 A 
ATOM     41  C   UNL A   1      40.189  29.073  29.870  1.00  0.00     0.049 A 
ATOM     42  H   UNL A   1      42.017  28.720  28.936  1.00  0.00     0.167 HD
ATOM     43  C   UNL A   1      45.812  27.787  26.861  1.00  0.00     0.034 A 
ATOM     44  C   UNL A   1      40.269  30.293  30.437  1.00  0.00     0.034 A 
ATOM     45  C   UNL A   1      45.966  29.127  27.376  1.00  0.00     0.049 A 
ATOM     46  C   UNL A   1      41.534  31.093  30.257  1.00  0.00     0.074 A 
ATOM     47  C   UNL A   1      47.048  29.982  27.257  1.00  0.00     0.029 A 
ATOM     48  N   UNL A   1      45.009  29.805  28.125  1.00  0.00    -0.354 N 
ATOM     49  N   UNL A   1      42.639  30.764  29.626  1.00  0.00    -0.248 NA
ATOM     50  C   UNL A   1      41.553  32.436  30.846  1.00  0.00     0.031 C 
ATOM     51  C   UNL A   1      46.773  31.143  27.990  1.00  0.00     0.029 A 
ATOM     52  C   UNL A   1      45.487  31.052  28.501  1.00  0.00     0.049 A 
ATOM     53  H   UNL A   1      44.121  29.450  28.356  1.00  0.00     0.167 HD
ATOM     54  C   UNL A   1      43.481  31.869  29.728  1.00  0.00     0.074 A 
ATOM     55  C   UNL A   1      42.741  32.879  30.461  1.00  0.00     0.031 C 
ATOM     56  C   UNL A   1      44.745  32.038  29.257  1.00  0.00     0.034 A 
BRANCH  43  57
ATOM     57  C   UNL A   1      46.957  27.124  26.129  1.00  0.00     0.023 A 
ATOM     58  C   UNL A   1      47.952  26.395  26.809  1.00  0.00     0.031 A 
ATOM     59  C   UNL A   1      47.114  27.311  24.745  1.00  0.00     0.131 A 
ATOM     60  C   UNL A   1      49.105  25.977  26.127  1.00  0.00     0.055 A 
ATOM     61  C   UNL A   1      48.220  26.809  24.054  1.00  0.00     0.041 A 
ATOM     62  F   UNL A   1      46.215  28.019  24.044  1.00  0.00    -0.206 F 
ATOM     63  C   UNL A   1      49.234  26.157  24.748  1.00  0.00     0.022 A 
BRANCH  60  64
ATOM     64  S   UNL A   1      50.518  25.379  27.097  1.00  0.00     0.124 S 
ATOM     65  O   UNL A   1      51.482  25.056  26.047  1.00  0.00    -0.237 OA
ATOM     66  O   UNL A   1      50.839  26.531  27.929  1.00  0.00    -0.237 OA
ATOM     67  O   UNL A   1      49.978  24.222  27.811  1.00  0.00    -0.744 OA
ENDBRANCH  60  64
ENDBRANCH  43  57
BRANCH  44  68
ATOM     68  C   UNL A   1      39.137  30.806  31.258  1.00  0.00     0.023 A 
ATOM     69  C   UNL A   1      38.210  31.729  30.748  1.00  0.00     0.031 A 
ATOM     70  C   UNL A   1      38.977  30.375  32.588  1.00  0.00     0.131 A 
ATOM     71  C   UNL A   1      37.179  32.210  31.573  1.00  0.00     0.055 A 
ATOM     72  C   UNL A   1      37.925  30.822  33.388  1.00  0.00     0.041 A 
ATOM     73  F   UNL A   1      39.834  29.490  33.121  1.00  0.00    -0.206 F 
ATOM     74  C   UNL A   1      37.023  31.751  32.883  1.00  0.00     0.022 A 
BRANCH  71  75
ATOM     75  S   UNL A   1      36.058  33.478  30.919  1.00  0.00     0.124 S 
ATOM     76  O   UNL A   1      35.987  34.416  32.034  1.00  0.00    -0.237 OA
ATOM     77  O   UNL A   1      36.776  33.939  29.737  1.00  0.00    -0.237 OA
ATOM     78  O   UNL A   1      34.827  32.737  30.646  1.00  0.00    -0.744 OA
ENDBRANCH  71  75
ENDBRANCH  44  68
BRANCH  56  79
ATOM     79  C   UNL A   1      45.386  33.384  29.501  1.00  0.00     0.023 A 
ATOM     80  C   UNL A   1      45.260  34.443  28.584  1.00  0.00     0.031 A 
ATOM     81  C   UNL A   1      46.164  33.600  30.653  1.00  0.00     0.131 A 
ATOM     82  C   UNL A   1      45.961  35.640  28.795  1.00  0.00     0.055 A 
ATOM     83  C   UNL A   1      46.804  34.816  30.893  1.00  0.00     0.041 A 
ATOM     84  F   UNL A   1      46.322  32.625  31.564  1.00  0.00    -0.206 F 
ATOM     85  C   UNL A   1      46.719  35.839  29.952  1.00  0.00     0.022 A 
BRANCH  82  86
ATOM     86  S   UNL A   1      45.977  36.884  27.475  1.00  0.00     0.124 S 
ATOM     87  O   UNL A   1      46.417  38.079  28.189  1.00  0.00    -0.237 OA
ATOM     88  O   UNL A   1      46.932  36.319  26.527  1.00  0.00    -0.237 OA
ATOM     89  O   UNL A   1      44.590  36.913  27.016  1.00  0.00    -0.744 OA
ENDBRANCH  82  86
ENDBRANCH  56  79
ENDBRANCH  30  31
ENDBRANCH  23  25
ENDBRANCH  22  23
ENDBRANCH  21  22
ENDBRANCH   1  21
TORSDOF 18
ENDMDL
