MODEL 1
REMARK VINA RESULT:     -13.2      0.000      0.000
REMARK SMILES O=C(OCCOC(=O)c1ccccc1-c1ccccc1C(=O)N1CC[NH+](Cc2ccc3c(c2)OCO3)CC1)c1ccc(-c2c3nc(c(-c4cc(S(=O)(=O)[O-])ccc4F)c4ccc([nH]4)c(-c4cc(S(=O)(=O)[O-])ccc4F)c4nc(c(-c5cc(S(=O)(=O)[O-])ccc5F)c5ccc2[nH]5)C=C4)C=C3)cc1
REMARK SMILES IDX 5 1 4 2 3 3 2 4 1 5 39 6 40 7 101 8 41 9 100 10 42 11 43 12
REMARK SMILES IDX 44 13 94 14 45 15 99 16 93 17 95 18 46 19 98 20 92 21 91 22
REMARK SMILES IDX 47 24 79 25 59 26 78 27 60 28 63 29 77 30 96 31 61 32 62 33
REMARK SMILES IDX 76 35 97 36 64 37 48 38 49 39 57 40 50 41 56 42 58 43 55 44
REMARK SMILES IDX 51 45 52 46 53 47 54 48 80 49 81 50 89 51 82 52 88 53 90 54
REMARK SMILES IDX 87 55 83 56 84 57 85 58 86 59 65 60 66 61 74 62 67 63 73 64
REMARK SMILES IDX 75 65 72 66 68 67 69 68 70 69 71 70 6 71 7 72 8 73 9 74
REMARK SMILES IDX 10 75 14 76 11 77 13 78 12 79 15 80 16 81 20 82 17 83 19 84
REMARK SMILES IDX 18 85 21 86 22 87 23 88 24 89 38 90 25 91 37 92 26 93 27 95
REMARK SMILES IDX 28 96 29 97 33 98 30 99 32 100 31 101 34 102 36 103 35 104
REMARK H PARENT 95 23 63 34 26 94
REMARK Flexibility Score: inf
ROOT
ATOM      1  C   UNL A   1      32.143  30.922  26.698  1.00  0.00     0.275 C 
ENDROOT
BRANCH   1   2
ATOM      2  C   UNL A   1      31.528  32.305  26.958  1.00  0.00     0.275 C 
BRANCH   2   3
ATOM      3  O   UNL A   1      32.433  33.423  27.061  1.00  0.00    -0.458 OA
BRANCH   3   4
ATOM      4  C   UNL A   1      33.092  33.936  28.131  1.00  0.00     0.338 C 
ATOM      5  O   UNL A   1      32.768  35.042  28.561  1.00  0.00    -0.246 OA
BRANCH   4   6
ATOM      6  C   UNL A   1      34.303  33.281  28.711  1.00  0.00     0.060 A 
ATOM      7  C   UNL A   1      34.306  32.089  29.435  1.00  0.00     0.016 A 
ATOM      8  C   UNL A   1      35.537  33.906  28.468  1.00  0.00     0.016 A 
ATOM      9  C   UNL A   1      35.505  31.456  29.783  1.00  0.00     0.010 A 
ATOM     10  C   UNL A   1      36.741  33.285  28.826  1.00  0.00     0.010 A 
ATOM     11  C   UNL A   1      36.734  32.040  29.473  1.00  0.00    -0.014 A 
BRANCH  11  12
ATOM     12  C   UNL A   1      37.974  31.481  30.078  1.00  0.00     0.031 A 
ATOM     13  C   UNL A   1      38.306  31.956  31.440  1.00  0.00     0.074 A 
ATOM     14  C   UNL A   1      38.730  30.531  29.494  1.00  0.00     0.049 A 
ATOM     15  N   UNL A   1      39.241  31.532  32.240  1.00  0.00    -0.248 NA
ATOM     16  C   UNL A   1      37.472  33.040  31.975  1.00  0.00     0.031 C 
ATOM     17  C   UNL A   1      38.434  30.008  28.187  1.00  0.00     0.029 A 
ATOM     18  N   UNL A   1      39.850  29.830  29.854  1.00  0.00    -0.354 N 
ATOM     19  C   UNL A   1      39.064  32.264  33.398  1.00  0.00     0.074 A 
ATOM     20  C   UNL A   1      38.044  33.252  33.140  1.00  0.00     0.031 C 
ATOM     21  C   UNL A   1      39.339  29.095  27.810  1.00  0.00     0.029 A 
ATOM     22  C   UNL A   1      40.298  28.946  28.885  1.00  0.00     0.049 A 
ATOM     23  H   UNL A   1      40.298  29.944  30.724  1.00  0.00     0.167 HD
ATOM     24  C   UNL A   1      39.653  32.063  34.596  1.00  0.00     0.034 A 
ATOM     25  C   UNL A   1      41.347  28.100  28.872  1.00  0.00     0.034 A 
ATOM     26  C   UNL A   1      40.714  31.113  34.778  1.00  0.00     0.049 A 
ATOM     27  C   UNL A   1      42.106  27.998  30.164  1.00  0.00     0.074 A 
ATOM     28  C   UNL A   1      41.480  30.873  35.899  1.00  0.00     0.029 A 
ATOM     29  N   UNL A   1      41.184  30.261  33.776  1.00  0.00    -0.354 N 
ATOM     30  N   UNL A   1      41.889  28.659  31.281  1.00  0.00    -0.248 NA
ATOM     31  C   UNL A   1      43.202  27.031  30.230  1.00  0.00     0.031 C 
ATOM     32  C   UNL A   1      42.452  29.923  35.557  1.00  0.00     0.029 A 
ATOM     33  C   UNL A   1      42.253  29.518  34.242  1.00  0.00     0.049 A 
ATOM     34  H   UNL A   1      40.808  30.200  32.868  1.00  0.00     0.167 HD
ATOM     35  C   UNL A   1      42.798  28.164  32.199  1.00  0.00     0.074 A 
ATOM     36  C   UNL A   1      43.560  27.138  31.503  1.00  0.00     0.031 C 
ATOM     37  C   UNL A   1      42.987  28.517  33.496  1.00  0.00     0.034 A 
BRANCH  24  38
ATOM     38  C   UNL A   1      39.160  32.970  35.689  1.00  0.00     0.023 A 
ATOM     39  C   UNL A   1      39.760  34.233  35.890  1.00  0.00     0.031 A 
ATOM     40  C   UNL A   1      38.324  32.462  36.693  1.00  0.00     0.131 A 
ATOM     41  C   UNL A   1      39.643  34.862  37.138  1.00  0.00     0.055 A 
ATOM     42  C   UNL A   1      38.126  33.151  37.890  1.00  0.00     0.041 A 
ATOM     43  F   UNL A   1      37.770  31.246  36.569  1.00  0.00    -0.206 F 
ATOM     44  C   UNL A   1      38.811  34.341  38.132  1.00  0.00     0.022 A 
BRANCH  41  45
ATOM     45  S   UNL A   1      40.803  36.204  37.542  1.00  0.00     0.124 S 
ATOM     46  O   UNL A   1      41.309  36.559  36.218  1.00  0.00    -0.237 OA
ATOM     47  O   UNL A   1      39.939  37.191  38.180  1.00  0.00    -0.237 OA
ATOM     48  O   UNL A   1      41.774  35.561  38.424  1.00  0.00    -0.744 OA
ENDBRANCH  41  45
ENDBRANCH  24  38
BRANCH  25  49
ATOM     49  C   UNL A   1      41.719  27.303  27.655  1.00  0.00     0.023 A 
ATOM     50  C   UNL A   1      41.592  25.903  27.602  1.00  0.00     0.031 A 
ATOM     51  C   UNL A   1      42.257  27.943  26.520  1.00  0.00     0.131 A 
ATOM     52  C   UNL A   1      42.028  25.191  26.465  1.00  0.00     0.055 A 
ATOM     53  C   UNL A   1      42.659  27.235  25.381  1.00  0.00     0.041 A 
ATOM     54  F   UNL A   1      42.395  29.278  26.495  1.00  0.00    -0.206 F 
ATOM     55  C   UNL A   1      42.557  25.849  25.353  1.00  0.00     0.022 A 
BRANCH  52  56
ATOM     56  S   UNL A   1      41.963  23.374  26.478  1.00  0.00     0.124 S 
ATOM     57  O   UNL A   1      42.628  23.039  25.224  1.00  0.00    -0.237 OA
ATOM     58  O   UNL A   1      42.698  23.057  27.699  1.00  0.00    -0.237 OA
ATOM     59  O   UNL A   1      40.532  23.083  26.522  1.00  0.00    -0.744 OA
ENDBRANCH  52  56
ENDBRANCH  25  49
BRANCH  37  60
ATOM     60  C   UNL A   1      44.053  27.757  34.230  1.00  0.00     0.023 A 
ATOM     61  C   UNL A   1      43.751  26.589  34.946  1.00  0.00     0.031 A 
ATOM     62  C   UNL A   1      45.381  28.212  34.207  1.00  0.00     0.131 A 
ATOM     63  C   UNL A   1      44.762  25.937  35.658  1.00  0.00     0.055 A 
ATOM     64  C   UNL A   1      46.396  27.520  34.864  1.00  0.00     0.041 A 
ATOM     65  F   UNL A   1      45.711  29.330  33.540  1.00  0.00    -0.206 F 
ATOM     66  C   UNL A   1      46.086  26.380  35.603  1.00  0.00     0.022 A 
BRANCH  63  67
ATOM     67  S   UNL A   1      44.305  24.544  36.723  1.00  0.00     0.124 S 
ATOM     68  O   UNL A   1      42.893  24.813  36.977  1.00  0.00    -0.237 OA
ATOM     69  O   UNL A   1      44.591  23.393  35.873  1.00  0.00    -0.237 OA
ATOM     70  O   UNL A   1      45.186  24.696  37.879  1.00  0.00    -0.744 OA
ENDBRANCH  63  67
ENDBRANCH  37  60
ENDBRANCH  11  12
ENDBRANCH   4   6
ENDBRANCH   3   4
ENDBRANCH   2   3
ENDBRANCH   1   2
BRANCH   1  71
ATOM     71  O   UNL A   1      31.545  30.140  25.651  1.00  0.00    -0.458 OA
BRANCH  71  72
ATOM     72  C   UNL A   1      31.932  28.846  25.640  1.00  0.00     0.338 C 
ATOM     73  O   UNL A   1      31.806  28.091  26.606  1.00  0.00    -0.246 OA
BRANCH  72  74
ATOM     74  C   UNL A   1      32.479  28.380  24.338  1.00  0.00     0.067 A 
ATOM     75  C   UNL A   1      33.846  28.613  24.097  1.00  0.00     0.016 A 
ATOM     76  C   UNL A   1      31.685  27.857  23.304  1.00  0.00    -0.003 A 
ATOM     77  C   UNL A   1      34.467  28.221  22.913  1.00  0.00     0.001 A 
ATOM     78  C   UNL A   1      32.318  27.541  22.074  1.00  0.00     0.009 A 
ATOM     79  C   UNL A   1      33.699  27.677  21.897  1.00  0.00     0.001 A 
BRANCH  76  80
ATOM     80  C   UNL A   1      30.242  27.628  23.427  1.00  0.00    -0.005 A 
ATOM     81  C   UNL A   1      29.367  28.727  23.226  1.00  0.00     0.009 A 
ATOM     82  C   UNL A   1      29.677  26.381  23.740  1.00  0.00     0.047 A 
ATOM     83  C   UNL A   1      27.991  28.636  23.389  1.00  0.00     0.001 A 
ATOM     84  C   UNL A   1      28.274  26.306  23.908  1.00  0.00     0.014 A 
ATOM     85  C   UNL A   1      27.441  27.421  23.748  1.00  0.00     0.001 A 
BRANCH  82  86
ATOM     86  C   UNL A   1      30.431  25.075  23.814  1.00  0.00     0.254 C 
ATOM     87  O   UNL A   1      30.479  24.354  22.815  1.00  0.00    -0.269 OA
ATOM     88  N   UNL A   1      31.180  24.762  24.958  1.00  0.00    -0.327 N 
ATOM     89  C   UNL A   1      32.581  24.455  24.725  1.00  0.00     0.181 C 
ATOM     90  C   UNL A   1      30.578  23.864  25.939  1.00  0.00     0.181 C 
ATOM     91  C   UNL A   1      33.433  24.390  26.011  1.00  0.00     0.284 C 
ATOM     92  C   UNL A   1      31.428  23.635  27.224  1.00  0.00     0.284 C 
ATOM     93  N   UNL A   1      32.896  23.607  27.131  1.00  0.00    -0.328 N 
ATOM     94  H   UNL A   1      33.171  24.113  27.974  1.00  0.00     0.348 HD
BRANCH  93  95
ATOM     95  C   UNL A   1      33.565  22.324  27.369  1.00  0.00     0.299 C 
BRANCH  95  96
ATOM     96  C   UNL A   1      33.717  21.527  26.092  1.00  0.00     0.010 A 
ATOM     97  C   UNL A   1      35.020  21.306  25.592  1.00  0.00     0.013 A 
ATOM     98  C   UNL A   1      32.645  20.718  25.676  1.00  0.00     0.060 A 
ATOM     99  C   UNL A   1      35.310  20.138  24.890  1.00  0.00     0.051 A 
ATOM    100  C   UNL A   1      32.979  19.541  25.052  1.00  0.00     0.166 A 
ATOM    101  C   UNL A   1      34.280  19.241  24.712  1.00  0.00     0.165 A 
ATOM    102  O   UNL A   1      32.159  18.452  24.962  1.00  0.00    -0.454 OA
ATOM    103  O   UNL A   1      34.422  17.930  24.364  1.00  0.00    -0.454 OA
ATOM    104  C   UNL A   1      33.161  17.417  24.845  1.00  0.00     0.468 C 
ENDBRANCH  95  96
ENDBRANCH  93  95
ENDBRANCH  82  86
ENDBRANCH  76  80
ENDBRANCH  72  74
ENDBRANCH  71  72
ENDBRANCH   1  71
TORSDOF 18
ENDMDL
MODEL 2
REMARK VINA RESULT:     -13.0      4.662     10.327
REMARK SMILES O=C(OCCOC(=O)c1ccccc1-c1ccccc1C(=O)N1CC[NH+](Cc2ccc3c(c2)OCO3)CC1)c1ccc(-c2c3nc(c(-c4cc(S(=O)(=O)[O-])ccc4F)c4ccc([nH]4)c(-c4cc(S(=O)(=O)[O-])ccc4F)c4nc(c(-c5cc(S(=O)(=O)[O-])ccc5F)c5ccc2[nH]5)C=C4)C=C3)cc1
REMARK SMILES IDX 5 1 4 2 3 3 2 4 1 5 39 6 40 7 101 8 41 9 100 10 42 11 43 12
REMARK SMILES IDX 44 13 94 14 45 15 99 16 93 17 95 18 46 19 98 20 92 21 91 22
REMARK SMILES IDX 47 24 79 25 59 26 78 27 60 28 63 29 77 30 96 31 61 32 62 33
REMARK SMILES IDX 76 35 97 36 64 37 48 38 49 39 57 40 50 41 56 42 58 43 55 44
REMARK SMILES IDX 51 45 52 46 53 47 54 48 80 49 81 50 89 51 82 52 88 53 90 54
REMARK SMILES IDX 87 55 83 56 84 57 85 58 86 59 65 60 66 61 74 62 67 63 73 64
REMARK SMILES IDX 75 65 72 66 68 67 69 68 70 69 71 70 6 71 7 72 8 73 9 74
REMARK SMILES IDX 10 75 14 76 11 77 13 78 12 79 15 80 16 81 20 82 17 83 19 84
REMARK SMILES IDX 18 85 21 86 22 87 23 88 24 89 38 90 25 91 37 92 26 93 27 95
REMARK SMILES IDX 28 96 29 97 33 98 30 99 32 100 31 101 34 102 36 103 35 104
REMARK H PARENT 95 23 63 34 26 94
REMARK Flexibility Score: inf
ROOT
ATOM      1  C   UNL A   1      36.430  23.522  25.306  1.00  0.00     0.275 C 
ENDROOT
BRANCH   1   2
ATOM      2  C   UNL A   1      37.695  22.747  24.909  1.00  0.00     0.275 C 
BRANCH   2   3
ATOM      3  O   UNL A   1      38.482  22.175  25.974  1.00  0.00    -0.458 OA
BRANCH   3   4
ATOM      4  C   UNL A   1      39.704  22.514  26.456  1.00  0.00     0.338 C 
ATOM      5  O   UNL A   1      40.526  21.628  26.685  1.00  0.00    -0.246 OA
BRANCH   4   6
ATOM      6  C   UNL A   1      40.038  23.910  26.871  1.00  0.00     0.060 A 
ATOM      7  C   UNL A   1      40.349  24.957  26.004  1.00  0.00     0.016 A 
ATOM      8  C   UNL A   1      39.995  24.187  28.248  1.00  0.00     0.016 A 
ATOM      9  C   UNL A   1      40.471  26.272  26.468  1.00  0.00     0.010 A 
ATOM     10  C   UNL A   1      40.129  25.499  28.722  1.00  0.00     0.010 A 
ATOM     11  C   UNL A   1      40.351  26.559  27.829  1.00  0.00    -0.014 A 
BRANCH  11  12
ATOM     12  C   UNL A   1      40.739  27.909  28.320  1.00  0.00     0.031 A 
ATOM     13  C   UNL A   1      42.179  28.243  28.241  1.00  0.00     0.074 A 
ATOM     14  C   UNL A   1      39.855  28.837  28.737  1.00  0.00     0.049 A 
ATOM     15  N   UNL A   1      42.759  29.385  28.470  1.00  0.00    -0.248 NA
ATOM     16  C   UNL A   1      43.080  27.154  27.841  1.00  0.00     0.031 C 
ATOM     17  C   UNL A   1      38.442  28.579  28.802  1.00  0.00     0.029 A 
ATOM     18  N   UNL A   1      39.947  30.133  29.170  1.00  0.00    -0.354 N 
ATOM     19  C   UNL A   1      44.091  29.160  28.182  1.00  0.00     0.074 A 
ATOM     20  C   UNL A   1      44.250  27.750  27.915  1.00  0.00     0.031 C 
ATOM     21  C   UNL A   1      37.772  29.641  29.270  1.00  0.00     0.029 A 
ATOM     22  C   UNL A   1      38.731  30.695  29.528  1.00  0.00     0.049 A 
ATOM     23  H   UNL A   1      40.800  30.623  29.222  1.00  0.00     0.167 HD
ATOM     24  C   UNL A   1      45.075  30.078  28.072  1.00  0.00     0.034 A 
ATOM     25  C   UNL A   1      38.423  31.922  29.992  1.00  0.00     0.034 A 
ATOM     26  C   UNL A   1      44.879  31.457  28.419  1.00  0.00     0.049 A 
ATOM     27  C   UNL A   1      39.561  32.901  30.023  1.00  0.00     0.074 A 
ATOM     28  C   UNL A   1      45.801  32.480  28.465  1.00  0.00     0.029 A 
ATOM     29  N   UNL A   1      43.656  31.997  28.823  1.00  0.00    -0.354 N 
ATOM     30  N   UNL A   1      40.817  32.691  29.688  1.00  0.00    -0.248 NA
ATOM     31  C   UNL A   1      39.263  34.273  30.438  1.00  0.00     0.031 C 
ATOM     32  C   UNL A   1      45.152  33.621  28.955  1.00  0.00     0.029 A 
ATOM     33  C   UNL A   1      43.807  33.332  29.153  1.00  0.00     0.049 A 
ATOM     34  H   UNL A   1      42.808  31.498  28.867  1.00  0.00     0.167 HD
ATOM     35  C   UNL A   1      41.456  33.911  29.818  1.00  0.00     0.074 A 
ATOM     36  C   UNL A   1      40.439  34.858  30.251  1.00  0.00     0.031 C 
ATOM     37  C   UNL A   1      42.757  34.226  29.595  1.00  0.00     0.034 A 
BRANCH  24  38
ATOM     38  C   UNL A   1      46.401  29.516  27.638  1.00  0.00     0.023 A 
ATOM     39  C   UNL A   1      46.650  29.254  26.273  1.00  0.00     0.031 A 
ATOM     40  C   UNL A   1      47.272  28.972  28.591  1.00  0.00     0.131 A 
ATOM     41  C   UNL A   1      47.646  28.334  25.917  1.00  0.00     0.055 A 
ATOM     42  C   UNL A   1      48.332  28.143  28.217  1.00  0.00     0.041 A 
ATOM     43  F   UNL A   1      47.050  29.152  29.902  1.00  0.00    -0.206 F 
ATOM     44  C   UNL A   1      48.505  27.794  26.878  1.00  0.00     0.022 A 
BRANCH  41  45
ATOM     45  S   UNL A   1      47.623  27.641  24.235  1.00  0.00     0.124 S 
ATOM     46  O   UNL A   1      49.050  27.565  23.932  1.00  0.00    -0.237 OA
ATOM     47  O   UNL A   1      46.943  26.365  24.426  1.00  0.00    -0.237 OA
ATOM     48  O   UNL A   1      46.879  28.636  23.468  1.00  0.00    -0.744 OA
ENDBRANCH  41  45
ENDBRANCH  24  38
BRANCH  25  49
ATOM     49  C   UNL A   1      37.034  32.289  30.430  1.00  0.00     0.023 A 
ATOM     50  C   UNL A   1      36.124  32.947  29.582  1.00  0.00     0.031 A 
ATOM     51  C   UNL A   1      36.605  32.015  31.744  1.00  0.00     0.131 A 
ATOM     52  C   UNL A   1      34.858  33.340  30.065  1.00  0.00     0.055 A 
ATOM     53  C   UNL A   1      35.335  32.379  32.209  1.00  0.00     0.041 A 
ATOM     54  F   UNL A   1      37.416  31.377  32.604  1.00  0.00    -0.206 F 
ATOM     55  C   UNL A   1      34.458  33.056  31.371  1.00  0.00     0.022 A 
BRANCH  52  56
ATOM     56  S   UNL A   1      33.755  34.297  28.981  1.00  0.00     0.124 S 
ATOM     57  O   UNL A   1      33.278  33.273  28.059  1.00  0.00    -0.237 OA
ATOM     58  O   UNL A   1      32.776  34.813  29.932  1.00  0.00    -0.237 OA
ATOM     59  O   UNL A   1      34.639  35.302  28.394  1.00  0.00    -0.744 OA
ENDBRANCH  52  56
ENDBRANCH  25  49
BRANCH  37  60
ATOM     60  C   UNL A   1      43.125  35.665  29.806  1.00  0.00     0.023 A 
ATOM     61  C   UNL A   1      42.992  36.608  28.775  1.00  0.00     0.031 A 
ATOM     62  C   UNL A   1      43.610  36.091  31.053  1.00  0.00     0.131 A 
ATOM     63  C   UNL A   1      43.392  37.930  28.995  1.00  0.00     0.055 A 
ATOM     64  C   UNL A   1      43.944  37.423  31.285  1.00  0.00     0.041 A 
ATOM     65  F   UNL A   1      43.760  35.219  32.063  1.00  0.00    -0.206 F 
ATOM     66  C   UNL A   1      43.844  38.349  30.249  1.00  0.00     0.022 A 
BRANCH  63  67
ATOM     67  S   UNL A   1      43.386  39.075  27.592  1.00  0.00     0.124 S 
ATOM     68  O   UNL A   1      42.005  38.976  27.129  1.00  0.00    -0.237 OA
ATOM     69  O   UNL A   1      43.758  40.340  28.218  1.00  0.00    -0.237 OA
ATOM     70  O   UNL A   1      44.387  38.512  26.688  1.00  0.00    -0.744 OA
ENDBRANCH  63  67
ENDBRANCH  37  60
ENDBRANCH  11  12
ENDBRANCH   4   6
ENDBRANCH   3   4
ENDBRANCH   2   3
ENDBRANCH   1   2
BRANCH   1  71
ATOM     71  O   UNL A   1      35.605  22.927  26.322  1.00  0.00    -0.458 OA
BRANCH  71  72
ATOM     72  C   UNL A   1      34.742  21.997  25.856  1.00  0.00     0.338 C 
ATOM     73  O   UNL A   1      35.099  20.942  25.332  1.00  0.00    -0.246 OA
BRANCH  72  74
ATOM     74  C   UNL A   1      33.308  22.324  26.079  1.00  0.00     0.067 A 
ATOM     75  C   UNL A   1      33.025  23.454  26.870  1.00  0.00     0.016 A 
ATOM     76  C   UNL A   1      32.249  21.500  25.666  1.00  0.00    -0.003 A 
ATOM     77  C   UNL A   1      31.719  23.856  27.146  1.00  0.00     0.001 A 
ATOM     78  C   UNL A   1      30.931  21.878  26.027  1.00  0.00     0.009 A 
ATOM     79  C   UNL A   1      30.665  23.066  26.718  1.00  0.00     0.001 A 
BRANCH  76  80
ATOM     80  C   UNL A   1      32.436  20.269  24.889  1.00  0.00    -0.005 A 
ATOM     81  C   UNL A   1      32.621  19.052  25.592  1.00  0.00     0.009 A 
ATOM     82  C   UNL A   1      32.446  20.232  23.484  1.00  0.00     0.047 A 
ATOM     83  C   UNL A   1      32.877  17.844  24.955  1.00  0.00     0.001 A 
ATOM     84  C   UNL A   1      32.714  18.995  22.851  1.00  0.00     0.014 A 
ATOM     85  C   UNL A   1      32.940  17.818  23.576  1.00  0.00     0.001 A 
BRANCH  82  86
ATOM     86  C   UNL A   1      32.093  21.386  22.577  1.00  0.00     0.254 C 
ATOM     87  O   UNL A   1      31.555  21.151  21.493  1.00  0.00    -0.269 OA
ATOM     88  N   UNL A   1      32.246  22.705  23.029  1.00  0.00    -0.327 N 
ATOM     89  C   UNL A   1      31.054  23.534  22.960  1.00  0.00     0.181 C 
ATOM     90  C   UNL A   1      33.443  23.430  22.613  1.00  0.00     0.181 C 
ATOM     91  C   UNL A   1      31.177  24.876  23.714  1.00  0.00     0.284 C 
ATOM     92  C   UNL A   1      33.590  24.854  23.226  1.00  0.00     0.284 C 
ATOM     93  N   UNL A   1      32.390  25.668  23.476  1.00  0.00    -0.328 N 
ATOM     94  H   UNL A   1      32.611  26.102  24.373  1.00  0.00     0.348 HD
BRANCH  93  95
ATOM     95  C   UNL A   1      32.199  26.864  22.649  1.00  0.00     0.299 C 
BRANCH  95  96
ATOM     96  C   UNL A   1      31.075  27.733  23.172  1.00  0.00     0.010 A 
ATOM     97  C   UNL A   1      31.349  28.600  24.253  1.00  0.00     0.013 A 
ATOM     98  C   UNL A   1      29.956  27.945  22.350  1.00  0.00     0.060 A 
ATOM     99  C   UNL A   1      30.672  29.813  24.364  1.00  0.00     0.051 A 
ATOM    100  C   UNL A   1      29.363  29.181  22.439  1.00  0.00     0.166 A 
ATOM    101  C   UNL A   1      29.743  30.104  23.390  1.00  0.00     0.165 A 
ATOM    102  O   UNL A   1      28.575  29.735  21.471  1.00  0.00    -0.454 OA
ATOM    103  O   UNL A   1      29.231  31.340  23.126  1.00  0.00    -0.454 OA
ATOM    104  C   UNL A   1      28.791  31.133  21.767  1.00  0.00     0.468 C 
ENDBRANCH  95  96
ENDBRANCH  93  95
ENDBRANCH  82  86
ENDBRANCH  76  80
ENDBRANCH  72  74
ENDBRANCH  71  72
ENDBRANCH   1  71
TORSDOF 18
ENDMDL
MODEL 3
REMARK VINA RESULT:     -12.3      1.768      2.496
REMARK SMILES O=C(OCCOC(=O)c1ccccc1-c1ccccc1C(=O)N1CC[NH+](Cc2ccc3c(c2)OCO3)CC1)c1ccc(-c2c3nc(c(-c4cc(S(=O)(=O)[O-])ccc4F)c4ccc([nH]4)c(-c4cc(S(=O)(=O)[O-])ccc4F)c4nc(c(-c5cc(S(=O)(=O)[O-])ccc5F)c5ccc2[nH]5)C=C4)C=C3)cc1
REMARK SMILES IDX 5 1 4 2 3 3 2 4 1 5 39 6 40 7 101 8 41 9 100 10 42 11 43 12
REMARK SMILES IDX 44 13 94 14 45 15 99 16 93 17 95 18 46 19 98 20 92 21 91 22
REMARK SMILES IDX 47 24 79 25 59 26 78 27 60 28 63 29 77 30 96 31 61 32 62 33
REMARK SMILES IDX 76 35 97 36 64 37 48 38 49 39 57 40 50 41 56 42 58 43 55 44
REMARK SMILES IDX 51 45 52 46 53 47 54 48 80 49 81 50 89 51 82 52 88 53 90 54
REMARK SMILES IDX 87 55 83 56 84 57 85 58 86 59 65 60 66 61 74 62 67 63 73 64
REMARK SMILES IDX 75 65 72 66 68 67 69 68 70 69 71 70 6 71 7 72 8 73 9 74
REMARK SMILES IDX 10 75 14 76 11 77 13 78 12 79 15 80 16 81 20 82 17 83 19 84
REMARK SMILES IDX 18 85 21 86 22 87 23 88 24 89 38 90 25 91 37 92 26 93 27 95
REMARK SMILES IDX 28 96 29 97 33 98 30 99 32 100 31 101 34 102 36 103 35 104
REMARK H PARENT 95 23 63 34 26 94
REMARK Flexibility Score: inf
ROOT
ATOM      1  C   UNL A   1      32.230  30.646  26.268  1.00  0.00     0.275 C 
ENDROOT
BRANCH   1   2
ATOM      2  C   UNL A   1      33.372  30.611  27.295  1.00  0.00     0.275 C 
BRANCH   2   3
ATOM      3  O   UNL A   1      33.943  31.874  27.693  1.00  0.00    -0.458 OA
BRANCH   3   4
ATOM      4  C   UNL A   1      34.589  32.238  28.829  1.00  0.00     0.338 C 
ATOM      5  O   UNL A   1      34.134  33.155  29.511  1.00  0.00    -0.246 OA
BRANCH   4   6
ATOM      6  C   UNL A   1      35.922  31.674  29.204  1.00  0.00     0.060 A 
ATOM      7  C   UNL A   1      37.152  32.125  28.725  1.00  0.00     0.016 A 
ATOM      8  C   UNL A   1      35.925  30.631  30.144  1.00  0.00     0.016 A 
ATOM      9  C   UNL A   1      38.356  31.660  29.267  1.00  0.00     0.010 A 
ATOM     10  C   UNL A   1      37.126  30.151  30.683  1.00  0.00     0.010 A 
ATOM     11  C   UNL A   1      38.356  30.677  30.258  1.00  0.00    -0.014 A 
BRANCH  11  12
ATOM     12  C   UNL A   1      39.641  30.022  30.627  1.00  0.00     0.031 A 
ATOM     13  C   UNL A   1      40.286  30.504  31.868  1.00  0.00     0.074 A 
ATOM     14  C   UNL A   1      40.174  28.987  29.949  1.00  0.00     0.049 A 
ATOM     15  N   UNL A   1      41.325  30.018  32.481  1.00  0.00    -0.248 NA
ATOM     16  C   UNL A   1      39.677  31.679  32.506  1.00  0.00     0.031 C 
ATOM     17  C   UNL A   1      39.571  28.454  28.756  1.00  0.00     0.029 A 
ATOM     18  N   UNL A   1      41.280  28.194  30.109  1.00  0.00    -0.354 N 
ATOM     19  C   UNL A   1      41.455  30.798  33.614  1.00  0.00     0.074 A 
ATOM     20  C   UNL A   1      40.493  31.871  33.520  1.00  0.00     0.031 C 
ATOM     21  C   UNL A   1      40.296  27.448  28.249  1.00  0.00     0.029 A 
ATOM     22  C   UNL A   1      41.440  27.242  29.114  1.00  0.00     0.049 A 
ATOM     23  H   UNL A   1      41.906  28.291  30.863  1.00  0.00     0.167 HD
ATOM     24  C   UNL A   1      42.259  30.579  34.676  1.00  0.00     0.034 A 
ATOM     25  C   UNL A   1      42.386  26.300  28.930  1.00  0.00     0.034 A 
ATOM     26  C   UNL A   1      43.248  29.539  34.686  1.00  0.00     0.049 A 
ATOM     27  C   UNL A   1      43.384  26.167  30.045  1.00  0.00     0.074 A 
ATOM     28  C   UNL A   1      44.205  29.262  35.639  1.00  0.00     0.029 A 
ATOM     29  N   UNL A   1      43.426  28.616  33.654  1.00  0.00    -0.354 N 
ATOM     30  N   UNL A   1      43.460  26.879  31.150  1.00  0.00    -0.248 NA
ATOM     31  C   UNL A   1      44.382  25.102  29.936  1.00  0.00     0.031 C 
ATOM     32  C   UNL A   1      45.000  28.214  35.155  1.00  0.00     0.029 A 
ATOM     33  C   UNL A   1      44.500  27.789  33.929  1.00  0.00     0.049 A 
ATOM     34  H   UNL A   1      42.867  28.563  32.845  1.00  0.00     0.167 HD
ATOM     35  C   UNL A   1      44.493  26.328  31.887  1.00  0.00     0.074 A 
ATOM     36  C   UNL A   1      45.003  25.213  31.103  1.00  0.00     0.031 C 
ATOM     37  C   UNL A   1      44.974  26.701  33.101  1.00  0.00     0.034 A 
BRANCH  24  38
ATOM     38  C   UNL A   1      42.082  31.562  35.800  1.00  0.00     0.023 A 
ATOM     39  C   UNL A   1      40.932  31.511  36.617  1.00  0.00     0.031 A 
ATOM     40  C   UNL A   1      42.889  32.707  35.858  1.00  0.00     0.131 A 
ATOM     41  C   UNL A   1      40.537  32.653  37.328  1.00  0.00     0.055 A 
ATOM     42  C   UNL A   1      42.545  33.799  36.656  1.00  0.00     0.041 A 
ATOM     43  F   UNL A   1      43.966  32.824  35.066  1.00  0.00    -0.206 F 
ATOM     44  C   UNL A   1      41.348  33.790  37.372  1.00  0.00     0.022 A 
BRANCH  41  45
ATOM     45  S   UNL A   1      38.832  32.735  37.957  1.00  0.00     0.124 S 
ATOM     46  O   UNL A   1      39.050  32.655  39.399  1.00  0.00    -0.237 OA
ATOM     47  O   UNL A   1      38.368  34.022  37.453  1.00  0.00    -0.237 OA
ATOM     48  O   UNL A   1      38.194  31.564  37.361  1.00  0.00    -0.744 OA
ENDBRANCH  41  45
ENDBRANCH  24  38
BRANCH  25  49
ATOM     49  C   UNL A   1      42.430  25.435  27.704  1.00  0.00     0.023 A 
ATOM     50  C   UNL A   1      41.923  24.122  27.689  1.00  0.00     0.031 A 
ATOM     51  C   UNL A   1      43.028  25.906  26.518  1.00  0.00     0.131 A 
ATOM     52  C   UNL A   1      42.057  23.321  26.535  1.00  0.00     0.055 A 
ATOM     53  C   UNL A   1      43.130  25.118  25.366  1.00  0.00     0.041 A 
ATOM     54  F   UNL A   1      43.521  27.154  26.456  1.00  0.00    -0.206 F 
ATOM     55  C   UNL A   1      42.653  23.813  25.373  1.00  0.00     0.022 A 
BRANCH  52  56
ATOM     56  S   UNL A   1      41.501  21.590  26.589  1.00  0.00     0.124 S 
ATOM     57  O   UNL A   1      42.079  21.128  27.846  1.00  0.00    -0.237 OA
ATOM     58  O   UNL A   1      40.049  21.742  26.567  1.00  0.00    -0.237 OA
ATOM     59  O   UNL A   1      42.083  21.006  25.383  1.00  0.00    -0.744 OA
ENDBRANCH  52  56
ENDBRANCH  25  49
BRANCH  37  60
ATOM     60  C   UNL A   1      46.099  25.867  33.640  1.00  0.00     0.023 A 
ATOM     61  C   UNL A   1      45.850  24.701  34.381  1.00  0.00     0.031 A 
ATOM     62  C   UNL A   1      47.431  26.246  33.405  1.00  0.00     0.131 A 
ATOM     63  C   UNL A   1      46.923  23.978  34.909  1.00  0.00     0.055 A 
ATOM     64  C   UNL A   1      48.496  25.484  33.878  1.00  0.00     0.041 A 
ATOM     65  F   UNL A   1      47.712  27.359  32.708  1.00  0.00    -0.206 F 
ATOM     66  C   UNL A   1      48.244  24.347  34.643  1.00  0.00     0.022 A 
BRANCH  63  67
ATOM     67  S   UNL A   1      46.564  22.590  36.016  1.00  0.00     0.124 S 
ATOM     68  O   UNL A   1      47.703  22.632  36.928  1.00  0.00    -0.237 OA
ATOM     69  O   UNL A   1      45.276  22.971  36.588  1.00  0.00    -0.237 OA
ATOM     70  O   UNL A   1      46.528  21.438  35.118  1.00  0.00    -0.744 OA
ENDBRANCH  63  67
ENDBRANCH  37  60
ENDBRANCH  11  12
ENDBRANCH   4   6
ENDBRANCH   3   4
ENDBRANCH   2   3
ENDBRANCH   1   2
BRANCH   1  71
ATOM     71  O   UNL A   1      31.403  29.473  26.188  1.00  0.00    -0.458 OA
BRANCH  71  72
ATOM     72  C   UNL A   1      32.085  28.334  25.940  1.00  0.00     0.338 C 
ATOM     73  O   UNL A   1      32.221  27.431  26.767  1.00  0.00    -0.246 OA
BRANCH  72  74
ATOM     74  C   UNL A   1      32.619  28.226  24.556  1.00  0.00     0.067 A 
ATOM     75  C   UNL A   1      33.979  28.536  24.368  1.00  0.00     0.016 A 
ATOM     76  C   UNL A   1      31.817  27.973  23.431  1.00  0.00    -0.003 A 
ATOM     77  C   UNL A   1      34.588  28.471  23.117  1.00  0.00     0.001 A 
ATOM     78  C   UNL A   1      32.436  27.993  22.155  1.00  0.00     0.009 A 
ATOM     79  C   UNL A   1      33.812  28.193  22.003  1.00  0.00     0.001 A 
BRANCH  76  80
ATOM     80  C   UNL A   1      30.378  27.696  23.507  1.00  0.00    -0.005 A 
ATOM     81  C   UNL A   1      29.476  28.777  23.332  1.00  0.00     0.009 A 
ATOM     82  C   UNL A   1      29.845  26.420  23.749  1.00  0.00     0.047 A 
ATOM     83  C   UNL A   1      28.099  28.638  23.455  1.00  0.00     0.001 A 
ATOM     84  C   UNL A   1      28.441  26.296  23.878  1.00  0.00     0.014 A 
ATOM     85  C   UNL A   1      27.579  27.392  23.746  1.00  0.00     0.001 A 
BRANCH  82  86
ATOM     86  C   UNL A   1      30.636  25.134  23.785  1.00  0.00     0.254 C 
ATOM     87  O   UNL A   1      30.792  24.499  22.740  1.00  0.00    -0.269 OA
ATOM     88  N   UNL A   1      31.300  24.752  24.960  1.00  0.00    -0.327 N 
ATOM     89  C   UNL A   1      32.726  24.506  24.823  1.00  0.00     0.181 C 
ATOM     90  C   UNL A   1      30.651  23.761  25.814  1.00  0.00     0.181 C 
ATOM     91  C   UNL A   1      33.471  24.363  26.168  1.00  0.00     0.284 C 
ATOM     92  C   UNL A   1      31.401  23.453  27.144  1.00  0.00     0.284 C 
ATOM     93  N   UNL A   1      32.872  23.476  27.174  1.00  0.00    -0.328 N 
ATOM     94  H   UNL A   1      33.058  23.920  28.074  1.00  0.00     0.348 HD
BRANCH  93  95
ATOM     95  C   UNL A   1      33.565  22.199  27.367  1.00  0.00     0.299 C 
BRANCH  95  96
ATOM     96  C   UNL A   1      33.691  21.429  26.070  1.00  0.00     0.010 A 
ATOM     97  C   UNL A   1      34.982  21.240  25.528  1.00  0.00     0.013 A 
ATOM     98  C   UNL A   1      32.621  20.611  25.670  1.00  0.00     0.060 A 
ATOM     99  C   UNL A   1      35.270  20.092  24.794  1.00  0.00     0.051 A 
ATOM    100  C   UNL A   1      32.955  19.452  25.013  1.00  0.00     0.166 A 
ATOM    101  C   UNL A   1      34.250  19.181  24.628  1.00  0.00     0.165 A 
ATOM    102  O   UNL A   1      32.151  18.351  24.924  1.00  0.00    -0.454 OA
ATOM    103  O   UNL A   1      34.403  17.880  24.250  1.00  0.00    -0.454 OA
ATOM    104  C   UNL A   1      33.165  17.336  24.757  1.00  0.00     0.468 C 
ENDBRANCH  95  96
ENDBRANCH  93  95
ENDBRANCH  82  86
ENDBRANCH  76  80
ENDBRANCH  72  74
ENDBRANCH  71  72
ENDBRANCH   1  71
TORSDOF 18
ENDMDL
