MODEL 1
REMARK VINA RESULT:     -11.1      0.000      0.000
REMARK SMILES C[C@@H](C(=O)OCCOC(=O)c1ccc(-c2c3nc(c(-c4cc(S(=O)(=O)[O-])ccc4F)c4ccc([nH]4)c(-c4cc(S(=O)(=O)[O-])ccc4F)c4nc(c(-c5cc(S(=O)(=O)[O-])ccc5F)c5ccc2[nH]5)C=C4)C=C3)cc1)c1ccc(-c2cccc(OC(=O)NCCCc3ccccc3)c2)c(F)c1
REMARK SMILES IDX 3 1 4 2 2 3 1 4 74 5 75 6 99 7 76 8 97 9 77 10 98 11 78 12
REMARK SMILES IDX 79 13 96 14 80 15 82 16 81 17 83 18 84 19 85 20 86 21 87 23
REMARK SMILES IDX 88 24 89 25 90 26 91 27 95 28 92 29 94 30 93 31 5 32 6 33
REMARK SMILES IDX 7 34 8 35 9 36 10 37 11 38 12 39 73 40 13 41 72 42 14 43
REMARK SMILES IDX 15 44 16 45 66 46 17 47 71 48 65 49 67 50 18 51 70 52 64 53
REMARK SMILES IDX 63 54 19 56 51 57 31 58 50 59 32 60 35 61 49 62 68 63 33 64
REMARK SMILES IDX 34 65 48 67 69 68 36 69 20 70 21 71 29 72 22 73 28 74 30 75
REMARK SMILES IDX 27 76 23 77 24 78 25 79 26 80 52 81 53 82 61 83 54 84 60 85
REMARK SMILES IDX 62 86 59 87 55 88 56 89 57 90 58 91 37 92 38 93 46 94 39 95
REMARK SMILES IDX 45 96 47 97 44 98 40 99 41 100 42 101 43 102
REMARK H PARENT 86 22 67 55 35 66
REMARK Flexibility Score: inf
ROOT
ATOM      1  C   UNL A   1      34.881  33.463  30.132  1.00  0.00     0.313 C 
ATOM      2  O   UNL A   1      33.756  33.689  30.561  1.00  0.00    -0.252 OA
ENDROOT
BRANCH   1   3
ATOM      3  C   UNL A   1      35.213  33.250  28.624  1.00  0.00     0.126 C 
ATOM      4  C   UNL A   1      34.747  34.459  27.790  1.00  0.00     0.025 C 
BRANCH   3   5
ATOM      5  C   UNL A   1      34.780  31.878  28.041  1.00  0.00    -0.031 A 
ATOM      6  C   UNL A   1      35.673  30.802  27.853  1.00  0.00     0.005 A 
ATOM      7  C   UNL A   1      33.445  31.620  27.687  1.00  0.00     0.044 A 
ATOM      8  C   UNL A   1      35.277  29.585  27.238  1.00  0.00     0.012 A 
ATOM      9  C   UNL A   1      33.055  30.405  27.076  1.00  0.00     0.131 A 
ATOM     10  C   UNL A   1      33.965  29.372  26.788  1.00  0.00     0.018 A 
ATOM     11  F   UNL A   1      31.767  30.281  26.724  1.00  0.00    -0.206 F 
BRANCH  10  12
ATOM     12  C   UNL A   1      33.591  28.182  25.967  1.00  0.00    -0.012 A 
ATOM     13  C   UNL A   1      32.710  28.276  24.880  1.00  0.00     0.009 A 
ATOM     14  C   UNL A   1      34.187  26.916  26.192  1.00  0.00     0.056 A 
ATOM     15  C   UNL A   1      32.457  27.165  24.044  1.00  0.00     0.004 A 
ATOM     16  C   UNL A   1      33.996  25.839  25.296  1.00  0.00     0.133 A 
ATOM     17  C   UNL A   1      33.114  25.941  24.229  1.00  0.00     0.047 A 
BRANCH  16  18
ATOM     18  O   UNL A   1      35.114  24.568  25.236  1.00  0.00    -0.410 OA
BRANCH  18  19
ATOM     19  C   UNL A   1      36.432  23.542  25.253  1.00  0.00     0.412 C 
ATOM     20  O   UNL A   1      36.315  22.340  25.009  1.00  0.00    -0.224 OA
ATOM     21  N   UNL A   1      37.670  24.048  25.532  1.00  0.00    -0.321 N 
ATOM     22  H   UNL A   1      37.971  24.860  25.063  1.00  0.00     0.167 HD
BRANCH  21  23
ATOM     23  C   UNL A   1      38.550  23.425  26.497  1.00  0.00     0.120 C 
BRANCH  23  24
ATOM     24  C   UNL A   1      39.265  24.334  27.485  1.00  0.00     0.026 C 
BRANCH  24  25
ATOM     25  C   UNL A   1      40.084  25.491  26.919  1.00  0.00     0.037 C 
BRANCH  25  26
ATOM     26  C   UNL A   1      39.827  26.886  27.442  1.00  0.00    -0.048 A 
ATOM     27  C   UNL A   1      38.989  27.118  28.537  1.00  0.00     0.004 A 
ATOM     28  C   UNL A   1      40.325  27.999  26.748  1.00  0.00     0.004 A 
ATOM     29  C   UNL A   1      38.651  28.416  28.927  1.00  0.00     0.000 A 
ATOM     30  C   UNL A   1      39.976  29.299  27.127  1.00  0.00     0.000 A 
ATOM     31  C   UNL A   1      39.133  29.507  28.216  1.00  0.00     0.000 A 
ENDBRANCH  25  26
ENDBRANCH  24  25
ENDBRANCH  23  24
ENDBRANCH  21  23
ENDBRANCH  18  19
ENDBRANCH  16  18
ENDBRANCH  10  12
ENDBRANCH   3   5
ENDBRANCH   1   3
BRANCH   1  32
ATOM     32  O   UNL A   1      35.963  33.269  30.950  1.00  0.00    -0.462 OA
BRANCH  32  33
ATOM     33  C   UNL A   1      35.727  32.754  32.283  1.00  0.00     0.274 C 
BRANCH  33  34
ATOM     34  C   UNL A   1      37.038  32.375  32.979  1.00  0.00     0.275 C 
BRANCH  34  35
ATOM     35  O   UNL A   1      37.004  30.989  33.354  1.00  0.00    -0.458 OA
BRANCH  35  36
ATOM     36  C   UNL A   1      37.082  30.112  32.336  1.00  0.00     0.338 C 
ATOM     37  O   UNL A   1      36.322  30.016  31.369  1.00  0.00    -0.246 OA
BRANCH  36  38
ATOM     38  C   UNL A   1      38.397  29.481  32.401  1.00  0.00     0.060 A 
ATOM     39  C   UNL A   1      39.482  30.343  32.321  1.00  0.00     0.016 A 
ATOM     40  C   UNL A   1      38.591  28.106  32.560  1.00  0.00     0.016 A 
ATOM     41  C   UNL A   1      40.765  29.842  32.439  1.00  0.00     0.010 A 
ATOM     42  C   UNL A   1      39.897  27.601  32.651  1.00  0.00     0.010 A 
ATOM     43  C   UNL A   1      40.992  28.473  32.599  1.00  0.00    -0.014 A 
BRANCH  43  44
ATOM     44  C   UNL A   1      42.405  28.022  32.557  1.00  0.00     0.031 A 
ATOM     45  C   UNL A   1      43.011  27.709  34.022  1.00  0.00     0.074 A 
ATOM     46  C   UNL A   1      42.905  27.710  31.304  1.00  0.00     0.049 A 
ATOM     47  N   UNL A   1      44.111  27.093  34.359  1.00  0.00    -0.248 NA
ATOM     48  C   UNL A   1      42.261  28.031  35.254  1.00  0.00     0.031 C 
ATOM     49  C   UNL A   1      42.312  27.861  29.956  1.00  0.00     0.029 A 
ATOM     50  N   UNL A   1      44.067  27.098  30.934  1.00  0.00    -0.354 N 
ATOM     51  C   UNL A   1      44.243  26.899  35.712  1.00  0.00     0.074 A 
ATOM     52  C   UNL A   1      43.037  27.530  36.232  1.00  0.00     0.031 C 
ATOM     53  C   UNL A   1      43.178  27.400  29.002  1.00  0.00     0.029 A 
ATOM     54  C   UNL A   1      44.419  26.933  29.627  1.00  0.00     0.049 A 
ATOM     55  H   UNL A   1      44.672  26.763  31.635  1.00  0.00     0.167 HD
ATOM     56  C   UNL A   1      45.291  26.307  36.392  1.00  0.00     0.034 A 
ATOM     57  C   UNL A   1      45.618  26.481  29.127  1.00  0.00     0.034 A 
ATOM     58  C   UNL A   1      46.576  25.752  35.836  1.00  0.00     0.049 A 
ATOM     59  C   UNL A   1      46.897  26.096  30.012  1.00  0.00     0.074 A 
ATOM     60  C   UNL A   1      47.791  25.506  36.473  1.00  0.00     0.029 A 
ATOM     61  N   UNL A   1      46.864  25.372  34.514  1.00  0.00    -0.354 N 
ATOM     62  N   UNL A   1      47.006  25.787  31.285  1.00  0.00    -0.248 NA
ATOM     63  C   UNL A   1      48.220  26.008  29.366  1.00  0.00     0.031 C 
ATOM     64  C   UNL A   1      48.801  25.304  35.494  1.00  0.00     0.029 A 
ATOM     65  C   UNL A   1      48.232  25.319  34.223  1.00  0.00     0.049 A 
ATOM     66  H   UNL A   1      46.166  25.161  33.853  1.00  0.00     0.167 HD
ATOM     67  C   UNL A   1      48.326  25.531  31.635  1.00  0.00     0.074 A 
ATOM     68  C   UNL A   1      49.021  25.609  30.359  1.00  0.00     0.031 C 
ATOM     69  C   UNL A   1      48.894  25.307  32.875  1.00  0.00     0.034 A 
BRANCH  56  70
ATOM     70  C   UNL A   1      45.226  26.468  37.896  1.00  0.00     0.023 A 
ATOM     71  C   UNL A   1      45.431  27.696  38.537  1.00  0.00     0.031 A 
ATOM     72  C   UNL A   1      44.951  25.346  38.703  1.00  0.00     0.131 A 
ATOM     73  C   UNL A   1      45.388  27.762  39.942  1.00  0.00     0.055 A 
ATOM     74  C   UNL A   1      44.871  25.422  40.093  1.00  0.00     0.041 A 
ATOM     75  F   UNL A   1      44.731  24.149  38.142  1.00  0.00    -0.206 F 
ATOM     76  C   UNL A   1      45.099  26.638  40.722  1.00  0.00     0.022 A 
BRANCH  73  77
ATOM     77  S   UNL A   1      45.802  29.329  40.753  1.00  0.00     0.124 S 
ATOM     78  O   UNL A   1      45.831  28.940  42.161  1.00  0.00    -0.237 OA
ATOM     79  O   UNL A   1      47.089  29.658  40.152  1.00  0.00    -0.237 OA
ATOM     80  O   UNL A   1      44.696  30.211  40.381  1.00  0.00    -0.744 OA
ENDBRANCH  73  77
ENDBRANCH  56  70
BRANCH  57  81
ATOM     81  C   UNL A   1      45.822  26.403  27.644  1.00  0.00     0.023 A 
ATOM     82  C   UNL A   1      45.591  25.193  26.958  1.00  0.00     0.031 A 
ATOM     83  C   UNL A   1      46.388  27.462  26.915  1.00  0.00     0.131 A 
ATOM     84  C   UNL A   1      45.973  25.056  25.612  1.00  0.00     0.055 A 
ATOM     85  C   UNL A   1      46.708  27.342  25.560  1.00  0.00     0.041 A 
ATOM     86  F   UNL A   1      46.677  28.628  27.514  1.00  0.00    -0.206 F 
ATOM     87  C   UNL A   1      46.514  26.130  24.904  1.00  0.00     0.022 A 
BRANCH  84  88
ATOM     88  S   UNL A   1      45.850  23.426  24.823  1.00  0.00     0.124 S 
ATOM     89  O   UNL A   1      44.458  23.410  24.385  1.00  0.00    -0.237 OA
ATOM     90  O   UNL A   1      46.853  23.514  23.767  1.00  0.00    -0.237 OA
ATOM     91  O   UNL A   1      46.173  22.498  25.905  1.00  0.00    -0.744 OA
ENDBRANCH  84  88
ENDBRANCH  57  81
BRANCH  69  92
ATOM     92  C   UNL A   1      50.414  25.114  32.884  1.00  0.00     0.023 A 
ATOM     93  C   UNL A   1      51.032  23.846  32.816  1.00  0.00     0.031 A 
ATOM     94  C   UNL A   1      51.262  26.238  32.910  1.00  0.00     0.131 A 
ATOM     95  C   UNL A   1      52.437  23.732  32.840  1.00  0.00     0.055 A 
ATOM     96  C   UNL A   1      52.656  26.123  32.868  1.00  0.00     0.041 A 
ATOM     97  F   UNL A   1      50.750  27.477  32.959  1.00  0.00    -0.206 F 
ATOM     98  C   UNL A   1      53.251  24.865  32.848  1.00  0.00     0.022 A 
BRANCH  95  99
ATOM     99  S   UNL A   1      53.200  22.084  32.949  1.00  0.00     0.124 S 
ATOM    100  O   UNL A   1      54.570  22.351  32.526  1.00  0.00    -0.237 OA
ATOM    101  O   UNL A   1      53.019  21.752  34.357  1.00  0.00    -0.237 OA
ATOM    102  O   UNL A   1      52.411  21.278  32.016  1.00  0.00    -0.744 OA
ENDBRANCH  95  99
ENDBRANCH  69  92
ENDBRANCH  43  44
ENDBRANCH  36  38
ENDBRANCH  35  36
ENDBRANCH  34  35
ENDBRANCH  33  34
ENDBRANCH  32  33
ENDBRANCH   1  32
TORSDOF 22
ENDMDL
MODEL 2
REMARK VINA RESULT:     -10.9      6.300     11.954
REMARK SMILES C[C@@H](C(=O)OCCOC(=O)c1ccc(-c2c3nc(c(-c4cc(S(=O)(=O)[O-])ccc4F)c4ccc([nH]4)c(-c4cc(S(=O)(=O)[O-])ccc4F)c4nc(c(-c5cc(S(=O)(=O)[O-])ccc5F)c5ccc2[nH]5)C=C4)C=C3)cc1)c1ccc(-c2cccc(OC(=O)NCCCc3ccccc3)c2)c(F)c1
REMARK SMILES IDX 3 1 4 2 2 3 1 4 74 5 75 6 99 7 76 8 97 9 77 10 98 11 78 12
REMARK SMILES IDX 79 13 96 14 80 15 82 16 81 17 83 18 84 19 85 20 86 21 87 23
REMARK SMILES IDX 88 24 89 25 90 26 91 27 95 28 92 29 94 30 93 31 5 32 6 33
REMARK SMILES IDX 7 34 8 35 9 36 10 37 11 38 12 39 73 40 13 41 72 42 14 43
REMARK SMILES IDX 15 44 16 45 66 46 17 47 71 48 65 49 67 50 18 51 70 52 64 53
REMARK SMILES IDX 63 54 19 56 51 57 31 58 50 59 32 60 35 61 49 62 68 63 33 64
REMARK SMILES IDX 34 65 48 67 69 68 36 69 20 70 21 71 29 72 22 73 28 74 30 75
REMARK SMILES IDX 27 76 23 77 24 78 25 79 26 80 52 81 53 82 61 83 54 84 60 85
REMARK SMILES IDX 62 86 59 87 55 88 56 89 57 90 58 91 37 92 38 93 46 94 39 95
REMARK SMILES IDX 45 96 47 97 44 98 40 99 41 100 42 101 43 102
REMARK H PARENT 86 22 67 55 35 66
REMARK Flexibility Score: inf
ROOT
ATOM      1  C   UNL A   1      42.036  23.013  26.686  1.00  0.00     0.313 C 
ATOM      2  O   UNL A   1      42.561  23.987  27.213  1.00  0.00    -0.252 OA
ENDROOT
BRANCH   1   3
ATOM      3  C   UNL A   1      40.830  22.236  27.294  1.00  0.00     0.126 C 
ATOM      4  C   UNL A   1      41.267  20.833  27.758  1.00  0.00     0.025 C 
BRANCH   3   5
ATOM      5  C   UNL A   1      39.540  22.241  26.430  1.00  0.00    -0.031 A 
ATOM      6  C   UNL A   1      38.734  23.385  26.252  1.00  0.00     0.005 A 
ATOM      7  C   UNL A   1      39.112  21.091  25.746  1.00  0.00     0.044 A 
ATOM      8  C   UNL A   1      37.511  23.348  25.530  1.00  0.00     0.012 A 
ATOM      9  C   UNL A   1      37.895  21.060  25.026  1.00  0.00     0.131 A 
ATOM     10  C   UNL A   1      37.035  22.169  24.937  1.00  0.00     0.018 A 
ATOM     11  F   UNL A   1      37.549  19.896  24.456  1.00  0.00    -0.206 F 
BRANCH  10  12
ATOM     12  C   UNL A   1      35.664  22.073  24.350  1.00  0.00    -0.012 A 
ATOM     13  C   UNL A   1      34.705  21.179  24.844  1.00  0.00     0.009 A 
ATOM     14  C   UNL A   1      35.240  22.956  23.325  1.00  0.00     0.056 A 
ATOM     15  C   UNL A   1      33.380  21.182  24.354  1.00  0.00     0.004 A 
ATOM     16  C   UNL A   1      33.890  23.011  22.909  1.00  0.00     0.133 A 
ATOM     17  C   UNL A   1      32.951  22.113  23.398  1.00  0.00     0.047 A 
BRANCH  16  18
ATOM     18  O   UNL A   1      33.287  24.397  22.144  1.00  0.00    -0.410 OA
BRANCH  18  19
ATOM     19  C   UNL A   1      32.782  25.914  21.660  1.00  0.00     0.412 C 
ATOM     20  O   UNL A   1      33.581  26.756  21.248  1.00  0.00    -0.224 OA
ATOM     21  N   UNL A   1      31.453  26.224  21.710  1.00  0.00    -0.321 N 
ATOM     22  H   UNL A   1      30.800  25.592  21.330  1.00  0.00     0.167 HD
BRANCH  21  23
ATOM     23  C   UNL A   1      30.978  27.453  22.307  1.00  0.00     0.120 C 
BRANCH  23  24
ATOM     24  C   UNL A   1      30.221  27.348  23.623  1.00  0.00     0.026 C 
BRANCH  24  25
ATOM     25  C   UNL A   1      31.026  27.466  24.914  1.00  0.00     0.037 C 
BRANCH  25  26
ATOM     26  C   UNL A   1      31.893  26.301  25.337  1.00  0.00    -0.048 A 
ATOM     27  C   UNL A   1      31.350  25.160  25.935  1.00  0.00     0.004 A 
ATOM     28  C   UNL A   1      33.290  26.401  25.257  1.00  0.00     0.004 A 
ATOM     29  C   UNL A   1      32.171  24.150  26.443  1.00  0.00     0.000 A 
ATOM     30  C   UNL A   1      34.114  25.398  25.779  1.00  0.00     0.000 A 
ATOM     31  C   UNL A   1      33.553  24.273  26.377  1.00  0.00     0.000 A 
ENDBRANCH  25  26
ENDBRANCH  24  25
ENDBRANCH  23  24
ENDBRANCH  21  23
ENDBRANCH  18  19
ENDBRANCH  16  18
ENDBRANCH  10  12
ENDBRANCH   3   5
ENDBRANCH   1   3
BRANCH   1  32
ATOM     32  O   UNL A   1      42.525  22.434  25.544  1.00  0.00    -0.462 OA
BRANCH  32  33
ATOM     33  C   UNL A   1      43.480  23.185  24.754  1.00  0.00     0.274 C 
BRANCH  33  34
ATOM     34  C   UNL A   1      44.891  22.600  24.876  1.00  0.00     0.275 C 
BRANCH  34  35
ATOM     35  O   UNL A   1      45.671  23.404  25.774  1.00  0.00    -0.458 OA
BRANCH  35  36
ATOM     36  C   UNL A   1      46.342  24.423  25.205  1.00  0.00     0.338 C 
ATOM     37  O   UNL A   1      46.870  24.444  24.090  1.00  0.00    -0.246 OA
BRANCH  36  38
ATOM     38  C   UNL A   1      46.083  25.618  26.004  1.00  0.00     0.060 A 
ATOM     39  C   UNL A   1      45.487  26.675  25.330  1.00  0.00     0.016 A 
ATOM     40  C   UNL A   1      46.379  25.720  27.366  1.00  0.00     0.016 A 
ATOM     41  C   UNL A   1      45.146  27.823  26.019  1.00  0.00     0.010 A 
ATOM     42  C   UNL A   1      46.056  26.899  28.055  1.00  0.00     0.010 A 
ATOM     43  C   UNL A   1      45.428  27.954  27.382  1.00  0.00    -0.014 A 
BRANCH  43  44
ATOM     44  C   UNL A   1      45.166  29.282  27.991  1.00  0.00     0.031 A 
ATOM     45  C   UNL A   1      46.340  30.353  27.696  1.00  0.00     0.074 A 
ATOM     46  C   UNL A   1      43.892  29.477  28.497  1.00  0.00     0.049 A 
ATOM     47  N   UNL A   1      46.355  31.647  27.868  1.00  0.00    -0.248 NA
ATOM     48  C   UNL A   1      47.604  29.954  27.043  1.00  0.00     0.031 C 
ATOM     49  C   UNL A   1      42.754  28.543  28.651  1.00  0.00     0.029 A 
ATOM     50  N   UNL A   1      43.271  30.609  28.937  1.00  0.00    -0.354 N 
ATOM     51  C   UNL A   1      47.488  32.255  27.385  1.00  0.00     0.074 A 
ATOM     52  C   UNL A   1      48.254  31.121  26.882  1.00  0.00     0.031 C 
ATOM     53  C   UNL A   1      41.678  29.192  29.192  1.00  0.00     0.029 A 
ATOM     54  C   UNL A   1      42.015  30.592  29.467  1.00  0.00     0.049 A 
ATOM     55  H   UNL A   1      43.746  31.469  28.870  1.00  0.00     0.167 HD
ATOM     56  C   UNL A   1      47.824  33.594  27.431  1.00  0.00     0.034 A 
ATOM     57  C   UNL A   1      41.344  31.622  30.084  1.00  0.00     0.034 A 
ATOM     58  C   UNL A   1      47.057  34.734  28.050  1.00  0.00     0.049 A 
ATOM     59  C   UNL A   1      41.950  33.080  30.357  1.00  0.00     0.074 A 
ATOM     60  C   UNL A   1      47.501  35.990  28.456  1.00  0.00     0.029 A 
ATOM     61  N   UNL A   1      45.695  34.786  28.392  1.00  0.00    -0.354 N 
ATOM     62  N   UNL A   1      42.961  33.713  29.805  1.00  0.00    -0.248 NA
ATOM     63  C   UNL A   1      41.304  33.954  31.354  1.00  0.00     0.031 C 
ATOM     64  C   UNL A   1      46.511  36.593  29.279  1.00  0.00     0.029 A 
ATOM     65  C   UNL A   1      45.383  35.778  29.330  1.00  0.00     0.049 A 
ATOM     66  H   UNL A   1      45.022  34.180  28.008  1.00  0.00     0.167 HD
ATOM     67  C   UNL A   1      43.140  34.972  30.365  1.00  0.00     0.074 A 
ATOM     68  C   UNL A   1      42.010  35.086  31.274  1.00  0.00     0.031 C 
ATOM     69  C   UNL A   1      44.150  35.898  30.178  1.00  0.00     0.034 A 
BRANCH  56  70
ATOM     70  C   UNL A   1      49.250  33.892  27.020  1.00  0.00     0.023 A 
ATOM     71  C   UNL A   1      50.349  33.631  27.849  1.00  0.00     0.031 A 
ATOM     72  C   UNL A   1      49.506  34.459  25.755  1.00  0.00     0.131 A 
ATOM     73  C   UNL A   1      51.644  33.965  27.413  1.00  0.00     0.055 A 
ATOM     74  C   UNL A   1      50.794  34.753  25.310  1.00  0.00     0.041 A 
ATOM     75  F   UNL A   1      48.494  34.715  24.915  1.00  0.00    -0.206 F 
ATOM     76  C   UNL A   1      51.874  34.513  26.147  1.00  0.00     0.022 A 
BRANCH  73  77
ATOM     77  S   UNL A   1      53.031  33.754  28.560  1.00  0.00     0.124 S 
ATOM     78  O   UNL A   1      52.473  32.823  29.537  1.00  0.00    -0.237 OA
ATOM     79  O   UNL A   1      54.073  33.221  27.690  1.00  0.00    -0.237 OA
ATOM     80  O   UNL A   1      53.268  35.106  29.064  1.00  0.00    -0.744 OA
ENDBRANCH  73  77
ENDBRANCH  56  70
BRANCH  57  81
ATOM     81  C   UNL A   1      39.969  31.389  30.634  1.00  0.00     0.023 A 
ATOM     82  C   UNL A   1      38.841  31.921  29.977  1.00  0.00     0.031 A 
ATOM     83  C   UNL A   1      39.763  30.780  31.884  1.00  0.00     0.131 A 
ATOM     84  C   UNL A   1      37.578  31.882  30.591  1.00  0.00     0.055 A 
ATOM     85  C   UNL A   1      38.495  30.688  32.463  1.00  0.00     0.041 A 
ATOM     86  F   UNL A   1      40.798  30.293  32.587  1.00  0.00    -0.206 F 
ATOM     87  C   UNL A   1      37.395  31.252  31.823  1.00  0.00     0.022 A 
BRANCH  84  88
ATOM     88  S   UNL A   1      36.191  32.755  29.810  1.00  0.00     0.124 S 
ATOM     89  O   UNL A   1      35.339  31.648  29.391  1.00  0.00    -0.237 OA
ATOM     90  O   UNL A   1      35.683  33.576  30.904  1.00  0.00    -0.237 OA
ATOM     91  O   UNL A   1      36.825  33.499  28.723  1.00  0.00    -0.744 OA
ENDBRANCH  84  88
ENDBRANCH  57  81
BRANCH  69  92
ATOM     92  C   UNL A   1      44.044  37.174  31.020  1.00  0.00     0.023 A 
ATOM     93  C   UNL A   1      43.451  38.365  30.545  1.00  0.00     0.031 A 
ATOM     94  C   UNL A   1      44.507  37.176  32.349  1.00  0.00     0.131 A 
ATOM     95  C   UNL A   1      43.394  39.510  31.363  1.00  0.00     0.055 A 
ATOM     96  C   UNL A   1      44.389  38.297  33.179  1.00  0.00     0.041 A 
ATOM     97  F   UNL A   1      45.069  36.077  32.877  1.00  0.00    -0.206 F 
ATOM     98  C   UNL A   1      43.845  39.476  32.683  1.00  0.00     0.022 A 
BRANCH  95  99
ATOM     99  S   UNL A   1      42.803  41.083  30.663  1.00  0.00     0.124 S 
ATOM    100  O   UNL A   1      41.544  41.282  31.370  1.00  0.00    -0.237 OA
ATOM    101  O   UNL A   1      43.883  42.000  31.009  1.00  0.00    -0.237 OA
ATOM    102  O   UNL A   1      42.672  40.794  29.234  1.00  0.00    -0.744 OA
ENDBRANCH  95  99
ENDBRANCH  69  92
ENDBRANCH  43  44
ENDBRANCH  36  38
ENDBRANCH  35  36
ENDBRANCH  34  35
ENDBRANCH  33  34
ENDBRANCH  32  33
ENDBRANCH   1  32
TORSDOF 22
ENDMDL
MODEL 3
REMARK VINA RESULT:     -10.6      4.346      9.652
REMARK SMILES C[C@@H](C(=O)OCCOC(=O)c1ccc(-c2c3nc(c(-c4cc(S(=O)(=O)[O-])ccc4F)c4ccc([nH]4)c(-c4cc(S(=O)(=O)[O-])ccc4F)c4nc(c(-c5cc(S(=O)(=O)[O-])ccc5F)c5ccc2[nH]5)C=C4)C=C3)cc1)c1ccc(-c2cccc(OC(=O)NCCCc3ccccc3)c2)c(F)c1
REMARK SMILES IDX 3 1 4 2 2 3 1 4 74 5 75 6 99 7 76 8 97 9 77 10 98 11 78 12
REMARK SMILES IDX 79 13 96 14 80 15 82 16 81 17 83 18 84 19 85 20 86 21 87 23
REMARK SMILES IDX 88 24 89 25 90 26 91 27 95 28 92 29 94 30 93 31 5 32 6 33
REMARK SMILES IDX 7 34 8 35 9 36 10 37 11 38 12 39 73 40 13 41 72 42 14 43
REMARK SMILES IDX 15 44 16 45 66 46 17 47 71 48 65 49 67 50 18 51 70 52 64 53
REMARK SMILES IDX 63 54 19 56 51 57 31 58 50 59 32 60 35 61 49 62 68 63 33 64
REMARK SMILES IDX 34 65 48 67 69 68 36 69 20 70 21 71 29 72 22 73 28 74 30 75
REMARK SMILES IDX 27 76 23 77 24 78 25 79 26 80 52 81 53 82 61 83 54 84 60 85
REMARK SMILES IDX 62 86 59 87 55 88 56 89 57 90 58 91 37 92 38 93 46 94 39 95
REMARK SMILES IDX 45 96 47 97 44 98 40 99 41 100 42 101 43 102
REMARK H PARENT 86 22 67 55 35 66
REMARK Flexibility Score: inf
ROOT
ATOM      1  C   UNL A   1      42.237  22.048  25.758  1.00  0.00     0.313 C 
ATOM      2  O   UNL A   1      42.961  21.204  25.243  1.00  0.00    -0.252 OA
ENDROOT
BRANCH   1   3
ATOM      3  C   UNL A   1      41.131  21.725  26.808  1.00  0.00     0.126 C 
ATOM      4  C   UNL A   1      41.490  20.453  27.600  1.00  0.00     0.025 C 
BRANCH   3   5
ATOM      5  C   UNL A   1      39.678  21.739  26.261  1.00  0.00    -0.031 A 
ATOM      6  C   UNL A   1      39.100  20.652  25.574  1.00  0.00     0.005 A 
ATOM      7  C   UNL A   1      38.836  22.848  26.450  1.00  0.00     0.044 A 
ATOM      8  C   UNL A   1      37.799  20.716  25.007  1.00  0.00     0.012 A 
ATOM      9  C   UNL A   1      37.540  22.907  25.884  1.00  0.00     0.131 A 
ATOM     10  C   UNL A   1      37.002  21.866  25.106  1.00  0.00     0.018 A 
ATOM     11  F   UNL A   1      36.839  24.034  26.074  1.00  0.00    -0.206 F 
BRANCH  10  12
ATOM     12  C   UNL A   1      35.724  22.014  24.348  1.00  0.00    -0.012 A 
ATOM     13  C   UNL A   1      34.631  21.162  24.560  1.00  0.00     0.009 A 
ATOM     14  C   UNL A   1      35.525  23.087  23.443  1.00  0.00     0.056 A 
ATOM     15  C   UNL A   1      33.392  21.387  23.919  1.00  0.00     0.004 A 
ATOM     16  C   UNL A   1      34.256  23.354  22.880  1.00  0.00     0.133 A 
ATOM     17  C   UNL A   1      33.183  22.498  23.089  1.00  0.00     0.047 A 
BRANCH  16  18
ATOM     18  O   UNL A   1      33.889  24.900  22.293  1.00  0.00    -0.410 OA
BRANCH  18  19
ATOM     19  C   UNL A   1      33.247  26.383  21.871  1.00  0.00     0.412 C 
ATOM     20  O   UNL A   1      33.970  27.351  21.630  1.00  0.00    -0.224 OA
ATOM     21  N   UNL A   1      31.892  26.524  21.780  1.00  0.00    -0.321 N 
ATOM     22  H   UNL A   1      31.375  25.856  21.272  1.00  0.00     0.167 HD
BRANCH  21  23
ATOM     23  C   UNL A   1      31.194  27.625  22.408  1.00  0.00     0.120 C 
BRANCH  23  24
ATOM     24  C   UNL A   1      30.692  27.419  23.830  1.00  0.00     0.026 C 
BRANCH  24  25
ATOM     25  C   UNL A   1      30.263  26.010  24.232  1.00  0.00     0.037 C 
BRANCH  25  26
ATOM     26  C   UNL A   1      31.223  25.163  25.036  1.00  0.00    -0.048 A 
ATOM     27  C   UNL A   1      30.813  23.984  25.665  1.00  0.00     0.004 A 
ATOM     28  C   UNL A   1      32.527  25.620  25.281  1.00  0.00     0.004 A 
ATOM     29  C   UNL A   1      31.671  23.281  26.515  1.00  0.00     0.000 A 
ATOM     30  C   UNL A   1      33.383  24.926  26.143  1.00  0.00     0.000 A 
ATOM     31  C   UNL A   1      32.952  23.758  26.765  1.00  0.00     0.000 A 
ENDBRANCH  25  26
ENDBRANCH  24  25
ENDBRANCH  23  24
ENDBRANCH  21  23
ENDBRANCH  18  19
ENDBRANCH  16  18
ENDBRANCH  10  12
ENDBRANCH   3   5
ENDBRANCH   1   3
BRANCH   1  32
ATOM     32  O   UNL A   1      42.252  23.367  25.386  1.00  0.00    -0.462 OA
BRANCH  32  33
ATOM     33  C   UNL A   1      43.103  24.275  26.128  1.00  0.00     0.274 C 
BRANCH  33  34
ATOM     34  C   UNL A   1      43.276  25.609  25.394  1.00  0.00     0.275 C 
BRANCH  34  35
ATOM     35  O   UNL A   1      43.492  26.660  26.348  1.00  0.00    -0.458 OA
BRANCH  35  36
ATOM     36  C   UNL A   1      42.380  27.271  26.799  1.00  0.00     0.338 C 
ATOM     37  O   UNL A   1      41.316  27.433  26.196  1.00  0.00    -0.246 OA
BRANCH  36  38
ATOM     38  C   UNL A   1      42.532  27.449  28.240  1.00  0.00     0.060 A 
ATOM     39  C   UNL A   1      43.818  27.737  28.678  1.00  0.00     0.016 A 
ATOM     40  C   UNL A   1      41.474  27.366  29.148  1.00  0.00     0.016 A 
ATOM     41  C   UNL A   1      44.046  27.985  30.018  1.00  0.00     0.010 A 
ATOM     42  C   UNL A   1      41.717  27.592  30.513  1.00  0.00     0.010 A 
ATOM     43  C   UNL A   1      43.007  27.912  30.951  1.00  0.00    -0.014 A 
BRANCH  43  44
ATOM     44  C   UNL A   1      43.386  28.039  32.380  1.00  0.00     0.031 A 
ATOM     45  C   UNL A   1      44.097  26.710  32.964  1.00  0.00     0.074 A 
ATOM     46  C   UNL A   1      43.300  29.311  32.920  1.00  0.00     0.049 A 
ATOM     47  N   UNL A   1      44.753  26.533  34.079  1.00  0.00    -0.248 NA
ATOM     48  C   UNL A   1      44.173  25.463  32.175  1.00  0.00     0.031 C 
ATOM     49  C   UNL A   1      42.778  30.574  32.353  1.00  0.00     0.029 A 
ATOM     50  N   UNL A   1      43.744  29.806  34.112  1.00  0.00    -0.354 N 
ATOM     51  C   UNL A   1      45.332  25.292  34.187  1.00  0.00     0.074 A 
ATOM     52  C   UNL A   1      44.916  24.650  32.946  1.00  0.00     0.031 C 
ATOM     53  C   UNL A   1      42.913  31.592  33.257  1.00  0.00     0.029 A 
ATOM     54  C   UNL A   1      43.507  31.091  34.499  1.00  0.00     0.049 A 
ATOM     55  H   UNL A   1      44.252  29.214  34.712  1.00  0.00     0.167 HD
ATOM     56  C   UNL A   1      46.067  24.782  35.240  1.00  0.00     0.034 A 
ATOM     57  C   UNL A   1      43.758  31.663  35.725  1.00  0.00     0.034 A 
ATOM     58  C   UNL A   1      46.397  25.434  36.558  1.00  0.00     0.049 A 
ATOM     59  C   UNL A   1      44.349  30.889  36.998  1.00  0.00     0.074 A 
ATOM     60  C   UNL A   1      46.785  24.858  37.765  1.00  0.00     0.029 A 
ATOM     61  N   UNL A   1      46.364  26.799  36.889  1.00  0.00    -0.354 N 
ATOM     62  N   UNL A   1      45.015  29.759  37.089  1.00  0.00    -0.248 NA
ATOM     63  C   UNL A   1      44.204  31.488  38.337  1.00  0.00     0.031 C 
ATOM     64  C   UNL A   1      46.661  25.820  38.805  1.00  0.00     0.029 A 
ATOM     65  C   UNL A   1      46.289  27.048  38.265  1.00  0.00     0.049 A 
ATOM     66  H   UNL A   1      46.392  27.516  36.215  1.00  0.00     0.167 HD
ATOM     67  C   UNL A   1      45.324  29.456  38.409  1.00  0.00     0.074 A 
ATOM     68  C   UNL A   1      44.855  30.631  39.129  1.00  0.00     0.031 C 
ATOM     69  C   UNL A   1      45.887  28.318  38.957  1.00  0.00     0.034 A 
BRANCH  56  70
ATOM     70  C   UNL A   1      46.357  23.300  35.135  1.00  0.00     0.023 A 
ATOM     71  C   UNL A   1      47.615  22.796  34.780  1.00  0.00     0.031 A 
ATOM     72  C   UNL A   1      45.331  22.370  35.401  1.00  0.00     0.131 A 
ATOM     73  C   UNL A   1      47.802  21.406  34.671  1.00  0.00     0.055 A 
ATOM     74  C   UNL A   1      45.530  20.992  35.329  1.00  0.00     0.041 A 
ATOM     75  F   UNL A   1      44.113  22.795  35.760  1.00  0.00    -0.206 F 
ATOM     76  C   UNL A   1      46.773  20.502  34.953  1.00  0.00     0.022 A 
BRANCH  73  77
ATOM     77  S   UNL A   1      49.395  20.786  34.068  1.00  0.00     0.124 S 
ATOM     78  O   UNL A   1      50.080  22.024  33.703  1.00  0.00    -0.237 OA
ATOM     79  O   UNL A   1      49.916  20.086  35.236  1.00  0.00    -0.237 OA
ATOM     80  O   UNL A   1      49.025  19.932  32.941  1.00  0.00    -0.744 OA
ENDBRANCH  73  77
ENDBRANCH  56  70
BRANCH  57  81
ATOM     81  C   UNL A   1      43.391  33.097  35.965  1.00  0.00     0.023 A 
ATOM     82  C   UNL A   1      42.059  33.449  36.265  1.00  0.00     0.031 A 
ATOM     83  C   UNL A   1      44.305  34.143  35.752  1.00  0.00     0.131 A 
ATOM     84  C   UNL A   1      41.671  34.800  36.288  1.00  0.00     0.055 A 
ATOM     85  C   UNL A   1      43.928  35.486  35.838  1.00  0.00     0.041 A 
ATOM     86  F   UNL A   1      45.579  33.882  35.418  1.00  0.00    -0.206 F 
ATOM     87  C   UNL A   1      42.602  35.821  36.095  1.00  0.00     0.022 A 
BRANCH  84  88
ATOM     88  S   UNL A   1      39.911  35.206  36.474  1.00  0.00     0.124 S 
ATOM     89  O   UNL A   1      39.756  36.302  35.522  1.00  0.00    -0.237 OA
ATOM     90  O   UNL A   1      39.261  33.950  36.114  1.00  0.00    -0.237 OA
ATOM     91  O   UNL A   1      39.794  35.582  37.881  1.00  0.00    -0.744 OA
ENDBRANCH  84  88
ENDBRANCH  57  81
BRANCH  69  92
ATOM     92  C   UNL A   1      46.029  28.317  40.483  1.00  0.00     0.023 A 
ATOM     93  C   UNL A   1      47.049  29.018  41.163  1.00  0.00     0.031 A 
ATOM     94  C   UNL A   1      45.085  27.634  41.274  1.00  0.00     0.131 A 
ATOM     95  C   UNL A   1      47.135  28.969  42.569  1.00  0.00     0.055 A 
ATOM     96  C   UNL A   1      45.138  27.642  42.672  1.00  0.00     0.041 A 
ATOM     97  F   UNL A   1      44.077  26.958  40.701  1.00  0.00    -0.206 F 
ATOM     98  C   UNL A   1      46.175  28.299  43.326  1.00  0.00     0.022 A 
BRANCH  95  99
ATOM     99  S   UNL A   1      48.568  29.717  43.404  1.00  0.00     0.124 S 
ATOM    100  O   UNL A   1      49.315  30.285  42.288  1.00  0.00    -0.237 OA
ATOM    101  O   UNL A   1      47.936  30.676  44.304  1.00  0.00    -0.237 OA
ATOM    102  O   UNL A   1      49.212  28.581  44.065  1.00  0.00    -0.744 OA
ENDBRANCH  95  99
ENDBRANCH  69  92
ENDBRANCH  43  44
ENDBRANCH  36  38
ENDBRANCH  35  36
ENDBRANCH  34  35
ENDBRANCH  33  34
ENDBRANCH  32  33
ENDBRANCH   1  32
TORSDOF 22
ENDMDL
