MODEL 1
REMARK VINA RESULT:     -11.1      0.000      0.000
REMARK SMILES O=C(C[C@@H]1CSCC[NH2+]1)NC[C@@H](C(=O)OCCOC(=O)c1ccc(-c2c3nc(c(-c4cc(S(=O)(=O)[O-])ccc4F)c4ccc([nH]4)c(-c4cc(S(=O)(=O)[O-])ccc4F)c4nc(c(-c5cc(S(=O)(=O)[O-])ccc5F)c5ccc2[nH]5)C=C4)C=C3)cc1)c1ccccc1
REMARK SMILES IDX 16 1 15 2 13 3 14 4 12 5 11 6 10 7 1 8 2 9 3 11 4 12 5 13
REMARK SMILES IDX 9 14 6 15 8 16 7 19 84 20 85 21 89 22 86 23 88 24 87 25
REMARK SMILES IDX 17 26 18 27 19 28 20 29 21 30 22 31 83 32 23 33 82 34 24 35
REMARK SMILES IDX 25 36 26 37 76 38 27 39 81 40 75 41 77 42 28 43 80 44 74 45
REMARK SMILES IDX 73 46 29 48 61 49 41 50 60 51 42 52 45 53 59 54 78 55 43 56
REMARK SMILES IDX 44 57 58 59 79 60 46 61 30 62 31 63 39 64 32 65 38 66 40 67
REMARK SMILES IDX 37 68 33 69 34 70 35 71 36 72 62 73 63 74 71 75 64 76 70 77
REMARK SMILES IDX 72 78 69 79 65 80 66 81 67 82 68 83 47 84 48 85 56 86 49 87
REMARK SMILES IDX 55 88 57 89 54 90 50 91 51 92 52 93 53 94
REMARK H PARENT 10 10 9 17 9 18 77 47 45 58
REMARK Flexibility Score: inf
ROOT
ATOM      1  C   UNL A   1      35.803  22.144  26.670  1.00  0.00     0.274 C 
ENDROOT
BRANCH   1   2
ATOM      2  O   UNL A   1      34.973  23.292  26.383  1.00  0.00    -0.462 OA
BRANCH   2   3
ATOM      3  C   UNL A   1      33.670  23.243  26.800  1.00  0.00     0.315 C 
ATOM      4  O   UNL A   1      33.322  22.629  27.801  1.00  0.00    -0.251 OA
BRANCH   3   5
ATOM      5  C   UNL A   1      32.698  23.959  25.830  1.00  0.00     0.148 C 
BRANCH   5   6
ATOM      6  C   UNL A   1      32.880  23.468  24.379  1.00  0.00     0.136 C 
BRANCH   6   7
ATOM      7  N   UNL A   1      33.104  22.034  24.263  1.00  0.00    -0.355 N 
ATOM      8  O   UNL A   1      31.111  21.414  25.201  1.00  0.00    -0.275 OA
ATOM      9  C   UNL A   1      32.142  21.119  24.604  1.00  0.00     0.226 C 
ATOM     10  H   UNL A   1      33.973  21.711  23.928  1.00  0.00     0.163 HD
BRANCH   9  11
ATOM     11  C   UNL A   1      32.464  19.685  24.259  1.00  0.00     0.165 C 
BRANCH  11  12
ATOM     12  C   UNL A   1      33.525  18.970  25.127  1.00  0.00     0.201 C 
ATOM     13  C   UNL A   1      34.663  18.202  24.418  1.00  0.00     0.135 C 
ATOM     14  N   UNL A   1      32.882  18.148  26.189  1.00  0.00    -0.342 N 
ATOM     15  S   UNL A   1      34.102  16.706  23.564  1.00  0.00    -0.150 SA
ATOM     16  C   UNL A   1      32.301  16.894  25.667  1.00  0.00     0.271 C 
ATOM     17  H   UNL A   1      32.138  18.696  26.621  1.00  0.00     0.346 HD
ATOM     18  H   UNL A   1      33.604  17.895  26.862  1.00  0.00     0.346 HD
ATOM     19  C   UNL A   1      33.293  15.939  24.994  1.00  0.00     0.131 C 
ENDBRANCH  11  12
ENDBRANCH   9  11
ENDBRANCH   6   7
ENDBRANCH   5   6
BRANCH   5  20
ATOM     20  C   UNL A   1      32.758  25.496  25.959  1.00  0.00    -0.032 A 
ATOM     21  C   UNL A   1      33.762  26.217  25.285  1.00  0.00     0.004 A 
ATOM     22  C   UNL A   1      31.846  26.240  26.735  1.00  0.00     0.004 A 
ATOM     23  C   UNL A   1      33.824  27.614  25.346  1.00  0.00     0.000 A 
ATOM     24  C   UNL A   1      31.924  27.635  26.816  1.00  0.00     0.000 A 
ATOM     25  C   UNL A   1      32.908  28.324  26.114  1.00  0.00     0.000 A 
ENDBRANCH   5  20
ENDBRANCH   3   5
ENDBRANCH   2   3
ENDBRANCH   1   2
BRANCH   1  26
ATOM     26  C   UNL A   1      36.395  21.585  25.377  1.00  0.00     0.275 C 
BRANCH  26  27
ATOM     27  O   UNL A   1      37.691  22.166  25.162  1.00  0.00    -0.458 OA
BRANCH  27  28
ATOM     28  C   UNL A   1      38.690  21.706  25.953  1.00  0.00     0.338 C 
ATOM     29  O   UNL A   1      39.050  20.553  26.101  1.00  0.00    -0.246 OA
BRANCH  28  30
ATOM     30  C   UNL A   1      39.391  22.873  26.508  1.00  0.00     0.060 A 
ATOM     31  C   UNL A   1      39.032  24.124  26.017  1.00  0.00     0.016 A 
ATOM     32  C   UNL A   1      40.400  22.753  27.461  1.00  0.00     0.016 A 
ATOM     33  C   UNL A   1      39.683  25.266  26.464  1.00  0.00     0.010 A 
ATOM     34  C   UNL A   1      41.033  23.912  27.937  1.00  0.00     0.010 A 
ATOM     35  C   UNL A   1      40.681  25.180  27.439  1.00  0.00    -0.014 A 
BRANCH  35  36
ATOM     36  C   UNL A   1      41.355  26.425  27.892  1.00  0.00     0.031 A 
ATOM     37  C   UNL A   1      40.588  27.449  28.680  1.00  0.00     0.074 A 
ATOM     38  C   UNL A   1      42.672  26.607  27.659  1.00  0.00     0.049 A 
ATOM     39  N   UNL A   1      40.956  28.646  29.058  1.00  0.00    -0.248 NA
ATOM     40  C   UNL A   1      39.233  27.072  29.109  1.00  0.00     0.031 C 
ATOM     41  C   UNL A   1      43.556  25.640  27.004  1.00  0.00     0.029 A 
ATOM     42  N   UNL A   1      43.501  27.662  27.955  1.00  0.00    -0.354 N 
ATOM     43  C   UNL A   1      39.869  29.181  29.739  1.00  0.00     0.074 A 
ATOM     44  C   UNL A   1      38.828  28.174  29.726  1.00  0.00     0.031 C 
ATOM     45  C   UNL A   1      44.799  26.143  26.955  1.00  0.00     0.029 A 
ATOM     46  C   UNL A   1      44.789  27.499  27.496  1.00  0.00     0.049 A 
ATOM     47  H   UNL A   1      43.202  28.459  28.450  1.00  0.00     0.167 HD
ATOM     48  C   UNL A   1      39.751  30.403  30.311  1.00  0.00     0.034 A 
ATOM     49  C   UNL A   1      45.826  28.361  27.459  1.00  0.00     0.034 A 
ATOM     50  C   UNL A   1      40.803  31.389  30.338  1.00  0.00     0.049 A 
ATOM     51  C   UNL A   1      45.627  29.756  27.999  1.00  0.00     0.074 A 
ATOM     52  C   UNL A   1      40.784  32.654  30.899  1.00  0.00     0.029 A 
ATOM     53  N   UNL A   1      42.061  31.224  29.775  1.00  0.00    -0.354 N 
ATOM     54  N   UNL A   1      44.572  30.272  28.587  1.00  0.00    -0.248 NA
ATOM     55  C   UNL A   1      46.750  30.692  27.851  1.00  0.00     0.031 C 
ATOM     56  C   UNL A   1      42.005  33.277  30.618  1.00  0.00     0.029 A 
ATOM     57  C   UNL A   1      42.810  32.380  29.938  1.00  0.00     0.049 A 
ATOM     58  H   UNL A   1      42.376  30.406  29.327  1.00  0.00     0.167 HD
ATOM     59  C   UNL A   1      44.911  31.589  28.884  1.00  0.00     0.074 A 
ATOM     60  C   UNL A   1      46.275  31.780  28.439  1.00  0.00     0.031 C 
ATOM     61  C   UNL A   1      44.161  32.559  29.466  1.00  0.00     0.034 A 
BRANCH  48  62
ATOM     62  C   UNL A   1      38.408  30.777  30.883  1.00  0.00     0.023 A 
ATOM     63  C   UNL A   1      37.427  31.439  30.128  1.00  0.00     0.031 A 
ATOM     64  C   UNL A   1      38.111  30.451  32.219  1.00  0.00     0.131 A 
ATOM     65  C   UNL A   1      36.206  31.787  30.727  1.00  0.00     0.055 A 
ATOM     66  C   UNL A   1      36.875  30.748  32.792  1.00  0.00     0.041 A 
ATOM     67  F   UNL A   1      39.024  29.837  32.990  1.00  0.00    -0.206 F 
ATOM     68  C   UNL A   1      35.917  31.428  32.046  1.00  0.00     0.022 A 
BRANCH  65  69
ATOM     69  S   UNL A   1      35.026  32.795  29.787  1.00  0.00     0.124 S 
ATOM     70  O   UNL A   1      35.904  33.798  29.191  1.00  0.00    -0.237 OA
ATOM     71  O   UNL A   1      34.446  31.824  28.865  1.00  0.00    -0.237 OA
ATOM     72  O   UNL A   1      34.115  33.301  30.811  1.00  0.00    -0.744 OA
ENDBRANCH  65  69
ENDBRANCH  48  62
BRANCH  49  73
ATOM     73  C   UNL A   1      47.109  27.987  26.794  1.00  0.00     0.023 A 
ATOM     74  C   UNL A   1      47.255  28.048  25.399  1.00  0.00     0.031 A 
ATOM     75  C   UNL A   1      48.184  27.470  27.544  1.00  0.00     0.131 A 
ATOM     76  C   UNL A   1      48.422  27.553  24.795  1.00  0.00     0.055 A 
ATOM     77  C   UNL A   1      49.367  27.040  26.944  1.00  0.00     0.041 A 
ATOM     78  F   UNL A   1      48.095  27.372  28.880  1.00  0.00    -0.206 F 
ATOM     79  C   UNL A   1      49.484  27.063  25.559  1.00  0.00     0.022 A 
BRANCH  76  80
ATOM     80  S   UNL A   1      48.485  27.438  22.985  1.00  0.00     0.124 S 
ATOM     81  O   UNL A   1      47.297  28.189  22.597  1.00  0.00    -0.237 OA
ATOM     82  O   UNL A   1      49.768  28.067  22.688  1.00  0.00    -0.237 OA
ATOM     83  O   UNL A   1      48.424  26.000  22.733  1.00  0.00    -0.744 OA
ENDBRANCH  76  80
ENDBRANCH  49  73
BRANCH  61  84
ATOM     84  C   UNL A   1      44.818  33.901  29.662  1.00  0.00     0.023 A 
ATOM     85  C   UNL A   1      44.614  34.956  28.753  1.00  0.00     0.031 A 
ATOM     86  C   UNL A   1      45.671  34.125  30.755  1.00  0.00     0.131 A 
ATOM     87  C   UNL A   1      45.294  36.170  28.928  1.00  0.00     0.055 A 
ATOM     88  C   UNL A   1      46.305  35.352  30.954  1.00  0.00     0.041 A 
ATOM     89  F   UNL A   1      45.902  33.151  31.651  1.00  0.00    -0.206 F 
ATOM     90  C   UNL A   1      46.126  36.380  30.031  1.00  0.00     0.022 A 
BRANCH  87  91
ATOM     91  S   UNL A   1      45.134  37.450  27.654  1.00  0.00     0.124 S 
ATOM     92  O   UNL A   1      44.015  36.952  26.860  1.00  0.00    -0.237 OA
ATOM     93  O   UNL A   1      44.870  38.649  28.444  1.00  0.00    -0.237 OA
ATOM     94  O   UNL A   1      46.431  37.427  26.979  1.00  0.00    -0.744 OA
ENDBRANCH  87  91
ENDBRANCH  61  84
ENDBRANCH  35  36
ENDBRANCH  28  30
ENDBRANCH  27  28
ENDBRANCH  26  27
ENDBRANCH   1  26
TORSDOF 19
ENDMDL
MODEL 2
REMARK VINA RESULT:     -11.1      5.358      9.898
REMARK SMILES O=C(C[C@@H]1CSCC[NH2+]1)NC[C@@H](C(=O)OCCOC(=O)c1ccc(-c2c3nc(c(-c4cc(S(=O)(=O)[O-])ccc4F)c4ccc([nH]4)c(-c4cc(S(=O)(=O)[O-])ccc4F)c4nc(c(-c5cc(S(=O)(=O)[O-])ccc5F)c5ccc2[nH]5)C=C4)C=C3)cc1)c1ccccc1
REMARK SMILES IDX 16 1 15 2 13 3 14 4 12 5 11 6 10 7 1 8 2 9 3 11 4 12 5 13
REMARK SMILES IDX 9 14 6 15 8 16 7 19 84 20 85 21 89 22 86 23 88 24 87 25
REMARK SMILES IDX 17 26 18 27 19 28 20 29 21 30 22 31 83 32 23 33 82 34 24 35
REMARK SMILES IDX 25 36 26 37 76 38 27 39 81 40 75 41 77 42 28 43 80 44 74 45
REMARK SMILES IDX 73 46 29 48 61 49 41 50 60 51 42 52 45 53 59 54 78 55 43 56
REMARK SMILES IDX 44 57 58 59 79 60 46 61 30 62 31 63 39 64 32 65 38 66 40 67
REMARK SMILES IDX 37 68 33 69 34 70 35 71 36 72 62 73 63 74 71 75 64 76 70 77
REMARK SMILES IDX 72 78 69 79 65 80 66 81 67 82 68 83 47 84 48 85 56 86 49 87
REMARK SMILES IDX 55 88 57 89 54 90 50 91 51 92 52 93 53 94
REMARK H PARENT 10 10 9 17 9 18 77 47 45 58
REMARK Flexibility Score: inf
ROOT
ATOM      1  C   UNL A   1      31.401  28.871  25.232  1.00  0.00     0.274 C 
ENDROOT
BRANCH   1   2
ATOM      2  O   UNL A   1      31.511  27.448  25.002  1.00  0.00    -0.462 OA
BRANCH   2   3
ATOM      3  C   UNL A   1      30.374  26.783  24.631  1.00  0.00     0.315 C 
ATOM      4  O   UNL A   1      29.720  26.109  25.418  1.00  0.00    -0.251 OA
BRANCH   3   5
ATOM      5  C   UNL A   1      30.069  26.904  23.118  1.00  0.00     0.148 C 
BRANCH   5   6
ATOM      6  C   UNL A   1      31.315  26.599  22.262  1.00  0.00     0.136 C 
BRANCH   6   7
ATOM      7  N   UNL A   1      31.869  25.269  22.475  1.00  0.00    -0.355 N 
ATOM      8  O   UNL A   1      34.030  25.839  21.984  1.00  0.00    -0.275 OA
ATOM      9  C   UNL A   1      33.216  25.024  22.407  1.00  0.00     0.226 C 
ATOM     10  H   UNL A   1      31.257  24.523  22.674  1.00  0.00     0.163 HD
BRANCH   9  11
ATOM     11  C   UNL A   1      33.641  23.637  22.826  1.00  0.00     0.165 C 
BRANCH  11  12
ATOM     12  C   UNL A   1      33.334  23.214  24.282  1.00  0.00     0.201 C 
ATOM     13  C   UNL A   1      33.858  24.101  25.433  1.00  0.00     0.135 C 
ATOM     14  N   UNL A   1      33.656  21.777  24.501  1.00  0.00    -0.342 N 
ATOM     15  S   UNL A   1      35.660  24.057  25.616  1.00  0.00    -0.150 SA
ATOM     16  C   UNL A   1      35.108  21.528  24.615  1.00  0.00     0.271 C 
ATOM     17  H   UNL A   1      33.295  21.238  23.714  1.00  0.00     0.346 HD
ATOM     18  H   UNL A   1      33.226  21.496  25.381  1.00  0.00     0.346 HD
ATOM     19  C   UNL A   1      35.812  22.256  25.766  1.00  0.00     0.131 C 
ENDBRANCH  11  12
ENDBRANCH   9  11
ENDBRANCH   6   7
ENDBRANCH   5   6
BRANCH   5  20
ATOM     20  C   UNL A   1      29.399  28.245  22.754  1.00  0.00    -0.032 A 
ATOM     21  C   UNL A   1      30.113  29.206  22.012  1.00  0.00     0.004 A 
ATOM     22  C   UNL A   1      28.082  28.577  23.131  1.00  0.00     0.004 A 
ATOM     23  C   UNL A   1      29.527  30.418  21.629  1.00  0.00     0.000 A 
ATOM     24  C   UNL A   1      27.504  29.799  22.769  1.00  0.00     0.000 A 
ATOM     25  C   UNL A   1      28.223  30.716  22.010  1.00  0.00     0.000 A 
ENDBRANCH   5  20
ENDBRANCH   3   5
ENDBRANCH   2   3
ENDBRANCH   1   2
BRANCH   1  26
ATOM     26  C   UNL A   1      32.133  29.255  26.517  1.00  0.00     0.275 C 
BRANCH  26  27
ATOM     27  O   UNL A   1      33.248  30.100  26.189  1.00  0.00    -0.458 OA
BRANCH  27  28
ATOM     28  C   UNL A   1      33.462  31.153  27.013  1.00  0.00     0.338 C 
ATOM     29  O   UNL A   1      32.702  32.072  27.257  1.00  0.00    -0.246 OA
BRANCH  28  30
ATOM     30  C   UNL A   1      34.741  30.926  27.702  1.00  0.00     0.060 A 
ATOM     31  C   UNL A   1      35.001  29.636  28.151  1.00  0.00     0.016 A 
ATOM     32  C   UNL A   1      35.652  31.953  27.940  1.00  0.00     0.016 A 
ATOM     33  C   UNL A   1      36.170  29.358  28.849  1.00  0.00     0.010 A 
ATOM     34  C   UNL A   1      36.848  31.663  28.615  1.00  0.00     0.010 A 
ATOM     35  C   UNL A   1      37.115  30.361  29.079  1.00  0.00    -0.014 A 
BRANCH  35  36
ATOM     36  C   UNL A   1      38.353  30.025  29.830  1.00  0.00     0.031 A 
ATOM     37  C   UNL A   1      39.355  29.073  29.239  1.00  0.00     0.074 A 
ATOM     38  C   UNL A   1      38.616  30.627  31.009  1.00  0.00     0.049 A 
ATOM     39  N   UNL A   1      40.427  28.559  29.783  1.00  0.00    -0.248 NA
ATOM     40  C   UNL A   1      39.123  28.652  27.849  1.00  0.00     0.031 C 
ATOM     41  C   UNL A   1      37.781  31.653  31.638  1.00  0.00     0.029 A 
ATOM     42  N   UNL A   1      39.663  30.472  31.885  1.00  0.00    -0.354 N 
ATOM     43  C   UNL A   1      40.982  27.728  28.817  1.00  0.00     0.074 A 
ATOM     44  C   UNL A   1      40.129  27.810  27.650  1.00  0.00     0.031 C 
ATOM     45  C   UNL A   1      38.351  32.037  32.791  1.00  0.00     0.029 A 
ATOM     46  C   UNL A   1      39.544  31.230  33.028  1.00  0.00     0.049 A 
ATOM     47  H   UNL A   1      40.427  29.875  31.711  1.00  0.00     0.167 HD
ATOM     48  C   UNL A   1      42.096  26.961  28.904  1.00  0.00     0.034 A 
ATOM     49  C   UNL A   1      40.275  31.234  34.162  1.00  0.00     0.034 A 
ATOM     50  C   UNL A   1      42.951  26.906  30.064  1.00  0.00     0.049 A 
ATOM     51  C   UNL A   1      41.442  30.283  34.274  1.00  0.00     0.074 A 
ATOM     52  C   UNL A   1      44.106  26.166  30.248  1.00  0.00     0.029 A 
ATOM     53  N   UNL A   1      42.743  27.614  31.239  1.00  0.00    -0.354 N 
ATOM     54  N   UNL A   1      41.922  29.455  33.375  1.00  0.00    -0.248 NA
ATOM     55  C   UNL A   1      42.150  30.250  35.561  1.00  0.00     0.031 C 
ATOM     56  C   UNL A   1      44.558  26.375  31.555  1.00  0.00     0.029 A 
ATOM     57  C   UNL A   1      43.724  27.295  32.167  1.00  0.00     0.049 A 
ATOM     58  H   UNL A   1      42.008  28.250  31.393  1.00  0.00     0.167 HD
ATOM     59  C   UNL A   1      42.993  28.811  33.988  1.00  0.00     0.074 A 
ATOM     60  C   UNL A   1      43.108  29.366  35.320  1.00  0.00     0.031 C 
ATOM     61  C   UNL A   1      43.807  27.841  33.499  1.00  0.00     0.034 A 
BRANCH  48  62
ATOM     62  C   UNL A   1      42.409  26.054  27.744  1.00  0.00     0.023 A 
ATOM     63  C   UNL A   1      41.915  24.742  27.660  1.00  0.00     0.031 A 
ATOM     64  C   UNL A   1      43.218  26.528  26.695  1.00  0.00     0.131 A 
ATOM     65  C   UNL A   1      42.266  23.935  26.566  1.00  0.00     0.055 A 
ATOM     66  C   UNL A   1      43.517  25.741  25.582  1.00  0.00     0.041 A 
ATOM     67  F   UNL A   1      43.732  27.768  26.737  1.00  0.00    -0.206 F 
ATOM     68  C   UNL A   1      43.047  24.433  25.518  1.00  0.00     0.022 A 
BRANCH  65  69
ATOM     69  S   UNL A   1      41.764  22.193  26.567  1.00  0.00     0.124 S 
ATOM     70  O   UNL A   1      42.442  21.689  25.376  1.00  0.00    -0.237 OA
ATOM     71  O   UNL A   1      42.279  21.716  27.846  1.00  0.00    -0.237 OA
ATOM     72  O   UNL A   1      40.308  22.256  26.468  1.00  0.00    -0.744 OA
ENDBRANCH  65  69
ENDBRANCH  48  62
BRANCH  49  73
ATOM     73  C   UNL A   1      39.875  32.075  35.329  1.00  0.00     0.023 A 
ATOM     74  C   UNL A   1      39.075  31.560  36.361  1.00  0.00     0.031 A 
ATOM     75  C   UNL A   1      40.211  33.442  35.379  1.00  0.00     0.131 A 
ATOM     76  C   UNL A   1      38.597  32.414  37.368  1.00  0.00     0.055 A 
ATOM     77  C   UNL A   1      39.786  34.272  36.416  1.00  0.00     0.041 A 
ATOM     78  F   UNL A   1      40.959  33.994  34.410  1.00  0.00    -0.206 F 
ATOM     79  C   UNL A   1      38.959  33.762  37.411  1.00  0.00     0.022 A 
BRANCH  76  80
ATOM     80  S   UNL A   1      37.386  31.767  38.556  1.00  0.00     0.124 S 
ATOM     81  O   UNL A   1      37.129  30.434  38.024  1.00  0.00    -0.237 OA
ATOM     82  O   UNL A   1      38.133  31.826  39.809  1.00  0.00    -0.237 OA
ATOM     83  O   UNL A   1      36.272  32.707  38.453  1.00  0.00    -0.744 OA
ENDBRANCH  76  80
ENDBRANCH  49  73
BRANCH  61  84
ATOM     84  C   UNL A   1      44.896  27.341  34.414  1.00  0.00     0.023 A 
ATOM     85  C   UNL A   1      44.685  26.248  35.274  1.00  0.00     0.031 A 
ATOM     86  C   UNL A   1      46.150  27.974  34.441  1.00  0.00     0.131 A 
ATOM     87  C   UNL A   1      45.696  25.852  36.161  1.00  0.00     0.055 A 
ATOM     88  C   UNL A   1      47.171  27.542  35.289  1.00  0.00     0.041 A 
ATOM     89  F   UNL A   1      46.402  29.023  33.642  1.00  0.00    -0.206 F 
ATOM     90  C   UNL A   1      46.943  26.482  36.163  1.00  0.00     0.022 A 
BRANCH  87  91
ATOM     91  S   UNL A   1      45.337  24.545  37.366  1.00  0.00     0.124 S 
ATOM     92  O   UNL A   1      44.170  25.083  38.059  1.00  0.00    -0.237 OA
ATOM     93  O   UNL A   1      45.093  23.388  36.511  1.00  0.00    -0.237 OA
ATOM     94  O   UNL A   1      46.556  24.474  38.170  1.00  0.00    -0.744 OA
ENDBRANCH  87  91
ENDBRANCH  61  84
ENDBRANCH  35  36
ENDBRANCH  28  30
ENDBRANCH  27  28
ENDBRANCH  26  27
ENDBRANCH   1  26
TORSDOF 19
ENDMDL
MODEL 3
REMARK VINA RESULT:     -10.6      5.014      9.600
REMARK SMILES O=C(C[C@@H]1CSCC[NH2+]1)NC[C@@H](C(=O)OCCOC(=O)c1ccc(-c2c3nc(c(-c4cc(S(=O)(=O)[O-])ccc4F)c4ccc([nH]4)c(-c4cc(S(=O)(=O)[O-])ccc4F)c4nc(c(-c5cc(S(=O)(=O)[O-])ccc5F)c5ccc2[nH]5)C=C4)C=C3)cc1)c1ccccc1
REMARK SMILES IDX 16 1 15 2 13 3 14 4 12 5 11 6 10 7 1 8 2 9 3 11 4 12 5 13
REMARK SMILES IDX 9 14 6 15 8 16 7 19 84 20 85 21 89 22 86 23 88 24 87 25
REMARK SMILES IDX 17 26 18 27 19 28 20 29 21 30 22 31 83 32 23 33 82 34 24 35
REMARK SMILES IDX 25 36 26 37 76 38 27 39 81 40 75 41 77 42 28 43 80 44 74 45
REMARK SMILES IDX 73 46 29 48 61 49 41 50 60 51 42 52 45 53 59 54 78 55 43 56
REMARK SMILES IDX 44 57 58 59 79 60 46 61 30 62 31 63 39 64 32 65 38 66 40 67
REMARK SMILES IDX 37 68 33 69 34 70 35 71 36 72 62 73 63 74 71 75 64 76 70 77
REMARK SMILES IDX 72 78 69 79 65 80 66 81 67 82 68 83 47 84 48 85 56 86 49 87
REMARK SMILES IDX 55 88 57 89 54 90 50 91 51 92 52 93 53 94
REMARK H PARENT 10 10 9 17 9 18 77 47 45 58
REMARK Flexibility Score: inf
ROOT
ATOM      1  C   UNL A   1      31.879  28.125  24.804  1.00  0.00     0.274 C 
ENDROOT
BRANCH   1   2
ATOM      2  O   UNL A   1      30.578  27.602  25.151  1.00  0.00    -0.462 OA
BRANCH   2   3
ATOM      3  C   UNL A   1      30.127  26.522  24.440  1.00  0.00     0.315 C 
ATOM      4  O   UNL A   1      29.323  26.628  23.521  1.00  0.00    -0.251 OA
BRANCH   3   5
ATOM      5  C   UNL A   1      30.666  25.175  24.980  1.00  0.00     0.148 C 
BRANCH   5   6
ATOM      6  C   UNL A   1      31.418  25.359  26.314  1.00  0.00     0.136 C 
BRANCH   6   7
ATOM      7  N   UNL A   1      32.732  24.733  26.345  1.00  0.00    -0.355 N 
ATOM      8  O   UNL A   1      32.115  22.965  27.660  1.00  0.00    -0.275 OA
ATOM      9  C   UNL A   1      32.945  23.520  26.948  1.00  0.00     0.226 C 
ATOM     10  H   UNL A   1      33.491  25.194  25.918  1.00  0.00     0.163 HD
BRANCH   9  11
ATOM     11  C   UNL A   1      34.318  22.928  26.737  1.00  0.00     0.165 C 
BRANCH  11  12
ATOM     12  C   UNL A   1      34.928  23.045  25.321  1.00  0.00     0.201 C 
ATOM     13  C   UNL A   1      35.198  21.749  24.526  1.00  0.00     0.135 C 
ATOM     14  N   UNL A   1      36.111  23.949  25.321  1.00  0.00    -0.342 N 
ATOM     15  S   UNL A   1      36.543  20.746  25.211  1.00  0.00    -0.150 SA
ATOM     16  C   UNL A   1      37.312  23.320  25.909  1.00  0.00     0.271 C 
ATOM     17  H   UNL A   1      35.884  24.784  25.862  1.00  0.00     0.346 HD
ATOM     18  H   UNL A   1      36.326  24.175  24.351  1.00  0.00     0.346 HD
ATOM     19  C   UNL A   1      37.802  22.051  25.203  1.00  0.00     0.131 C 
ENDBRANCH  11  12
ENDBRANCH   9  11
ENDBRANCH   6   7
ENDBRANCH   5   6
BRANCH   5  20
ATOM     20  C   UNL A   1      31.486  24.400  23.927  1.00  0.00    -0.032 A 
ATOM     21  C   UNL A   1      31.284  23.017  23.760  1.00  0.00     0.004 A 
ATOM     22  C   UNL A   1      32.453  25.010  23.102  1.00  0.00     0.004 A 
ATOM     23  C   UNL A   1      31.980  22.288  22.789  1.00  0.00     0.000 A 
ATOM     24  C   UNL A   1      33.166  24.275  22.147  1.00  0.00     0.000 A 
ATOM     25  C   UNL A   1      32.924  22.916  21.985  1.00  0.00     0.000 A 
ENDBRANCH   5  20
ENDBRANCH   3   5
ENDBRANCH   2   3
ENDBRANCH   1   2
BRANCH   1  26
ATOM     26  C   UNL A   1      31.967  29.605  25.173  1.00  0.00     0.275 C 
BRANCH  26  27
ATOM     27  O   UNL A   1      32.552  29.731  26.480  1.00  0.00    -0.458 OA
BRANCH  27  28
ATOM     28  C   UNL A   1      32.887  30.985  26.865  1.00  0.00     0.338 C 
ATOM     29  O   UNL A   1      32.207  31.992  26.796  1.00  0.00    -0.246 OA
BRANCH  28  30
ATOM     30  C   UNL A   1      34.191  30.908  27.541  1.00  0.00     0.060 A 
ATOM     31  C   UNL A   1      34.647  29.645  27.902  1.00  0.00     0.016 A 
ATOM     32  C   UNL A   1      34.938  32.043  27.850  1.00  0.00     0.016 A 
ATOM     33  C   UNL A   1      35.849  29.502  28.583  1.00  0.00     0.010 A 
ATOM     34  C   UNL A   1      36.170  31.893  28.507  1.00  0.00     0.010 A 
ATOM     35  C   UNL A   1      36.634  30.618  28.882  1.00  0.00    -0.014 A 
BRANCH  35  36
ATOM     36  C   UNL A   1      37.915  30.424  29.612  1.00  0.00     0.031 A 
ATOM     37  C   UNL A   1      39.016  29.611  28.992  1.00  0.00     0.074 A 
ATOM     38  C   UNL A   1      38.118  31.034  30.798  1.00  0.00     0.049 A 
ATOM     39  N   UNL A   1      40.151  29.224  29.513  1.00  0.00    -0.248 NA
ATOM     40  C   UNL A   1      38.818  29.188  27.598  1.00  0.00     0.031 C 
ATOM     41  C   UNL A   1      37.174  31.940  31.456  1.00  0.00     0.029 A 
ATOM     42  N   UNL A   1      39.189  30.994  31.659  1.00  0.00    -0.354 N 
ATOM     43  C   UNL A   1      40.790  28.483  28.526  1.00  0.00     0.074 A 
ATOM     44  C   UNL A   1      39.916  28.479  27.371  1.00  0.00     0.031 C 
ATOM     45  C   UNL A   1      37.709  32.373  32.609  1.00  0.00     0.029 A 
ATOM     46  C   UNL A   1      38.995  31.714  32.817  1.00  0.00     0.049 A 
ATOM     47  H   UNL A   1      40.018  30.498  31.465  1.00  0.00     0.167 HD
ATOM     48  C   UNL A   1      41.990  27.857  28.586  1.00  0.00     0.034 A 
ATOM     49  C   UNL A   1      39.737  31.789  33.941  1.00  0.00     0.034 A 
ATOM     50  C   UNL A   1      42.862  27.888  29.734  1.00  0.00     0.049 A 
ATOM     51  C   UNL A   1      41.012  30.985  34.022  1.00  0.00     0.074 A 
ATOM     52  C   UNL A   1      44.101  27.291  29.890  1.00  0.00     0.029 A 
ATOM     53  N   UNL A   1      42.586  28.546  30.924  1.00  0.00    -0.354 N 
ATOM     54  N   UNL A   1      41.577  30.238  33.102  1.00  0.00    -0.248 NA
ATOM     55  C   UNL A   1      41.738  31.018  35.299  1.00  0.00     0.031 C 
ATOM     56  C   UNL A   1      44.543  27.532  31.196  1.00  0.00     0.029 A 
ATOM     57  C   UNL A   1      43.611  28.333  31.834  1.00  0.00     0.049 A 
ATOM     58  H   UNL A   1      41.781  29.085  31.098  1.00  0.00     0.167 HD
ATOM     59  C   UNL A   1      42.727  29.719  33.691  1.00  0.00     0.074 A 
ATOM     60  C   UNL A   1      42.792  30.262  35.031  1.00  0.00     0.031 C 
ATOM     61  C   UNL A   1      43.646  28.864  33.174  1.00  0.00     0.034 A 
BRANCH  48  62
ATOM     62  C   UNL A   1      42.394  27.013  27.405  1.00  0.00     0.023 A 
ATOM     63  C   UNL A   1      42.172  25.628  27.360  1.00  0.00     0.031 A 
ATOM     64  C   UNL A   1      43.011  27.625  26.298  1.00  0.00     0.131 A 
ATOM     65  C   UNL A   1      42.599  24.892  26.243  1.00  0.00     0.055 A 
ATOM     66  C   UNL A   1      43.381  26.897  25.167  1.00  0.00     0.041 A 
ATOM     67  F   UNL A   1      43.265  28.944  26.302  1.00  0.00    -0.206 F 
ATOM     68  C   UNL A   1      43.183  25.521  25.139  1.00  0.00     0.022 A 
BRANCH  65  69
ATOM     69  S   UNL A   1      42.462  23.084  26.282  1.00  0.00     0.124 S 
ATOM     70  O   UNL A   1      42.874  22.727  24.927  1.00  0.00    -0.237 OA
ATOM     71  O   UNL A   1      43.388  22.720  27.349  1.00  0.00    -0.237 OA
ATOM     72  O   UNL A   1      41.050  22.853  26.578  1.00  0.00    -0.744 OA
ENDBRANCH  65  69
ENDBRANCH  48  62
BRANCH  49  73
ATOM     73  C   UNL A   1      39.253  32.555  35.128  1.00  0.00     0.023 A 
ATOM     74  C   UNL A   1      39.692  33.864  35.381  1.00  0.00     0.031 A 
ATOM     75  C   UNL A   1      38.414  31.947  36.082  1.00  0.00     0.131 A 
ATOM     76  C   UNL A   1      39.333  34.502  36.579  1.00  0.00     0.055 A 
ATOM     77  C   UNL A   1      38.008  32.610  37.241  1.00  0.00     0.041 A 
ATOM     78  F   UNL A   1      37.977  30.691  35.902  1.00  0.00    -0.206 F 
ATOM     79  C   UNL A   1      38.482  33.890  37.503  1.00  0.00     0.022 A 
BRANCH  76  80
ATOM     80  S   UNL A   1      40.097  36.100  36.978  1.00  0.00     0.124 S 
ATOM     81  O   UNL A   1      41.466  35.707  37.290  1.00  0.00    -0.237 OA
ATOM     82  O   UNL A   1      39.909  36.842  35.735  1.00  0.00    -0.237 OA
ATOM     83  O   UNL A   1      39.310  36.580  38.112  1.00  0.00    -0.744 OA
ENDBRANCH  76  80
ENDBRANCH  49  73
BRANCH  61  84
ATOM     84  C   UNL A   1      44.801  28.486  34.067  1.00  0.00     0.023 A 
ATOM     85  C   UNL A   1      44.726  27.380  34.932  1.00  0.00     0.031 A 
ATOM     86  C   UNL A   1      45.981  29.249  34.067  1.00  0.00     0.131 A 
ATOM     87  C   UNL A   1      45.792  27.097  35.798  1.00  0.00     0.055 A 
ATOM     88  C   UNL A   1      47.060  28.932  34.893  1.00  0.00     0.041 A 
ATOM     89  F   UNL A   1      46.103  30.317  33.261  1.00  0.00    -0.206 F 
ATOM     90  C   UNL A   1      46.964  27.856  35.773  1.00  0.00     0.022 A 
BRANCH  87  91
ATOM     91  S   UNL A   1      45.599  25.764  37.012  1.00  0.00     0.124 S 
ATOM     92  O   UNL A   1      46.815  25.898  37.807  1.00  0.00    -0.237 OA
ATOM     93  O   UNL A   1      44.355  26.127  37.684  1.00  0.00    -0.237 OA
ATOM     94  O   UNL A   1      45.527  24.557  36.189  1.00  0.00    -0.744 OA
ENDBRANCH  87  91
ENDBRANCH  61  84
ENDBRANCH  35  36
ENDBRANCH  28  30
ENDBRANCH  27  28
ENDBRANCH  26  27
ENDBRANCH   1  26
TORSDOF 19
ENDMDL
