MODEL 1
REMARK VINA RESULT:     -13.1      0.000      0.000
REMARK SMILES O=C(OCCOC(=O)c1cc(N2C(=O)[C@H]3[C@@H]4C=C[C@@H]([C@@H]5C[C@H]45)[C@@H]3C2=O)ccc1Cl)c1ccc(-c2c3nc(c(-c4cc(S(=O)(=O)[O-])ccc4F)c4ccc([nH]4)c(-c4cc(S(=O)(=O)[O-])ccc4F)c4nc(c(-c5cc(S(=O)(=O)[O-])ccc5F)c5ccc2[nH]5)C=C4)C=C3)cc1
REMARK SMILES IDX 4 1 3 2 2 3 1 4 30 5 31 6 92 7 32 8 91 9 33 10 34 11 35 12
REMARK SMILES IDX 85 13 36 14 90 15 84 16 86 17 37 18 89 19 83 20 82 21 38 23
REMARK SMILES IDX 70 24 50 25 69 26 51 27 54 28 68 29 87 30 52 31 53 32 67 34
REMARK SMILES IDX 88 35 55 36 39 37 40 38 48 39 41 40 47 41 49 42 46 43 42 44
REMARK SMILES IDX 43 45 44 46 45 47 71 48 72 49 80 50 73 51 79 52 81 53 78 54
REMARK SMILES IDX 74 55 75 56 76 57 77 58 56 59 57 60 65 61 58 62 64 63 66 64
REMARK SMILES IDX 63 65 59 66 60 67 61 68 62 69 5 70 6 71 7 72 8 73 9 74 10 75
REMARK SMILES IDX 28 76 11 77 27 78 29 79 26 80 12 81 13 82 24 83 14 84 15 85
REMARK SMILES IDX 23 86 25 87 16 88 19 89 17 90 22 91 18 92 20 93 21 94
REMARK H PARENT 86 22 54 33
REMARK Flexibility Score: inf
ROOT
ATOM      1  C   UNL A   1      31.784  30.762  26.118  1.00  0.00     0.275 C 
ENDROOT
BRANCH   1   2
ATOM      2  O   UNL A   1      33.140  30.697  26.579  1.00  0.00    -0.458 OA
BRANCH   2   3
ATOM      3  C   UNL A   1      33.794  31.497  27.451  1.00  0.00     0.338 C 
ATOM      4  O   UNL A   1      33.312  32.608  27.678  1.00  0.00    -0.246 OA
BRANCH   3   5
ATOM      5  C   UNL A   1      35.131  31.174  28.055  1.00  0.00     0.060 A 
ATOM      6  C   UNL A   1      36.301  31.934  28.007  1.00  0.00     0.016 A 
ATOM      7  C   UNL A   1      35.194  29.953  28.738  1.00  0.00     0.016 A 
ATOM      8  C   UNL A   1      37.469  31.515  28.670  1.00  0.00     0.010 A 
ATOM      9  C   UNL A   1      36.339  29.540  29.425  1.00  0.00     0.010 A 
ATOM     10  C   UNL A   1      37.497  30.314  29.380  1.00  0.00    -0.014 A 
BRANCH  10  11
ATOM     11  C   UNL A   1      38.765  29.785  29.937  1.00  0.00     0.031 A 
ATOM     12  C   UNL A   1      39.267  30.345  31.239  1.00  0.00     0.074 A 
ATOM     13  C   UNL A   1      39.458  28.828  29.292  1.00  0.00     0.049 A 
ATOM     14  N   UNL A   1      40.321  30.011  31.936  1.00  0.00    -0.248 NA
ATOM     15  C   UNL A   1      38.466  31.425  31.837  1.00  0.00     0.031 C 
ATOM     16  C   UNL A   1      39.059  28.207  28.030  1.00  0.00     0.029 A 
ATOM     17  N   UNL A   1      40.646  28.215  29.600  1.00  0.00    -0.354 N 
ATOM     18  C   UNL A   1      40.287  30.810  33.072  1.00  0.00     0.074 A 
ATOM     19  C   UNL A   1      39.168  31.713  32.921  1.00  0.00     0.031 C 
ATOM     20  C   UNL A   1      40.000  27.326  27.654  1.00  0.00     0.029 A 
ATOM     21  C   UNL A   1      41.069  27.315  28.649  1.00  0.00     0.049 A 
ATOM     22  H   UNL A   1      41.150  28.402  30.426  1.00  0.00     0.167 HD
ATOM     23  C   UNL A   1      41.089  30.766  34.165  1.00  0.00     0.034 A 
ATOM     24  C   UNL A   1      42.191  26.570  28.593  1.00  0.00     0.034 A 
ATOM     25  C   UNL A   1      42.228  29.892  34.274  1.00  0.00     0.049 A 
ATOM     26  C   UNL A   1      43.141  26.616  29.764  1.00  0.00     0.074 A 
ATOM     27  C   UNL A   1      43.121  29.756  35.321  1.00  0.00     0.029 A 
ATOM     28  N   UNL A   1      42.644  29.015  33.278  1.00  0.00    -0.354 N 
ATOM     29  N   UNL A   1      43.056  27.327  30.866  1.00  0.00    -0.248 NA
ATOM     30  C   UNL A   1      44.315  25.737  29.702  1.00  0.00     0.031 C 
ATOM     31  C   UNL A   1      44.109  28.842  34.934  1.00  0.00     0.029 A 
ATOM     32  C   UNL A   1      43.798  28.357  33.672  1.00  0.00     0.049 A 
ATOM     33  H   UNL A   1      42.185  28.881  32.417  1.00  0.00     0.167 HD
ATOM     34  C   UNL A   1      44.139  26.942  31.651  1.00  0.00     0.074 A 
ATOM     35  C   UNL A   1      44.863  25.939  30.892  1.00  0.00     0.031 C 
ATOM     36  C   UNL A   1      44.497  27.362  32.893  1.00  0.00     0.034 A 
BRANCH  23  37
ATOM     37  C   UNL A   1      40.750  31.715  35.288  1.00  0.00     0.023 A 
ATOM     38  C   UNL A   1      39.710  31.427  36.193  1.00  0.00     0.031 A 
ATOM     39  C   UNL A   1      41.394  32.958  35.402  1.00  0.00     0.131 A 
ATOM     40  C   UNL A   1      39.278  32.405  37.101  1.00  0.00     0.055 A 
ATOM     41  C   UNL A   1      41.016  33.895  36.366  1.00  0.00     0.041 A 
ATOM     42  F   UNL A   1      42.378  33.298  34.555  1.00  0.00    -0.206 F 
ATOM     43  C   UNL A   1      39.939  33.630  37.209  1.00  0.00     0.022 A 
BRANCH  40  44
ATOM     44  S   UNL A   1      37.737  32.116  38.017  1.00  0.00     0.124 S 
ATOM     45  O   UNL A   1      36.861  33.140  37.449  1.00  0.00    -0.237 OA
ATOM     46  O   UNL A   1      37.416  30.738  37.668  1.00  0.00    -0.237 OA
ATOM     47  O   UNL A   1      38.120  32.337  39.409  1.00  0.00    -0.744 OA
ENDBRANCH  40  44
ENDBRANCH  23  37
BRANCH  24  48
ATOM     48  C   UNL A   1      42.479  25.721  27.400  1.00  0.00     0.023 A 
ATOM     49  C   UNL A   1      42.079  24.377  27.339  1.00  0.00     0.031 A 
ATOM     50  C   UNL A   1      43.202  26.241  26.310  1.00  0.00     0.131 A 
ATOM     51  C   UNL A   1      42.440  23.586  26.235  1.00  0.00     0.055 A 
ATOM     52  C   UNL A   1      43.525  25.462  25.196  1.00  0.00     0.041 A 
ATOM     53  F   UNL A   1      43.601  27.524  26.310  1.00  0.00    -0.206 F 
ATOM     54  C   UNL A   1      43.154  24.122  25.160  1.00  0.00     0.022 A 
BRANCH  51  55
ATOM     55  S   UNL A   1      42.026  21.819  26.254  1.00  0.00     0.124 S 
ATOM     56  O   UNL A   1      42.900  21.296  25.211  1.00  0.00    -0.237 OA
ATOM     57  O   UNL A   1      42.368  21.447  27.624  1.00  0.00    -0.237 OA
ATOM     58  O   UNL A   1      40.599  21.799  25.943  1.00  0.00    -0.744 OA
ENDBRANCH  51  55
ENDBRANCH  24  48
BRANCH  36  59
ATOM     59  C   UNL A   1      45.693  26.691  33.520  1.00  0.00     0.023 A 
ATOM     60  C   UNL A   1      45.574  25.492  34.242  1.00  0.00     0.031 A 
ATOM     61  C   UNL A   1      46.969  27.268  33.394  1.00  0.00     0.131 A 
ATOM     62  C   UNL A   1      46.704  24.936  34.858  1.00  0.00     0.055 A 
ATOM     63  C   UNL A   1      48.100  26.678  33.958  1.00  0.00     0.041 A 
ATOM     64  F   UNL A   1      47.137  28.414  32.714  1.00  0.00    -0.206 F 
ATOM     65  C   UNL A   1      47.969  25.512  34.706  1.00  0.00     0.022 A 
BRANCH  62  66
ATOM     66  S   UNL A   1      46.485  23.493  35.933  1.00  0.00     0.124 S 
ATOM     67  O   UNL A   1      45.032  23.348  35.953  1.00  0.00    -0.237 OA
ATOM     68  O   UNL A   1      47.219  22.454  35.217  1.00  0.00    -0.237 OA
ATOM     69  O   UNL A   1      47.084  23.913  37.199  1.00  0.00    -0.744 OA
ENDBRANCH  62  66
ENDBRANCH  36  59
ENDBRANCH  10  11
ENDBRANCH   3   5
ENDBRANCH   2   3
ENDBRANCH   1   2
BRANCH   1  70
ATOM     70  C   UNL A   1      31.409  29.676  25.112  1.00  0.00     0.275 C 
BRANCH  70  71
ATOM     71  O   UNL A   1      30.462  30.119  24.131  1.00  0.00    -0.458 OA
BRANCH  71  72
ATOM     72  C   UNL A   1      30.316  29.324  23.043  1.00  0.00     0.339 C 
ATOM     73  O   UNL A   1      30.218  29.683  21.880  1.00  0.00    -0.246 OA
BRANCH  72  74
ATOM     74  C   UNL A   1      30.378  27.905  23.435  1.00  0.00     0.080 A 
ATOM     75  C   UNL A   1      31.653  27.311  23.557  1.00  0.00     0.044 A 
ATOM     76  C   UNL A   1      29.221  27.137  23.614  1.00  0.00     0.055 A 
ATOM     77  C   UNL A   1      31.764  25.946  23.836  1.00  0.00     0.053 A 
ATOM     78  C   UNL A   1      29.339  25.782  23.925  1.00  0.00     0.023 A 
ATOM     79  Cl  UNL A   1      27.627  27.771  23.407  1.00  0.00    -0.083 Cl
ATOM     80  C   UNL A   1      30.600  25.187  24.016  1.00  0.00     0.028 A 
BRANCH  77  81
ATOM     81  N   UNL A   1      33.017  25.315  23.975  1.00  0.00    -0.250 N 
ATOM     82  C   UNL A   1      33.662  25.132  25.207  1.00  0.00     0.238 C 
ATOM     83  C   UNL A   1      33.574  24.488  22.981  1.00  0.00     0.238 C 
ATOM     84  O   UNL A   1      33.334  25.428  26.336  1.00  0.00    -0.274 OA
ATOM     85  C   UNL A   1      34.911  24.411  24.851  1.00  0.00     0.100 C 
ATOM     86  C   UNL A   1      34.335  23.486  23.781  1.00  0.00     0.100 C 
ATOM     87  O   UNL A   1      33.381  24.472  21.779  1.00  0.00    -0.274 OA
ATOM     88  C   UNL A   1      35.894  23.640  25.742  1.00  0.00     0.028 C 
ATOM     89  C   UNL A   1      35.354  22.390  23.498  1.00  0.00     0.028 C 
ATOM     90  C   UNL A   1      37.091  23.543  24.764  1.00  0.00    -0.026 C 
ATOM     91  C   UNL A   1      35.528  22.176  26.034  1.00  0.00     0.001 C 
ATOM     92  C   UNL A   1      36.786  22.956  23.583  1.00  0.00    -0.026 C 
ATOM     93  C   UNL A   1      35.225  21.421  24.730  1.00  0.00     0.001 C 
ATOM     94  C   UNL A   1      34.201  21.498  25.864  1.00  0.00     0.009 C 
ENDBRANCH  77  81
ENDBRANCH  72  74
ENDBRANCH  71  72
ENDBRANCH  70  71
ENDBRANCH   1  70
TORSDOF 15
ENDMDL
MODEL 2
REMARK VINA RESULT:     -13.0      1.142      1.881
REMARK SMILES O=C(OCCOC(=O)c1cc(N2C(=O)[C@H]3[C@@H]4C=C[C@@H]([C@@H]5C[C@H]45)[C@@H]3C2=O)ccc1Cl)c1ccc(-c2c3nc(c(-c4cc(S(=O)(=O)[O-])ccc4F)c4ccc([nH]4)c(-c4cc(S(=O)(=O)[O-])ccc4F)c4nc(c(-c5cc(S(=O)(=O)[O-])ccc5F)c5ccc2[nH]5)C=C4)C=C3)cc1
REMARK SMILES IDX 4 1 3 2 2 3 1 4 30 5 31 6 92 7 32 8 91 9 33 10 34 11 35 12
REMARK SMILES IDX 85 13 36 14 90 15 84 16 86 17 37 18 89 19 83 20 82 21 38 23
REMARK SMILES IDX 70 24 50 25 69 26 51 27 54 28 68 29 87 30 52 31 53 32 67 34
REMARK SMILES IDX 88 35 55 36 39 37 40 38 48 39 41 40 47 41 49 42 46 43 42 44
REMARK SMILES IDX 43 45 44 46 45 47 71 48 72 49 80 50 73 51 79 52 81 53 78 54
REMARK SMILES IDX 74 55 75 56 76 57 77 58 56 59 57 60 65 61 58 62 64 63 66 64
REMARK SMILES IDX 63 65 59 66 60 67 61 68 62 69 5 70 6 71 7 72 8 73 9 74 10 75
REMARK SMILES IDX 28 76 11 77 27 78 29 79 26 80 12 81 13 82 24 83 14 84 15 85
REMARK SMILES IDX 23 86 25 87 16 88 19 89 17 90 22 91 18 92 20 93 21 94
REMARK H PARENT 86 22 54 33
REMARK Flexibility Score: inf
ROOT
ATOM      1  C   UNL A   1      31.975  32.534  26.846  1.00  0.00     0.275 C 
ENDROOT
BRANCH   1   2
ATOM      2  O   UNL A   1      32.729  33.210  27.861  1.00  0.00    -0.458 OA
BRANCH   2   3
ATOM      3  C   UNL A   1      34.037  33.551  27.881  1.00  0.00     0.338 C 
ATOM      4  O   UNL A   1      34.367  34.581  27.292  1.00  0.00    -0.246 OA
BRANCH   3   5
ATOM      5  C   UNL A   1      35.126  32.691  28.456  1.00  0.00     0.060 A 
ATOM      6  C   UNL A   1      34.999  31.450  29.084  1.00  0.00     0.016 A 
ATOM      7  C   UNL A   1      36.418  33.220  28.351  1.00  0.00     0.016 A 
ATOM      8  C   UNL A   1      36.129  30.741  29.530  1.00  0.00     0.010 A 
ATOM      9  C   UNL A   1      37.551  32.513  28.763  1.00  0.00     0.010 A 
ATOM     10  C   UNL A   1      37.412  31.268  29.376  1.00  0.00    -0.014 A 
BRANCH  10  11
ATOM     11  C   UNL A   1      38.588  30.609  29.992  1.00  0.00     0.031 A 
ATOM     12  C   UNL A   1      39.032  31.060  31.355  1.00  0.00     0.074 A 
ATOM     13  C   UNL A   1      39.249  29.630  29.347  1.00  0.00     0.049 A 
ATOM     14  N   UNL A   1      40.001  30.605  32.106  1.00  0.00    -0.248 NA
ATOM     15  C   UNL A   1      38.278  32.174  31.953  1.00  0.00     0.031 C 
ATOM     16  C   UNL A   1      38.898  29.107  28.027  1.00  0.00     0.029 A 
ATOM     17  N   UNL A   1      40.358  28.905  29.705  1.00  0.00    -0.354 N 
ATOM     18  C   UNL A   1      39.945  31.349  33.279  1.00  0.00     0.074 A 
ATOM     19  C   UNL A   1      38.916  32.348  33.098  1.00  0.00     0.031 C 
ATOM     20  C   UNL A   1      39.791  28.169  27.671  1.00  0.00     0.029 A 
ATOM     21  C   UNL A   1      40.778  28.020  28.739  1.00  0.00     0.049 A 
ATOM     22  H   UNL A   1      40.811  29.008  30.573  1.00  0.00     0.167 HD
ATOM     23  C   UNL A   1      40.656  31.184  34.423  1.00  0.00     0.034 A 
ATOM     24  C   UNL A   1      41.837  27.187  28.722  1.00  0.00     0.034 A 
ATOM     25  C   UNL A   1      41.710  30.213  34.565  1.00  0.00     0.049 A 
ATOM     26  C   UNL A   1      42.696  27.096  29.959  1.00  0.00     0.074 A 
ATOM     27  C   UNL A   1      42.507  29.952  35.664  1.00  0.00     0.029 A 
ATOM     28  N   UNL A   1      42.128  29.354  33.555  1.00  0.00    -0.354 N 
ATOM     29  N   UNL A   1      42.586  27.757  31.089  1.00  0.00    -0.248 NA
ATOM     30  C   UNL A   1      43.798  26.126  29.933  1.00  0.00     0.031 C 
ATOM     31  C   UNL A   1      43.445  28.978  35.299  1.00  0.00     0.029 A 
ATOM     32  C   UNL A   1      43.192  28.583  33.993  1.00  0.00     0.049 A 
ATOM     33  H   UNL A   1      41.727  29.301  32.657  1.00  0.00     0.167 HD
ATOM     34  C   UNL A   1      43.572  27.244  31.928  1.00  0.00     0.074 A 
ATOM     35  C   UNL A   1      44.268  26.223  31.169  1.00  0.00     0.031 C 
ATOM     36  C   UNL A   1      43.867  27.572  33.213  1.00  0.00     0.034 A 
BRANCH  23  37
ATOM     37  C   UNL A   1      40.309  32.102  35.569  1.00  0.00     0.023 A 
ATOM     38  C   UNL A   1      39.289  31.771  36.482  1.00  0.00     0.031 A 
ATOM     39  C   UNL A   1      40.925  33.358  35.699  1.00  0.00     0.131 A 
ATOM     40  C   UNL A   1      38.847  32.720  37.416  1.00  0.00     0.055 A 
ATOM     41  C   UNL A   1      40.538  34.266  36.687  1.00  0.00     0.041 A 
ATOM     42  F   UNL A   1      41.888  33.739  34.846  1.00  0.00    -0.206 F 
ATOM     43  C   UNL A   1      39.480  33.958  37.539  1.00  0.00     0.022 A 
BRANCH  40  44
ATOM     44  S   UNL A   1      37.326  32.376  38.345  1.00  0.00     0.124 S 
ATOM     45  O   UNL A   1      36.341  33.154  37.597  1.00  0.00    -0.237 OA
ATOM     46  O   UNL A   1      37.210  30.927  38.237  1.00  0.00    -0.237 OA
ATOM     47  O   UNL A   1      37.622  32.882  39.684  1.00  0.00    -0.744 OA
ENDBRANCH  40  44
ENDBRANCH  23  37
BRANCH  24  48
ATOM     48  C   UNL A   1      42.146  26.377  27.508  1.00  0.00     0.023 A 
ATOM     49  C   UNL A   1      41.835  25.010  27.437  1.00  0.00     0.031 A 
ATOM     50  C   UNL A   1      42.801  26.959  26.406  1.00  0.00     0.131 A 
ATOM     51  C   UNL A   1      42.215  24.260  26.311  1.00  0.00     0.055 A 
ATOM     52  C   UNL A   1      43.142  26.219  25.272  1.00  0.00     0.041 A 
ATOM     53  F   UNL A   1      43.114  28.266  26.415  1.00  0.00    -0.206 F 
ATOM     54  C   UNL A   1      42.860  24.858  25.224  1.00  0.00     0.022 A 
BRANCH  51  55
ATOM     55  S   UNL A   1      41.922  22.469  26.314  1.00  0.00     0.124 S 
ATOM     56  O   UNL A   1      42.475  22.077  27.604  1.00  0.00    -0.237 OA
ATOM     57  O   UNL A   1      40.469  22.404  26.192  1.00  0.00    -0.237 OA
ATOM     58  O   UNL A   1      42.664  22.000  25.146  1.00  0.00    -0.744 OA
ENDBRANCH  51  55
ENDBRANCH  24  48
BRANCH  36  59
ATOM     59  C   UNL A   1      44.954  26.773  33.886  1.00  0.00     0.023 A 
ATOM     60  C   UNL A   1      44.696  25.527  34.480  1.00  0.00     0.031 A 
ATOM     61  C   UNL A   1      46.267  27.275  33.936  1.00  0.00     0.131 A 
ATOM     62  C   UNL A   1      45.726  24.848  35.147  1.00  0.00     0.055 A 
ATOM     63  C   UNL A   1      47.301  26.567  34.548  1.00  0.00     0.041 A 
ATOM     64  F   UNL A   1      46.566  28.462  33.383  1.00  0.00    -0.206 F 
ATOM     65  C   UNL A   1      47.030  25.351  35.169  1.00  0.00     0.022 A 
BRANCH  62  66
ATOM     66  S   UNL A   1      45.319  23.335  36.059  1.00  0.00     0.124 S 
ATOM     67  O   UNL A   1      43.936  23.100  35.654  1.00  0.00    -0.237 OA
ATOM     68  O   UNL A   1      46.303  22.386  35.546  1.00  0.00    -0.237 OA
ATOM     69  O   UNL A   1      45.499  23.718  37.458  1.00  0.00    -0.744 OA
ENDBRANCH  62  66
ENDBRANCH  36  59
ENDBRANCH  10  11
ENDBRANCH   3   5
ENDBRANCH   2   3
ENDBRANCH   1   2
BRANCH   1  70
ATOM     70  C   UNL A   1      32.135  31.015  26.851  1.00  0.00     0.275 C 
BRANCH  70  71
ATOM     71  O   UNL A   1      31.431  30.370  25.782  1.00  0.00    -0.458 OA
BRANCH  71  72
ATOM     72  C   UNL A   1      32.171  29.565  24.981  1.00  0.00     0.339 C 
ATOM     73  O   UNL A   1      33.334  29.728  24.650  1.00  0.00    -0.246 OA
BRANCH  72  74
ATOM     74  C   UNL A   1      31.398  28.366  24.608  1.00  0.00     0.080 A 
ATOM     75  C   UNL A   1      31.950  27.105  24.921  1.00  0.00     0.044 A 
ATOM     76  C   UNL A   1      30.192  28.455  23.904  1.00  0.00     0.055 A 
ATOM     77  C   UNL A   1      31.302  25.937  24.507  1.00  0.00     0.053 A 
ATOM     78  C   UNL A   1      29.533  27.285  23.523  1.00  0.00     0.023 A 
ATOM     79  Cl  UNL A   1      29.492  29.957  23.418  1.00  0.00    -0.083 Cl
ATOM     80  C   UNL A   1      30.094  26.037  23.805  1.00  0.00     0.028 A 
BRANCH  77  81
ATOM     81  N   UNL A   1      31.813  24.657  24.805  1.00  0.00    -0.250 N 
ATOM     82  C   UNL A   1      32.533  23.875  23.890  1.00  0.00     0.238 C 
ATOM     83  C   UNL A   1      31.983  24.187  26.122  1.00  0.00     0.238 C 
ATOM     84  O   UNL A   1      32.868  24.087  22.745  1.00  0.00    -0.274 OA
ATOM     85  C   UNL A   1      32.873  22.651  24.659  1.00  0.00     0.100 C 
ATOM     86  C   UNL A   1      33.184  23.312  26.001  1.00  0.00     0.100 C 
ATOM     87  O   UNL A   1      31.412  24.510  27.147  1.00  0.00    -0.274 OA
ATOM     88  C   UNL A   1      33.903  21.552  24.361  1.00  0.00     0.028 C 
ATOM     89  C   UNL A   1      33.903  22.296  26.878  1.00  0.00     0.028 C 
ATOM     90  C   UNL A   1      33.398  20.468  25.344  1.00  0.00    -0.026 C 
ATOM     91  C   UNL A   1      35.341  21.838  24.822  1.00  0.00     0.001 C 
ATOM     92  C   UNL A   1      33.339  20.882  26.633  1.00  0.00    -0.026 C 
ATOM     93  C   UNL A   1      35.365  22.259  26.299  1.00  0.00     0.001 C 
ATOM     94  C   UNL A   1      35.950  23.153  25.206  1.00  0.00     0.009 C 
ENDBRANCH  77  81
ENDBRANCH  72  74
ENDBRANCH  71  72
ENDBRANCH  70  71
ENDBRANCH   1  70
TORSDOF 15
ENDMDL
MODEL 3
REMARK VINA RESULT:     -13.0      4.841     10.092
REMARK SMILES O=C(OCCOC(=O)c1cc(N2C(=O)[C@H]3[C@@H]4C=C[C@@H]([C@@H]5C[C@H]45)[C@@H]3C2=O)ccc1Cl)c1ccc(-c2c3nc(c(-c4cc(S(=O)(=O)[O-])ccc4F)c4ccc([nH]4)c(-c4cc(S(=O)(=O)[O-])ccc4F)c4nc(c(-c5cc(S(=O)(=O)[O-])ccc5F)c5ccc2[nH]5)C=C4)C=C3)cc1
REMARK SMILES IDX 4 1 3 2 2 3 1 4 30 5 31 6 92 7 32 8 91 9 33 10 34 11 35 12
REMARK SMILES IDX 85 13 36 14 90 15 84 16 86 17 37 18 89 19 83 20 82 21 38 23
REMARK SMILES IDX 70 24 50 25 69 26 51 27 54 28 68 29 87 30 52 31 53 32 67 34
REMARK SMILES IDX 88 35 55 36 39 37 40 38 48 39 41 40 47 41 49 42 46 43 42 44
REMARK SMILES IDX 43 45 44 46 45 47 71 48 72 49 80 50 73 51 79 52 81 53 78 54
REMARK SMILES IDX 74 55 75 56 76 57 77 58 56 59 57 60 65 61 58 62 64 63 66 64
REMARK SMILES IDX 63 65 59 66 60 67 61 68 62 69 5 70 6 71 7 72 8 73 9 74 10 75
REMARK SMILES IDX 28 76 11 77 27 78 29 79 26 80 12 81 13 82 24 83 14 84 15 85
REMARK SMILES IDX 23 86 25 87 16 88 19 89 17 90 22 91 18 92 20 93 21 94
REMARK H PARENT 86 22 54 33
REMARK Flexibility Score: inf
ROOT
ATOM      1  C   UNL A   1      38.092  20.558  24.860  1.00  0.00     0.275 C 
ENDROOT
BRANCH   1   2
ATOM      2  O   UNL A   1      38.423  21.196  26.101  1.00  0.00    -0.458 OA
BRANCH   2   3
ATOM      3  C   UNL A   1      39.617  21.645  26.548  1.00  0.00     0.338 C 
ATOM      4  O   UNL A   1      40.491  20.809  26.779  1.00  0.00    -0.246 OA
BRANCH   3   5
ATOM      5  C   UNL A   1      39.903  23.077  26.904  1.00  0.00     0.060 A 
ATOM      6  C   UNL A   1      39.284  24.225  26.406  1.00  0.00     0.016 A 
ATOM      7  C   UNL A   1      40.924  23.262  27.844  1.00  0.00     0.016 A 
ATOM      8  C   UNL A   1      39.633  25.503  26.879  1.00  0.00     0.010 A 
ATOM      9  C   UNL A   1      41.260  24.523  28.343  1.00  0.00     0.010 A 
ATOM     10  C   UNL A   1      40.625  25.661  27.848  1.00  0.00    -0.014 A 
BRANCH  10  11
ATOM     11  C   UNL A   1      41.115  27.009  28.227  1.00  0.00     0.031 A 
ATOM     12  C   UNL A   1      42.569  27.330  28.017  1.00  0.00     0.074 A 
ATOM     13  C   UNL A   1      40.281  27.926  28.752  1.00  0.00     0.049 A 
ATOM     14  N   UNL A   1      43.212  28.447  28.232  1.00  0.00    -0.248 NA
ATOM     15  C   UNL A   1      43.408  26.242  27.490  1.00  0.00     0.031 C 
ATOM     16  C   UNL A   1      38.852  27.725  28.988  1.00  0.00     0.029 A 
ATOM     17  N   UNL A   1      40.511  29.205  29.190  1.00  0.00    -0.354 N 
ATOM     18  C   UNL A   1      44.520  28.209  27.827  1.00  0.00     0.074 A 
ATOM     19  C   UNL A   1      44.599  26.815  27.451  1.00  0.00     0.031 C 
ATOM     20  C   UNL A   1      38.339  28.827  29.558  1.00  0.00     0.029 A 
ATOM     21  C   UNL A   1      39.401  29.816  29.725  1.00  0.00     0.049 A 
ATOM     22  H   UNL A   1      41.390  29.645  29.128  1.00  0.00     0.167 HD
ATOM     23  C   UNL A   1      45.552  29.085  27.733  1.00  0.00     0.034 A 
ATOM     24  C   UNL A   1      39.262  31.035  30.284  1.00  0.00     0.034 A 
ATOM     25  C   UNL A   1      45.463  30.458  28.158  1.00  0.00     0.049 A 
ATOM     26  C   UNL A   1      40.451  31.964  30.282  1.00  0.00     0.074 A 
ATOM     27  C   UNL A   1      46.434  31.441  28.123  1.00  0.00     0.029 A 
ATOM     28  N   UNL A   1      44.331  31.035  28.723  1.00  0.00    -0.354 N 
ATOM     29  N   UNL A   1      41.665  31.747  29.829  1.00  0.00    -0.248 NA
ATOM     30  C   UNL A   1      40.244  33.309  30.832  1.00  0.00     0.031 C 
ATOM     31  C   UNL A   1      45.908  32.594  28.721  1.00  0.00     0.029 A 
ATOM     32  C   UNL A   1      44.587  32.351  29.070  1.00  0.00     0.049 A 
ATOM     33  H   UNL A   1      43.472  30.574  28.858  1.00  0.00     0.167 HD
ATOM     34  C   UNL A   1      42.353  32.946  29.992  1.00  0.00     0.074 A 
ATOM     35  C   UNL A   1      41.416  33.879  30.590  1.00  0.00     0.031 C 
ATOM     36  C   UNL A   1      43.634  33.258  29.665  1.00  0.00     0.034 A 
BRANCH  23  37
ATOM     37  C   UNL A   1      46.845  28.544  27.174  1.00  0.00     0.023 A 
ATOM     38  C   UNL A   1      47.043  28.432  25.784  1.00  0.00     0.031 A 
ATOM     39  C   UNL A   1      47.845  28.045  28.023  1.00  0.00     0.131 A 
ATOM     40  C   UNL A   1      48.163  27.747  25.288  1.00  0.00     0.055 A 
ATOM     41  C   UNL A   1      48.999  27.439  27.520  1.00  0.00     0.041 A 
ATOM     42  F   UNL A   1      47.703  28.104  29.356  1.00  0.00    -0.206 F 
ATOM     43  C   UNL A   1      49.153  27.268  26.147  1.00  0.00     0.022 A 
BRANCH  40  44
ATOM     44  S   UNL A   1      48.215  27.342  23.519  1.00  0.00     0.124 S 
ATOM     45  O   UNL A   1      47.088  28.118  23.005  1.00  0.00    -0.237 OA
ATOM     46  O   UNL A   1      49.541  27.806  23.127  1.00  0.00    -0.237 OA
ATOM     47  O   UNL A   1      48.027  25.893  23.494  1.00  0.00    -0.744 OA
ENDBRANCH  40  44
ENDBRANCH  23  37
BRANCH  24  48
ATOM     48  C   UNL A   1      37.961  31.450  30.886  1.00  0.00     0.023 A 
ATOM     49  C   UNL A   1      36.969  32.088  30.125  1.00  0.00     0.031 A 
ATOM     50  C   UNL A   1      37.709  31.247  32.255  1.00  0.00     0.131 A 
ATOM     51  C   UNL A   1      35.790  32.538  30.744  1.00  0.00     0.055 A 
ATOM     52  C   UNL A   1      36.519  31.661  32.859  1.00  0.00     0.041 A 
ATOM     53  F   UNL A   1      38.619  30.633  33.029  1.00  0.00    -0.206 F 
ATOM     54  C   UNL A   1      35.556  32.322  32.104  1.00  0.00     0.022 A 
BRANCH  51  55
ATOM     55  S   UNL A   1      34.592  33.481  29.759  1.00  0.00     0.124 S 
ATOM     56  O   UNL A   1      33.719  34.026  30.792  1.00  0.00    -0.237 OA
ATOM     57  O   UNL A   1      35.454  34.439  29.075  1.00  0.00    -0.237 OA
ATOM     58  O   UNL A   1      33.985  32.468  28.899  1.00  0.00    -0.744 OA
ENDBRANCH  51  55
ENDBRANCH  24  48
BRANCH  36  59
ATOM     59  C   UNL A   1      44.068  34.682  29.897  1.00  0.00     0.023 A 
ATOM     60  C   UNL A   1      43.901  35.676  28.918  1.00  0.00     0.031 A 
ATOM     61  C   UNL A   1      44.664  35.046  31.118  1.00  0.00     0.131 A 
ATOM     62  C   UNL A   1      44.375  36.974  29.156  1.00  0.00     0.055 A 
ATOM     63  C   UNL A   1      45.078  36.352  31.373  1.00  0.00     0.041 A 
ATOM     64  F   UNL A   1      44.846  34.134  32.087  1.00  0.00    -0.206 F 
ATOM     65  C   UNL A   1      44.946  37.323  30.383  1.00  0.00     0.022 A 
BRANCH  62  66
ATOM     66  S   UNL A   1      44.310  38.183  27.807  1.00  0.00     0.124 S 
ATOM     67  O   UNL A   1      43.321  37.586  26.914  1.00  0.00    -0.237 OA
ATOM     68  O   UNL A   1      43.894  39.400  28.496  1.00  0.00    -0.237 OA
ATOM     69  O   UNL A   1      45.678  38.199  27.294  1.00  0.00    -0.744 OA
ENDBRANCH  62  66
ENDBRANCH  36  59
ENDBRANCH  10  11
ENDBRANCH   3   5
ENDBRANCH   2   3
ENDBRANCH   1   2
BRANCH   1  70
ATOM     70  C   UNL A   1      36.780  19.777  24.886  1.00  0.00     0.275 C 
BRANCH  70  71
ATOM     71  O   UNL A   1      35.641  20.598  25.181  1.00  0.00    -0.458 OA
BRANCH  71  72
ATOM     72  C   UNL A   1      34.438  20.107  24.796  1.00  0.00     0.339 C 
ATOM     73  O   UNL A   1      34.073  18.943  24.836  1.00  0.00    -0.246 OA
BRANCH  72  74
ATOM     74  C   UNL A   1      33.547  21.207  24.381  1.00  0.00     0.080 A 
ATOM     75  C   UNL A   1      33.699  22.453  25.026  1.00  0.00     0.044 A 
ATOM     76  C   UNL A   1      32.533  21.019  23.435  1.00  0.00     0.055 A 
ATOM     77  C   UNL A   1      32.820  23.501  24.736  1.00  0.00     0.053 A 
ATOM     78  C   UNL A   1      31.680  22.079  23.125  1.00  0.00     0.023 A 
ATOM     79  Cl  UNL A   1      32.235  19.504  22.659  1.00  0.00    -0.083 Cl
ATOM     80  C   UNL A   1      31.810  23.303  23.785  1.00  0.00     0.028 A 
BRANCH  77  81
ATOM     81  N   UNL A   1      32.940  24.765  25.349  1.00  0.00    -0.250 N 
ATOM     82  C   UNL A   1      33.715  25.811  24.827  1.00  0.00     0.238 C 
ATOM     83  C   UNL A   1      32.034  25.237  26.319  1.00  0.00     0.238 C 
ATOM     84  O   UNL A   1      34.391  25.884  23.824  1.00  0.00    -0.274 OA
ATOM     85  C   UNL A   1      33.508  26.922  25.792  1.00  0.00     0.100 C 
ATOM     86  C   UNL A   1      32.021  26.705  26.062  1.00  0.00     0.100 C 
ATOM     87  O   UNL A   1      31.313  24.619  27.081  1.00  0.00    -0.274 OA
ATOM     88  C   UNL A   1      33.807  28.421  25.649  1.00  0.00     0.028 C 
ATOM     89  C   UNL A   1      31.478  27.944  26.762  1.00  0.00     0.028 C 
ATOM     90  C   UNL A   1      33.718  28.833  27.139  1.00  0.00    -0.026 C 
ATOM     91  C   UNL A   1      32.717  29.259  24.961  1.00  0.00     0.001 C 
ATOM     92  C   UNL A   1      32.535  28.523  27.723  1.00  0.00    -0.026 C 
ATOM     93  C   UNL A   1      31.347  29.007  25.610  1.00  0.00     0.001 C 
ATOM     94  C   UNL A   1      31.574  28.783  24.115  1.00  0.00     0.009 C 
ENDBRANCH  77  81
ENDBRANCH  72  74
ENDBRANCH  71  72
ENDBRANCH  70  71
ENDBRANCH   1  70
TORSDOF 15
ENDMDL
