MODEL 1
REMARK VINA RESULT:     -11.7      0.000      0.000
REMARK SMILES CC(C)c1nc(N2C[C@H](C)OC(C)(C)C2)sc1C(=O)OCCOC(=O)c1ccc(-c2c3nc(c(-c4cc(S(=O)(=O)[O-])ccc4F)c4ccc([nH]4)c(-c4cc(S(=O)(=O)[O-])ccc4F)c4nc(c(-c5cc(S(=O)(=O)[O-])ccc5F)c5ccc2[nH]5)C=C4)C=C3)cc1
REMARK SMILES IDX 22 1 21 2 20 3 18 4 19 5 17 6 4 7 5 8 6 9 16 10 2 11 1 12
REMARK SMILES IDX 3 13 7 14 8 15 15 16 9 17 12 18 11 19 10 20 13 21 14 22
REMARK SMILES IDX 23 23 24 24 25 25 26 26 27 27 88 28 28 29 87 30 29 31 30 32
REMARK SMILES IDX 31 33 81 34 32 35 86 36 80 37 82 38 33 39 85 40 79 41 78 42
REMARK SMILES IDX 34 44 66 45 46 46 65 47 47 48 50 49 64 50 83 51 48 52 49 53
REMARK SMILES IDX 63 55 84 56 51 57 35 58 36 59 44 60 37 61 43 62 45 63 42 64
REMARK SMILES IDX 38 65 39 66 40 67 41 68 67 69 68 70 76 71 69 72 75 73 77 74
REMARK SMILES IDX 74 75 70 76 71 77 72 78 73 79 52 80 53 81 61 82 54 83 60 84
REMARK SMILES IDX 62 85 59 86 55 87 56 88 57 89 58 90
REMARK H PARENT 82 43 50 54
REMARK Flexibility Score: inf
ROOT
ATOM      1  C   UNL A   1      31.474  30.438  25.794  1.00  0.00     0.275 C 
ENDROOT
BRANCH   1   2
ATOM      2  C   UNL A   1      31.410  29.491  24.592  1.00  0.00     0.275 C 
BRANCH   2   3
ATOM      3  O   UNL A   1      32.512  28.561  24.601  1.00  0.00    -0.458 OA
BRANCH   3   4
ATOM      4  C   UNL A   1      32.742  27.837  23.469  1.00  0.00     0.350 C 
ATOM      5  O   UNL A   1      33.059  28.338  22.398  1.00  0.00    -0.245 OA
BRANCH   4   6
ATOM      6  C   UNL A   1      32.630  26.418  23.741  1.00  0.00     0.137 A 
ATOM      7  C   UNL A   1      31.707  25.654  24.444  1.00  0.00     0.071 A 
ATOM      8  N   UNL A   1      32.060  24.309  24.575  1.00  0.00    -0.224 NA
ATOM      9  C   UNL A   1      33.218  24.065  24.009  1.00  0.00     0.186 A 
ATOM     10  S   UNL A   1      33.813  25.361  23.062  1.00  0.00    -0.089 S 
BRANCH   7  11
ATOM     11  C   UNL A   1      30.381  26.042  25.049  1.00  0.00     0.034 C 
ATOM     12  C   UNL A   1      29.304  26.327  24.005  1.00  0.00     0.014 C 
ATOM     13  C   UNL A   1      29.907  25.066  26.129  1.00  0.00     0.014 C 
ENDBRANCH   7  11
BRANCH   9  14
ATOM     14  N   UNL A   1      33.851  22.877  24.077  1.00  0.00    -0.343 N 
ATOM     15  C   UNL A   1      35.286  22.737  23.845  1.00  0.00     0.150 C 
ATOM     16  C   UNL A   1      33.098  21.637  24.150  1.00  0.00     0.153 C 
ATOM     17  C   UNL A   1      35.874  21.793  24.920  1.00  0.00     0.135 C 
ATOM     18  C   UNL A   1      33.733  20.697  25.206  1.00  0.00     0.081 C 
ATOM     19  O   UNL A   1      35.154  20.543  24.993  1.00  0.00    -0.369 OA
ATOM     20  C   UNL A   1      37.331  21.456  24.626  1.00  0.00     0.040 C 
ATOM     21  C   UNL A   1      33.446  21.189  26.632  1.00  0.00     0.044 C 
ATOM     22  C   UNL A   1      33.136  19.294  25.040  1.00  0.00     0.044 C 
ENDBRANCH   9  14
ENDBRANCH   4   6
ENDBRANCH   3   4
ENDBRANCH   2   3
ENDBRANCH   1   2
BRANCH   1  23
ATOM     23  O   UNL A   1      32.741  30.327  26.465  1.00  0.00    -0.458 OA
BRANCH  23  24
ATOM     24  C   UNL A   1      33.165  31.464  27.067  1.00  0.00     0.338 C 
ATOM     25  O   UNL A   1      32.529  32.490  27.232  1.00  0.00    -0.246 OA
BRANCH  24  26
ATOM     26  C   UNL A   1      34.470  31.216  27.694  1.00  0.00     0.060 A 
ATOM     27  C   UNL A   1      34.745  29.900  28.055  1.00  0.00     0.016 A 
ATOM     28  C   UNL A   1      35.370  32.232  28.001  1.00  0.00     0.016 A 
ATOM     29  C   UNL A   1      35.902  29.576  28.748  1.00  0.00     0.010 A 
ATOM     30  C   UNL A   1      36.554  31.905  28.679  1.00  0.00     0.010 A 
ATOM     31  C   UNL A   1      36.822  30.577  29.069  1.00  0.00    -0.014 A 
BRANCH  31  32
ATOM     32  C   UNL A   1      38.019  30.230  29.879  1.00  0.00     0.031 A 
ATOM     33  C   UNL A   1      39.055  29.304  29.307  1.00  0.00     0.074 A 
ATOM     34  C   UNL A   1      38.198  30.780  31.097  1.00  0.00     0.049 A 
ATOM     35  N   UNL A   1      40.102  28.772  29.881  1.00  0.00    -0.248 NA
ATOM     36  C   UNL A   1      38.883  28.922  27.897  1.00  0.00     0.031 C 
ATOM     37  C   UNL A   1      37.303  31.757  31.721  1.00  0.00     0.029 A 
ATOM     38  N   UNL A   1      39.192  30.602  32.025  1.00  0.00    -0.354 N 
ATOM     39  C   UNL A   1      40.693  27.962  28.919  1.00  0.00     0.074 A 
ATOM     40  C   UNL A   1      39.875  28.060  27.728  1.00  0.00     0.031 C 
ATOM     41  C   UNL A   1      37.798  32.102  32.920  1.00  0.00     0.029 A 
ATOM     42  C   UNL A   1      38.995  31.314  33.187  1.00  0.00     0.049 A 
ATOM     43  H   UNL A   1      39.973  30.021  31.874  1.00  0.00     0.167 HD
ATOM     44  C   UNL A   1      41.815  27.206  29.025  1.00  0.00     0.034 A 
ATOM     45  C   UNL A   1      39.677  31.296  34.350  1.00  0.00     0.034 A 
ATOM     46  C   UNL A   1      42.624  27.142  30.219  1.00  0.00     0.049 A 
ATOM     47  C   UNL A   1      40.870  30.381  34.472  1.00  0.00     0.074 A 
ATOM     48  C   UNL A   1      43.781  26.416  30.439  1.00  0.00     0.029 A 
ATOM     49  N   UNL A   1      42.360  27.831  31.397  1.00  0.00    -0.354 N 
ATOM     50  N   UNL A   1      41.393  29.580  33.572  1.00  0.00    -0.248 NA
ATOM     51  C   UNL A   1      41.559  30.363  35.769  1.00  0.00     0.031 C 
ATOM     52  C   UNL A   1      44.173  26.606  31.769  1.00  0.00     0.029 A 
ATOM     53  C   UNL A   1      43.313  27.520  32.356  1.00  0.00     0.049 A 
ATOM     54  H   UNL A   1      41.607  28.450  31.532  1.00  0.00     0.167 HD
ATOM     55  C   UNL A   1      42.491  28.985  34.188  1.00  0.00     0.074 A 
ATOM     56  C   UNL A   1      42.563  29.534  35.527  1.00  0.00     0.031 C 
ATOM     57  C   UNL A   1      43.364  28.070  33.691  1.00  0.00     0.034 A 
BRANCH  44  58
ATOM     58  C   UNL A   1      42.185  26.338  27.845  1.00  0.00     0.023 A 
ATOM     59  C   UNL A   1      41.687  25.033  27.689  1.00  0.00     0.031 A 
ATOM     60  C   UNL A   1      43.082  26.820  26.873  1.00  0.00     0.131 A 
ATOM     61  C   UNL A   1      42.144  24.232  26.630  1.00  0.00     0.055 A 
ATOM     62  C   UNL A   1      43.468  26.047  25.777  1.00  0.00     0.041 A 
ATOM     63  F   UNL A   1      43.611  28.049  26.982  1.00  0.00    -0.206 F 
ATOM     64  C   UNL A   1      43.010  24.738  25.658  1.00  0.00     0.022 A 
BRANCH  61  65
ATOM     65  S   UNL A   1      41.706  22.472  26.622  1.00  0.00     0.124 S 
ATOM     66  O   UNL A   1      42.324  22.019  25.377  1.00  0.00    -0.237 OA
ATOM     67  O   UNL A   1      42.318  21.988  27.853  1.00  0.00    -0.237 OA
ATOM     68  O   UNL A   1      40.243  22.483  26.613  1.00  0.00    -0.744 OA
ENDBRANCH  61  65
ENDBRANCH  44  58
BRANCH  45  69
ATOM     69  C   UNL A   1      39.218  32.114  35.512  1.00  0.00     0.023 A 
ATOM     70  C   UNL A   1      39.642  33.442  35.680  1.00  0.00     0.031 A 
ATOM     71  C   UNL A   1      38.391  31.558  36.506  1.00  0.00     0.131 A 
ATOM     72  C   UNL A   1      39.275  34.153  36.834  1.00  0.00     0.055 A 
ATOM     73  C   UNL A   1      37.978  32.291  37.621  1.00  0.00     0.041 A 
ATOM     74  F   UNL A   1      37.962  30.290  36.404  1.00  0.00    -0.206 F 
ATOM     75  C   UNL A   1      38.433  33.592  37.797  1.00  0.00     0.022 A 
BRANCH  72  76
ATOM     76  S   UNL A   1      40.000  35.793  37.111  1.00  0.00     0.124 S 
ATOM     77  O   UNL A   1      41.411  35.467  37.290  1.00  0.00    -0.237 OA
ATOM     78  O   UNL A   1      39.653  36.490  35.876  1.00  0.00    -0.237 OA
ATOM     79  O   UNL A   1      39.313  36.271  38.309  1.00  0.00    -0.744 OA
ENDBRANCH  72  76
ENDBRANCH  45  69
BRANCH  57  80
ATOM     80  C   UNL A   1      44.500  27.652  34.591  1.00  0.00     0.023 A 
ATOM     81  C   UNL A   1      44.414  26.516  35.415  1.00  0.00     0.031 A 
ATOM     82  C   UNL A   1      45.682  28.414  34.636  1.00  0.00     0.131 A 
ATOM     83  C   UNL A   1      45.466  26.208  36.291  1.00  0.00     0.055 A 
ATOM     84  C   UNL A   1      46.751  28.064  35.460  1.00  0.00     0.041 A 
ATOM     85  F   UNL A   1      45.816  29.510  33.872  1.00  0.00    -0.206 F 
ATOM     86  C   UNL A   1      46.642  26.964  36.305  1.00  0.00     0.022 A 
BRANCH  83  87
ATOM     87  S   UNL A   1      45.241  24.861  37.484  1.00  0.00     0.124 S 
ATOM     88  O   UNL A   1      44.732  23.787  36.637  1.00  0.00    -0.237 OA
ATOM     89  O   UNL A   1      46.591  24.676  38.006  1.00  0.00    -0.237 OA
ATOM     90  O   UNL A   1      44.277  25.406  38.439  1.00  0.00    -0.744 OA
ENDBRANCH  83  87
ENDBRANCH  57  80
ENDBRANCH  31  32
ENDBRANCH  24  26
ENDBRANCH  23  24
ENDBRANCH   1  23
TORSDOF 16
ENDMDL
MODEL 2
REMARK VINA RESULT:     -11.5      4.676     10.145
REMARK SMILES CC(C)c1nc(N2C[C@H](C)OC(C)(C)C2)sc1C(=O)OCCOC(=O)c1ccc(-c2c3nc(c(-c4cc(S(=O)(=O)[O-])ccc4F)c4ccc([nH]4)c(-c4cc(S(=O)(=O)[O-])ccc4F)c4nc(c(-c5cc(S(=O)(=O)[O-])ccc5F)c5ccc2[nH]5)C=C4)C=C3)cc1
REMARK SMILES IDX 22 1 21 2 20 3 18 4 19 5 17 6 4 7 5 8 6 9 16 10 2 11 1 12
REMARK SMILES IDX 3 13 7 14 8 15 15 16 9 17 12 18 11 19 10 20 13 21 14 22
REMARK SMILES IDX 23 23 24 24 25 25 26 26 27 27 88 28 28 29 87 30 29 31 30 32
REMARK SMILES IDX 31 33 81 34 32 35 86 36 80 37 82 38 33 39 85 40 79 41 78 42
REMARK SMILES IDX 34 44 66 45 46 46 65 47 47 48 50 49 64 50 83 51 48 52 49 53
REMARK SMILES IDX 63 55 84 56 51 57 35 58 36 59 44 60 37 61 43 62 45 63 42 64
REMARK SMILES IDX 38 65 39 66 40 67 41 68 67 69 68 70 76 71 69 72 75 73 77 74
REMARK SMILES IDX 74 75 70 76 71 77 72 78 73 79 52 80 53 81 61 82 54 83 60 84
REMARK SMILES IDX 62 85 59 86 55 87 56 88 57 89 58 90
REMARK H PARENT 82 43 50 54
REMARK Flexibility Score: inf
ROOT
ATOM      1  C   UNL A   1      37.060  21.029  24.698  1.00  0.00     0.275 C 
ENDROOT
BRANCH   1   2
ATOM      2  C   UNL A   1      35.597  21.463  24.580  1.00  0.00     0.275 C 
BRANCH   2   3
ATOM      3  O   UNL A   1      35.472  22.899  24.645  1.00  0.00    -0.458 OA
BRANCH   3   4
ATOM      4  C   UNL A   1      34.671  23.509  23.726  1.00  0.00     0.350 C 
ATOM      5  O   UNL A   1      34.779  23.344  22.518  1.00  0.00    -0.245 OA
BRANCH   4   6
ATOM      6  C   UNL A   1      33.654  24.304  24.385  1.00  0.00     0.137 A 
ATOM      7  C   UNL A   1      32.583  23.985  25.211  1.00  0.00     0.071 A 
ATOM      8  N   UNL A   1      31.757  25.068  25.519  1.00  0.00    -0.224 NA
ATOM      9  C   UNL A   1      32.173  26.164  24.933  1.00  0.00     0.186 A 
ATOM     10  S   UNL A   1      33.717  26.020  24.207  1.00  0.00    -0.089 S 
BRANCH   7  11
ATOM     11  C   UNL A   1      32.203  22.671  25.847  1.00  0.00     0.034 C 
ATOM     12  C   UNL A   1      31.082  22.804  26.875  1.00  0.00     0.014 C 
ATOM     13  C   UNL A   1      31.932  21.566  24.823  1.00  0.00     0.014 C 
ENDBRANCH   7  11
BRANCH   9  14
ATOM     14  N   UNL A   1      31.504  27.334  24.968  1.00  0.00    -0.343 N 
ATOM     15  C   UNL A   1      31.713  28.327  26.019  1.00  0.00     0.150 C 
ATOM     16  C   UNL A   1      30.366  27.566  24.096  1.00  0.00     0.153 C 
ATOM     17  C   UNL A   1      31.788  29.729  25.370  1.00  0.00     0.135 C 
ATOM     18  C   UNL A   1      30.447  28.991  23.492  1.00  0.00     0.081 C 
ATOM     19  O   UNL A   1      30.653  29.990  24.516  1.00  0.00    -0.369 OA
ATOM     20  C   UNL A   1      31.819  30.829  26.425  1.00  0.00     0.040 C 
ATOM     21  C   UNL A   1      31.543  29.078  22.419  1.00  0.00     0.044 C 
ATOM     22  C   UNL A   1      29.098  29.332  22.847  1.00  0.00     0.044 C 
ENDBRANCH   9  14
ENDBRANCH   4   6
ENDBRANCH   3   4
ENDBRANCH   2   3
ENDBRANCH   1   2
BRANCH   1  23
ATOM     23  O   UNL A   1      37.608  21.418  25.969  1.00  0.00    -0.458 OA
BRANCH  23  24
ATOM     24  C   UNL A   1      38.931  21.165  26.118  1.00  0.00     0.338 C 
ATOM     25  O   UNL A   1      39.536  20.176  25.744  1.00  0.00    -0.246 OA
BRANCH  24  26
ATOM     26  C   UNL A   1      39.595  22.372  26.625  1.00  0.00     0.060 A 
ATOM     27  C   UNL A   1      39.129  23.589  26.137  1.00  0.00     0.016 A 
ATOM     28  C   UNL A   1      40.691  22.332  27.483  1.00  0.00     0.016 A 
ATOM     29  C   UNL A   1      39.756  24.781  26.470  1.00  0.00     0.010 A 
ATOM     30  C   UNL A   1      41.312  23.537  27.845  1.00  0.00     0.010 A 
ATOM     31  C   UNL A   1      40.858  24.768  27.329  1.00  0.00    -0.014 A 
BRANCH  31  32
ATOM     32  C   UNL A   1      41.568  26.042  27.617  1.00  0.00     0.031 A 
ATOM     33  C   UNL A   1      40.889  27.096  28.446  1.00  0.00     0.074 A 
ATOM     34  C   UNL A   1      42.829  26.230  27.180  1.00  0.00     0.049 A 
ATOM     35  N   UNL A   1      41.270  28.318  28.710  1.00  0.00    -0.248 NA
ATOM     36  C   UNL A   1      39.604  26.720  29.056  1.00  0.00     0.031 C 
ATOM     37  C   UNL A   1      43.621  25.245  26.439  1.00  0.00     0.029 A 
ATOM     38  N   UNL A   1      43.669  27.308  27.298  1.00  0.00    -0.354 N 
ATOM     39  C   UNL A   1      40.255  28.874  29.482  1.00  0.00     0.074 A 
ATOM     40  C   UNL A   1      39.235  27.857  29.628  1.00  0.00     0.031 C 
ATOM     41  C   UNL A   1      44.834  25.760  26.183  1.00  0.00     0.029 A 
ATOM     42  C   UNL A   1      44.880  27.135  26.666  1.00  0.00     0.049 A 
ATOM     43  H   UNL A   1      43.429  28.127  27.788  1.00  0.00     0.167 HD
ATOM     44  C   UNL A   1      40.187  30.119  30.015  1.00  0.00     0.034 A 
ATOM     45  C   UNL A   1      45.891  28.002  26.460  1.00  0.00     0.034 A 
ATOM     46  C   UNL A   1      41.230  31.108  29.870  1.00  0.00     0.049 A 
ATOM     47  C   UNL A   1      45.753  29.409  26.989  1.00  0.00     0.074 A 
ATOM     48  C   UNL A   1      41.271  32.397  30.370  1.00  0.00     0.029 A 
ATOM     49  N   UNL A   1      42.417  30.916  29.173  1.00  0.00    -0.354 N 
ATOM     50  N   UNL A   1      44.768  29.941  27.675  1.00  0.00    -0.248 NA
ATOM     51  C   UNL A   1      46.860  30.332  26.708  1.00  0.00     0.031 C 
ATOM     52  C   UNL A   1      42.443  33.008  29.914  1.00  0.00     0.029 A 
ATOM     53  C   UNL A   1      43.179  32.075  29.201  1.00  0.00     0.049 A 
ATOM     54  H   UNL A   1      42.678  30.081  28.724  1.00  0.00     0.167 HD
ATOM     55  C   UNL A   1      45.152  31.254  27.933  1.00  0.00     0.074 A 
ATOM     56  C   UNL A   1      46.464  31.425  27.343  1.00  0.00     0.031 C 
ATOM     57  C   UNL A   1      44.482  32.231  28.599  1.00  0.00     0.034 A 
BRANCH  44  58
ATOM     58  C   UNL A   1      38.916  30.499  30.738  1.00  0.00     0.023 A 
ATOM     59  C   UNL A   1      37.816  31.066  30.073  1.00  0.00     0.031 A 
ATOM     60  C   UNL A   1      38.819  30.317  32.131  1.00  0.00     0.131 A 
ATOM     61  C   UNL A   1      36.699  31.497  30.808  1.00  0.00     0.055 A 
ATOM     62  C   UNL A   1      37.673  30.671  32.843  1.00  0.00     0.041 A 
ATOM     63  F   UNL A   1      39.847  29.804  32.825  1.00  0.00    -0.206 F 
ATOM     64  C   UNL A   1      36.609  31.279  32.185  1.00  0.00     0.022 A 
BRANCH  61  65
ATOM     65  S   UNL A   1      35.430  32.478  29.962  1.00  0.00     0.124 S 
ATOM     66  O   UNL A   1      35.081  31.606  28.842  1.00  0.00    -0.237 OA
ATOM     67  O   UNL A   1      34.411  32.632  30.993  1.00  0.00    -0.237 OA
ATOM     68  O   UNL A   1      36.134  33.704  29.591  1.00  0.00    -0.744 OA
ENDBRANCH  61  65
ENDBRANCH  44  58
BRANCH  45  69
ATOM     69  C   UNL A   1      47.090  27.597  25.667  1.00  0.00     0.023 A 
ATOM     70  C   UNL A   1      47.209  27.927  24.308  1.00  0.00     0.031 A 
ATOM     71  C   UNL A   1      48.112  26.822  26.247  1.00  0.00     0.131 A 
ATOM     72  C   UNL A   1      48.299  27.446  23.563  1.00  0.00     0.055 A 
ATOM     73  C   UNL A   1      49.225  26.401  25.517  1.00  0.00     0.041 A 
ATOM     74  F   UNL A   1      48.048  26.469  27.541  1.00  0.00    -0.206 F 
ATOM     75  C   UNL A   1      49.316  26.700  24.163  1.00  0.00     0.022 A 
BRANCH  72  76
ATOM     76  S   UNL A   1      48.317  27.726  21.771  1.00  0.00     0.124 S 
ATOM     77  O   UNL A   1      46.959  28.202  21.531  1.00  0.00    -0.237 OA
ATOM     78  O   UNL A   1      49.380  28.717  21.630  1.00  0.00    -0.237 OA
ATOM     79  O   UNL A   1      48.622  26.406  21.224  1.00  0.00    -0.744 OA
ENDBRANCH  72  76
ENDBRANCH  45  69
BRANCH  57  80
ATOM     80  C   UNL A   1      45.192  33.552  28.765  1.00  0.00     0.023 A 
ATOM     81  C   UNL A   1      45.865  33.889  29.953  1.00  0.00     0.031 A 
ATOM     82  C   UNL A   1      45.180  34.495  27.721  1.00  0.00     0.131 A 
ATOM     83  C   UNL A   1      46.446  35.159  30.089  1.00  0.00     0.055 A 
ATOM     84  C   UNL A   1      45.817  35.730  27.838  1.00  0.00     0.041 A 
ATOM     85  F   UNL A   1      44.550  34.226  26.566  1.00  0.00    -0.206 F 
ATOM     86  C   UNL A   1      46.443  36.074  29.033  1.00  0.00     0.022 A 
BRANCH  83  87
ATOM     87  S   UNL A   1      47.124  35.638  31.701  1.00  0.00     0.124 S 
ATOM     88  O   UNL A   1      47.067  37.095  31.633  1.00  0.00    -0.237 OA
ATOM     89  O   UNL A   1      46.194  35.007  32.632  1.00  0.00    -0.237 OA
ATOM     90  O   UNL A   1      48.471  35.069  31.691  1.00  0.00    -0.744 OA
ENDBRANCH  83  87
ENDBRANCH  57  80
ENDBRANCH  31  32
ENDBRANCH  24  26
ENDBRANCH  23  24
ENDBRANCH   1  23
TORSDOF 16
ENDMDL
MODEL 3
REMARK VINA RESULT:     -11.4      4.842     10.198
REMARK SMILES CC(C)c1nc(N2C[C@H](C)OC(C)(C)C2)sc1C(=O)OCCOC(=O)c1ccc(-c2c3nc(c(-c4cc(S(=O)(=O)[O-])ccc4F)c4ccc([nH]4)c(-c4cc(S(=O)(=O)[O-])ccc4F)c4nc(c(-c5cc(S(=O)(=O)[O-])ccc5F)c5ccc2[nH]5)C=C4)C=C3)cc1
REMARK SMILES IDX 22 1 21 2 20 3 18 4 19 5 17 6 4 7 5 8 6 9 16 10 2 11 1 12
REMARK SMILES IDX 3 13 7 14 8 15 15 16 9 17 12 18 11 19 10 20 13 21 14 22
REMARK SMILES IDX 23 23 24 24 25 25 26 26 27 27 88 28 28 29 87 30 29 31 30 32
REMARK SMILES IDX 31 33 81 34 32 35 86 36 80 37 82 38 33 39 85 40 79 41 78 42
REMARK SMILES IDX 34 44 66 45 46 46 65 47 47 48 50 49 64 50 83 51 48 52 49 53
REMARK SMILES IDX 63 55 84 56 51 57 35 58 36 59 44 60 37 61 43 62 45 63 42 64
REMARK SMILES IDX 38 65 39 66 40 67 41 68 67 69 68 70 76 71 69 72 75 73 77 74
REMARK SMILES IDX 74 75 70 76 71 77 72 78 73 79 52 80 53 81 61 82 54 83 60 84
REMARK SMILES IDX 62 85 59 86 55 87 56 88 57 89 58 90
REMARK H PARENT 82 43 50 54
REMARK Flexibility Score: inf
ROOT
ATOM      1  C   UNL A   1      36.997  21.066  24.594  1.00  0.00     0.275 C 
ENDROOT
BRANCH   1   2
ATOM      2  C   UNL A   1      35.541  21.512  24.436  1.00  0.00     0.275 C 
BRANCH   2   3
ATOM      3  O   UNL A   1      35.433  22.950  24.430  1.00  0.00    -0.458 OA
BRANCH   3   4
ATOM      4  C   UNL A   1      34.539  23.517  23.571  1.00  0.00     0.350 C 
ATOM      5  O   UNL A   1      34.529  23.305  22.366  1.00  0.00    -0.245 OA
BRANCH   4   6
ATOM      6  C   UNL A   1      33.581  24.329  24.296  1.00  0.00     0.137 A 
ATOM      7  C   UNL A   1      32.617  24.036  25.253  1.00  0.00     0.071 A 
ATOM      8  N   UNL A   1      31.803  25.119  25.593  1.00  0.00    -0.224 NA
ATOM      9  C   UNL A   1      32.124  26.189  24.906  1.00  0.00     0.186 A 
ATOM     10  S   UNL A   1      33.581  26.033  24.021  1.00  0.00    -0.089 S 
BRANCH   7  11
ATOM     11  C   UNL A   1      32.342  22.753  25.997  1.00  0.00     0.034 C 
ATOM     12  C   UNL A   1      32.803  22.792  27.452  1.00  0.00     0.014 C 
ATOM     13  C   UNL A   1      30.895  22.277  25.854  1.00  0.00     0.014 C 
ENDBRANCH   7  11
BRANCH   9  14
ATOM     14  N   UNL A   1      31.435  27.346  24.953  1.00  0.00    -0.343 N 
ATOM     15  C   UNL A   1      31.664  28.355  25.982  1.00  0.00     0.150 C 
ATOM     16  C   UNL A   1      30.260  27.545  24.123  1.00  0.00     0.153 C 
ATOM     17  C   UNL A   1      31.688  29.750  25.314  1.00  0.00     0.135 C 
ATOM     18  C   UNL A   1      30.290  28.963  23.499  1.00  0.00     0.081 C 
ATOM     19  O   UNL A   1      30.515  29.979  24.502  1.00  0.00    -0.369 OA
ATOM     20  C   UNL A   1      31.737  30.864  26.354  1.00  0.00     0.040 C 
ATOM     21  C   UNL A   1      31.342  29.057  22.384  1.00  0.00     0.044 C 
ATOM     22  C   UNL A   1      28.911  29.270  22.902  1.00  0.00     0.044 C 
ENDBRANCH   9  14
ENDBRANCH   4   6
ENDBRANCH   3   4
ENDBRANCH   2   3
ENDBRANCH   1   2
BRANCH   1  23
ATOM     23  O   UNL A   1      37.530  21.503  25.857  1.00  0.00    -0.458 OA
BRANCH  23  24
ATOM     24  C   UNL A   1      38.834  21.195  26.058  1.00  0.00     0.338 C 
ATOM     25  O   UNL A   1      39.416  20.188  25.695  1.00  0.00    -0.246 OA
BRANCH  24  26
ATOM     26  C   UNL A   1      39.523  22.368  26.612  1.00  0.00     0.060 A 
ATOM     27  C   UNL A   1      39.145  23.607  26.104  1.00  0.00     0.016 A 
ATOM     28  C   UNL A   1      40.562  22.274  27.534  1.00  0.00     0.016 A 
ATOM     29  C   UNL A   1      39.805  24.767  26.482  1.00  0.00     0.010 A 
ATOM     30  C   UNL A   1      41.216  23.446  27.939  1.00  0.00     0.010 A 
ATOM     31  C   UNL A   1      40.852  24.699  27.406  1.00  0.00    -0.014 A 
BRANCH  31  32
ATOM     32  C   UNL A   1      41.603  25.937  27.744  1.00  0.00     0.031 A 
ATOM     33  C   UNL A   1      40.920  27.027  28.521  1.00  0.00     0.074 A 
ATOM     34  C   UNL A   1      42.900  26.059  27.399  1.00  0.00     0.049 A 
ATOM     35  N   UNL A   1      41.341  28.229  28.811  1.00  0.00    -0.248 NA
ATOM     36  C   UNL A   1      39.577  26.719  29.036  1.00  0.00     0.031 C 
ATOM     37  C   UNL A   1      43.693  25.033  26.718  1.00  0.00     0.029 A 
ATOM     38  N   UNL A   1      43.782  27.095  27.577  1.00  0.00    -0.354 N 
ATOM     39  C   UNL A   1      40.303  28.838  29.507  1.00  0.00     0.074 A 
ATOM     40  C   UNL A   1      39.224  27.875  29.579  1.00  0.00     0.031 C 
ATOM     41  C   UNL A   1      44.946  25.486  26.551  1.00  0.00     0.029 A 
ATOM     42  C   UNL A   1      45.026  26.859  27.035  1.00  0.00     0.049 A 
ATOM     43  H   UNL A   1      43.549  27.927  28.049  1.00  0.00     0.167 HD
ATOM     44  C   UNL A   1      40.259  30.088  30.034  1.00  0.00     0.034 A 
ATOM     45  C   UNL A   1      46.092  27.674  26.903  1.00  0.00     0.034 A 
ATOM     46  C   UNL A   1      41.357  31.022  29.964  1.00  0.00     0.049 A 
ATOM     47  C   UNL A   1      45.987  29.087  27.419  1.00  0.00     0.074 A 
ATOM     48  C   UNL A   1      41.427  32.310  30.465  1.00  0.00     0.029 A 
ATOM     49  N   UNL A   1      42.581  30.769  29.355  1.00  0.00    -0.354 N 
ATOM     50  N   UNL A   1      44.982  29.670  28.032  1.00  0.00    -0.248 NA
ATOM     51  C   UNL A   1      47.156  29.953  27.219  1.00  0.00     0.031 C 
ATOM     52  C   UNL A   1      42.659  32.860  30.095  1.00  0.00     0.029 A 
ATOM     53  C   UNL A   1      43.396  31.888  29.438  1.00  0.00     0.049 A 
ATOM     54  H   UNL A   1      42.832  29.920  28.926  1.00  0.00     0.167 HD
ATOM     55  C   UNL A   1      45.412  30.964  28.316  1.00  0.00     0.074 A 
ATOM     56  C   UNL A   1      46.770  31.067  27.823  1.00  0.00     0.031 C 
ATOM     57  C   UNL A   1      44.746  31.976  28.932  1.00  0.00     0.034 A 
BRANCH  44  58
ATOM     58  C   UNL A   1      38.960  30.534  30.662  1.00  0.00     0.023 A 
ATOM     59  C   UNL A   1      37.994  31.266  29.951  1.00  0.00     0.031 A 
ATOM     60  C   UNL A   1      38.699  30.245  32.015  1.00  0.00     0.131 A 
ATOM     61  C   UNL A   1      36.851  31.746  30.611  1.00  0.00     0.055 A 
ATOM     62  C   UNL A   1      37.521  30.653  32.644  1.00  0.00     0.041 A 
ATOM     63  F   UNL A   1      39.594  29.570  32.754  1.00  0.00    -0.206 F 
ATOM     64  C   UNL A   1      36.595  31.422  31.946  1.00  0.00     0.022 A 
BRANCH  61  65
ATOM     65  S   UNL A   1      35.777  32.921  29.743  1.00  0.00     0.124 S 
ATOM     66  O   UNL A   1      35.524  33.915  30.785  1.00  0.00    -0.237 OA
ATOM     67  O   UNL A   1      36.617  33.357  28.634  1.00  0.00    -0.237 OA
ATOM     68  O   UNL A   1      34.616  32.114  29.369  1.00  0.00    -0.744 OA
ENDBRANCH  61  65
ENDBRANCH  44  58
BRANCH  45  69
ATOM     69  C   UNL A   1      47.323  27.206  26.199  1.00  0.00     0.023 A 
ATOM     70  C   UNL A   1      48.302  26.455  26.868  1.00  0.00     0.031 A 
ATOM     71  C   UNL A   1      47.565  27.554  24.857  1.00  0.00     0.131 A 
ATOM     72  C   UNL A   1      49.496  26.116  26.209  1.00  0.00     0.055 A 
ATOM     73  C   UNL A   1      48.726  27.160  24.188  1.00  0.00     0.041 A 
ATOM     74  F   UNL A   1      46.668  28.279  24.169  1.00  0.00    -0.206 F 
ATOM     75  C   UNL A   1      49.706  26.449  24.869  1.00  0.00     0.022 A 
BRANCH  72  76
ATOM     76  S   UNL A   1      50.817  25.318  27.162  1.00  0.00     0.124 S 
ATOM     77  O   UNL A   1      50.091  24.250  27.840  1.00  0.00    -0.237 OA
ATOM     78  O   UNL A   1      51.739  24.900  26.110  1.00  0.00    -0.237 OA
ATOM     79  O   UNL A   1      51.307  26.388  28.028  1.00  0.00    -0.744 OA
ENDBRANCH  72  76
ENDBRANCH  45  69
BRANCH  57  80
ATOM     80  C   UNL A   1      45.507  33.261  29.149  1.00  0.00     0.023 A 
ATOM     81  C   UNL A   1      45.630  34.230  28.138  1.00  0.00     0.031 A 
ATOM     82  C   UNL A   1      46.131  33.511  30.384  1.00  0.00     0.131 A 
ATOM     83  C   UNL A   1      46.409  35.375  28.360  1.00  0.00     0.055 A 
ATOM     84  C   UNL A   1      46.849  34.683  30.622  1.00  0.00     0.041 A 
ATOM     85  F   UNL A   1      46.048  32.618  31.384  1.00  0.00    -0.206 F 
ATOM     86  C   UNL A   1      47.004  35.616  29.602  1.00  0.00     0.022 A 
BRANCH  83  87
ATOM     87  S   UNL A   1      46.718  36.502  26.973  1.00  0.00     0.124 S 
ATOM     88  O   UNL A   1      46.117  37.743  27.451  1.00  0.00    -0.237 OA
ATOM     89  O   UNL A   1      48.174  36.494  26.881  1.00  0.00    -0.237 OA
ATOM     90  O   UNL A   1      46.024  35.867  25.853  1.00  0.00    -0.744 OA
ENDBRANCH  83  87
ENDBRANCH  57  80
ENDBRANCH  31  32
ENDBRANCH  24  26
ENDBRANCH  23  24
ENDBRANCH   1  23
TORSDOF 16
ENDMDL
