MODEL 1
REMARK VINA RESULT:     -10.6      0.000      0.000
REMARK SMILES CN(Cc1ccncc1)C(=O)c1cccn1CC(=O)OCCOC(=O)c1ccc(-c2c3nc(c(-c4cc(S(=O)(=O)[O-])ccc4F)c4ccc([nH]4)c(-c4cc(S(=O)(=O)[O-])ccc4F)c4nc(c(-c5cc(S(=O)(=O)[O-])ccc5F)c5ccc2[nH]5)C=C4)C=C3)cc1
REMARK SMILES IDX 21 1 20 2 18 3 19 4 17 5 16 6 12 7 13 8 14 9 15 10 10 11
REMARK SMILES IDX 11 12 2 13 1 14 3 15 4 16 5 17 9 18 6 19 8 20 7 21 22 22
REMARK SMILES IDX 23 23 24 24 25 25 26 26 27 27 88 28 28 29 87 30 29 31 30 32
REMARK SMILES IDX 31 33 81 34 32 35 86 36 80 37 82 38 33 39 85 40 79 41 78 42
REMARK SMILES IDX 34 44 66 45 46 46 65 47 47 48 50 49 64 50 83 51 48 52 49 53
REMARK SMILES IDX 63 55 84 56 51 57 35 58 36 59 44 60 37 61 43 62 45 63 42 64
REMARK SMILES IDX 38 65 39 66 40 67 41 68 67 69 68 70 76 71 69 72 75 73 77 74
REMARK SMILES IDX 74 75 70 76 71 77 72 78 73 79 52 80 53 81 61 82 54 83 60 84
REMARK SMILES IDX 62 85 59 86 55 87 56 88 57 89 58 90
REMARK H PARENT 82 43 50 54
REMARK Flexibility Score: inf
ROOT
ATOM      1  C   UNL A   1      33.371  30.276  27.029  1.00  0.00     0.274 C 
ENDROOT
BRANCH   1   2
ATOM      2  O   UNL A   1      33.323  28.862  27.333  1.00  0.00    -0.461 OA
BRANCH   2   3
ATOM      3  C   UNL A   1      32.786  28.079  26.359  1.00  0.00     0.326 C 
ATOM      4  O   UNL A   1      32.033  27.133  26.593  1.00  0.00    -0.250 OA
BRANCH   3   5
ATOM      5  C   UNL A   1      33.305  28.333  24.968  1.00  0.00     0.244 C 
BRANCH   5   6
ATOM      6  N   UNL A   1      32.414  28.149  23.823  1.00  0.00    -0.332 N 
ATOM      7  C   UNL A   1      32.337  27.029  23.013  1.00  0.00     0.107 A 
ATOM      8  C   UNL A   1      31.084  27.057  22.412  1.00  0.00     0.033 A 
ATOM      9  C   UNL A   1      30.465  28.280  22.714  1.00  0.00     0.020 A 
ATOM     10  C   UNL A   1      31.300  28.913  23.594  1.00  0.00     0.087 A 
BRANCH   7  11
ATOM     11  C   UNL A   1      33.306  25.964  22.938  1.00  0.00     0.270 C 
ATOM     12  O   UNL A   1      34.041  25.839  21.956  1.00  0.00    -0.267 OA
BRANCH  11  13
ATOM     13  N   UNL A   1      33.396  25.083  24.021  1.00  0.00    -0.336 N 
ATOM     14  C   UNL A   1      32.161  24.439  24.418  1.00  0.00     0.147 C 
BRANCH  13  15
ATOM     15  C   UNL A   1      34.529  25.044  24.959  1.00  0.00     0.155 C 
BRANCH  15  16
ATOM     16  C   UNL A   1      35.279  23.735  24.997  1.00  0.00    -0.026 A 
ATOM     17  C   UNL A   1      35.055  22.784  25.995  1.00  0.00     0.025 A 
ATOM     18  C   UNL A   1      36.200  23.425  23.985  1.00  0.00     0.025 A 
ATOM     19  C   UNL A   1      35.708  21.561  25.907  1.00  0.00     0.111 A 
ATOM     20  C   UNL A   1      36.784  22.168  23.970  1.00  0.00     0.111 A 
ATOM     21  N   UNL A   1      36.558  21.232  24.914  1.00  0.00    -0.265 NA
ENDBRANCH  15  16
ENDBRANCH  13  15
ENDBRANCH  11  13
ENDBRANCH   7  11
ENDBRANCH   5   6
ENDBRANCH   3   5
ENDBRANCH   2   3
ENDBRANCH   1   2
BRANCH   1  22
ATOM     22  C   UNL A   1      34.694  30.987  27.358  1.00  0.00     0.275 C 
BRANCH  22  23
ATOM     23  O   UNL A   1      35.877  30.198  27.171  1.00  0.00    -0.458 OA
BRANCH  23  24
ATOM     24  C   UNL A   1      36.707  30.325  28.228  1.00  0.00     0.338 C 
ATOM     25  O   UNL A   1      36.752  31.269  28.994  1.00  0.00    -0.246 OA
BRANCH  24  26
ATOM     26  C   UNL A   1      37.742  29.296  28.297  1.00  0.00     0.060 A 
ATOM     27  C   UNL A   1      37.748  28.478  29.429  1.00  0.00     0.016 A 
ATOM     28  C   UNL A   1      38.905  29.542  27.565  1.00  0.00     0.016 A 
ATOM     29  C   UNL A   1      38.957  28.076  29.963  1.00  0.00     0.010 A 
ATOM     30  C   UNL A   1      40.118  29.084  28.064  1.00  0.00     0.010 A 
ATOM     31  C   UNL A   1      40.142  28.392  29.286  1.00  0.00    -0.014 A 
BRANCH  31  32
ATOM     32  C   UNL A   1      41.343  27.638  29.694  1.00  0.00     0.031 A 
ATOM     33  C   UNL A   1      41.510  26.440  28.698  1.00  0.00     0.074 A 
ATOM     34  C   UNL A   1      42.011  28.064  30.820  1.00  0.00     0.049 A 
ATOM     35  N   UNL A   1      42.147  25.320  28.824  1.00  0.00    -0.248 NA
ATOM     36  C   UNL A   1      40.786  26.458  27.380  1.00  0.00     0.031 C 
ATOM     37  C   UNL A   1      41.684  29.276  31.620  1.00  0.00     0.029 A 
ATOM     38  N   UNL A   1      43.097  27.589  31.533  1.00  0.00    -0.354 N 
ATOM     39  C   UNL A   1      42.162  24.689  27.552  1.00  0.00     0.074 A 
ATOM     40  C   UNL A   1      41.176  25.344  26.762  1.00  0.00     0.031 C 
ATOM     41  C   UNL A   1      42.475  29.381  32.721  1.00  0.00     0.029 A 
ATOM     42  C   UNL A   1      43.425  28.283  32.750  1.00  0.00     0.049 A 
ATOM     43  H   UNL A   1      43.618  26.813  31.224  1.00  0.00     0.167 HD
ATOM     44  C   UNL A   1      43.121  23.791  27.182  1.00  0.00     0.034 A 
ATOM     45  C   UNL A   1      44.381  27.965  33.697  1.00  0.00     0.034 A 
ATOM     46  C   UNL A   1      43.961  23.530  28.299  1.00  0.00     0.049 A 
ATOM     47  C   UNL A   1      45.161  26.930  33.011  1.00  0.00     0.074 A 
ATOM     48  C   UNL A   1      43.714  22.886  29.482  1.00  0.00     0.029 A 
ATOM     49  N   UNL A   1      45.084  24.315  28.423  1.00  0.00    -0.354 N 
ATOM     50  N   UNL A   1      45.997  27.171  32.048  1.00  0.00    -0.248 NA
ATOM     51  C   UNL A   1      44.962  25.521  33.373  1.00  0.00     0.031 C 
ATOM     52  C   UNL A   1      44.339  23.736  30.410  1.00  0.00     0.029 A 
ATOM     53  C   UNL A   1      45.192  24.634  29.749  1.00  0.00     0.049 A 
ATOM     54  H   UNL A   1      45.691  24.594  27.699  1.00  0.00     0.167 HD
ATOM     55  C   UNL A   1      46.138  25.939  31.473  1.00  0.00     0.074 A 
ATOM     56  C   UNL A   1      45.797  24.968  32.495  1.00  0.00     0.031 C 
ATOM     57  C   UNL A   1      45.940  25.810  30.134  1.00  0.00     0.034 A 
BRANCH  44  58
ATOM     58  C   UNL A   1      43.593  23.268  25.852  1.00  0.00     0.023 A 
ATOM     59  C   UNL A   1      43.364  21.888  25.625  1.00  0.00     0.031 A 
ATOM     60  C   UNL A   1      44.523  23.892  25.012  1.00  0.00     0.131 A 
ATOM     61  C   UNL A   1      44.166  21.149  24.751  1.00  0.00     0.055 A 
ATOM     62  C   UNL A   1      45.266  23.163  24.069  1.00  0.00     0.041 A 
ATOM     63  F   UNL A   1      44.817  25.194  25.128  1.00  0.00    -0.206 F 
ATOM     64  C   UNL A   1      45.124  21.778  23.969  1.00  0.00     0.022 A 
BRANCH  61  65
ATOM     65  S   UNL A   1      44.061  19.337  24.837  1.00  0.00     0.124 S 
ATOM     66  O   UNL A   1      44.999  19.028  25.911  1.00  0.00    -0.237 OA
ATOM     67  O   UNL A   1      42.650  19.127  25.141  1.00  0.00    -0.237 OA
ATOM     68  O   UNL A   1      44.480  18.911  23.503  1.00  0.00    -0.744 OA
ENDBRANCH  61  65
ENDBRANCH  44  58
BRANCH  45  69
ATOM     69  C   UNL A   1      44.907  28.275  35.118  1.00  0.00     0.023 A 
ATOM     70  C   UNL A   1      44.640  27.598  36.323  1.00  0.00     0.031 A 
ATOM     71  C   UNL A   1      45.881  29.330  35.261  1.00  0.00     0.131 A 
ATOM     72  C   UNL A   1      45.384  27.916  37.512  1.00  0.00     0.055 A 
ATOM     73  C   UNL A   1      46.672  29.559  36.387  1.00  0.00     0.041 A 
ATOM     74  F   UNL A   1      46.125  30.224  34.295  1.00  0.00    -0.206 F 
ATOM     75  C   UNL A   1      46.438  28.834  37.523  1.00  0.00     0.022 A 
BRANCH  72  76
ATOM     76  S   UNL A   1      45.027  27.144  39.126  1.00  0.00     0.124 S 
ATOM     77  O   UNL A   1      44.947  28.305  40.007  1.00  0.00    -0.237 OA
ATOM     78  O   UNL A   1      43.780  26.433  38.882  1.00  0.00    -0.237 OA
ATOM     79  O   UNL A   1      46.190  26.282  39.352  1.00  0.00    -0.744 OA
ENDBRANCH  72  76
ENDBRANCH  45  69
BRANCH  57  80
ATOM     80  C   UNL A   1      46.160  27.089  29.321  1.00  0.00     0.023 A 
ATOM     81  C   UNL A   1      45.059  27.737  28.718  1.00  0.00     0.031 A 
ATOM     82  C   UNL A   1      47.422  27.630  29.010  1.00  0.00     0.131 A 
ATOM     83  C   UNL A   1      45.236  28.816  27.828  1.00  0.00     0.055 A 
ATOM     84  C   UNL A   1      47.603  28.708  28.126  1.00  0.00     0.041 A 
ATOM     85  F   UNL A   1      48.536  27.131  29.544  1.00  0.00    -0.206 F 
ATOM     86  C   UNL A   1      46.506  29.304  27.524  1.00  0.00     0.022 A 
BRANCH  83  87
ATOM     87  S   UNL A   1      43.779  29.591  27.072  1.00  0.00     0.124 S 
ATOM     88  O   UNL A   1      44.367  30.578  26.174  1.00  0.00    -0.237 OA
ATOM     89  O   UNL A   1      43.117  28.458  26.433  1.00  0.00    -0.237 OA
ATOM     90  O   UNL A   1      43.057  30.152  28.215  1.00  0.00    -0.744 OA
ENDBRANCH  83  87
ENDBRANCH  57  80
ENDBRANCH  31  32
ENDBRANCH  24  26
ENDBRANCH  23  24
ENDBRANCH  22  23
ENDBRANCH   1  22
TORSDOF 19
ENDMDL
MODEL 2
REMARK VINA RESULT:     -10.6      2.865      7.950
REMARK SMILES CN(Cc1ccncc1)C(=O)c1cccn1CC(=O)OCCOC(=O)c1ccc(-c2c3nc(c(-c4cc(S(=O)(=O)[O-])ccc4F)c4ccc([nH]4)c(-c4cc(S(=O)(=O)[O-])ccc4F)c4nc(c(-c5cc(S(=O)(=O)[O-])ccc5F)c5ccc2[nH]5)C=C4)C=C3)cc1
REMARK SMILES IDX 21 1 20 2 18 3 19 4 17 5 16 6 12 7 13 8 14 9 15 10 10 11
REMARK SMILES IDX 11 12 2 13 1 14 3 15 4 16 5 17 9 18 6 19 8 20 7 21 22 22
REMARK SMILES IDX 23 23 24 24 25 25 26 26 27 27 88 28 28 29 87 30 29 31 30 32
REMARK SMILES IDX 31 33 81 34 32 35 86 36 80 37 82 38 33 39 85 40 79 41 78 42
REMARK SMILES IDX 34 44 66 45 46 46 65 47 47 48 50 49 64 50 83 51 48 52 49 53
REMARK SMILES IDX 63 55 84 56 51 57 35 58 36 59 44 60 37 61 43 62 45 63 42 64
REMARK SMILES IDX 38 65 39 66 40 67 41 68 67 69 68 70 76 71 69 72 75 73 77 74
REMARK SMILES IDX 74 75 70 76 71 77 72 78 73 79 52 80 53 81 61 82 54 83 60 84
REMARK SMILES IDX 62 85 59 86 55 87 56 88 57 89 58 90
REMARK H PARENT 82 43 50 54
REMARK Flexibility Score: inf
ROOT
ATOM      1  C   UNL A   1      35.099  29.365  26.986  1.00  0.00     0.274 C 
ENDROOT
BRANCH   1   2
ATOM      2  O   UNL A   1      33.823  29.400  26.303  1.00  0.00    -0.461 OA
BRANCH   2   3
ATOM      3  C   UNL A   1      33.121  28.235  26.330  1.00  0.00     0.326 C 
ATOM      4  O   UNL A   1      33.646  27.136  26.508  1.00  0.00    -0.250 OA
BRANCH   3   5
ATOM      5  C   UNL A   1      31.666  28.350  25.956  1.00  0.00     0.244 C 
BRANCH   5   6
ATOM      6  N   UNL A   1      31.282  28.327  24.545  1.00  0.00    -0.332 N 
ATOM      7  C   UNL A   1      31.199  27.208  23.734  1.00  0.00     0.107 A 
ATOM      8  C   UNL A   1      30.350  27.541  22.684  1.00  0.00     0.033 A 
ATOM      9  C   UNL A   1      30.057  28.911  22.756  1.00  0.00     0.020 A 
ATOM     10  C   UNL A   1      30.629  29.355  23.916  1.00  0.00     0.087 A 
BRANCH   7  11
ATOM     11  C   UNL A   1      31.755  25.908  24.015  1.00  0.00     0.270 C 
ATOM     12  O   UNL A   1      31.168  25.107  24.745  1.00  0.00    -0.267 OA
BRANCH  11  13
ATOM     13  N   UNL A   1      32.978  25.577  23.421  1.00  0.00    -0.336 N 
ATOM     14  C   UNL A   1      33.633  26.640  22.686  1.00  0.00     0.147 C 
BRANCH  13  15
ATOM     15  C   UNL A   1      33.442  24.198  23.203  1.00  0.00     0.155 C 
BRANCH  15  16
ATOM     16  C   UNL A   1      34.759  23.859  23.854  1.00  0.00    -0.026 A 
ATOM     17  C   UNL A   1      35.083  24.296  25.141  1.00  0.00     0.025 A 
ATOM     18  C   UNL A   1      35.683  23.043  23.184  1.00  0.00     0.025 A 
ATOM     19  C   UNL A   1      36.270  23.859  25.714  1.00  0.00     0.111 A 
ATOM     20  C   UNL A   1      36.831  22.640  23.848  1.00  0.00     0.111 A 
ATOM     21  N   UNL A   1      37.143  23.035  25.099  1.00  0.00    -0.265 NA
ENDBRANCH  15  16
ENDBRANCH  13  15
ENDBRANCH  11  13
ENDBRANCH   7  11
ENDBRANCH   5   6
ENDBRANCH   3   5
ENDBRANCH   2   3
ENDBRANCH   1   2
BRANCH   1  22
ATOM     22  C   UNL A   1      35.097  29.879  28.435  1.00  0.00     0.275 C 
BRANCH  22  23
ATOM     23  O   UNL A   1      36.275  30.592  28.834  1.00  0.00    -0.458 OA
BRANCH  23  24
ATOM     24  C   UNL A   1      37.063  29.815  29.610  1.00  0.00     0.338 C 
ATOM     25  O   UNL A   1      36.736  29.281  30.653  1.00  0.00    -0.246 OA
BRANCH  24  26
ATOM     26  C   UNL A   1      38.467  29.806  29.209  1.00  0.00     0.060 A 
ATOM     27  C   UNL A   1      38.737  29.638  27.849  1.00  0.00     0.016 A 
ATOM     28  C   UNL A   1      39.386  29.427  30.189  1.00  0.00     0.016 A 
ATOM     29  C   UNL A   1      39.834  28.891  27.467  1.00  0.00     0.010 A 
ATOM     30  C   UNL A   1      40.525  28.732  29.805  1.00  0.00     0.010 A 
ATOM     31  C   UNL A   1      40.719  28.427  28.448  1.00  0.00    -0.014 A 
BRANCH  31  32
ATOM     32  C   UNL A   1      42.037  27.967  27.968  1.00  0.00     0.031 A 
ATOM     33  C   UNL A   1      42.940  29.232  27.775  1.00  0.00     0.074 A 
ATOM     34  C   UNL A   1      42.197  26.617  27.745  1.00  0.00     0.049 A 
ATOM     35  N   UNL A   1      44.001  29.411  27.055  1.00  0.00    -0.248 NA
ATOM     36  C   UNL A   1      42.552  30.531  28.427  1.00  0.00     0.031 C 
ATOM     37  C   UNL A   1      41.187  25.561  28.029  1.00  0.00     0.029 A 
ATOM     38  N   UNL A   1      43.225  25.840  27.242  1.00  0.00    -0.354 N 
ATOM     39  C   UNL A   1      44.551  30.671  27.407  1.00  0.00     0.074 A 
ATOM     40  C   UNL A   1      43.536  31.374  28.115  1.00  0.00     0.031 C 
ATOM     41  C   UNL A   1      41.612  24.335  27.622  1.00  0.00     0.029 A 
ATOM     42  C   UNL A   1      42.949  24.439  27.064  1.00  0.00     0.049 A 
ATOM     43  H   UNL A   1      44.102  26.226  27.017  1.00  0.00     0.167 HD
ATOM     44  C   UNL A   1      45.873  30.972  27.249  1.00  0.00     0.034 A 
ATOM     45  C   UNL A   1      43.747  23.464  26.492  1.00  0.00     0.034 A 
ATOM     46  C   UNL A   1      46.512  29.893  26.580  1.00  0.00     0.049 A 
ATOM     47  C   UNL A   1      45.040  24.150  26.387  1.00  0.00     0.074 A 
ATOM     48  C   UNL A   1      46.393  29.430  25.297  1.00  0.00     0.029 A 
ATOM     49  N   UNL A   1      47.076  28.922  27.375  1.00  0.00    -0.354 N 
ATOM     50  N   UNL A   1      45.818  24.388  27.397  1.00  0.00    -0.248 NA
ATOM     51  C   UNL A   1      45.479  24.659  25.082  1.00  0.00     0.031 C 
ATOM     52  C   UNL A   1      46.349  28.039  25.495  1.00  0.00     0.029 A 
ATOM     53  C   UNL A   1      46.770  27.719  26.796  1.00  0.00     0.049 A 
ATOM     54  H   UNL A   1      47.595  29.062  28.199  1.00  0.00     0.167 HD
ATOM     55  C   UNL A   1      46.637  25.367  26.906  1.00  0.00     0.074 A 
ATOM     56  C   UNL A   1      46.623  25.225  25.463  1.00  0.00     0.031 C 
ATOM     57  C   UNL A   1      46.776  26.523  27.607  1.00  0.00     0.034 A 
BRANCH  44  58
ATOM     58  C   UNL A   1      46.774  32.023  27.840  1.00  0.00     0.023 A 
ATOM     59  C   UNL A   1      47.467  32.829  26.901  1.00  0.00     0.031 A 
ATOM     60  C   UNL A   1      47.260  32.039  29.152  1.00  0.00     0.131 A 
ATOM     61  C   UNL A   1      48.681  33.442  27.220  1.00  0.00     0.055 A 
ATOM     62  C   UNL A   1      48.433  32.732  29.492  1.00  0.00     0.041 A 
ATOM     63  F   UNL A   1      46.683  31.323  30.127  1.00  0.00    -0.206 F 
ATOM     64  C   UNL A   1      49.176  33.396  28.515  1.00  0.00     0.022 A 
BRANCH  61  65
ATOM     65  S   UNL A   1      49.679  34.099  25.852  1.00  0.00     0.124 S 
ATOM     66  O   UNL A   1      50.433  32.923  25.432  1.00  0.00    -0.237 OA
ATOM     67  O   UNL A   1      48.655  34.567  24.924  1.00  0.00    -0.237 OA
ATOM     68  O   UNL A   1      50.470  35.152  26.487  1.00  0.00    -0.744 OA
ENDBRANCH  61  65
ENDBRANCH  44  58
BRANCH  45  69
ATOM     69  C   UNL A   1      43.787  22.013  25.960  1.00  0.00     0.023 A 
ATOM     70  C   UNL A   1      44.890  21.282  25.480  1.00  0.00     0.031 A 
ATOM     71  C   UNL A   1      42.577  21.233  26.037  1.00  0.00     0.131 A 
ATOM     72  C   UNL A   1      44.765  19.874  25.216  1.00  0.00     0.055 A 
ATOM     73  C   UNL A   1      42.489  19.849  25.883  1.00  0.00     0.041 A 
ATOM     74  F   UNL A   1      41.377  21.781  26.269  1.00  0.00    -0.206 F 
ATOM     75  C   UNL A   1      43.598  19.153  25.486  1.00  0.00     0.022 A 
BRANCH  72  76
ATOM     76  S   UNL A   1      46.126  18.886  24.507  1.00  0.00     0.124 S 
ATOM     77  O   UNL A   1      45.676  18.692  23.133  1.00  0.00    -0.237 OA
ATOM     78  O   UNL A   1      47.287  19.746  24.690  1.00  0.00    -0.237 OA
ATOM     79  O   UNL A   1      46.125  17.673  25.330  1.00  0.00    -0.744 OA
ENDBRANCH  72  76
ENDBRANCH  45  69
BRANCH  57  80
ATOM     80  C   UNL A   1      46.499  26.408  29.109  1.00  0.00     0.023 A 
ATOM     81  C   UNL A   1      45.381  27.063  29.670  1.00  0.00     0.031 A 
ATOM     82  C   UNL A   1      47.358  25.783  30.033  1.00  0.00     0.131 A 
ATOM     83  C   UNL A   1      45.185  27.121  31.065  1.00  0.00     0.055 A 
ATOM     84  C   UNL A   1      47.164  25.834  31.424  1.00  0.00     0.041 A 
ATOM     85  F   UNL A   1      48.429  25.100  29.627  1.00  0.00    -0.206 F 
ATOM     86  C   UNL A   1      46.075  26.512  31.948  1.00  0.00     0.022 A 
BRANCH  83  87
ATOM     87  S   UNL A   1      43.737  27.997  31.722  1.00  0.00     0.124 S 
ATOM     88  O   UNL A   1      43.844  29.311  31.100  1.00  0.00    -0.237 OA
ATOM     89  O   UNL A   1      42.631  27.160  31.268  1.00  0.00    -0.237 OA
ATOM     90  O   UNL A   1      43.956  27.983  33.170  1.00  0.00    -0.744 OA
ENDBRANCH  83  87
ENDBRANCH  57  80
ENDBRANCH  31  32
ENDBRANCH  24  26
ENDBRANCH  23  24
ENDBRANCH  22  23
ENDBRANCH   1  22
TORSDOF 19
ENDMDL
MODEL 3
REMARK VINA RESULT:     -10.5      1.157      1.679
REMARK SMILES CN(Cc1ccncc1)C(=O)c1cccn1CC(=O)OCCOC(=O)c1ccc(-c2c3nc(c(-c4cc(S(=O)(=O)[O-])ccc4F)c4ccc([nH]4)c(-c4cc(S(=O)(=O)[O-])ccc4F)c4nc(c(-c5cc(S(=O)(=O)[O-])ccc5F)c5ccc2[nH]5)C=C4)C=C3)cc1
REMARK SMILES IDX 21 1 20 2 18 3 19 4 17 5 16 6 12 7 13 8 14 9 15 10 10 11
REMARK SMILES IDX 11 12 2 13 1 14 3 15 4 16 5 17 9 18 6 19 8 20 7 21 22 22
REMARK SMILES IDX 23 23 24 24 25 25 26 26 27 27 88 28 28 29 87 30 29 31 30 32
REMARK SMILES IDX 31 33 81 34 32 35 86 36 80 37 82 38 33 39 85 40 79 41 78 42
REMARK SMILES IDX 34 44 66 45 46 46 65 47 47 48 50 49 64 50 83 51 48 52 49 53
REMARK SMILES IDX 63 55 84 56 51 57 35 58 36 59 44 60 37 61 43 62 45 63 42 64
REMARK SMILES IDX 38 65 39 66 40 67 41 68 67 69 68 70 76 71 69 72 75 73 77 74
REMARK SMILES IDX 74 75 70 76 71 77 72 78 73 79 52 80 53 81 61 82 54 83 60 84
REMARK SMILES IDX 62 85 59 86 55 87 56 88 57 89 58 90
REMARK H PARENT 82 43 50 54
REMARK Flexibility Score: inf
ROOT
ATOM      1  C   UNL A   1      33.696  29.326  26.086  1.00  0.00     0.274 C 
ENDROOT
BRANCH   1   2
ATOM      2  O   UNL A   1      32.336  28.836  26.176  1.00  0.00    -0.461 OA
BRANCH   2   3
ATOM      3  C   UNL A   1      31.997  27.899  25.251  1.00  0.00     0.326 C 
ATOM      4  O   UNL A   1      30.848  27.751  24.831  1.00  0.00    -0.250 OA
BRANCH   3   5
ATOM      5  C   UNL A   1      33.089  26.928  24.886  1.00  0.00     0.244 C 
BRANCH   5   6
ATOM      6  N   UNL A   1      32.919  26.060  23.721  1.00  0.00    -0.332 N 
ATOM      7  C   UNL A   1      32.177  24.892  23.667  1.00  0.00     0.107 A 
ATOM      8  C   UNL A   1      31.874  24.675  22.328  1.00  0.00     0.033 A 
ATOM      9  C   UNL A   1      32.577  25.607  21.548  1.00  0.00     0.020 A 
ATOM     10  C   UNL A   1      33.190  26.448  22.435  1.00  0.00     0.087 A 
BRANCH   7  11
ATOM     11  C   UNL A   1      31.683  24.143  24.796  1.00  0.00     0.270 C 
ATOM     12  O   UNL A   1      30.686  24.512  25.419  1.00  0.00    -0.267 OA
BRANCH  11  13
ATOM     13  N   UNL A   1      32.362  22.973  25.153  1.00  0.00    -0.336 N 
ATOM     14  C   UNL A   1      32.755  22.869  26.544  1.00  0.00     0.147 C 
BRANCH  13  15
ATOM     15  C   UNL A   1      32.987  22.055  24.188  1.00  0.00     0.155 C 
BRANCH  15  16
ATOM     16  C   UNL A   1      34.495  22.027  24.220  1.00  0.00    -0.026 A 
ATOM     17  C   UNL A   1      35.266  22.995  23.572  1.00  0.00     0.025 A 
ATOM     18  C   UNL A   1      35.162  21.034  24.953  1.00  0.00     0.025 A 
ATOM     19  C   UNL A   1      36.645  22.962  23.732  1.00  0.00     0.111 A 
ATOM     20  C   UNL A   1      36.541  21.099  25.073  1.00  0.00     0.111 A 
ATOM     21  N   UNL A   1      37.295  22.042  24.473  1.00  0.00    -0.265 NA
ENDBRANCH  15  16
ENDBRANCH  13  15
ENDBRANCH  11  13
ENDBRANCH   7  11
ENDBRANCH   5   6
ENDBRANCH   3   5
ENDBRANCH   2   3
ENDBRANCH   1   2
BRANCH   1  22
ATOM     22  C   UNL A   1      34.501  29.308  27.396  1.00  0.00     0.275 C 
BRANCH  22  23
ATOM     23  O   UNL A   1      35.926  29.341  27.240  1.00  0.00    -0.458 OA
BRANCH  23  24
ATOM     24  C   UNL A   1      36.464  30.334  27.982  1.00  0.00     0.338 C 
ATOM     25  O   UNL A   1      36.119  31.501  27.974  1.00  0.00    -0.246 OA
BRANCH  24  26
ATOM     26  C   UNL A   1      37.679  29.950  28.695  1.00  0.00     0.060 A 
ATOM     27  C   UNL A   1      38.873  29.973  27.972  1.00  0.00     0.016 A 
ATOM     28  C   UNL A   1      37.508  29.110  29.798  1.00  0.00     0.016 A 
ATOM     29  C   UNL A   1      39.825  29.001  28.211  1.00  0.00     0.010 A 
ATOM     30  C   UNL A   1      38.492  28.174  30.084  1.00  0.00     0.010 A 
ATOM     31  C   UNL A   1      39.626  28.094  29.259  1.00  0.00    -0.014 A 
BRANCH  31  32
ATOM     32  C   UNL A   1      40.815  27.336  29.696  1.00  0.00     0.031 A 
ATOM     33  C   UNL A   1      41.043  26.178  28.666  1.00  0.00     0.074 A 
ATOM     34  C   UNL A   1      41.424  27.726  30.868  1.00  0.00     0.049 A 
ATOM     35  N   UNL A   1      41.686  25.061  28.781  1.00  0.00    -0.248 NA
ATOM     36  C   UNL A   1      40.383  26.239  27.316  1.00  0.00     0.031 C 
ATOM     37  C   UNL A   1      41.045  28.905  31.696  1.00  0.00     0.029 A 
ATOM     38  N   UNL A   1      42.480  27.235  31.615  1.00  0.00    -0.354 N 
ATOM     39  C   UNL A   1      41.769  24.478  27.489  1.00  0.00     0.074 A 
ATOM     40  C   UNL A   1      40.815  25.153  26.677  1.00  0.00     0.031 C 
ATOM     41  C   UNL A   1      41.782  28.976  32.837  1.00  0.00     0.029 A 
ATOM     42  C   UNL A   1      42.741  27.887  32.871  1.00  0.00     0.049 A 
ATOM     43  H   UNL A   1      43.024  26.477  31.302  1.00  0.00     0.167 HD
ATOM     44  C   UNL A   1      42.755  23.603  27.133  1.00  0.00     0.034 A 
ATOM     45  C   UNL A   1      43.655  27.543  33.850  1.00  0.00     0.034 A 
ATOM     46  C   UNL A   1      43.543  23.309  28.278  1.00  0.00     0.049 A 
ATOM     47  C   UNL A   1      44.479  26.541  33.164  1.00  0.00     0.074 A 
ATOM     48  C   UNL A   1      43.248  22.619  29.423  1.00  0.00     0.029 A 
ATOM     49  N   UNL A   1      44.650  24.099  28.485  1.00  0.00    -0.354 N 
ATOM     50  N   UNL A   1      45.356  26.826  32.253  1.00  0.00    -0.248 NA
ATOM     51  C   UNL A   1      44.278  25.118  33.465  1.00  0.00     0.031 C 
ATOM     52  C   UNL A   1      43.818  23.439  30.411  1.00  0.00     0.029 A 
ATOM     53  C   UNL A   1      44.691  24.370  29.826  1.00  0.00     0.049 A 
ATOM     54  H   UNL A   1      45.288  24.411  27.802  1.00  0.00     0.167 HD
ATOM     55  C   UNL A   1      45.539  25.618  31.640  1.00  0.00     0.074 A 
ATOM     56  C   UNL A   1      45.161  24.607  32.608  1.00  0.00     0.031 C 
ATOM     57  C   UNL A   1      45.407  25.537  30.289  1.00  0.00     0.034 A 
BRANCH  44  58
ATOM     58  C   UNL A   1      43.296  23.135  25.808  1.00  0.00     0.023 A 
ATOM     59  C   UNL A   1      43.386  21.729  25.651  1.00  0.00     0.031 A 
ATOM     60  C   UNL A   1      44.031  23.912  24.905  1.00  0.00     0.131 A 
ATOM     61  C   UNL A   1      44.311  21.150  24.778  1.00  0.00     0.055 A 
ATOM     62  C   UNL A   1      44.894  23.325  23.966  1.00  0.00     0.041 A 
ATOM     63  F   UNL A   1      44.018  25.251  24.952  1.00  0.00    -0.206 F 
ATOM     64  C   UNL A   1      45.075  21.942  23.931  1.00  0.00     0.022 A 
BRANCH  61  65
ATOM     65  S   UNL A   1      44.632  19.370  24.947  1.00  0.00     0.124 S 
ATOM     66  O   UNL A   1      45.982  19.354  25.498  1.00  0.00    -0.237 OA
ATOM     67  O   UNL A   1      43.567  18.953  25.854  1.00  0.00    -0.237 OA
ATOM     68  O   UNL A   1      44.511  18.874  23.578  1.00  0.00    -0.744 OA
ENDBRANCH  61  65
ENDBRANCH  44  58
BRANCH  45  69
ATOM     69  C   UNL A   1      44.109  27.805  35.305  1.00  0.00     0.023 A 
ATOM     70  C   UNL A   1      44.267  26.883  36.358  1.00  0.00     0.031 A 
ATOM     71  C   UNL A   1      44.531  29.140  35.650  1.00  0.00     0.131 A 
ATOM     72  C   UNL A   1      44.893  27.289  37.587  1.00  0.00     0.055 A 
ATOM     73  C   UNL A   1      45.233  29.500  36.800  1.00  0.00     0.041 A 
ATOM     74  F   UNL A   1      44.277  30.201  34.873  1.00  0.00    -0.206 F 
ATOM     75  C   UNL A   1      45.436  28.563  37.776  1.00  0.00     0.022 A 
BRANCH  72  76
ATOM     76  S   UNL A   1      45.048  26.173  39.022  1.00  0.00     0.124 S 
ATOM     77  O   UNL A   1      44.551  24.912  38.481  1.00  0.00    -0.237 OA
ATOM     78  O   UNL A   1      46.471  26.227  39.329  1.00  0.00    -0.237 OA
ATOM     79  O   UNL A   1      44.180  26.794  40.026  1.00  0.00    -0.744 OA
ENDBRANCH  72  76
ENDBRANCH  45  69
BRANCH  57  80
ATOM     80  C   UNL A   1      45.650  26.848  29.535  1.00  0.00     0.023 A 
ATOM     81  C   UNL A   1      44.582  27.480  28.860  1.00  0.00     0.031 A 
ATOM     82  C   UNL A   1      46.915  27.438  29.348  1.00  0.00     0.131 A 
ATOM     83  C   UNL A   1      44.797  28.592  28.020  1.00  0.00     0.055 A 
ATOM     84  C   UNL A   1      47.133  28.549  28.515  1.00  0.00     0.041 A 
ATOM     85  F   UNL A   1      47.997  26.958  29.960  1.00  0.00    -0.206 F 
ATOM     86  C   UNL A   1      46.071  29.129  27.840  1.00  0.00     0.022 A 
BRANCH  83  87
ATOM     87  S   UNL A   1      43.383  29.345  27.166  1.00  0.00     0.124 S 
ATOM     88  O   UNL A   1      42.621  29.936  28.260  1.00  0.00    -0.237 OA
ATOM     89  O   UNL A   1      44.031  30.283  26.254  1.00  0.00    -0.237 OA
ATOM     90  O   UNL A   1      42.735  28.208  26.510  1.00  0.00    -0.744 OA
ENDBRANCH  83  87
ENDBRANCH  57  80
ENDBRANCH  31  32
ENDBRANCH  24  26
ENDBRANCH  23  24
ENDBRANCH  22  23
ENDBRANCH   1  22
TORSDOF 19
ENDMDL
