MODEL 1
REMARK VINA RESULT:     -11.2      0.000      0.000
REMARK SMILES CCN(CC(C)(C)O)C(=O)Nc1ccc(C(=O)OCCOC(=O)c2ccc(-c3c4nc(c(-c5cc(S(=O)(=O)[O-])ccc5F)c5ccc([nH]5)c(-c5cc(S(=O)(=O)[O-])ccc5F)c5nc(c(-c6cc(S(=O)(=O)[O-])ccc6F)c6ccc3[nH]6)C=C5)C=C4)cc2)c(O)c1
REMARK SMILES IDX 19 1 18 2 16 3 17 4 15 5 12 6 13 7 89 8 14 9 87 10 11 11
REMARK SMILES IDX 9 12 10 13 3 15 2 16 1 17 4 18 5 19 6 20 7 21 8 22 88 24
REMARK SMILES IDX 20 26 21 27 22 28 23 29 24 30 25 31 86 32 26 33 85 34 27 35
REMARK SMILES IDX 28 36 29 37 79 38 30 39 84 40 78 41 80 42 31 43 83 44 77 45
REMARK SMILES IDX 76 46 32 48 64 49 44 50 63 51 45 52 48 53 62 54 81 55 46 56
REMARK SMILES IDX 47 57 61 59 82 60 49 61 33 62 34 63 42 64 35 65 41 66 43 67
REMARK SMILES IDX 40 68 36 69 37 70 38 71 39 72 65 73 66 74 74 75 67 76 73 77
REMARK SMILES IDX 75 78 72 79 68 80 69 81 70 82 71 83 50 84 51 85 59 86 52 87
REMARK SMILES IDX 58 88 60 89 57 90 53 91 54 92 55 93 56 94
REMARK H PARENT 11 14 8 23 88 25 80 47 48 58
REMARK Flexibility Score: inf
ROOT
ATOM      1  C   UNL A   1      31.556  29.234  25.254  1.00  0.00     0.275 C 
ENDROOT
BRANCH   1   2
ATOM      2  O   UNL A   1      31.374  29.252  23.821  1.00  0.00    -0.458 OA
BRANCH   2   3
ATOM      3  C   UNL A   1      30.295  28.567  23.378  1.00  0.00     0.342 C 
ATOM      4  O   UNL A   1      29.229  29.040  23.013  1.00  0.00    -0.246 OA
BRANCH   3   5
ATOM      5  C   UNL A   1      30.636  27.142  23.223  1.00  0.00     0.101 A 
ATOM      6  C   UNL A   1      31.025  24.344  23.043  1.00  0.00     0.046 A 
ATOM      7  C   UNL A   1      30.124  24.894  23.933  1.00  0.00     0.027 A 
ATOM      8  C   UNL A   1      31.821  25.234  22.304  1.00  0.00     0.073 A 
ATOM      9  C   UNL A   1      29.905  26.266  24.019  1.00  0.00     0.022 A 
ATOM     10  C   UNL A   1      31.621  26.623  22.382  1.00  0.00     0.132 A 
BRANCH   6  11
ATOM     11  N   UNL A   1      31.263  22.968  22.912  1.00  0.00    -0.308 N 
ATOM     12  C   UNL A   1      32.270  22.066  22.983  1.00  0.00     0.321 C 
ATOM     13  O   UNL A   1      32.010  21.005  22.393  1.00  0.00    -0.248 OA
ATOM     14  H   UNL A   1      30.421  22.505  22.696  1.00  0.00     0.171 HD
BRANCH  12  15
ATOM     15  N   UNL A   1      33.425  22.189  23.708  1.00  0.00    -0.322 N 
BRANCH  15  16
ATOM     16  C   UNL A   1      33.602  21.241  24.825  1.00  0.00     0.118 C 
ATOM     17  C   UNL A   1      34.975  20.575  24.807  1.00  0.00     0.027 C 
ENDBRANCH  15  16
BRANCH  15  18
ATOM     18  C   UNL A   1      34.443  23.245  23.688  1.00  0.00     0.155 C 
BRANCH  18  19
ATOM     19  C   UNL A   1      34.422  24.193  24.941  1.00  0.00     0.077 C 
ATOM     20  C   UNL A   1      33.215  24.044  25.886  1.00  0.00     0.043 C 
ATOM     21  C   UNL A   1      35.739  24.047  25.700  1.00  0.00     0.043 C 
BRANCH  19  22
ATOM     22  O   UNL A   1      34.376  25.555  24.482  1.00  0.00    -0.389 OA
ATOM     23  H   UNL A   1      34.713  26.142  25.177  1.00  0.00     0.211 HD
ENDBRANCH  19  22
ENDBRANCH  18  19
ENDBRANCH  15  18
ENDBRANCH  12  15
ENDBRANCH   6  11
BRANCH  10  24
ATOM     24  O   UNL A   1      32.450  27.403  21.621  1.00  0.00    -0.507 OA
ATOM     25  H   UNL A   1      32.398  28.336  21.679  1.00  0.00     0.293 HD
ENDBRANCH  10  24
ENDBRANCH   3   5
ENDBRANCH   2   3
ENDBRANCH   1   2
BRANCH   1  26
ATOM     26  C   UNL A   1      31.578  30.661  25.803  1.00  0.00     0.275 C 
BRANCH  26  27
ATOM     27  O   UNL A   1      32.188  30.705  27.112  1.00  0.00    -0.458 OA
BRANCH  27  28
ATOM     28  C   UNL A   1      32.969  31.787  27.353  1.00  0.00     0.338 C 
ATOM     29  O   UNL A   1      32.629  32.957  27.288  1.00  0.00    -0.246 OA
BRANCH  28  30
ATOM     30  C   UNL A   1      34.356  31.386  27.670  1.00  0.00     0.060 A 
ATOM     31  C   UNL A   1      34.684  30.047  27.831  1.00  0.00     0.016 A 
ATOM     32  C   UNL A   1      35.306  32.366  27.968  1.00  0.00     0.016 A 
ATOM     33  C   UNL A   1      35.917  29.710  28.411  1.00  0.00     0.010 A 
ATOM     34  C   UNL A   1      36.571  32.008  28.470  1.00  0.00     0.010 A 
ATOM     35  C   UNL A   1      36.879  30.674  28.785  1.00  0.00    -0.014 A 
BRANCH  35  36
ATOM     36  C   UNL A   1      38.116  30.302  29.585  1.00  0.00     0.031 A 
ATOM     37  C   UNL A   1      39.208  29.413  28.991  1.00  0.00     0.074 A 
ATOM     38  C   UNL A   1      38.346  30.797  30.824  1.00  0.00     0.049 A 
ATOM     39  N   UNL A   1      40.222  28.826  29.587  1.00  0.00    -0.248 NA
ATOM     40  C   UNL A   1      39.143  29.137  27.549  1.00  0.00     0.031 C 
ATOM     41  C   UNL A   1      37.460  31.701  31.557  1.00  0.00     0.029 A 
ATOM     42  N   UNL A   1      39.415  30.634  31.682  1.00  0.00    -0.354 N 
ATOM     43  C   UNL A   1      40.850  28.042  28.617  1.00  0.00     0.074 A 
ATOM     44  C   UNL A   1      40.105  28.238  27.391  1.00  0.00     0.031 C 
ATOM     45  C   UNL A   1      38.059  32.092  32.689  1.00  0.00     0.029 A 
ATOM     46  C   UNL A   1      39.300  31.345  32.857  1.00  0.00     0.049 A 
ATOM     47  H   UNL A   1      40.189  30.062  31.473  1.00  0.00     0.167 HD
ATOM     48  C   UNL A   1      41.938  27.233  28.731  1.00  0.00     0.034 A 
ATOM     49  C   UNL A   1      40.046  31.359  33.983  1.00  0.00     0.034 A 
ATOM     50  C   UNL A   1      42.756  27.119  29.920  1.00  0.00     0.049 A 
ATOM     51  C   UNL A   1      41.236  30.445  34.101  1.00  0.00     0.074 A 
ATOM     52  C   UNL A   1      43.896  26.351  30.111  1.00  0.00     0.029 A 
ATOM     53  N   UNL A   1      42.550  27.807  31.106  1.00  0.00    -0.354 N 
ATOM     54  N   UNL A   1      41.727  29.610  33.215  1.00  0.00    -0.248 NA
ATOM     55  C   UNL A   1      41.952  30.450  35.385  1.00  0.00     0.031 C 
ATOM     56  C   UNL A   1      44.339  26.527  31.427  1.00  0.00     0.029 A 
ATOM     57  C   UNL A   1      43.523  27.463  32.035  1.00  0.00     0.049 A 
ATOM     58  H   UNL A   1      41.819  28.446  31.266  1.00  0.00     0.167 HD
ATOM     59  C   UNL A   1      42.806  28.990  33.841  1.00  0.00     0.074 A 
ATOM     60  C   UNL A   1      42.918  29.571  35.161  1.00  0.00     0.031 C 
ATOM     61  C   UNL A   1      43.623  28.017  33.364  1.00  0.00     0.034 A 
BRANCH  48  62
ATOM     62  C   UNL A   1      42.285  26.335  27.559  1.00  0.00     0.023 A 
ATOM     63  C   UNL A   1      41.837  25.008  27.452  1.00  0.00     0.031 A 
ATOM     64  C   UNL A   1      43.073  26.846  26.509  1.00  0.00     0.131 A 
ATOM     65  C   UNL A   1      42.228  24.224  26.352  1.00  0.00     0.055 A 
ATOM     66  C   UNL A   1      43.393  26.087  25.382  1.00  0.00     0.041 A 
ATOM     67  F   UNL A   1      43.544  28.102  26.558  1.00  0.00    -0.206 F 
ATOM     68  C   UNL A   1      42.979  24.763  25.305  1.00  0.00     0.022 A 
BRANCH  65  69
ATOM     69  S   UNL A   1      41.849  22.450  26.367  1.00  0.00     0.124 S 
ATOM     70  O   UNL A   1      42.268  22.070  27.714  1.00  0.00    -0.237 OA
ATOM     71  O   UNL A   1      40.414  22.432  26.112  1.00  0.00    -0.237 OA
ATOM     72  O   UNL A   1      42.681  21.912  25.291  1.00  0.00    -0.744 OA
ENDBRANCH  65  69
ENDBRANCH  48  62
BRANCH  49  73
ATOM     73  C   UNL A   1      39.624  32.190  35.152  1.00  0.00     0.023 A 
ATOM     74  C   UNL A   1      38.879  31.646  36.209  1.00  0.00     0.031 A 
ATOM     75  C   UNL A   1      39.934  33.562  35.204  1.00  0.00     0.131 A 
ATOM     76  C   UNL A   1      38.453  32.474  37.261  1.00  0.00     0.055 A 
ATOM     77  C   UNL A   1      39.567  34.365  36.283  1.00  0.00     0.041 A 
ATOM     78  F   UNL A   1      40.630  34.140  34.211  1.00  0.00    -0.206 F 
ATOM     79  C   UNL A   1      38.812  33.823  37.316  1.00  0.00     0.022 A 
BRANCH  76  80
ATOM     80  S   UNL A   1      37.345  31.784  38.522  1.00  0.00     0.124 S 
ATOM     81  O   UNL A   1      37.119  30.436  38.013  1.00  0.00    -0.237 OA
ATOM     82  O   UNL A   1      38.159  31.887  39.728  1.00  0.00    -0.237 OA
ATOM     83  O   UNL A   1      36.185  32.672  38.478  1.00  0.00    -0.744 OA
ENDBRANCH  76  80
ENDBRANCH  49  73
BRANCH  61  84
ATOM     84  C   UNL A   1      44.731  27.545  34.277  1.00  0.00     0.023 A 
ATOM     85  C   UNL A   1      44.577  26.415  35.099  1.00  0.00     0.031 A 
ATOM     86  C   UNL A   1      45.938  28.262  34.358  1.00  0.00     0.131 A 
ATOM     87  C   UNL A   1      45.587  26.069  36.010  1.00  0.00     0.055 A 
ATOM     88  C   UNL A   1      46.962  27.880  35.226  1.00  0.00     0.041 A 
ATOM     89  F   UNL A   1      46.138  29.352  33.600  1.00  0.00    -0.206 F 
ATOM     90  C   UNL A   1      46.785  26.787  36.069  1.00  0.00     0.022 A 
BRANCH  87  91
ATOM     91  S   UNL A   1      45.275  24.729  37.193  1.00  0.00     0.124 S 
ATOM     92  O   UNL A   1      44.877  23.635  36.313  1.00  0.00    -0.237 OA
ATOM     93  O   UNL A   1      46.571  24.582  37.847  1.00  0.00    -0.237 OA
ATOM     94  O   UNL A   1      44.210  25.259  38.042  1.00  0.00    -0.744 OA
ENDBRANCH  87  91
ENDBRANCH  61  84
ENDBRANCH  35  36
ENDBRANCH  28  30
ENDBRANCH  27  28
ENDBRANCH  26  27
ENDBRANCH   1  26
TORSDOF 21
ENDMDL
MODEL 2
REMARK VINA RESULT:     -10.9      1.224      7.640
REMARK SMILES CCN(CC(C)(C)O)C(=O)Nc1ccc(C(=O)OCCOC(=O)c2ccc(-c3c4nc(c(-c5cc(S(=O)(=O)[O-])ccc5F)c5ccc([nH]5)c(-c5cc(S(=O)(=O)[O-])ccc5F)c5nc(c(-c6cc(S(=O)(=O)[O-])ccc6F)c6ccc3[nH]6)C=C5)C=C4)cc2)c(O)c1
REMARK SMILES IDX 19 1 18 2 16 3 17 4 15 5 12 6 13 7 89 8 14 9 87 10 11 11
REMARK SMILES IDX 9 12 10 13 3 15 2 16 1 17 4 18 5 19 6 20 7 21 8 22 88 24
REMARK SMILES IDX 20 26 21 27 22 28 23 29 24 30 25 31 86 32 26 33 85 34 27 35
REMARK SMILES IDX 28 36 29 37 79 38 30 39 84 40 78 41 80 42 31 43 83 44 77 45
REMARK SMILES IDX 76 46 32 48 64 49 44 50 63 51 45 52 48 53 62 54 81 55 46 56
REMARK SMILES IDX 47 57 61 59 82 60 49 61 33 62 34 63 42 64 35 65 41 66 43 67
REMARK SMILES IDX 40 68 36 69 37 70 38 71 39 72 65 73 66 74 74 75 67 76 73 77
REMARK SMILES IDX 75 78 72 79 68 80 69 81 70 82 71 83 50 84 51 85 59 86 52 87
REMARK SMILES IDX 58 88 60 89 57 90 53 91 54 92 55 93 56 94
REMARK H PARENT 11 14 8 23 88 25 80 47 48 58
REMARK Flexibility Score: inf
ROOT
ATOM      1  C   UNL A   1      31.023  29.723  24.669  1.00  0.00     0.275 C 
ENDROOT
BRANCH   1   2
ATOM      2  O   UNL A   1      30.948  28.309  24.388  1.00  0.00    -0.458 OA
BRANCH   2   3
ATOM      3  C   UNL A   1      31.144  27.977  23.092  1.00  0.00     0.342 C 
ATOM      4  O   UNL A   1      30.734  28.580  22.113  1.00  0.00    -0.246 OA
BRANCH   3   5
ATOM      5  C   UNL A   1      32.093  26.852  23.002  1.00  0.00     0.101 A 
ATOM      6  C   UNL A   1      33.944  24.714  23.124  1.00  0.00     0.046 A 
ATOM      7  C   UNL A   1      33.884  25.678  24.112  1.00  0.00     0.027 A 
ATOM      8  C   UNL A   1      33.123  24.896  22.000  1.00  0.00     0.073 A 
ATOM      9  C   UNL A   1      32.965  26.723  24.077  1.00  0.00     0.022 A 
ATOM     10  C   UNL A   1      32.193  25.949  21.942  1.00  0.00     0.132 A 
BRANCH   6  11
ATOM     11  N   UNL A   1      34.842  23.636  23.129  1.00  0.00    -0.308 N 
ATOM     12  C   UNL A   1      35.349  22.697  23.960  1.00  0.00     0.321 C 
ATOM     13  O   UNL A   1      36.419  22.217  23.552  1.00  0.00    -0.248 OA
ATOM     14  H   UNL A   1      35.233  23.528  22.231  1.00  0.00     0.171 HD
BRANCH  12  15
ATOM     15  N   UNL A   1      34.748  22.190  25.082  1.00  0.00    -0.322 N 
BRANCH  15  16
ATOM     16  C   UNL A   1      35.033  22.889  26.350  1.00  0.00     0.118 C 
ATOM     17  C   UNL A   1      33.931  22.681  27.385  1.00  0.00     0.027 C 
ENDBRANCH  15  16
BRANCH  15  18
ATOM     18  C   UNL A   1      34.016  20.935  25.273  1.00  0.00     0.155 C 
BRANCH  18  19
ATOM     19  C   UNL A   1      32.542  20.951  24.728  1.00  0.00     0.077 C 
ATOM     20  C   UNL A   1      31.904  22.339  24.535  1.00  0.00     0.043 C 
ATOM     21  C   UNL A   1      32.475  20.128  23.443  1.00  0.00     0.043 C 
BRANCH  19  22
ATOM     22  O   UNL A   1      31.697  20.276  25.677  1.00  0.00    -0.389 OA
ATOM     23  H   UNL A   1      30.883  20.788  25.807  1.00  0.00     0.211 HD
ENDBRANCH  19  22
ENDBRANCH  18  19
ENDBRANCH  15  18
ENDBRANCH  12  15
ENDBRANCH   6  11
BRANCH  10  24
ATOM     24  O   UNL A   1      31.440  26.037  20.803  1.00  0.00    -0.507 OA
ATOM     25  H   UNL A   1      31.676  25.539  20.046  1.00  0.00     0.293 HD
ENDBRANCH  10  24
ENDBRANCH   3   5
ENDBRANCH   2   3
ENDBRANCH   1   2
BRANCH   1  26
ATOM     26  C   UNL A   1      32.340  30.055  25.371  1.00  0.00     0.275 C 
BRANCH  26  27
ATOM     27  O   UNL A   1      32.117  30.422  26.750  1.00  0.00    -0.458 OA
BRANCH  27  28
ATOM     28  C   UNL A   1      32.854  31.468  27.200  1.00  0.00     0.338 C 
ATOM     29  O   UNL A   1      32.491  32.631  27.279  1.00  0.00    -0.246 OA
BRANCH  28  30
ATOM     30  C   UNL A   1      34.225  31.044  27.555  1.00  0.00     0.060 A 
ATOM     31  C   UNL A   1      34.546  29.696  27.643  1.00  0.00     0.016 A 
ATOM     32  C   UNL A   1      35.159  32.001  27.962  1.00  0.00     0.016 A 
ATOM     33  C   UNL A   1      35.750  29.320  28.258  1.00  0.00     0.010 A 
ATOM     34  C   UNL A   1      36.398  31.607  28.500  1.00  0.00     0.010 A 
ATOM     35  C   UNL A   1      36.692  30.254  28.740  1.00  0.00    -0.014 A 
BRANCH  35  36
ATOM     36  C   UNL A   1      37.890  29.828  29.571  1.00  0.00     0.031 A 
ATOM     37  C   UNL A   1      38.019  30.228  31.041  1.00  0.00     0.074 A 
ATOM     38  C   UNL A   1      38.854  29.014  29.078  1.00  0.00     0.049 A 
ATOM     39  N   UNL A   1      39.056  30.133  31.843  1.00  0.00    -0.248 NA
ATOM     40  C   UNL A   1      36.840  30.822  31.684  1.00  0.00     0.031 C 
ATOM     41  C   UNL A   1      38.899  28.476  27.720  1.00  0.00     0.029 A 
ATOM     42  N   UNL A   1      39.974  28.471  29.674  1.00  0.00    -0.354 N 
ATOM     43  C   UNL A   1      38.684  30.741  33.043  1.00  0.00     0.074 A 
ATOM     44  C   UNL A   1      37.319  31.192  32.864  1.00  0.00     0.031 C 
ATOM     45  C   UNL A   1      39.915  27.608  27.618  1.00  0.00     0.029 A 
ATOM     46  C   UNL A   1      40.702  27.646  28.844  1.00  0.00     0.049 A 
ATOM     47  H   UNL A   1      40.230  28.657  30.607  1.00  0.00     0.167 HD
ATOM     48  C   UNL A   1      39.404  30.914  34.185  1.00  0.00     0.034 A 
ATOM     49  C   UNL A   1      41.898  27.037  28.995  1.00  0.00     0.034 A 
ATOM     50  C   UNL A   1      40.724  30.367  34.414  1.00  0.00     0.049 A 
ATOM     51  C   UNL A   1      42.691  27.252  30.257  1.00  0.00     0.074 A 
ATOM     52  C   UNL A   1      41.511  30.463  35.553  1.00  0.00     0.029 A 
ATOM     53  N   UNL A   1      41.444  29.601  33.510  1.00  0.00    -0.354 N 
ATOM     54  N   UNL A   1      42.372  27.947  31.323  1.00  0.00    -0.248 NA
ATOM     55  C   UNL A   1      44.020  26.628  30.319  1.00  0.00     0.031 C 
ATOM     56  C   UNL A   1      42.726  29.811  35.315  1.00  0.00     0.029 A 
ATOM     57  C   UNL A   1      42.670  29.240  34.056  1.00  0.00     0.049 A 
ATOM     58  H   UNL A   1      41.132  29.348  32.611  1.00  0.00     0.167 HD
ATOM     59  C   UNL A   1      43.467  27.845  32.179  1.00  0.00     0.074 A 
ATOM     60  C   UNL A   1      44.436  26.994  31.523  1.00  0.00     0.031 C 
ATOM     61  C   UNL A   1      43.654  28.416  33.396  1.00  0.00     0.034 A 
BRANCH  48  62
ATOM     62  C   UNL A   1      38.817  31.793  35.272  1.00  0.00     0.023 A 
ATOM     63  C   UNL A   1      38.345  31.288  36.494  1.00  0.00     0.031 A 
ATOM     64  C   UNL A   1      38.754  33.187  35.072  1.00  0.00     0.131 A 
ATOM     65  C   UNL A   1      37.781  32.161  37.442  1.00  0.00     0.055 A 
ATOM     66  C   UNL A   1      38.265  34.056  36.048  1.00  0.00     0.041 A 
ATOM     67  F   UNL A   1      39.176  33.731  33.919  1.00  0.00    -0.206 F 
ATOM     68  C   UNL A   1      37.763  33.543  37.238  1.00  0.00     0.022 A 
BRANCH  65  69
ATOM     69  S   UNL A   1      36.953  31.456  38.894  1.00  0.00     0.124 S 
ATOM     70  O   UNL A   1      35.777  32.316  39.010  1.00  0.00    -0.237 OA
ATOM     71  O   UNL A   1      36.703  30.081  38.477  1.00  0.00    -0.237 OA
ATOM     72  O   UNL A   1      37.938  31.615  39.963  1.00  0.00    -0.744 OA
ENDBRANCH  65  69
ENDBRANCH  48  62
BRANCH  49  73
ATOM     73  C   UNL A   1      42.486  26.249  27.868  1.00  0.00     0.023 A 
ATOM     74  C   UNL A   1      42.268  24.868  27.745  1.00  0.00     0.031 A 
ATOM     75  C   UNL A   1      43.311  26.873  26.913  1.00  0.00     0.131 A 
ATOM     76  C   UNL A   1      42.885  24.155  26.704  1.00  0.00     0.055 A 
ATOM     77  C   UNL A   1      43.865  26.172  25.843  1.00  0.00     0.041 A 
ATOM     78  F   UNL A   1      43.568  28.188  26.992  1.00  0.00    -0.206 F 
ATOM     79  C   UNL A   1      43.662  24.801  25.740  1.00  0.00     0.022 A 
BRANCH  76  80
ATOM     80  S   UNL A   1      42.728  22.347  26.672  1.00  0.00     0.124 S 
ATOM     81  O   UNL A   1      41.527  22.168  25.866  1.00  0.00    -0.237 OA
ATOM     82  O   UNL A   1      43.985  21.946  26.050  1.00  0.00    -0.237 OA
ATOM     83  O   UNL A   1      42.594  21.993  28.084  1.00  0.00    -0.744 OA
ENDBRANCH  76  80
ENDBRANCH  49  73
BRANCH  61  84
ATOM     84  C   UNL A   1      44.951  28.108  34.104  1.00  0.00     0.023 A 
ATOM     85  C   UNL A   1      45.067  27.024  34.993  1.00  0.00     0.031 A 
ATOM     86  C   UNL A   1      46.074  28.936  33.923  1.00  0.00     0.131 A 
ATOM     87  C   UNL A   1      46.256  26.833  35.713  1.00  0.00     0.055 A 
ATOM     88  C   UNL A   1      47.273  28.706  34.599  1.00  0.00     0.041 A 
ATOM     89  F   UNL A   1      46.019  29.988  33.090  1.00  0.00    -0.206 F 
ATOM     90  C   UNL A   1      47.365  27.659  35.512  1.00  0.00     0.022 A 
BRANCH  87  91
ATOM     91  S   UNL A   1      46.304  25.549  36.995  1.00  0.00     0.124 S 
ATOM     92  O   UNL A   1      47.532  24.833  36.662  1.00  0.00    -0.237 OA
ATOM     93  O   UNL A   1      46.337  26.335  38.223  1.00  0.00    -0.237 OA
ATOM     94  O   UNL A   1      45.070  24.796  36.774  1.00  0.00    -0.744 OA
ENDBRANCH  87  91
ENDBRANCH  61  84
ENDBRANCH  35  36
ENDBRANCH  28  30
ENDBRANCH  27  28
ENDBRANCH  26  27
ENDBRANCH   1  26
TORSDOF 21
ENDMDL
MODEL 3
REMARK VINA RESULT:     -10.8      1.408      2.213
REMARK SMILES CCN(CC(C)(C)O)C(=O)Nc1ccc(C(=O)OCCOC(=O)c2ccc(-c3c4nc(c(-c5cc(S(=O)(=O)[O-])ccc5F)c5ccc([nH]5)c(-c5cc(S(=O)(=O)[O-])ccc5F)c5nc(c(-c6cc(S(=O)(=O)[O-])ccc6F)c6ccc3[nH]6)C=C5)C=C4)cc2)c(O)c1
REMARK SMILES IDX 19 1 18 2 16 3 17 4 15 5 12 6 13 7 89 8 14 9 87 10 11 11
REMARK SMILES IDX 9 12 10 13 3 15 2 16 1 17 4 18 5 19 6 20 7 21 8 22 88 24
REMARK SMILES IDX 20 26 21 27 22 28 23 29 24 30 25 31 86 32 26 33 85 34 27 35
REMARK SMILES IDX 28 36 29 37 79 38 30 39 84 40 78 41 80 42 31 43 83 44 77 45
REMARK SMILES IDX 76 46 32 48 64 49 44 50 63 51 45 52 48 53 62 54 81 55 46 56
REMARK SMILES IDX 47 57 61 59 82 60 49 61 33 62 34 63 42 64 35 65 41 66 43 67
REMARK SMILES IDX 40 68 36 69 37 70 38 71 39 72 65 73 66 74 74 75 67 76 73 77
REMARK SMILES IDX 75 78 72 79 68 80 69 81 70 82 71 83 50 84 51 85 59 86 52 87
REMARK SMILES IDX 58 88 60 89 57 90 53 91 54 92 55 93 56 94
REMARK H PARENT 11 14 8 23 88 25 80 47 48 58
REMARK Flexibility Score: inf
ROOT
ATOM      1  C   UNL A   1      31.471  29.553  24.967  1.00  0.00     0.275 C 
ENDROOT
BRANCH   1   2
ATOM      2  O   UNL A   1      32.086  28.246  24.980  1.00  0.00    -0.458 OA
BRANCH   2   3
ATOM      3  C   UNL A   1      32.636  27.867  23.803  1.00  0.00     0.342 C 
ATOM      4  O   UNL A   1      32.709  28.533  22.782  1.00  0.00    -0.246 OA
BRANCH   3   5
ATOM      5  C   UNL A   1      33.312  26.567  23.964  1.00  0.00     0.101 A 
ATOM      6  C   UNL A   1      34.507  24.069  24.551  1.00  0.00     0.046 A 
ATOM      7  C   UNL A   1      34.172  24.964  25.548  1.00  0.00     0.027 A 
ATOM      8  C   UNL A   1      34.331  24.492  23.224  1.00  0.00     0.073 A 
ATOM      9  C   UNL A   1      33.564  26.187  25.278  1.00  0.00     0.022 A 
ATOM     10  C   UNL A   1      33.725  25.726  22.929  1.00  0.00     0.132 A 
BRANCH   6  11
ATOM     11  N   UNL A   1      35.104  22.820  24.781  1.00  0.00    -0.308 N 
ATOM     12  C   UNL A   1      34.906  21.674  25.471  1.00  0.00     0.321 C 
ATOM     13  O   UNL A   1      35.949  21.021  25.633  1.00  0.00    -0.248 OA
ATOM     14  H   UNL A   1      35.946  22.758  24.273  1.00  0.00     0.171 HD
BRANCH  12  15
ATOM     15  N   UNL A   1      33.701  21.162  25.874  1.00  0.00    -0.322 N 
BRANCH  15  16
ATOM     16  C   UNL A   1      32.703  22.136  26.357  1.00  0.00     0.118 C 
ATOM     17  C   UNL A   1      32.893  22.475  27.833  1.00  0.00     0.027 C 
ENDBRANCH  15  16
BRANCH  15  18
ATOM     18  C   UNL A   1      33.295  19.771  26.097  1.00  0.00     0.155 C 
BRANCH  18  19
ATOM     19  C   UNL A   1      33.125  18.925  24.783  1.00  0.00     0.077 C 
ATOM     20  C   UNL A   1      32.401  17.575  24.934  1.00  0.00     0.043 C 
ATOM     21  C   UNL A   1      32.464  19.791  23.713  1.00  0.00     0.043 C 
BRANCH  19  22
ATOM     22  O   UNL A   1      34.432  18.598  24.279  1.00  0.00    -0.389 OA
ATOM     23  H   UNL A   1      35.067  18.580  25.012  1.00  0.00     0.211 HD
ENDBRANCH  19  22
ENDBRANCH  18  19
ENDBRANCH  15  18
ENDBRANCH  12  15
ENDBRANCH   6  11
BRANCH  10  24
ATOM     24  O   UNL A   1      33.600  26.044  21.604  1.00  0.00    -0.507 OA
ATOM     25  H   UNL A   1      33.664  26.937  21.329  1.00  0.00     0.293 HD
ENDBRANCH  10  24
ENDBRANCH   3   5
ENDBRANCH   2   3
ENDBRANCH   1   2
BRANCH   1  26
ATOM     26  C   UNL A   1      31.859  30.333  26.224  1.00  0.00     0.275 C 
BRANCH  26  27
ATOM     27  O   UNL A   1      33.236  30.767  26.162  1.00  0.00    -0.458 OA
BRANCH  27  28
ATOM     28  C   UNL A   1      33.685  31.433  27.255  1.00  0.00     0.338 C 
ATOM     29  O   UNL A   1      33.076  32.276  27.893  1.00  0.00    -0.246 OA
BRANCH  28  30
ATOM     30  C   UNL A   1      35.075  31.049  27.581  1.00  0.00     0.060 A 
ATOM     31  C   UNL A   1      35.449  29.713  27.617  1.00  0.00     0.016 A 
ATOM     32  C   UNL A   1      35.977  32.026  28.012  1.00  0.00     0.016 A 
ATOM     33  C   UNL A   1      36.673  29.362  28.206  1.00  0.00     0.010 A 
ATOM     34  C   UNL A   1      37.237  31.662  28.523  1.00  0.00     0.010 A 
ATOM     35  C   UNL A   1      37.585  30.314  28.712  1.00  0.00    -0.014 A 
BRANCH  35  36
ATOM     36  C   UNL A   1      38.807  29.905  29.515  1.00  0.00     0.031 A 
ATOM     37  C   UNL A   1      39.853  28.952  28.939  1.00  0.00     0.074 A 
ATOM     38  C   UNL A   1      39.067  30.420  30.740  1.00  0.00     0.049 A 
ATOM     39  N   UNL A   1      40.843  28.334  29.545  1.00  0.00    -0.248 NA
ATOM     40  C   UNL A   1      39.768  28.643  27.505  1.00  0.00     0.031 C 
ATOM     41  C   UNL A   1      38.229  31.382  31.454  1.00  0.00     0.029 A 
ATOM     42  N   UNL A   1      40.133  30.229  31.597  1.00  0.00    -0.354 N 
ATOM     43  C   UNL A   1      41.428  27.497  28.593  1.00  0.00     0.074 A 
ATOM     44  C   UNL A   1      40.686  27.696  27.365  1.00  0.00     0.031 C 
ATOM     45  C   UNL A   1      38.852  31.773  32.573  1.00  0.00     0.029 A 
ATOM     46  C   UNL A   1      40.057  30.973  32.755  1.00  0.00     0.049 A 
ATOM     47  H   UNL A   1      40.878  29.617  31.399  1.00  0.00     0.167 HD
ATOM     48  C   UNL A   1      42.478  26.641  28.722  1.00  0.00     0.034 A 
ATOM     49  C   UNL A   1      40.809  30.981  33.876  1.00  0.00     0.034 A 
ATOM     50  C   UNL A   1      43.296  26.519  29.910  1.00  0.00     0.049 A 
ATOM     51  C   UNL A   1      41.956  30.015  34.012  1.00  0.00     0.074 A 
ATOM     52  C   UNL A   1      44.400  25.704  30.115  1.00  0.00     0.029 A 
ATOM     53  N   UNL A   1      43.129  27.245  31.079  1.00  0.00    -0.354 N 
ATOM     54  N   UNL A   1      42.402  29.137  33.146  1.00  0.00    -0.248 NA
ATOM     55  C   UNL A   1      42.679  30.020  35.292  1.00  0.00     0.031 C 
ATOM     56  C   UNL A   1      44.859  25.891  31.424  1.00  0.00     0.029 A 
ATOM     57  C   UNL A   1      44.091  26.880  32.012  1.00  0.00     0.049 A 
ATOM     58  H   UNL A   1      42.429  27.922  31.227  1.00  0.00     0.167 HD
ATOM     59  C   UNL A   1      43.456  28.483  33.782  1.00  0.00     0.074 A 
ATOM     60  C   UNL A   1      43.601  29.091  35.086  1.00  0.00     0.031 C 
ATOM     61  C   UNL A   1      44.224  27.461  33.327  1.00  0.00     0.034 A 
BRANCH  48  62
ATOM     62  C   UNL A   1      42.776  25.699  27.572  1.00  0.00     0.023 A 
ATOM     63  C   UNL A   1      42.208  24.419  27.464  1.00  0.00     0.031 A 
ATOM     64  C   UNL A   1      43.643  26.120  26.543  1.00  0.00     0.131 A 
ATOM     65  C   UNL A   1      42.559  23.586  26.385  1.00  0.00     0.055 A 
ATOM     66  C   UNL A   1      43.925  25.318  25.436  1.00  0.00     0.041 A 
ATOM     67  F   UNL A   1      44.228  27.326  26.595  1.00  0.00    -0.206 F 
ATOM     68  C   UNL A   1      43.391  24.038  25.358  1.00  0.00     0.022 A 
BRANCH  65  69
ATOM     69  S   UNL A   1      42.014  21.856  26.406  1.00  0.00     0.124 S 
ATOM     70  O   UNL A   1      42.823  21.279  25.335  1.00  0.00    -0.237 OA
ATOM     71  O   UNL A   1      42.351  21.436  27.761  1.00  0.00    -0.237 OA
ATOM     72  O   UNL A   1      40.584  21.942  26.117  1.00  0.00    -0.744 OA
ENDBRANCH  65  69
ENDBRANCH  48  62
BRANCH  49  73
ATOM     73  C   UNL A   1      40.432  31.860  35.026  1.00  0.00     0.023 A 
ATOM     74  C   UNL A   1      39.449  31.478  35.951  1.00  0.00     0.031 A 
ATOM     75  C   UNL A   1      41.035  33.121  35.189  1.00  0.00     0.131 A 
ATOM     76  C   UNL A   1      39.083  32.358  36.983  1.00  0.00     0.055 A 
ATOM     77  C   UNL A   1      40.717  33.962  36.255  1.00  0.00     0.041 A 
ATOM     78  F   UNL A   1      41.970  33.546  34.324  1.00  0.00    -0.206 F 
ATOM     79  C   UNL A   1      39.727  33.585  37.155  1.00  0.00     0.022 A 
BRANCH  76  80
ATOM     80  S   UNL A   1      37.689  31.913  38.057  1.00  0.00     0.124 S 
ATOM     81  O   UNL A   1      38.281  32.049  39.383  1.00  0.00    -0.237 OA
ATOM     82  O   UNL A   1      36.694  32.915  37.691  1.00  0.00    -0.237 OA
ATOM     83  O   UNL A   1      37.371  30.545  37.650  1.00  0.00    -0.744 OA
ENDBRANCH  76  80
ENDBRANCH  49  73
BRANCH  61  84
ATOM     84  C   UNL A   1      45.313  26.962  34.246  1.00  0.00     0.023 A 
ATOM     85  C   UNL A   1      45.085  25.917  35.160  1.00  0.00     0.031 A 
ATOM     86  C   UNL A   1      46.582  27.567  34.238  1.00  0.00     0.131 A 
ATOM     87  C   UNL A   1      46.089  25.552  36.070  1.00  0.00     0.055 A 
ATOM     88  C   UNL A   1      47.595  27.161  35.108  1.00  0.00     0.041 A 
ATOM     89  F   UNL A   1      46.854  28.572  33.390  1.00  0.00    -0.206 F 
ATOM     90  C   UNL A   1      47.347  26.158  36.041  1.00  0.00     0.022 A 
BRANCH  87  91
ATOM     91  S   UNL A   1      45.696  24.342  37.365  1.00  0.00     0.124 S 
ATOM     92  O   UNL A   1      45.522  23.117  36.591  1.00  0.00    -0.237 OA
ATOM     93  O   UNL A   1      46.880  24.398  38.215  1.00  0.00    -0.237 OA
ATOM     94  O   UNL A   1      44.474  24.870  37.969  1.00  0.00    -0.744 OA
ENDBRANCH  87  91
ENDBRANCH  61  84
ENDBRANCH  35  36
ENDBRANCH  28  30
ENDBRANCH  27  28
ENDBRANCH  26  27
ENDBRANCH   1  26
TORSDOF 21
ENDMDL
