MODEL 1
REMARK VINA RESULT:     -10.8      0.000      0.000
REMARK SMILES CC(C)(C)OC(=O)c1ccc(C[C@H]([NH3+])C(=O)OCCOC(=O)c2ccc(-c3c4nc(c(-c5cc(S(=O)(=O)[O-])ccc5F)c5ccc([nH]5)c(-c5cc(S(=O)(=O)[O-])ccc5F)c5nc(c(-c6cc(S(=O)(=O)[O-])ccc6F)c6ccc3[nH]6)C=C5)C=C4)cc2)cc1
REMARK SMILES IDX 18 1 17 2 15 3 16 4 13 5 12 6 11 7 8 8 9 9 87 10 10 11 86 12
REMARK SMILES IDX 6 13 7 14 5 15 2 16 1 17 3 18 4 19 14 20 19 24 20 25 21 26
REMARK SMILES IDX 22 27 23 28 24 29 85 30 25 31 84 32 26 33 27 34 28 35 78 36
REMARK SMILES IDX 29 37 83 38 77 39 79 40 30 41 82 42 76 43 75 44 31 46 63 47
REMARK SMILES IDX 43 48 62 49 44 50 47 51 61 52 80 53 45 54 46 55 60 57 81 58
REMARK SMILES IDX 48 59 32 60 33 61 41 62 34 63 40 64 42 65 39 66 35 67 36 68
REMARK SMILES IDX 37 69 38 70 64 71 65 72 73 73 66 74 72 75 74 76 71 77 67 78
REMARK SMILES IDX 68 79 69 80 70 81 49 82 50 83 58 84 51 85 57 86 59 87 56 88
REMARK SMILES IDX 52 89 53 90 54 91 55 92
REMARK H PARENT 14 21 14 22 14 23 79 45 47 56
REMARK Flexibility Score: inf
ROOT
ATOM      1  C   UNL A   1      31.218  30.643  25.375  1.00  0.00     0.274 C 
ENDROOT
BRANCH   1   2
ATOM      2  O   UNL A   1      31.811  29.432  24.876  1.00  0.00    -0.458 OA
BRANCH   2   3
ATOM      3  C   UNL A   1      31.074  28.690  24.006  1.00  0.00     0.365 C 
ATOM      4  O   UNL A   1      30.006  28.154  24.281  1.00  0.00    -0.245 OA
BRANCH   3   5
ATOM      5  C   UNL A   1      31.718  28.586  22.612  1.00  0.00     0.296 C 
BRANCH   5   6
ATOM      6  C   UNL A   1      33.186  28.141  22.739  1.00  0.00     0.113 C 
BRANCH   6   7
ATOM      7  C   UNL A   1      33.341  26.722  23.240  1.00  0.00    -0.041 A 
ATOM      8  C   UNL A   1      33.908  24.103  24.024  1.00  0.00     0.060 A 
ATOM      9  C   UNL A   1      33.396  24.351  22.749  1.00  0.00     0.016 A 
ATOM     10  C   UNL A   1      34.105  25.155  24.926  1.00  0.00     0.016 A 
ATOM     11  C   UNL A   1      33.096  25.652  22.368  1.00  0.00     0.005 A 
ATOM     12  C   UNL A   1      33.827  26.464  24.530  1.00  0.00     0.005 A 
BRANCH   8  13
ATOM     13  C   UNL A   1      34.288  22.718  24.347  1.00  0.00     0.338 C 
ATOM     14  O   UNL A   1      33.699  21.745  23.910  1.00  0.00    -0.246 OA
BRANCH  13  15
ATOM     15  O   UNL A   1      35.303  22.731  25.242  1.00  0.00    -0.456 OA
BRANCH  15  16
ATOM     16  C   UNL A   1      36.663  22.564  24.773  1.00  0.00     0.104 C 
ATOM     17  C   UNL A   1      36.999  21.094  25.055  1.00  0.00     0.056 C 
ATOM     18  C   UNL A   1      37.623  23.456  25.567  1.00  0.00     0.056 C 
ATOM     19  C   UNL A   1      36.772  22.804  23.261  1.00  0.00     0.056 C 
ENDBRANCH  15  16
ENDBRANCH  13  15
ENDBRANCH   8  13
ENDBRANCH   6   7
ENDBRANCH   5   6
BRANCH   5  20
ATOM     20  N   UNL A   1      31.553  29.814  21.798  1.00  0.00    -0.346 N 
ATOM     21  H   UNL A   1      30.614  29.836  21.401  1.00  0.00     0.345 HD
ATOM     22  H   UNL A   1      32.241  29.817  21.044  1.00  0.00     0.345 HD
ATOM     23  H   UNL A   1      31.692  30.634  22.388  1.00  0.00     0.345 HD
ENDBRANCH   5  20
ENDBRANCH   3   5
ENDBRANCH   2   3
ENDBRANCH   1   2
BRANCH   1  24
ATOM     24  C   UNL A   1      31.769  30.972  26.766  1.00  0.00     0.275 C 
BRANCH  24  25
ATOM     25  O   UNL A   1      33.192  30.756  26.840  1.00  0.00    -0.458 OA
BRANCH  25  26
ATOM     26  C   UNL A   1      33.875  31.721  27.498  1.00  0.00     0.338 C 
ATOM     27  O   UNL A   1      33.453  32.808  27.860  1.00  0.00    -0.246 OA
BRANCH  26  28
ATOM     28  C   UNL A   1      35.201  31.231  27.896  1.00  0.00     0.060 A 
ATOM     29  C   UNL A   1      35.318  29.870  28.188  1.00  0.00     0.016 A 
ATOM     30  C   UNL A   1      36.279  32.094  28.091  1.00  0.00     0.016 A 
ATOM     31  C   UNL A   1      36.503  29.361  28.700  1.00  0.00     0.010 A 
ATOM     32  C   UNL A   1      37.475  31.582  28.607  1.00  0.00     0.010 A 
ATOM     33  C   UNL A   1      37.584  30.217  28.933  1.00  0.00    -0.014 A 
BRANCH  33  34
ATOM     34  C   UNL A   1      38.785  29.686  29.619  1.00  0.00     0.031 A 
ATOM     35  C   UNL A   1      39.138  30.200  30.985  1.00  0.00     0.074 A 
ATOM     36  C   UNL A   1      39.511  28.710  29.045  1.00  0.00     0.049 A 
ATOM     37  N   UNL A   1      40.178  29.934  31.729  1.00  0.00    -0.248 NA
ATOM     38  C   UNL A   1      38.188  31.146  31.591  1.00  0.00     0.031 C 
ATOM     39  C   UNL A   1      39.212  28.085  27.755  1.00  0.00     0.029 A 
ATOM     40  N   UNL A   1      40.645  28.071  29.473  1.00  0.00    -0.354 N 
ATOM     41  C   UNL A   1      40.023  30.692  32.884  1.00  0.00     0.074 A 
ATOM     42  C   UNL A   1      38.797  31.447  32.729  1.00  0.00     0.031 C 
ATOM     43  C   UNL A   1      40.143  27.153  27.496  1.00  0.00     0.029 A 
ATOM     44  C   UNL A   1      41.132  27.153  28.571  1.00  0.00     0.049 A 
ATOM     45  H   UNL A   1      41.072  28.251  30.341  1.00  0.00     0.167 HD
ATOM     46  C   UNL A   1      40.832  30.750  33.972  1.00  0.00     0.034 A 
ATOM     47  C   UNL A   1      42.265  26.425  28.596  1.00  0.00     0.034 A 
ATOM     48  C   UNL A   1      42.049  29.986  34.103  1.00  0.00     0.049 A 
ATOM     49  C   UNL A   1      43.188  26.563  29.780  1.00  0.00     0.074 A 
ATOM     50  C   UNL A   1      42.953  29.972  35.150  1.00  0.00     0.029 A 
ATOM     51  N   UNL A   1      42.535  29.098  33.150  1.00  0.00    -0.354 N 
ATOM     52  N   UNL A   1      43.054  27.315  30.849  1.00  0.00    -0.248 NA
ATOM     53  C   UNL A   1      44.413  25.754  29.761  1.00  0.00     0.031 C 
ATOM     54  C   UNL A   1      44.013  29.125  34.805  1.00  0.00     0.029 A 
ATOM     55  C   UNL A   1      43.736  28.551  33.575  1.00  0.00     0.049 A 
ATOM     56  H   UNL A   1      42.091  28.887  32.297  1.00  0.00     0.167 HD
ATOM     57  C   UNL A   1      44.166  27.048  31.642  1.00  0.00     0.074 A 
ATOM     58  C   UNL A   1      44.951  26.057  30.934  1.00  0.00     0.031 C 
ATOM     59  C   UNL A   1      44.508  27.570  32.848  1.00  0.00     0.034 A 
BRANCH  46  60
ATOM     60  C   UNL A   1      40.452  31.722  35.063  1.00  0.00     0.023 A 
ATOM     61  C   UNL A   1      39.516  31.395  36.059  1.00  0.00     0.031 A 
ATOM     62  C   UNL A   1      41.004  33.016  35.078  1.00  0.00     0.131 A 
ATOM     63  C   UNL A   1      39.107  32.370  36.982  1.00  0.00     0.055 A 
ATOM     64  C   UNL A   1      40.650  33.957  36.045  1.00  0.00     0.041 A 
ATOM     65  F   UNL A   1      41.884  33.394  34.137  1.00  0.00    -0.206 F 
ATOM     66  C   UNL A   1      39.684  33.642  36.996  1.00  0.00     0.022 A 
BRANCH  63  67
ATOM     67  S   UNL A   1      37.703  32.000  38.069  1.00  0.00     0.124 S 
ATOM     68  O   UNL A   1      38.303  32.159  39.391  1.00  0.00    -0.237 OA
ATOM     69  O   UNL A   1      36.730  33.016  37.684  1.00  0.00    -0.237 OA
ATOM     70  O   UNL A   1      37.346  30.627  37.715  1.00  0.00    -0.744 OA
ENDBRANCH  63  67
ENDBRANCH  46  60
BRANCH  47  71
ATOM     71  C   UNL A   1      42.622  25.547  27.445  1.00  0.00     0.023 A 
ATOM     72  C   UNL A   1      42.164  24.222  27.369  1.00  0.00     0.031 A 
ATOM     73  C   UNL A   1      43.466  26.012  26.420  1.00  0.00     0.131 A 
ATOM     74  C   UNL A   1      42.585  23.397  26.315  1.00  0.00     0.055 A 
ATOM     75  C   UNL A   1      43.839  25.204  25.346  1.00  0.00     0.041 A 
ATOM     76  F   UNL A   1      43.932  27.271  26.444  1.00  0.00    -0.206 F 
ATOM     77  C   UNL A   1      43.408  23.883  25.297  1.00  0.00     0.022 A 
BRANCH  74  78
ATOM     78  S   UNL A   1      42.103  21.648  26.335  1.00  0.00     0.124 S 
ATOM     79  O   UNL A   1      42.988  21.084  25.322  1.00  0.00    -0.237 OA
ATOM     80  O   UNL A   1      42.386  21.273  27.716  1.00  0.00    -0.237 OA
ATOM     81  O   UNL A   1      40.686  21.682  25.978  1.00  0.00    -0.744 OA
ENDBRANCH  74  78
ENDBRANCH  47  71
BRANCH  59  82
ATOM     82  C   UNL A   1      45.762  27.033  33.490  1.00  0.00     0.023 A 
ATOM     83  C   UNL A   1      45.740  25.912  34.338  1.00  0.00     0.031 A 
ATOM     84  C   UNL A   1      46.996  27.665  33.259  1.00  0.00     0.131 A 
ATOM     85  C   UNL A   1      46.921  25.492  34.969  1.00  0.00     0.055 A 
ATOM     86  C   UNL A   1      48.178  27.208  33.844  1.00  0.00     0.041 A 
ATOM     87  F   UNL A   1      47.073  28.741  32.457  1.00  0.00    -0.206 F 
ATOM     88  C   UNL A   1      48.141  26.123  34.716  1.00  0.00     0.022 A 
BRANCH  85  89
ATOM     89  S   UNL A   1      46.826  24.160  36.196  1.00  0.00     0.124 S 
ATOM     90  O   UNL A   1      45.473  24.325  36.719  1.00  0.00    -0.237 OA
ATOM     91  O   UNL A   1      47.053  22.969  35.383  1.00  0.00    -0.237 OA
ATOM     92  O   UNL A   1      47.898  24.481  37.136  1.00  0.00    -0.744 OA
ENDBRANCH  85  89
ENDBRANCH  59  82
ENDBRANCH  33  34
ENDBRANCH  26  28
ENDBRANCH  25  26
ENDBRANCH  24  25
ENDBRANCH   1  24
TORSDOF 20
ENDMDL
MODEL 2
REMARK VINA RESULT:     -10.7      3.285      6.591
REMARK SMILES CC(C)(C)OC(=O)c1ccc(C[C@H]([NH3+])C(=O)OCCOC(=O)c2ccc(-c3c4nc(c(-c5cc(S(=O)(=O)[O-])ccc5F)c5ccc([nH]5)c(-c5cc(S(=O)(=O)[O-])ccc5F)c5nc(c(-c6cc(S(=O)(=O)[O-])ccc6F)c6ccc3[nH]6)C=C5)C=C4)cc2)cc1
REMARK SMILES IDX 18 1 17 2 15 3 16 4 13 5 12 6 11 7 8 8 9 9 87 10 10 11 86 12
REMARK SMILES IDX 6 13 7 14 5 15 2 16 1 17 3 18 4 19 14 20 19 24 20 25 21 26
REMARK SMILES IDX 22 27 23 28 24 29 85 30 25 31 84 32 26 33 27 34 28 35 78 36
REMARK SMILES IDX 29 37 83 38 77 39 79 40 30 41 82 42 76 43 75 44 31 46 63 47
REMARK SMILES IDX 43 48 62 49 44 50 47 51 61 52 80 53 45 54 46 55 60 57 81 58
REMARK SMILES IDX 48 59 32 60 33 61 41 62 34 63 40 64 42 65 39 66 35 67 36 68
REMARK SMILES IDX 37 69 38 70 64 71 65 72 73 73 66 74 72 75 74 76 71 77 67 78
REMARK SMILES IDX 68 79 69 80 70 81 49 82 50 83 58 84 51 85 57 86 59 87 56 88
REMARK SMILES IDX 52 89 53 90 54 91 55 92
REMARK H PARENT 14 21 14 22 14 23 79 45 47 56
REMARK Flexibility Score: inf
ROOT
ATOM      1  C   UNL A   1      34.344  34.349  29.831  1.00  0.00     0.274 C 
ENDROOT
BRANCH   1   2
ATOM      2  O   UNL A   1      34.166  33.405  30.901  1.00  0.00    -0.458 OA
BRANCH   2   3
ATOM      3  C   UNL A   1      34.306  33.871  32.172  1.00  0.00     0.365 C 
ATOM      4  O   UNL A   1      33.684  33.449  33.140  1.00  0.00    -0.245 OA
BRANCH   3   5
ATOM      5  C   UNL A   1      35.344  35.002  32.284  1.00  0.00     0.296 C 
BRANCH   5   6
ATOM      6  C   UNL A   1      36.396  34.651  33.352  1.00  0.00     0.113 C 
BRANCH   6   7
ATOM      7  C   UNL A   1      37.809  34.616  32.814  1.00  0.00    -0.041 A 
ATOM      8  C   UNL A   1      40.419  34.247  31.894  1.00  0.00     0.060 A 
ATOM      9  C   UNL A   1      40.186  34.458  33.254  1.00  0.00     0.016 A 
ATOM     10  C   UNL A   1      39.357  34.256  30.982  1.00  0.00     0.016 A 
ATOM     11  C   UNL A   1      38.888  34.661  33.707  1.00  0.00     0.005 A 
ATOM     12  C   UNL A   1      38.052  34.434  31.445  1.00  0.00     0.005 A 
BRANCH   8  13
ATOM     13  C   UNL A   1      41.801  33.954  31.478  1.00  0.00     0.338 C 
ATOM     14  O   UNL A   1      42.225  32.822  31.323  1.00  0.00    -0.246 OA
BRANCH  13  15
ATOM     15  O   UNL A   1      42.496  35.112  31.392  1.00  0.00    -0.456 OA
BRANCH  15  16
ATOM     16  C   UNL A   1      43.281  35.380  30.204  1.00  0.00     0.104 C 
ATOM     17  C   UNL A   1      43.310  36.909  30.088  1.00  0.00     0.056 C 
ATOM     18  C   UNL A   1      42.599  34.799  28.961  1.00  0.00     0.056 C 
ATOM     19  C   UNL A   1      44.724  34.879  30.356  1.00  0.00     0.056 C 
ENDBRANCH  15  16
ENDBRANCH  13  15
ENDBRANCH   8  13
ENDBRANCH   6   7
ENDBRANCH   5   6
BRANCH   5  20
ATOM     20  N   UNL A   1      34.735  36.338  32.488  1.00  0.00    -0.346 N 
ATOM     21  H   UNL A   1      35.279  36.859  33.177  1.00  0.00     0.345 HD
ATOM     22  H   UNL A   1      33.778  36.228  32.823  1.00  0.00     0.345 HD
ATOM     23  H   UNL A   1      34.730  36.847  31.604  1.00  0.00     0.345 HD
ENDBRANCH   5  20
ENDBRANCH   3   5
ENDBRANCH   2   3
ENDBRANCH   1   2
BRANCH   1  24
ATOM     24  C   UNL A   1      33.548  33.911  28.597  1.00  0.00     0.275 C 
BRANCH  24  25
ATOM     25  O   UNL A   1      34.369  33.175  27.669  1.00  0.00    -0.458 OA
BRANCH  25  26
ATOM     26  C   UNL A   1      34.257  31.829  27.763  1.00  0.00     0.338 C 
ATOM     27  O   UNL A   1      33.286  31.147  27.474  1.00  0.00    -0.246 OA
BRANCH  26  28
ATOM     28  C   UNL A   1      35.550  31.230  28.114  1.00  0.00     0.060 A 
ATOM     29  C   UNL A   1      35.554  29.877  28.466  1.00  0.00     0.016 A 
ATOM     30  C   UNL A   1      36.715  31.991  28.211  1.00  0.00     0.016 A 
ATOM     31  C   UNL A   1      36.712  29.277  28.940  1.00  0.00     0.010 A 
ATOM     32  C   UNL A   1      37.884  31.387  28.688  1.00  0.00     0.010 A 
ATOM     33  C   UNL A   1      37.882  30.034  29.074  1.00  0.00    -0.014 A 
BRANCH  33  34
ATOM     34  C   UNL A   1      39.063  29.418  29.721  1.00  0.00     0.031 A 
ATOM     35  C   UNL A   1      39.474  29.880  31.090  1.00  0.00     0.074 A 
ATOM     36  C   UNL A   1      39.719  28.415  29.110  1.00  0.00     0.049 A 
ATOM     37  N   UNL A   1      40.512  29.536  31.805  1.00  0.00    -0.248 NA
ATOM     38  C   UNL A   1      38.593  30.864  31.737  1.00  0.00     0.031 C 
ATOM     39  C   UNL A   1      39.357  27.839  27.814  1.00  0.00     0.029 A 
ATOM     40  N   UNL A   1      40.823  27.702  29.498  1.00  0.00    -0.354 N 
ATOM     41  C   UNL A   1      40.425  30.275  32.979  1.00  0.00     0.074 A 
ATOM     42  C   UNL A   1      39.243  31.104  32.868  1.00  0.00     0.031 C 
ATOM     43  C   UNL A   1      40.227  26.861  27.513  1.00  0.00     0.029 A 
ATOM     44  C   UNL A   1      41.236  26.779  28.566  1.00  0.00     0.049 A 
ATOM     45  H   UNL A   1      41.277  27.837  30.361  1.00  0.00     0.167 HD
ATOM     46  C   UNL A   1      41.259  30.261  34.050  1.00  0.00     0.034 A 
ATOM     47  C   UNL A   1      42.325  25.986  28.550  1.00  0.00     0.034 A 
ATOM     48  C   UNL A   1      42.432  29.425  34.137  1.00  0.00     0.049 A 
ATOM     49  C   UNL A   1      43.279  26.043  29.716  1.00  0.00     0.074 A 
ATOM     50  C   UNL A   1      43.355  29.335  35.164  1.00  0.00     0.029 A 
ATOM     51  N   UNL A   1      42.845  28.532  33.154  1.00  0.00    -0.354 N 
ATOM     52  N   UNL A   1      43.211  26.776  30.804  1.00  0.00    -0.248 NA
ATOM     53  C   UNL A   1      44.454  25.165  29.653  1.00  0.00     0.031 C 
ATOM     54  C   UNL A   1      44.356  28.436  34.777  1.00  0.00     0.029 A 
ATOM     55  C   UNL A   1      44.021  27.908  33.541  1.00  0.00     0.049 A 
ATOM     56  H   UNL A   1      42.372  28.368  32.308  1.00  0.00     0.167 HD
ATOM     57  C   UNL A   1      44.323  26.428  31.566  1.00  0.00     0.074 A 
ATOM     58  C   UNL A   1      45.034  25.410  30.820  1.00  0.00     0.031 C 
ATOM     59  C   UNL A   1      44.719  26.901  32.776  1.00  0.00     0.034 A 
BRANCH  46  60
ATOM     60  C   UNL A   1      40.959  31.228  35.170  1.00  0.00     0.023 A 
ATOM     61  C   UNL A   1      39.789  31.133  35.943  1.00  0.00     0.031 A 
ATOM     62  C   UNL A   1      41.840  32.292  35.438  1.00  0.00     0.131 A 
ATOM     63  C   UNL A   1      39.496  32.123  36.894  1.00  0.00     0.055 A 
ATOM     64  C   UNL A   1      41.580  33.229  36.438  1.00  0.00     0.041 A 
ATOM     65  F   UNL A   1      42.961  32.448  34.716  1.00  0.00    -0.206 F 
ATOM     66  C   UNL A   1      40.395  33.158  37.163  1.00  0.00     0.022 A 
BRANCH  63  67
ATOM     67  S   UNL A   1      37.857  32.122  37.670  1.00  0.00     0.124 S 
ATOM     68  O   UNL A   1      37.517  30.702  37.643  1.00  0.00    -0.237 OA
ATOM     69  O   UNL A   1      38.131  32.688  38.986  1.00  0.00    -0.237 OA
ATOM     70  O   UNL A   1      37.056  32.965  36.783  1.00  0.00    -0.744 OA
ENDBRANCH  63  67
ENDBRANCH  46  60
BRANCH  47  71
ATOM     71  C   UNL A   1      42.606  25.116  27.373  1.00  0.00     0.023 A 
ATOM     72  C   UNL A   1      42.136  23.795  27.314  1.00  0.00     0.031 A 
ATOM     73  C   UNL A   1      43.390  25.585  26.303  1.00  0.00     0.131 A 
ATOM     74  C   UNL A   1      42.487  22.976  26.229  1.00  0.00     0.055 A 
ATOM     75  C   UNL A   1      43.693  24.784  25.201  1.00  0.00     0.041 A 
ATOM     76  F   UNL A   1      43.865  26.841  26.309  1.00  0.00    -0.206 F 
ATOM     77  C   UNL A   1      43.251  23.465  25.167  1.00  0.00     0.022 A 
BRANCH  74  78
ATOM     78  S   UNL A   1      41.996  21.230  26.264  1.00  0.00     0.124 S 
ATOM     79  O   UNL A   1      42.231  20.882  27.661  1.00  0.00    -0.237 OA
ATOM     80  O   UNL A   1      40.599  21.301  25.846  1.00  0.00    -0.237 OA
ATOM     81  O   UNL A   1      42.901  20.603  25.303  1.00  0.00    -0.744 OA
ENDBRANCH  74  78
ENDBRANCH  47  71
BRANCH  59  82
ATOM     82  C   UNL A   1      45.953  26.278  33.378  1.00  0.00     0.023 A 
ATOM     83  C   UNL A   1      45.894  25.088  34.125  1.00  0.00     0.031 A 
ATOM     84  C   UNL A   1      47.205  26.895  33.211  1.00  0.00     0.131 A 
ATOM     85  C   UNL A   1      47.057  24.584  34.725  1.00  0.00     0.055 A 
ATOM     86  C   UNL A   1      48.368  26.358  33.764  1.00  0.00     0.041 A 
ATOM     87  F   UNL A   1      47.317  28.033  32.507  1.00  0.00    -0.206 F 
ATOM     88  C   UNL A   1      48.296  25.202  34.537  1.00  0.00     0.022 A 
BRANCH  85  89
ATOM     89  S   UNL A   1      46.917  23.154  35.832  1.00  0.00     0.124 S 
ATOM     90  O   UNL A   1      48.271  23.048  36.365  1.00  0.00    -0.237 OA
ATOM     91  O   UNL A   1      45.892  23.589  36.776  1.00  0.00    -0.237 OA
ATOM     92  O   UNL A   1      46.515  22.067  34.940  1.00  0.00    -0.744 OA
ENDBRANCH  85  89
ENDBRANCH  59  82
ENDBRANCH  33  34
ENDBRANCH  26  28
ENDBRANCH  25  26
ENDBRANCH  24  25
ENDBRANCH   1  24
TORSDOF 20
ENDMDL
MODEL 3
REMARK VINA RESULT:     -10.5      1.641      7.778
REMARK SMILES CC(C)(C)OC(=O)c1ccc(C[C@H]([NH3+])C(=O)OCCOC(=O)c2ccc(-c3c4nc(c(-c5cc(S(=O)(=O)[O-])ccc5F)c5ccc([nH]5)c(-c5cc(S(=O)(=O)[O-])ccc5F)c5nc(c(-c6cc(S(=O)(=O)[O-])ccc6F)c6ccc3[nH]6)C=C5)C=C4)cc2)cc1
REMARK SMILES IDX 18 1 17 2 15 3 16 4 13 5 12 6 11 7 8 8 9 9 87 10 10 11 86 12
REMARK SMILES IDX 6 13 7 14 5 15 2 16 1 17 3 18 4 19 14 20 19 24 20 25 21 26
REMARK SMILES IDX 22 27 23 28 24 29 85 30 25 31 84 32 26 33 27 34 28 35 78 36
REMARK SMILES IDX 29 37 83 38 77 39 79 40 30 41 82 42 76 43 75 44 31 46 63 47
REMARK SMILES IDX 43 48 62 49 44 50 47 51 61 52 80 53 45 54 46 55 60 57 81 58
REMARK SMILES IDX 48 59 32 60 33 61 41 62 34 63 40 64 42 65 39 66 35 67 36 68
REMARK SMILES IDX 37 69 38 70 64 71 65 72 73 73 66 74 72 75 74 76 71 77 67 78
REMARK SMILES IDX 68 79 69 80 70 81 49 82 50 83 58 84 51 85 57 86 59 87 56 88
REMARK SMILES IDX 52 89 53 90 54 91 55 92
REMARK H PARENT 14 21 14 22 14 23 79 45 47 56
REMARK Flexibility Score: inf
ROOT
ATOM      1  C   UNL A   1      31.136  29.680  24.734  1.00  0.00     0.274 C 
ENDROOT
BRANCH   1   2
ATOM      2  O   UNL A   1      30.974  28.252  24.767  1.00  0.00    -0.458 OA
BRANCH   2   3
ATOM      3  C   UNL A   1      30.260  27.683  23.757  1.00  0.00     0.365 C 
ATOM      4  O   UNL A   1      30.166  28.145  22.625  1.00  0.00    -0.245 OA
BRANCH   3   5
ATOM      5  C   UNL A   1      29.568  26.373  24.177  1.00  0.00     0.296 C 
BRANCH   5   6
ATOM      6  C   UNL A   1      30.284  25.169  23.539  1.00  0.00     0.113 C 
BRANCH   6   7
ATOM      7  C   UNL A   1      31.210  24.448  24.492  1.00  0.00    -0.041 A 
ATOM      8  C   UNL A   1      33.121  23.091  26.010  1.00  0.00     0.060 A 
ATOM      9  C   UNL A   1      32.237  22.372  25.203  1.00  0.00     0.016 A 
ATOM     10  C   UNL A   1      33.033  24.486  26.092  1.00  0.00     0.016 A 
ATOM     11  C   UNL A   1      31.275  23.048  24.464  1.00  0.00     0.005 A 
ATOM     12  C   UNL A   1      32.081  25.162  25.328  1.00  0.00     0.005 A 
BRANCH   8  13
ATOM     13  C   UNL A   1      34.175  22.335  26.707  1.00  0.00     0.338 C 
ATOM     14  O   UNL A   1      33.943  21.521  27.584  1.00  0.00    -0.246 OA
BRANCH  13  15
ATOM     15  O   UNL A   1      35.386  22.756  26.275  1.00  0.00    -0.456 OA
BRANCH  15  16
ATOM     16  C   UNL A   1      36.052  22.028  25.213  1.00  0.00     0.104 C 
ATOM     17  C   UNL A   1      35.842  22.885  23.958  1.00  0.00     0.056 C 
ATOM     18  C   UNL A   1      35.395  20.661  24.998  1.00  0.00     0.056 C 
ATOM     19  C   UNL A   1      37.560  21.909  25.470  1.00  0.00     0.056 C 
ENDBRANCH  15  16
ENDBRANCH  13  15
ENDBRANCH   8  13
ENDBRANCH   6   7
ENDBRANCH   5   6
BRANCH   5  20
ATOM     20  N   UNL A   1      28.107  26.377  23.929  1.00  0.00    -0.346 N 
ATOM     21  H   UNL A   1      27.611  26.436  24.819  1.00  0.00     0.345 HD
ATOM     22  H   UNL A   1      27.841  25.517  23.448  1.00  0.00     0.345 HD
ATOM     23  H   UNL A   1      27.863  27.180  23.350  1.00  0.00     0.345 HD
ENDBRANCH   5  20
ENDBRANCH   3   5
ENDBRANCH   2   3
ENDBRANCH   1   2
BRANCH   1  24
ATOM     24  C   UNL A   1      32.457  30.081  25.398  1.00  0.00     0.275 C 
BRANCH  24  25
ATOM     25  O   UNL A   1      32.276  30.396  26.793  1.00  0.00    -0.458 OA
BRANCH  25  26
ATOM     26  C   UNL A   1      32.872  31.543  27.194  1.00  0.00     0.338 C 
ATOM     27  O   UNL A   1      32.367  32.654  27.257  1.00  0.00    -0.246 OA
BRANCH  26  28
ATOM     28  C   UNL A   1      34.211  31.267  27.728  1.00  0.00     0.060 A 
ATOM     29  C   UNL A   1      34.524  29.935  28.011  1.00  0.00     0.016 A 
ATOM     30  C   UNL A   1      35.102  32.290  28.053  1.00  0.00     0.016 A 
ATOM     31  C   UNL A   1      35.717  29.612  28.643  1.00  0.00     0.010 A 
ATOM     32  C   UNL A   1      36.306  31.966  28.690  1.00  0.00     0.010 A 
ATOM     33  C   UNL A   1      36.608  30.628  29.006  1.00  0.00    -0.014 A 
BRANCH  33  34
ATOM     34  C   UNL A   1      37.801  30.280  29.812  1.00  0.00     0.031 A 
ATOM     35  C   UNL A   1      38.872  29.420  29.205  1.00  0.00     0.074 A 
ATOM     36  C   UNL A   1      37.946  30.783  31.052  1.00  0.00     0.049 A 
ATOM     37  N   UNL A   1      39.955  28.934  29.750  1.00  0.00    -0.248 NA
ATOM     38  C   UNL A   1      38.694  29.060  27.790  1.00  0.00     0.031 C 
ATOM     39  C   UNL A   1      37.002  31.689  31.708  1.00  0.00     0.029 A 
ATOM     40  N   UNL A   1      38.941  30.606  31.977  1.00  0.00    -0.354 N 
ATOM     41  C   UNL A   1      40.581  28.192  28.755  1.00  0.00     0.074 A 
ATOM     42  C   UNL A   1      39.740  28.275  27.578  1.00  0.00     0.031 C 
ATOM     43  C   UNL A   1      37.464  31.987  32.933  1.00  0.00     0.029 A 
ATOM     44  C   UNL A   1      38.704  31.251  33.168  1.00  0.00     0.049 A 
ATOM     45  H   UNL A   1      39.748  30.068  31.806  1.00  0.00     0.167 HD
ATOM     46  C   UNL A   1      41.749  27.505  28.821  1.00  0.00     0.034 A 
ATOM     47  C   UNL A   1      39.391  31.220  34.326  1.00  0.00     0.034 A 
ATOM     48  C   UNL A   1      42.569  27.438  30.007  1.00  0.00     0.049 A 
ATOM     49  C   UNL A   1      40.647  30.388  34.401  1.00  0.00     0.074 A 
ATOM     50  C   UNL A   1      43.763  26.765  30.196  1.00  0.00     0.029 A 
ATOM     51  N   UNL A   1      42.276  28.069  31.211  1.00  0.00    -0.354 N 
ATOM     52  N   UNL A   1      41.209  29.655  33.466  1.00  0.00    -0.248 NA
ATOM     53  C   UNL A   1      41.361  30.381  35.684  1.00  0.00     0.031 C 
ATOM     54  C   UNL A   1      44.160  26.939  31.527  1.00  0.00     0.029 A 
ATOM     55  C   UNL A   1      43.253  27.780  32.151  1.00  0.00     0.049 A 
ATOM     56  H   UNL A   1      41.490  28.638  31.372  1.00  0.00     0.167 HD
ATOM     57  C   UNL A   1      42.357  29.120  34.044  1.00  0.00     0.074 A 
ATOM     58  C   UNL A   1      42.413  29.627  35.400  1.00  0.00     0.031 C 
ATOM     59  C   UNL A   1      43.285  28.290  33.502  1.00  0.00     0.034 A 
BRANCH  46  60
ATOM     60  C   UNL A   1      42.160  26.723  27.597  1.00  0.00     0.023 A 
ATOM     61  C   UNL A   1      41.865  25.355  27.454  1.00  0.00     0.031 A 
ATOM     62  C   UNL A   1      42.901  27.346  26.577  1.00  0.00     0.131 A 
ATOM     63  C   UNL A   1      42.370  24.642  26.356  1.00  0.00     0.055 A 
ATOM     64  C   UNL A   1      43.334  26.648  25.449  1.00  0.00     0.041 A 
ATOM     65  F   UNL A   1      43.234  28.644  26.671  1.00  0.00    -0.206 F 
ATOM     66  C   UNL A   1      43.083  25.284  25.340  1.00  0.00     0.022 A 
BRANCH  63  67
ATOM     67  S   UNL A   1      42.208  22.836  26.346  1.00  0.00     0.124 S 
ATOM     68  O   UNL A   1      40.769  22.666  26.528  1.00  0.00    -0.237 OA
ATOM     69  O   UNL A   1      42.733  22.479  25.033  1.00  0.00    -0.237 OA
ATOM     70  O   UNL A   1      43.027  22.411  27.481  1.00  0.00    -0.744 OA
ENDBRANCH  63  67
ENDBRANCH  46  60
BRANCH  47  71
ATOM     71  C   UNL A   1      38.884  31.949  35.523  1.00  0.00     0.023 A 
ATOM     72  C   UNL A   1      38.297  31.266  36.599  1.00  0.00     0.031 A 
ATOM     73  C   UNL A   1      38.944  33.354  35.588  1.00  0.00     0.131 A 
ATOM     74  C   UNL A   1      37.757  31.989  37.674  1.00  0.00     0.055 A 
ATOM     75  C   UNL A   1      38.453  34.065  36.683  1.00  0.00     0.041 A 
ATOM     76  F   UNL A   1      39.496  34.057  34.586  1.00  0.00    -0.206 F 
ATOM     77  C   UNL A   1      37.842  33.381  37.729  1.00  0.00     0.022 A 
BRANCH  74  78
ATOM     78  S   UNL A   1      36.865  31.083  38.969  1.00  0.00     0.124 S 
ATOM     79  O   UNL A   1      37.774  31.210  40.102  1.00  0.00    -0.237 OA
ATOM     80  O   UNL A   1      35.617  31.834  39.059  1.00  0.00    -0.237 OA
ATOM     81  O   UNL A   1      36.741  29.735  38.416  1.00  0.00    -0.744 OA
ENDBRANCH  74  78
ENDBRANCH  47  71
BRANCH  59  82
ATOM     82  C   UNL A   1      44.461  27.925  34.373  1.00  0.00     0.023 A 
ATOM     83  C   UNL A   1      44.427  26.818  35.238  1.00  0.00     0.031 A 
ATOM     84  C   UNL A   1      45.627  28.710  34.345  1.00  0.00     0.131 A 
ATOM     85  C   UNL A   1      45.518  26.559  36.082  1.00  0.00     0.055 A 
ATOM     86  C   UNL A   1      46.731  28.414  35.145  1.00  0.00     0.041 A 
ATOM     87  F   UNL A   1      45.711  29.780  33.537  1.00  0.00    -0.206 F 
ATOM     88  C   UNL A   1      46.675  27.340  36.030  1.00  0.00     0.022 A 
BRANCH  85  89
ATOM     89  S   UNL A   1      45.372  25.236  37.314  1.00  0.00     0.124 S 
ATOM     90  O   UNL A   1      44.487  25.840  38.304  1.00  0.00    -0.237 OA
ATOM     91  O   UNL A   1      44.802  24.143  36.532  1.00  0.00    -0.237 OA
ATOM     92  O   UNL A   1      46.749  25.026  37.758  1.00  0.00    -0.744 OA
ENDBRANCH  85  89
ENDBRANCH  59  82
ENDBRANCH  33  34
ENDBRANCH  26  28
ENDBRANCH  25  26
ENDBRANCH  24  25
ENDBRANCH   1  24
TORSDOF 20
ENDMDL
