MODEL 1
REMARK VINA RESULT:     -12.1      0.000      0.000
REMARK SMILES O=C(OCCOC(=O)c1ccc(S(=O)(=O)Nc2ccccc2I)cc1)c1ccc(-c2c3nc(c(-c4cc(S(=O)(=O)[O-])ccc4F)c4ccc([nH]4)c(-c4cc(S(=O)(=O)[O-])ccc4F)c4nc(c(-c5cc(S(=O)(=O)[O-])ccc5F)c5ccc2[nH]5)C=C4)C=C3)cc1
REMARK SMILES IDX 4 1 3 2 2 3 1 4 26 5 27 6 88 7 28 8 87 9 29 10 30 11 31 12
REMARK SMILES IDX 81 13 32 14 86 15 80 16 82 17 33 18 85 19 79 20 78 21 34 23
REMARK SMILES IDX 66 24 46 25 65 26 47 27 50 28 64 29 83 30 48 31 49 32 63 34
REMARK SMILES IDX 84 35 51 36 35 37 36 38 44 39 37 40 43 41 45 42 42 43 38 44
REMARK SMILES IDX 39 45 40 46 41 47 67 48 68 49 76 50 69 51 75 52 77 53 74 54
REMARK SMILES IDX 70 55 71 56 72 57 73 58 52 59 53 60 61 61 54 62 60 63 62 64
REMARK SMILES IDX 59 65 55 66 56 67 57 68 58 69 5 70 6 71 7 72 8 73 9 74 10 75
REMARK SMILES IDX 25 76 11 77 24 78 12 79 13 80 14 81 15 82 16 83 17 85 18 86
REMARK SMILES IDX 22 87 19 88 21 89 23 90 20 91
REMARK H PARENT 82 22 50 33 16 84
REMARK Flexibility Score: inf
ROOT
ATOM      1  C   UNL A   1      31.943  33.012  26.605  1.00  0.00     0.275 C 
ENDROOT
BRANCH   1   2
ATOM      2  O   UNL A   1      32.227  33.806  27.773  1.00  0.00    -0.458 OA
BRANCH   2   3
ATOM      3  C   UNL A   1      33.391  34.332  28.227  1.00  0.00     0.338 C 
ATOM      4  O   UNL A   1      33.570  35.545  28.106  1.00  0.00    -0.246 OA
BRANCH   3   5
ATOM      5  C   UNL A   1      34.528  33.515  28.764  1.00  0.00     0.060 A 
ATOM      6  C   UNL A   1      34.403  32.389  29.578  1.00  0.00     0.016 A 
ATOM      7  C   UNL A   1      35.828  33.947  28.437  1.00  0.00     0.016 A 
ATOM      8  C   UNL A   1      35.528  31.664  29.986  1.00  0.00     0.010 A 
ATOM      9  C   UNL A   1      36.961  33.231  28.854  1.00  0.00     0.010 A 
ATOM     10  C   UNL A   1      36.815  32.072  29.625  1.00  0.00    -0.014 A 
BRANCH  10  11
ATOM     11  C   UNL A   1      37.985  31.368  30.205  1.00  0.00     0.031 A 
ATOM     12  C   UNL A   1      38.418  31.741  31.598  1.00  0.00     0.074 A 
ATOM     13  C   UNL A   1      38.577  30.342  29.559  1.00  0.00     0.049 A 
ATOM     14  N   UNL A   1      39.351  31.209  32.342  1.00  0.00    -0.248 NA
ATOM     15  C   UNL A   1      37.661  32.819  32.258  1.00  0.00     0.031 C 
ATOM     16  C   UNL A   1      38.171  29.800  28.261  1.00  0.00     0.029 A 
ATOM     17  N   UNL A   1      39.657  29.566  29.906  1.00  0.00    -0.354 N 
ATOM     18  C   UNL A   1      39.231  31.819  33.585  1.00  0.00     0.074 A 
ATOM     19  C   UNL A   1      38.210  32.837  33.462  1.00  0.00     0.031 C 
ATOM     20  C   UNL A   1      39.030  28.832  27.893  1.00  0.00     0.029 A 
ATOM     21  C   UNL A   1      40.063  28.701  28.912  1.00  0.00     0.049 A 
ATOM     22  H   UNL A   1      40.101  29.623  30.783  1.00  0.00     0.167 HD
ATOM     23  C   UNL A   1      39.873  31.516  34.738  1.00  0.00     0.034 A 
ATOM     24  C   UNL A   1      41.167  27.933  28.831  1.00  0.00     0.034 A 
ATOM     25  C   UNL A   1      40.941  30.552  34.822  1.00  0.00     0.049 A 
ATOM     26  C   UNL A   1      42.048  27.829  30.038  1.00  0.00     0.074 A 
ATOM     27  C   UNL A   1      41.685  30.174  35.925  1.00  0.00     0.029 A 
ATOM     28  N   UNL A   1      41.437  29.832  33.743  1.00  0.00    -0.354 N 
ATOM     29  N   UNL A   1      41.937  28.429  31.198  1.00  0.00    -0.248 NA
ATOM     30  C   UNL A   1      43.169  26.891  29.932  1.00  0.00     0.031 C 
ATOM     31  C   UNL A   1      42.671  29.276  35.500  1.00  0.00     0.029 A 
ATOM     32  C   UNL A   1      42.500  29.039  34.146  1.00  0.00     0.049 A 
ATOM     33  H   UNL A   1      41.084  29.878  32.824  1.00  0.00     0.167 HD
ATOM     34  C   UNL A   1      42.953  27.904  31.983  1.00  0.00     0.074 A 
ATOM     35  C   UNL A   1      43.673  26.956  31.153  1.00  0.00     0.031 C 
ATOM     36  C   UNL A   1      43.239  28.149  33.287  1.00  0.00     0.034 A 
BRANCH  23  37
ATOM     37  C   UNL A   1      39.431  32.251  35.977  1.00  0.00     0.023 A 
ATOM     38  C   UNL A   1      38.635  31.619  36.951  1.00  0.00     0.031 A 
ATOM     39  C   UNL A   1      39.772  33.598  36.177  1.00  0.00     0.131 A 
ATOM     40  C   UNL A   1      38.159  32.348  38.050  1.00  0.00     0.055 A 
ATOM     41  C   UNL A   1      39.347  34.302  37.306  1.00  0.00     0.041 A 
ATOM     42  F   UNL A   1      40.508  34.259  35.270  1.00  0.00    -0.206 F 
ATOM     43  C   UNL A   1      38.528  33.681  38.246  1.00  0.00     0.022 A 
BRANCH  40  44
ATOM     44  S   UNL A   1      36.962  31.562  39.166  1.00  0.00     0.124 S 
ATOM     45  O   UNL A   1      35.865  32.526  39.150  1.00  0.00    -0.237 OA
ATOM     46  O   UNL A   1      36.701  30.288  38.506  1.00  0.00    -0.237 OA
ATOM     47  O   UNL A   1      37.684  31.471  40.433  1.00  0.00    -0.744 OA
ENDBRANCH  40  44
ENDBRANCH  23  37
BRANCH  24  48
ATOM     48  C   UNL A   1      41.610  27.283  27.566  1.00  0.00     0.023 A 
ATOM     49  C   UNL A   1      41.695  25.895  27.408  1.00  0.00     0.031 A 
ATOM     50  C   UNL A   1      42.120  28.097  26.537  1.00  0.00     0.131 A 
ATOM     51  C   UNL A   1      42.265  25.370  26.232  1.00  0.00     0.055 A 
ATOM     52  C   UNL A   1      42.603  27.573  25.339  1.00  0.00     0.041 A 
ATOM     53  F   UNL A   1      42.160  29.430  26.695  1.00  0.00    -0.206 F 
ATOM     54  C   UNL A   1      42.679  26.197  25.182  1.00  0.00     0.022 A 
BRANCH  51  55
ATOM     55  S   UNL A   1      42.572  23.584  26.128  1.00  0.00     0.124 S 
ATOM     56  O   UNL A   1      43.642  23.413  27.103  1.00  0.00    -0.237 OA
ATOM     57  O   UNL A   1      41.272  23.030  26.494  1.00  0.00    -0.237 OA
ATOM     58  O   UNL A   1      42.957  23.386  24.732  1.00  0.00    -0.744 OA
ENDBRANCH  51  55
ENDBRANCH  24  48
BRANCH  36  59
ATOM     59  C   UNL A   1      44.355  27.328  33.870  1.00  0.00     0.023 A 
ATOM     60  C   UNL A   1      44.113  26.063  34.431  1.00  0.00     0.031 A 
ATOM     61  C   UNL A   1      45.646  27.871  33.973  1.00  0.00     0.131 A 
ATOM     62  C   UNL A   1      45.125  25.426  35.160  1.00  0.00     0.055 A 
ATOM     63  C   UNL A   1      46.672  27.194  34.630  1.00  0.00     0.041 A 
ATOM     64  F   UNL A   1      45.921  29.083  33.466  1.00  0.00    -0.206 F 
ATOM     65  C   UNL A   1      46.408  25.974  35.247  1.00  0.00     0.022 A 
BRANCH  62  66
ATOM     66  S   UNL A   1      44.692  23.956  36.127  1.00  0.00     0.124 S 
ATOM     67  O   UNL A   1      44.624  24.499  37.480  1.00  0.00    -0.237 OA
ATOM     68  O   UNL A   1      43.419  23.556  35.537  1.00  0.00    -0.237 OA
ATOM     69  O   UNL A   1      45.806  23.044  35.880  1.00  0.00    -0.744 OA
ENDBRANCH  62  66
ENDBRANCH  36  59
ENDBRANCH  10  11
ENDBRANCH   3   5
ENDBRANCH   2   3
ENDBRANCH   1   2
BRANCH   1  70
ATOM     70  C   UNL A   1      31.543  31.562  26.881  1.00  0.00     0.275 C 
BRANCH  70  71
ATOM     71  O   UNL A   1      31.919  30.673  25.827  1.00  0.00    -0.458 OA
BRANCH  71  72
ATOM     72  C   UNL A   1      33.045  29.948  26.055  1.00  0.00     0.338 C 
ATOM     73  O   UNL A   1      33.876  30.155  26.925  1.00  0.00    -0.246 OA
BRANCH  72  74
ATOM     74  C   UNL A   1      33.077  28.773  25.154  1.00  0.00     0.060 A 
ATOM     75  C   UNL A   1      32.476  28.881  23.892  1.00  0.00     0.017 A 
ATOM     76  C   UNL A   1      33.740  27.597  25.510  1.00  0.00     0.017 A 
ATOM     77  C   UNL A   1      32.511  27.806  23.000  1.00  0.00     0.023 A 
ATOM     78  C   UNL A   1      33.823  26.545  24.598  1.00  0.00     0.023 A 
ATOM     79  C   UNL A   1      33.161  26.627  23.368  1.00  0.00     0.087 A 
BRANCH  79  80
ATOM     80  S   UNL A   1      33.213  25.253  22.240  1.00  0.00     0.261 S 
ATOM     81  O   UNL A   1      33.249  25.775  20.889  1.00  0.00    -0.201 OA
ATOM     82  O   UNL A   1      34.249  24.352  22.698  1.00  0.00    -0.201 OA
BRANCH  80  83
ATOM     83  N   UNL A   1      31.705  24.444  22.396  1.00  0.00    -0.279 N 
ATOM     84  H   UNL A   1      30.893  24.754  21.934  1.00  0.00     0.180 HD
BRANCH  83  85
ATOM     85  C   UNL A   1      31.704  23.280  23.246  1.00  0.00     0.062 A 
ATOM     86  C   UNL A   1      32.244  22.096  22.751  1.00  0.00     0.028 A 
ATOM     87  C   UNL A   1      31.331  23.356  24.601  1.00  0.00     0.037 A 
ATOM     88  C   UNL A   1      32.480  21.040  23.622  1.00  0.00     0.002 A 
ATOM     89  C   UNL A   1      31.538  22.265  25.456  1.00  0.00     0.017 A 
ATOM     90  I   UNL A   1      30.473  25.078  25.427  1.00  0.00    -0.042 I 
ATOM     91  C   UNL A   1      32.132  21.109  24.967  1.00  0.00     0.001 A 
ENDBRANCH  83  85
ENDBRANCH  80  83
ENDBRANCH  79  80
ENDBRANCH  72  74
ENDBRANCH  71  72
ENDBRANCH  70  71
ENDBRANCH   1  70
TORSDOF 17
ENDMDL
MODEL 2
REMARK VINA RESULT:     -11.9      2.652      8.796
REMARK SMILES O=C(OCCOC(=O)c1ccc(S(=O)(=O)Nc2ccccc2I)cc1)c1ccc(-c2c3nc(c(-c4cc(S(=O)(=O)[O-])ccc4F)c4ccc([nH]4)c(-c4cc(S(=O)(=O)[O-])ccc4F)c4nc(c(-c5cc(S(=O)(=O)[O-])ccc5F)c5ccc2[nH]5)C=C4)C=C3)cc1
REMARK SMILES IDX 4 1 3 2 2 3 1 4 26 5 27 6 88 7 28 8 87 9 29 10 30 11 31 12
REMARK SMILES IDX 81 13 32 14 86 15 80 16 82 17 33 18 85 19 79 20 78 21 34 23
REMARK SMILES IDX 66 24 46 25 65 26 47 27 50 28 64 29 83 30 48 31 49 32 63 34
REMARK SMILES IDX 84 35 51 36 35 37 36 38 44 39 37 40 43 41 45 42 42 43 38 44
REMARK SMILES IDX 39 45 40 46 41 47 67 48 68 49 76 50 69 51 75 52 77 53 74 54
REMARK SMILES IDX 70 55 71 56 72 57 73 58 52 59 53 60 61 61 54 62 60 63 62 64
REMARK SMILES IDX 59 65 55 66 56 67 57 68 58 69 5 70 6 71 7 72 8 73 9 74 10 75
REMARK SMILES IDX 25 76 11 77 24 78 12 79 13 80 14 81 15 82 16 83 17 85 18 86
REMARK SMILES IDX 22 87 19 88 21 89 23 90 20 91
REMARK H PARENT 82 22 50 33 16 84
REMARK Flexibility Score: inf
ROOT
ATOM      1  C   UNL A   1      43.954  21.651  25.399  1.00  0.00     0.275 C 
ENDROOT
BRANCH   1   2
ATOM      2  O   UNL A   1      43.594  22.902  24.782  1.00  0.00    -0.458 OA
BRANCH   2   3
ATOM      3  C   UNL A   1      44.039  24.163  25.007  1.00  0.00     0.338 C 
ATOM      4  O   UNL A   1      45.023  24.555  24.380  1.00  0.00    -0.246 OA
BRANCH   3   5
ATOM      5  C   UNL A   1      43.478  25.075  26.056  1.00  0.00     0.060 A 
ATOM      6  C   UNL A   1      43.994  26.324  26.404  1.00  0.00     0.016 A 
ATOM      7  C   UNL A   1      42.354  24.609  26.765  1.00  0.00     0.016 A 
ATOM      8  C   UNL A   1      43.365  27.123  27.365  1.00  0.00     0.010 A 
ATOM      9  C   UNL A   1      41.727  25.401  27.739  1.00  0.00     0.010 A 
ATOM     10  C   UNL A   1      42.225  26.675  28.037  1.00  0.00    -0.014 A 
BRANCH  10  11
ATOM     11  C   UNL A   1      41.681  27.484  29.156  1.00  0.00     0.031 A 
ATOM     12  C   UNL A   1      42.326  27.345  30.509  1.00  0.00     0.074 A 
ATOM     13  C   UNL A   1      40.716  28.405  28.951  1.00  0.00     0.049 A 
ATOM     14  N   UNL A   1      42.083  28.007  31.610  1.00  0.00    -0.248 NA
ATOM     15  C   UNL A   1      43.427  26.373  30.620  1.00  0.00     0.031 C 
ATOM     16  C   UNL A   1      40.100  28.726  27.662  1.00  0.00     0.029 A 
ATOM     17  N   UNL A   1      40.077  29.246  29.830  1.00  0.00    -0.354 N 
ATOM     18  C   UNL A   1      43.057  27.600  32.513  1.00  0.00     0.074 A 
ATOM     19  C   UNL A   1      43.826  26.557  31.868  1.00  0.00     0.031 C 
ATOM     20  C   UNL A   1      39.129  29.639  27.848  1.00  0.00     0.029 A 
ATOM     21  C   UNL A   1      39.033  29.949  29.267  1.00  0.00     0.049 A 
ATOM     22  H   UNL A   1      40.340  29.338  30.774  1.00  0.00     0.167 HD
ATOM     23  C   UNL A   1      43.325  28.095  33.745  1.00  0.00     0.034 A 
ATOM     24  C   UNL A   1      38.091  30.715  29.852  1.00  0.00     0.034 A 
ATOM     25  C   UNL A   1      42.501  29.079  34.400  1.00  0.00     0.049 A 
ATOM     26  C   UNL A   1      38.235  31.026  31.310  1.00  0.00     0.074 A 
ATOM     27  C   UNL A   1      42.651  29.642  35.655  1.00  0.00     0.029 A 
ATOM     28  N   UNL A   1      41.347  29.628  33.856  1.00  0.00    -0.354 N 
ATOM     29  N   UNL A   1      39.148  30.616  32.157  1.00  0.00    -0.248 NA
ATOM     30  C   UNL A   1      37.248  31.956  31.866  1.00  0.00     0.031 C 
ATOM     31  C   UNL A   1      41.555  30.479  35.893  1.00  0.00     0.029 A 
ATOM     32  C   UNL A   1      40.756  30.494  34.761  1.00  0.00     0.049 A 
ATOM     33  H   UNL A   1      40.999  29.429  32.955  1.00  0.00     0.167 HD
ATOM     34  C   UNL A   1      38.871  31.278  33.345  1.00  0.00     0.074 A 
ATOM     35  C   UNL A   1      37.697  32.095  33.103  1.00  0.00     0.031 C 
ATOM     36  C   UNL A   1      39.553  31.249  34.519  1.00  0.00     0.034 A 
BRANCH  23  37
ATOM     37  C   UNL A   1      44.546  27.558  34.445  1.00  0.00     0.023 A 
ATOM     38  C   UNL A   1      44.472  26.410  35.257  1.00  0.00     0.031 A 
ATOM     39  C   UNL A   1      45.785  28.209  34.335  1.00  0.00     0.131 A 
ATOM     40  C   UNL A   1      45.600  25.982  35.972  1.00  0.00     0.055 A 
ATOM     41  C   UNL A   1      46.920  27.741  35.000  1.00  0.00     0.041 A 
ATOM     42  F   UNL A   1      45.909  29.322  33.595  1.00  0.00    -0.206 F 
ATOM     43  C   UNL A   1      46.830  26.627  35.833  1.00  0.00     0.022 A 
BRANCH  40  44
ATOM     44  S   UNL A   1      45.411  24.634  37.173  1.00  0.00     0.124 S 
ATOM     45  O   UNL A   1      45.427  23.459  36.304  1.00  0.00    -0.237 OA
ATOM     46  O   UNL A   1      46.577  24.808  38.031  1.00  0.00    -0.237 OA
ATOM     47  O   UNL A   1      44.125  24.916  37.805  1.00  0.00    -0.744 OA
ENDBRANCH  40  44
ENDBRANCH  23  37
BRANCH  24  48
ATOM     48  C   UNL A   1      36.859  31.164  29.145  1.00  0.00     0.023 A 
ATOM     49  C   UNL A   1      35.870  30.282  28.696  1.00  0.00     0.031 A 
ATOM     50  C   UNL A   1      36.759  32.517  28.767  1.00  0.00     0.131 A 
ATOM     51  C   UNL A   1      34.814  30.776  27.905  1.00  0.00     0.055 A 
ATOM     52  C   UNL A   1      35.668  33.016  28.059  1.00  0.00     0.041 A 
ATOM     53  F   UNL A   1      37.743  33.374  29.081  1.00  0.00    -0.206 F 
ATOM     54  C   UNL A   1      34.685  32.140  27.621  1.00  0.00     0.022 A 
BRANCH  51  55
ATOM     55  S   UNL A   1      33.661  29.599  27.146  1.00  0.00     0.124 S 
ATOM     56  O   UNL A   1      33.525  28.600  28.200  1.00  0.00    -0.237 OA
ATOM     57  O   UNL A   1      32.492  30.437  26.897  1.00  0.00    -0.237 OA
ATOM     58  O   UNL A   1      34.369  29.154  25.947  1.00  0.00    -0.744 OA
ENDBRANCH  51  55
ENDBRANCH  24  48
BRANCH  36  59
ATOM     59  C   UNL A   1      39.041  32.174  35.587  1.00  0.00     0.023 A 
ATOM     60  C   UNL A   1      39.476  33.506  35.669  1.00  0.00     0.031 A 
ATOM     61  C   UNL A   1      38.206  31.678  36.602  1.00  0.00     0.131 A 
ATOM     62  C   UNL A   1      39.155  34.270  36.798  1.00  0.00     0.055 A 
ATOM     63  C   UNL A   1      37.822  32.470  37.683  1.00  0.00     0.041 A 
ATOM     64  F   UNL A   1      37.778  30.406  36.575  1.00  0.00    -0.206 F 
ATOM     65  C   UNL A   1      38.315  33.768  37.797  1.00  0.00     0.022 A 
BRANCH  62  66
ATOM     66  S   UNL A   1      39.983  35.867  37.019  1.00  0.00     0.124 S 
ATOM     67  O   UNL A   1      41.367  35.457  37.234  1.00  0.00    -0.237 OA
ATOM     68  O   UNL A   1      39.707  36.541  35.755  1.00  0.00    -0.237 OA
ATOM     69  O   UNL A   1      39.316  36.438  38.187  1.00  0.00    -0.744 OA
ENDBRANCH  62  66
ENDBRANCH  36  59
ENDBRANCH  10  11
ENDBRANCH   3   5
ENDBRANCH   2   3
ENDBRANCH   1   2
BRANCH   1  70
ATOM     70  C   UNL A   1      42.820  20.932  26.132  1.00  0.00     0.275 C 
BRANCH  70  71
ATOM     71  O   UNL A   1      41.526  21.389  25.731  1.00  0.00    -0.458 OA
BRANCH  71  72
ATOM     72  C   UNL A   1      40.605  21.467  26.727  1.00  0.00     0.338 C 
ATOM     73  O   UNL A   1      40.792  21.217  27.907  1.00  0.00    -0.246 OA
BRANCH  72  74
ATOM     74  C   UNL A   1      39.337  22.017  26.197  1.00  0.00     0.060 A 
ATOM     75  C   UNL A   1      38.547  21.203  25.373  1.00  0.00     0.017 A 
ATOM     76  C   UNL A   1      38.889  23.293  26.548  1.00  0.00     0.017 A 
ATOM     77  C   UNL A   1      37.329  21.673  24.876  1.00  0.00     0.023 A 
ATOM     78  C   UNL A   1      37.647  23.739  26.099  1.00  0.00     0.023 A 
ATOM     79  C   UNL A   1      36.895  22.955  25.217  1.00  0.00     0.087 A 
BRANCH  79  80
ATOM     80  S   UNL A   1      35.344  23.563  24.593  1.00  0.00     0.261 S 
ATOM     81  O   UNL A   1      35.174  24.928  25.050  1.00  0.00    -0.201 OA
ATOM     82  O   UNL A   1      35.295  23.260  23.179  1.00  0.00    -0.201 OA
BRANCH  80  83
ATOM     83  N   UNL A   1      34.117  22.646  25.372  1.00  0.00    -0.279 N 
ATOM     84  H   UNL A   1      33.693  22.943  26.209  1.00  0.00     0.180 HD
BRANCH  83  85
ATOM     85  C   UNL A   1      33.749  21.414  24.721  1.00  0.00     0.062 A 
ATOM     86  C   UNL A   1      34.454  20.257  25.041  1.00  0.00     0.028 A 
ATOM     87  C   UNL A   1      32.603  21.322  23.909  1.00  0.00     0.037 A 
ATOM     88  C   UNL A   1      33.967  19.026  24.623  1.00  0.00     0.002 A 
ATOM     89  C   UNL A   1      32.149  20.074  23.461  1.00  0.00     0.017 A 
ATOM     90  I   UNL A   1      31.500  23.008  23.340  1.00  0.00    -0.042 I 
ATOM     91  C   UNL A   1      32.826  18.920  23.836  1.00  0.00     0.001 A 
ENDBRANCH  83  85
ENDBRANCH  80  83
ENDBRANCH  79  80
ENDBRANCH  72  74
ENDBRANCH  71  72
ENDBRANCH  70  71
ENDBRANCH   1  70
TORSDOF 17
ENDMDL
MODEL 3
REMARK VINA RESULT:     -11.8      1.910      2.300
REMARK SMILES O=C(OCCOC(=O)c1ccc(S(=O)(=O)Nc2ccccc2I)cc1)c1ccc(-c2c3nc(c(-c4cc(S(=O)(=O)[O-])ccc4F)c4ccc([nH]4)c(-c4cc(S(=O)(=O)[O-])ccc4F)c4nc(c(-c5cc(S(=O)(=O)[O-])ccc5F)c5ccc2[nH]5)C=C4)C=C3)cc1
REMARK SMILES IDX 4 1 3 2 2 3 1 4 26 5 27 6 88 7 28 8 87 9 29 10 30 11 31 12
REMARK SMILES IDX 81 13 32 14 86 15 80 16 82 17 33 18 85 19 79 20 78 21 34 23
REMARK SMILES IDX 66 24 46 25 65 26 47 27 50 28 64 29 83 30 48 31 49 32 63 34
REMARK SMILES IDX 84 35 51 36 35 37 36 38 44 39 37 40 43 41 45 42 42 43 38 44
REMARK SMILES IDX 39 45 40 46 41 47 67 48 68 49 76 50 69 51 75 52 77 53 74 54
REMARK SMILES IDX 70 55 71 56 72 57 73 58 52 59 53 60 61 61 54 62 60 63 62 64
REMARK SMILES IDX 59 65 55 66 56 67 57 68 58 69 5 70 6 71 7 72 8 73 9 74 10 75
REMARK SMILES IDX 25 76 11 77 24 78 12 79 13 80 14 81 15 82 16 83 17 85 18 86
REMARK SMILES IDX 22 87 19 88 21 89 23 90 20 91
REMARK H PARENT 82 22 50 33 16 84
REMARK Flexibility Score: inf
ROOT
ATOM      1  C   UNL A   1      31.431  32.640  26.902  1.00  0.00     0.275 C 
ENDROOT
BRANCH   1   2
ATOM      2  O   UNL A   1      32.485  33.615  27.022  1.00  0.00    -0.458 OA
BRANCH   2   3
ATOM      3  C   UNL A   1      33.209  34.013  28.098  1.00  0.00     0.338 C 
ATOM      4  O   UNL A   1      32.967  35.116  28.589  1.00  0.00    -0.246 OA
BRANCH   3   5
ATOM      5  C   UNL A   1      34.366  33.243  28.660  1.00  0.00     0.060 A 
ATOM      6  C   UNL A   1      34.282  32.255  29.641  1.00  0.00     0.016 A 
ATOM      7  C   UNL A   1      35.645  33.575  28.172  1.00  0.00     0.016 A 
ATOM      8  C   UNL A   1      35.420  31.557  30.064  1.00  0.00     0.010 A 
ATOM      9  C   UNL A   1      36.790  32.888  28.601  1.00  0.00     0.010 A 
ATOM     10  C   UNL A   1      36.681  31.861  29.546  1.00  0.00    -0.014 A 
BRANCH  10  11
ATOM     11  C   UNL A   1      37.879  31.208  30.131  1.00  0.00     0.031 A 
ATOM     12  C   UNL A   1      38.320  31.640  31.504  1.00  0.00     0.074 A 
ATOM     13  C   UNL A   1      38.489  30.177  29.511  1.00  0.00     0.049 A 
ATOM     14  N   UNL A   1      39.278  31.158  32.251  1.00  0.00    -0.248 NA
ATOM     15  C   UNL A   1      37.544  32.718  32.140  1.00  0.00     0.031 C 
ATOM     16  C   UNL A   1      38.079  29.582  28.238  1.00  0.00     0.029 A 
ATOM     17  N   UNL A   1      39.595  29.444  29.867  1.00  0.00    -0.354 N 
ATOM     18  C   UNL A   1      39.160  31.806  33.475  1.00  0.00     0.074 A 
ATOM     19  C   UNL A   1      38.109  32.792  33.334  1.00  0.00     0.031 C 
ATOM     20  C   UNL A   1      38.960  28.626  27.889  1.00  0.00     0.029 A 
ATOM     21  C   UNL A   1      40.010  28.557  28.896  1.00  0.00     0.049 A 
ATOM     22  H   UNL A   1      40.049  29.541  30.735  1.00  0.00     0.167 HD
ATOM     23  C   UNL A   1      39.825  31.559  34.628  1.00  0.00     0.034 A 
ATOM     24  C   UNL A   1      41.134  27.816  28.824  1.00  0.00     0.034 A 
ATOM     25  C   UNL A   1      40.920  30.627  34.728  1.00  0.00     0.049 A 
ATOM     26  C   UNL A   1      42.034  27.776  30.020  1.00  0.00     0.074 A 
ATOM     27  C   UNL A   1      41.690  30.307  35.831  1.00  0.00     0.029 A 
ATOM     28  N   UNL A   1      41.421  29.885  33.666  1.00  0.00    -0.354 N 
ATOM     29  N   UNL A   1      41.923  28.412  31.161  1.00  0.00    -0.248 NA
ATOM     30  C   UNL A   1      43.179  26.865  29.929  1.00  0.00     0.031 C 
ATOM     31  C   UNL A   1      42.694  29.421  35.421  1.00  0.00     0.029 A 
ATOM     32  C   UNL A   1      42.510  29.135  34.079  1.00  0.00     0.049 A 
ATOM     33  H   UNL A   1      41.054  29.891  32.752  1.00  0.00     0.167 HD
ATOM     34  C   UNL A   1      42.964  27.941  31.948  1.00  0.00     0.074 A 
ATOM     35  C   UNL A   1      43.698  26.985  31.139  1.00  0.00     0.031 C 
ATOM     36  C   UNL A   1      43.262  28.237  33.238  1.00  0.00     0.034 A 
BRANCH  23  37
ATOM     37  C   UNL A   1      39.382  32.323  35.849  1.00  0.00     0.023 A 
ATOM     38  C   UNL A   1      39.973  33.555  36.188  1.00  0.00     0.031 A 
ATOM     39  C   UNL A   1      38.391  31.810  36.700  1.00  0.00     0.131 A 
ATOM     40  C   UNL A   1      39.610  34.204  37.378  1.00  0.00     0.055 A 
ATOM     41  C   UNL A   1      37.989  32.492  37.851  1.00  0.00     0.041 A 
ATOM     42  F   UNL A   1      37.810  30.628  36.440  1.00  0.00    -0.206 F 
ATOM     43  C   UNL A   1      38.606  33.691  38.201  1.00  0.00     0.022 A 
BRANCH  40  44
ATOM     44  S   UNL A   1      40.545  35.673  37.890  1.00  0.00     0.124 S 
ATOM     45  O   UNL A   1      40.683  35.450  39.327  1.00  0.00    -0.237 OA
ATOM     46  O   UNL A   1      41.770  35.559  37.107  1.00  0.00    -0.237 OA
ATOM     47  O   UNL A   1      39.670  36.782  37.519  1.00  0.00    -0.744 OA
ENDBRANCH  40  44
ENDBRANCH  23  37
BRANCH  24  48
ATOM     48  C   UNL A   1      41.575  27.136  27.575  1.00  0.00     0.023 A 
ATOM     49  C   UNL A   1      41.587  25.745  27.423  1.00  0.00     0.031 A 
ATOM     50  C   UNL A   1      42.160  27.916  26.558  1.00  0.00     0.131 A 
ATOM     51  C   UNL A   1      42.162  25.183  26.267  1.00  0.00     0.055 A 
ATOM     52  C   UNL A   1      42.648  27.360  25.377  1.00  0.00     0.041 A 
ATOM     53  F   UNL A   1      42.271  29.245  26.713  1.00  0.00    -0.206 F 
ATOM     54  C   UNL A   1      42.652  25.980  25.227  1.00  0.00     0.022 A 
BRANCH  51  55
ATOM     55  S   UNL A   1      42.371  23.382  26.177  1.00  0.00     0.124 S 
ATOM     56  O   UNL A   1      40.997  22.919  26.333  1.00  0.00    -0.237 OA
ATOM     57  O   UNL A   1      42.963  23.211  24.854  1.00  0.00    -0.237 OA
ATOM     58  O   UNL A   1      43.264  23.088  27.296  1.00  0.00    -0.744 OA
ENDBRANCH  51  55
ENDBRANCH  24  48
BRANCH  36  59
ATOM     59  C   UNL A   1      44.407  27.465  33.832  1.00  0.00     0.023 A 
ATOM     60  C   UNL A   1      44.213  26.200  34.408  1.00  0.00     0.031 A 
ATOM     61  C   UNL A   1      45.677  28.059  33.928  1.00  0.00     0.131 A 
ATOM     62  C   UNL A   1      45.248  25.611  35.145  1.00  0.00     0.055 A 
ATOM     63  C   UNL A   1      46.728  27.429  34.593  1.00  0.00     0.041 A 
ATOM     64  F   UNL A   1      45.905  29.274  33.406  1.00  0.00    -0.206 F 
ATOM     65  C   UNL A   1      46.510  26.207  35.225  1.00  0.00     0.022 A 
BRANCH  62  66
ATOM     66  S   UNL A   1      44.871  24.137  36.130  1.00  0.00     0.124 S 
ATOM     67  O   UNL A   1      43.661  23.645  35.478  1.00  0.00    -0.237 OA
ATOM     68  O   UNL A   1      46.068  23.323  35.947  1.00  0.00    -0.237 OA
ATOM     69  O   UNL A   1      44.678  24.666  37.478  1.00  0.00    -0.744 OA
ENDBRANCH  62  66
ENDBRANCH  36  59
ENDBRANCH  10  11
ENDBRANCH   3   5
ENDBRANCH   2   3
ENDBRANCH   1   2
BRANCH   1  70
ATOM     70  C   UNL A   1      31.853  31.292  26.315  1.00  0.00     0.275 C 
BRANCH  70  71
ATOM     71  O   UNL A   1      32.321  30.378  27.309  1.00  0.00    -0.458 OA
BRANCH  71  72
ATOM     72  C   UNL A   1      33.437  29.679  26.974  1.00  0.00     0.338 C 
ATOM     73  O   UNL A   1      34.585  30.095  26.993  1.00  0.00    -0.246 OA
BRANCH  72  74
ATOM     74  C   UNL A   1      33.080  28.273  26.677  1.00  0.00     0.060 A 
ATOM     75  C   UNL A   1      31.780  27.837  26.969  1.00  0.00     0.017 A 
ATOM     76  C   UNL A   1      33.983  27.403  26.063  1.00  0.00     0.017 A 
ATOM     77  C   UNL A   1      31.393  26.527  26.676  1.00  0.00     0.023 A 
ATOM     78  C   UNL A   1      33.579  26.114  25.720  1.00  0.00     0.023 A 
ATOM     79  C   UNL A   1      32.306  25.657  26.078  1.00  0.00     0.087 A 
BRANCH  79  80
ATOM     80  S   UNL A   1      31.824  23.987  25.699  1.00  0.00     0.261 S 
ATOM     81  O   UNL A   1      32.006  23.180  26.889  1.00  0.00    -0.201 OA
ATOM     82  O   UNL A   1      30.532  24.042  25.050  1.00  0.00    -0.201 OA
BRANCH  80  83
ATOM     83  N   UNL A   1      32.965  23.405  24.553  1.00  0.00    -0.279 N 
ATOM     84  H   UNL A   1      33.342  23.981  23.849  1.00  0.00     0.180 HD
BRANCH  83  85
ATOM     85  C   UNL A   1      33.336  22.019  24.688  1.00  0.00     0.062 A 
ATOM     86  C   UNL A   1      32.411  21.045  24.325  1.00  0.00     0.028 A 
ATOM     87  C   UNL A   1      34.651  21.636  25.014  1.00  0.00     0.037 A 
ATOM     88  C   UNL A   1      32.823  19.724  24.211  1.00  0.00     0.002 A 
ATOM     89  C   UNL A   1      35.039  20.292  24.934  1.00  0.00     0.017 A 
ATOM     90  I   UNL A   1      36.102  23.022  25.611  1.00  0.00    -0.042 I 
ATOM     91  C   UNL A   1      34.124  19.335  24.513  1.00  0.00     0.001 A 
ENDBRANCH  83  85
ENDBRANCH  80  83
ENDBRANCH  79  80
ENDBRANCH  72  74
ENDBRANCH  71  72
ENDBRANCH  70  71
ENDBRANCH   1  70
TORSDOF 17
ENDMDL
