MODEL 1
REMARK VINA RESULT:     -12.5      0.000      0.000
REMARK SMILES Cc1ccc2cc(C[N@H+]3CC[NH2+][C@H](C(=O)OCCOC(=O)c4ccc(-c5c6nc(c(-c7cc(S(=O)(=O)[O-])ccc7F)c7ccc([nH]7)c(-c7cc(S(=O)(=O)[O-])ccc7F)c7nc(c(-c8cc(S(=O)(=O)[O-])ccc8F)c8ccc5[nH]8)C=C7)C=C6)cc4)C3)c(N3CCOCC3)nc2c1
REMARK SMILES IDX 17 1 16 2 14 3 15 4 13 5 9 6 10 7 85 8 11 10 12 11 8 14 7 15
REMARK SMILES IDX 1 16 2 17 3 18 95 19 4 20 94 21 5 22 93 23 6 24 86 25 87 26
REMARK SMILES IDX 88 27 92 28 89 29 91 30 90 31 18 32 19 33 20 34 21 35 22 36
REMARK SMILES IDX 23 37 84 38 24 39 83 40 25 41 26 42 27 43 77 44 28 45 82 46
REMARK SMILES IDX 76 47 78 48 29 49 81 50 75 51 74 52 30 54 62 55 42 56 61 57
REMARK SMILES IDX 43 58 46 59 60 60 79 61 44 62 45 63 59 65 80 66 47 67 31 68
REMARK SMILES IDX 32 69 40 70 33 71 39 72 41 73 38 74 34 75 35 76 36 77 37 78
REMARK SMILES IDX 63 79 64 80 72 81 65 82 71 83 73 84 70 85 66 86 67 87 68 88
REMARK SMILES IDX 69 89 48 90 49 91 57 92 50 93 56 94 58 95 55 96 51 97 52 98
REMARK SMILES IDX 53 99 54 100
REMARK H PARENT 9 9 12 12 12 13 78 53 46 64
REMARK Flexibility Score: inf
ROOT
ATOM      1  C   UNL A   1      36.354  21.077  25.169  1.00  0.00     0.274 C 
ENDROOT
BRANCH   1   2
ATOM      2  O   UNL A   1      36.309  22.146  24.202  1.00  0.00    -0.457 OA
BRANCH   2   3
ATOM      3  C   UNL A   1      35.949  23.383  24.654  1.00  0.00     0.371 C 
ATOM      4  O   UNL A   1      36.645  24.079  25.385  1.00  0.00    -0.245 OA
BRANCH   3   5
ATOM      5  C   UNL A   1      34.598  23.820  24.069  1.00  0.00     0.348 C 
ATOM      6  N   UNL A   1      32.977  23.236  22.194  1.00  0.00    -0.321 N 
ATOM      7  C   UNL A   1      32.805  24.680  21.991  1.00  0.00     0.324 C 
ATOM      8  C   UNL A   1      34.267  22.950  22.831  1.00  0.00     0.341 C 
ATOM      9  H   UNL A   1      33.022  22.823  21.263  1.00  0.00     0.348 HD
ATOM     10  C   UNL A   1      33.242  25.581  23.178  1.00  0.00     0.323 C 
ATOM     11  N   UNL A   1      34.591  25.269  23.705  1.00  0.00    -0.325 N 
ATOM     12  H   UNL A   1      34.786  25.838  24.529  1.00  0.00     0.347 HD
ATOM     13  H   UNL A   1      35.308  25.471  23.008  1.00  0.00     0.347 HD
BRANCH   6  14
ATOM     14  C   UNL A   1      31.805  22.487  22.694  1.00  0.00     0.303 C 
BRANCH  14  15
ATOM     15  C   UNL A   1      32.038  21.205  23.470  1.00  0.00     0.049 A 
ATOM     16  C   UNL A   1      35.128  15.774  25.101  1.00  0.00     0.044 C 
ATOM     17  C   UNL A   1      34.224  16.830  24.546  1.00  0.00    -0.049 A 
ATOM     18  C   UNL A   1      33.700  16.673  23.265  1.00  0.00     0.004 A 
ATOM     19  C   UNL A   1      33.880  17.977  25.288  1.00  0.00     0.032 A 
ATOM     20  C   UNL A   1      32.927  17.685  22.715  1.00  0.00     0.010 A 
ATOM     21  C   UNL A   1      33.126  19.020  24.749  1.00  0.00     0.073 A 
ATOM     22  C   UNL A   1      32.707  18.878  23.422  1.00  0.00     0.001 A 
ATOM     23  N   UNL A   1      32.843  20.131  25.465  1.00  0.00    -0.230 NA
ATOM     24  C   UNL A   1      32.148  19.990  22.797  1.00  0.00     0.023 A 
ATOM     25  C   UNL A   1      32.240  21.183  24.853  1.00  0.00     0.138 A 
BRANCH  25  26
ATOM     26  N   UNL A   1      31.849  22.265  25.619  1.00  0.00    -0.352 N 
ATOM     27  C   UNL A   1      30.449  22.293  26.080  1.00  0.00     0.146 C 
ATOM     28  C   UNL A   1      32.781  22.835  26.586  1.00  0.00     0.146 C 
ATOM     29  C   UNL A   1      30.071  23.753  26.377  1.00  0.00     0.181 C 
ATOM     30  C   UNL A   1      32.328  24.282  26.871  1.00  0.00     0.181 C 
ATOM     31  O   UNL A   1      30.967  24.341  27.341  1.00  0.00    -0.378 OA
ENDBRANCH  25  26
ENDBRANCH  14  15
ENDBRANCH   6  14
ENDBRANCH   3   5
ENDBRANCH   2   3
ENDBRANCH   1   2
BRANCH   1  32
ATOM     32  C   UNL A   1      37.780  20.515  25.304  1.00  0.00     0.275 C 
BRANCH  32  33
ATOM     33  O   UNL A   1      38.791  21.547  25.386  1.00  0.00    -0.458 OA
BRANCH  33  34
ATOM     34  C   UNL A   1      39.637  21.390  26.427  1.00  0.00     0.338 C 
ATOM     35  O   UNL A   1      40.029  20.322  26.862  1.00  0.00    -0.246 OA
BRANCH  34  36
ATOM     36  C   UNL A   1      40.167  22.653  26.964  1.00  0.00     0.060 A 
ATOM     37  C   UNL A   1      41.066  22.723  28.024  1.00  0.00     0.016 A 
ATOM     38  C   UNL A   1      39.832  23.810  26.258  1.00  0.00     0.016 A 
ATOM     39  C   UNL A   1      41.592  23.973  28.389  1.00  0.00     0.010 A 
ATOM     40  C   UNL A   1      40.386  25.039  26.583  1.00  0.00     0.010 A 
ATOM     41  C   UNL A   1      41.239  25.138  27.682  1.00  0.00    -0.014 A 
BRANCH  41  42
ATOM     42  C   UNL A   1      41.686  26.483  28.113  1.00  0.00     0.031 A 
ATOM     43  C   UNL A   1      43.108  26.904  27.856  1.00  0.00     0.074 A 
ATOM     44  C   UNL A   1      40.848  27.294  28.783  1.00  0.00     0.049 A 
ATOM     45  N   UNL A   1      43.677  28.060  28.074  1.00  0.00    -0.248 NA
ATOM     46  C   UNL A   1      44.019  25.884  27.306  1.00  0.00     0.031 C 
ATOM     47  C   UNL A   1      39.484  26.949  29.179  1.00  0.00     0.029 A 
ATOM     48  N   UNL A   1      41.021  28.573  29.252  1.00  0.00    -0.354 N 
ATOM     49  C   UNL A   1      45.000  27.912  27.673  1.00  0.00     0.074 A 
ATOM     50  C   UNL A   1      45.173  26.534  27.278  1.00  0.00     0.031 C 
ATOM     51  C   UNL A   1      38.929  28.003  29.799  1.00  0.00     0.029 A 
ATOM     52  C   UNL A   1      39.899  29.097  29.852  1.00  0.00     0.049 A 
ATOM     53  H   UNL A   1      41.867  29.068  29.166  1.00  0.00     0.167 HD
ATOM     54  C   UNL A   1      45.969  28.852  27.598  1.00  0.00     0.034 A 
ATOM     55  C   UNL A   1      39.673  30.329  30.357  1.00  0.00     0.034 A 
ATOM     56  C   UNL A   1      45.771  30.224  27.985  1.00  0.00     0.049 A 
ATOM     57  C   UNL A   1      40.758  31.373  30.241  1.00  0.00     0.074 A 
ATOM     58  C   UNL A   1      46.659  31.278  27.875  1.00  0.00     0.029 A 
ATOM     59  N   UNL A   1      44.613  30.730  28.556  1.00  0.00    -0.354 N 
ATOM     60  N   UNL A   1      41.956  31.264  29.713  1.00  0.00    -0.248 NA
ATOM     61  C   UNL A   1      40.458  32.714  30.763  1.00  0.00     0.031 C 
ATOM     62  C   UNL A   1      46.059  32.408  28.432  1.00  0.00     0.029 A 
ATOM     63  C   UNL A   1      44.771  32.077  28.826  1.00  0.00     0.049 A 
ATOM     64  H   UNL A   1      43.799  30.207  28.741  1.00  0.00     0.167 HD
ATOM     65  C   UNL A   1      42.537  32.526  29.808  1.00  0.00     0.074 A 
ATOM     66  C   UNL A   1      41.552  33.388  30.429  1.00  0.00     0.031 C 
ATOM     67  C   UNL A   1      43.772  32.933  29.420  1.00  0.00     0.034 A 
BRANCH  54  68
ATOM     68  C   UNL A   1      47.312  28.463  27.034  1.00  0.00     0.023 A 
ATOM     69  C   UNL A   1      47.445  28.142  25.672  1.00  0.00     0.031 A 
ATOM     70  C   UNL A   1      48.429  28.288  27.873  1.00  0.00     0.131 A 
ATOM     71  C   UNL A   1      48.660  27.633  25.194  1.00  0.00     0.055 A 
ATOM     72  C   UNL A   1      49.650  27.822  27.383  1.00  0.00     0.041 A 
ATOM     73  F   UNL A   1      48.352  28.576  29.182  1.00  0.00    -0.206 F 
ATOM     74  C   UNL A   1      49.764  27.480  26.039  1.00  0.00     0.022 A 
BRANCH  71  75
ATOM     75  S   UNL A   1      48.839  27.093  23.472  1.00  0.00     0.124 S 
ATOM     76  O   UNL A   1      50.289  26.957  23.349  1.00  0.00    -0.237 OA
ATOM     77  O   UNL A   1      48.092  25.838  23.469  1.00  0.00    -0.237 OA
ATOM     78  O   UNL A   1      48.250  28.181  22.700  1.00  0.00    -0.744 OA
ENDBRANCH  71  75
ENDBRANCH  54  68
BRANCH  55  79
ATOM     79  C   UNL A   1      38.320  30.658  30.895  1.00  0.00     0.023 A 
ATOM     80  C   UNL A   1      37.360  31.322  30.111  1.00  0.00     0.031 A 
ATOM     81  C   UNL A   1      38.010  30.402  32.243  1.00  0.00     0.131 A 
ATOM     82  C   UNL A   1      36.162  31.755  30.696  1.00  0.00     0.055 A 
ATOM     83  C   UNL A   1      36.789  30.780  32.804  1.00  0.00     0.041 A 
ATOM     84  F   UNL A   1      38.901  29.787  33.037  1.00  0.00    -0.206 F 
ATOM     85  C   UNL A   1      35.864  31.474  32.034  1.00  0.00     0.022 A 
BRANCH  82  86
ATOM     86  S   UNL A   1      35.002  32.807  29.778  1.00  0.00     0.124 S 
ATOM     87  O   UNL A   1      34.397  31.856  28.850  1.00  0.00    -0.237 OA
ATOM     88  O   UNL A   1      34.129  33.289  30.846  1.00  0.00    -0.237 OA
ATOM     89  O   UNL A   1      35.861  33.820  29.174  1.00  0.00    -0.744 OA
ENDBRANCH  82  86
ENDBRANCH  55  79
BRANCH  67  90
ATOM     90  C   UNL A   1      44.165  34.375  29.629  1.00  0.00     0.023 A 
ATOM     91  C   UNL A   1      43.820  35.341  28.661  1.00  0.00     0.031 A 
ATOM     92  C   UNL A   1      45.027  34.755  30.671  1.00  0.00     0.131 A 
ATOM     93  C   UNL A   1      44.376  36.624  28.729  1.00  0.00     0.055 A 
ATOM     94  C   UNL A   1      45.539  36.050  30.761  1.00  0.00     0.041 A 
ATOM     95  F   UNL A   1      45.396  33.867  31.607  1.00  0.00    -0.206 F 
ATOM     96  C   UNL A   1      45.228  36.986  29.777  1.00  0.00     0.022 A 
BRANCH  93  97
ATOM     97  S   UNL A   1      44.099  37.835  27.406  1.00  0.00     0.124 S 
ATOM     98  O   UNL A   1      45.391  37.835  26.723  1.00  0.00    -0.237 OA
ATOM     99  O   UNL A   1      42.999  37.229  26.660  1.00  0.00    -0.237 OA
ATOM    100  O   UNL A   1      43.772  39.067  28.117  1.00  0.00    -0.744 OA
ENDBRANCH  93  97
ENDBRANCH  67  90
ENDBRANCH  41  42
ENDBRANCH  34  36
ENDBRANCH  33  34
ENDBRANCH  32  33
ENDBRANCH   1  32
TORSDOF 17
ENDMDL
MODEL 2
REMARK VINA RESULT:     -12.2      4.752      9.388
REMARK SMILES Cc1ccc2cc(C[N@H+]3CC[NH2+][C@H](C(=O)OCCOC(=O)c4ccc(-c5c6nc(c(-c7cc(S(=O)(=O)[O-])ccc7F)c7ccc([nH]7)c(-c7cc(S(=O)(=O)[O-])ccc7F)c7nc(c(-c8cc(S(=O)(=O)[O-])ccc8F)c8ccc5[nH]8)C=C7)C=C6)cc4)C3)c(N3CCOCC3)nc2c1
REMARK SMILES IDX 17 1 16 2 14 3 15 4 13 5 9 6 10 7 85 8 11 10 12 11 8 14 7 15
REMARK SMILES IDX 1 16 2 17 3 18 95 19 4 20 94 21 5 22 93 23 6 24 86 25 87 26
REMARK SMILES IDX 88 27 92 28 89 29 91 30 90 31 18 32 19 33 20 34 21 35 22 36
REMARK SMILES IDX 23 37 84 38 24 39 83 40 25 41 26 42 27 43 77 44 28 45 82 46
REMARK SMILES IDX 76 47 78 48 29 49 81 50 75 51 74 52 30 54 62 55 42 56 61 57
REMARK SMILES IDX 43 58 46 59 60 60 79 61 44 62 45 63 59 65 80 66 47 67 31 68
REMARK SMILES IDX 32 69 40 70 33 71 39 72 41 73 38 74 34 75 35 76 36 77 37 78
REMARK SMILES IDX 63 79 64 80 72 81 65 82 71 83 73 84 70 85 66 86 67 87 68 88
REMARK SMILES IDX 69 89 48 90 49 91 57 92 50 93 56 94 58 95 55 96 51 97 52 98
REMARK SMILES IDX 53 99 54 100
REMARK H PARENT 9 9 12 12 12 13 78 53 46 64
REMARK Flexibility Score: inf
ROOT
ATOM      1  C   UNL A   1      32.262  27.937  26.195  1.00  0.00     0.274 C 
ENDROOT
BRANCH   1   2
ATOM      2  O   UNL A   1      33.239  26.909  25.933  1.00  0.00    -0.457 OA
BRANCH   2   3
ATOM      3  C   UNL A   1      33.641  26.743  24.640  1.00  0.00     0.371 C 
ATOM      4  O   UNL A   1      33.859  27.666  23.861  1.00  0.00    -0.245 OA
BRANCH   3   5
ATOM      5  C   UNL A   1      33.859  25.259  24.309  1.00  0.00     0.348 C 
ATOM      6  N   UNL A   1      35.525  23.374  24.700  1.00  0.00    -0.321 N 
ATOM      7  C   UNL A   1      35.315  22.993  23.299  1.00  0.00     0.324 C 
ATOM      8  C   UNL A   1      35.208  24.791  24.909  1.00  0.00     0.341 C 
ATOM      9  H   UNL A   1      36.526  23.278  24.872  1.00  0.00     0.348 HD
ATOM     10  C   UNL A   1      34.024  23.551  22.638  1.00  0.00     0.323 C 
ATOM     11  N   UNL A   1      33.828  25.007  22.837  1.00  0.00    -0.325 N 
ATOM     12  H   UNL A   1      32.929  25.295  22.451  1.00  0.00     0.347 HD
ATOM     13  H   UNL A   1      34.558  25.538  22.362  1.00  0.00     0.347 HD
BRANCH   6  14
ATOM     14  C   UNL A   1      35.049  22.425  25.730  1.00  0.00     0.303 C 
BRANCH  14  15
ATOM     15  C   UNL A   1      34.276  21.198  25.287  1.00  0.00     0.049 A 
ATOM     16  C   UNL A   1      32.559  14.973  25.329  1.00  0.00     0.044 C 
ATOM     17  C   UNL A   1      33.144  16.325  25.066  1.00  0.00    -0.049 A 
ATOM     18  C   UNL A   1      34.448  16.421  24.587  1.00  0.00     0.004 A 
ATOM     19  C   UNL A   1      32.408  17.507  25.281  1.00  0.00     0.032 A 
ATOM     20  C   UNL A   1      35.023  17.672  24.416  1.00  0.00     0.010 A 
ATOM     21  C   UNL A   1      32.970  18.776  25.141  1.00  0.00     0.073 A 
ATOM     22  C   UNL A   1      34.316  18.834  24.763  1.00  0.00     0.001 A 
ATOM     23  N   UNL A   1      32.257  19.896  25.393  1.00  0.00    -0.230 NA
ATOM     24  C   UNL A   1      34.955  20.070  24.832  1.00  0.00     0.023 A 
ATOM     25  C   UNL A   1      32.886  21.100  25.394  1.00  0.00     0.138 A 
BRANCH  25  26
ATOM     26  N   UNL A   1      32.128  22.248  25.535  1.00  0.00    -0.352 N 
ATOM     27  C   UNL A   1      31.098  22.504  24.512  1.00  0.00     0.146 C 
ATOM     28  C   UNL A   1      31.732  22.688  26.868  1.00  0.00     0.146 C 
ATOM     29  C   UNL A   1      30.798  24.012  24.501  1.00  0.00     0.181 C 
ATOM     30  C   UNL A   1      31.409  24.194  26.784  1.00  0.00     0.181 C 
ATOM     31  O   UNL A   1      30.391  24.476  25.804  1.00  0.00    -0.378 OA
ENDBRANCH  25  26
ENDBRANCH  14  15
ENDBRANCH   6  14
ENDBRANCH   3   5
ENDBRANCH   2   3
ENDBRANCH   1   2
BRANCH   1  32
ATOM     32  C   UNL A   1      32.803  28.971  27.197  1.00  0.00     0.275 C 
BRANCH  32  33
ATOM     33  O   UNL A   1      33.726  29.912  26.599  1.00  0.00    -0.458 OA
BRANCH  33  34
ATOM     34  C   UNL A   1      34.356  30.695  27.501  1.00  0.00     0.338 C 
ATOM     35  O   UNL A   1      33.882  31.686  28.027  1.00  0.00    -0.246 OA
BRANCH  34  36
ATOM     36  C   UNL A   1      35.677  30.193  27.912  1.00  0.00     0.060 A 
ATOM     37  C   UNL A   1      36.835  30.369  27.162  1.00  0.00     0.016 A 
ATOM     38  C   UNL A   1      35.753  29.637  29.190  1.00  0.00     0.016 A 
ATOM     39  C   UNL A   1      38.063  29.944  27.696  1.00  0.00     0.010 A 
ATOM     40  C   UNL A   1      36.968  29.260  29.742  1.00  0.00     0.010 A 
ATOM     41  C   UNL A   1      38.131  29.371  28.979  1.00  0.00    -0.014 A 
BRANCH  41  42
ATOM     42  C   UNL A   1      39.390  28.809  29.522  1.00  0.00     0.031 A 
ATOM     43  C   UNL A   1      39.990  29.412  30.764  1.00  0.00     0.074 A 
ATOM     44  C   UNL A   1      40.023  27.813  28.876  1.00  0.00     0.049 A 
ATOM     45  N   UNL A   1      41.032  29.021  31.449  1.00  0.00    -0.248 NA
ATOM     46  C   UNL A   1      39.350  30.629  31.294  1.00  0.00     0.031 C 
ATOM     47  C   UNL A   1      39.590  27.226  27.610  1.00  0.00     0.029 A 
ATOM     48  N   UNL A   1      41.167  27.123  29.193  1.00  0.00    -0.354 N 
ATOM     49  C   UNL A   1      41.160  29.929  32.494  1.00  0.00     0.074 A 
ATOM     50  C   UNL A   1      40.145  30.938  32.307  1.00  0.00     0.031 C 
ATOM     51  C   UNL A   1      40.436  26.238  27.274  1.00  0.00     0.029 A 
ATOM     52  C   UNL A   1      41.476  26.126  28.297  1.00  0.00     0.049 A 
ATOM     53  H   UNL A   1      41.713  27.322  29.987  1.00  0.00     0.167 HD
ATOM     54  C   UNL A   1      42.019  29.897  33.538  1.00  0.00     0.034 A 
ATOM     55  C   UNL A   1      42.466  25.208  28.319  1.00  0.00     0.034 A 
ATOM     56  C   UNL A   1      43.016  28.874  33.711  1.00  0.00     0.049 A 
ATOM     57  C   UNL A   1      43.399  25.172  29.506  1.00  0.00     0.074 A 
ATOM     58  C   UNL A   1      43.884  28.699  34.773  1.00  0.00     0.029 A 
ATOM     59  N   UNL A   1      43.279  27.859  32.804  1.00  0.00    -0.354 N 
ATOM     60  N   UNL A   1      43.411  25.941  30.570  1.00  0.00    -0.248 NA
ATOM     61  C   UNL A   1      44.437  24.131  29.513  1.00  0.00     0.031 C 
ATOM     62  C   UNL A   1      44.711  27.614  34.482  1.00  0.00     0.029 A 
ATOM     63  C   UNL A   1      44.313  27.068  33.270  1.00  0.00     0.049 A 
ATOM     64  H   UNL A   1      42.800  27.722  31.954  1.00  0.00     0.167 HD
ATOM     65  C   UNL A   1      44.430  25.457  31.386  1.00  0.00     0.074 A 
ATOM     66  C   UNL A   1      45.002  24.316  30.700  1.00  0.00     0.031 C 
ATOM     67  C   UNL A   1      44.856  25.916  32.590  1.00  0.00     0.034 A 
BRANCH  54  68
ATOM     68  C   UNL A   1      41.899  30.956  34.605  1.00  0.00     0.023 A 
ATOM     69  C   UNL A   1      40.709  31.090  35.342  1.00  0.00     0.031 A 
ATOM     70  C   UNL A   1      42.916  31.909  34.801  1.00  0.00     0.131 A 
ATOM     71  C   UNL A   1      40.553  32.172  36.218  1.00  0.00     0.055 A 
ATOM     72  C   UNL A   1      42.772  32.960  35.707  1.00  0.00     0.041 A 
ATOM     73  F   UNL A   1      44.069  31.827  34.118  1.00  0.00    -0.206 F 
ATOM     74  C   UNL A   1      41.580  33.101  36.411  1.00  0.00     0.022 A 
BRANCH  71  75
ATOM     75  S   UNL A   1      38.992  32.452  37.097  1.00  0.00     0.124 S 
ATOM     76  O   UNL A   1      39.445  33.142  38.303  1.00  0.00    -0.237 OA
ATOM     77  O   UNL A   1      38.253  33.278  36.146  1.00  0.00    -0.237 OA
ATOM     78  O   UNL A   1      38.464  31.109  37.311  1.00  0.00    -0.744 OA
ENDBRANCH  71  75
ENDBRANCH  54  68
BRANCH  55  79
ATOM     79  C   UNL A   1      42.529  24.180  27.237  1.00  0.00     0.023 A 
ATOM     80  C   UNL A   1      41.863  22.948  27.357  1.00  0.00     0.031 A 
ATOM     81  C   UNL A   1      43.349  24.382  26.113  1.00  0.00     0.131 A 
ATOM     82  C   UNL A   1      42.073  21.947  26.398  1.00  0.00     0.055 A 
ATOM     83  C   UNL A   1      43.504  23.405  25.128  1.00  0.00     0.041 A 
ATOM     84  F   UNL A   1      44.019  25.535  25.963  1.00  0.00    -0.206 F 
ATOM     85  C   UNL A   1      42.877  22.174  25.276  1.00  0.00     0.022 A 
BRANCH  82  86
ATOM     86  S   UNL A   1      41.412  20.273  26.635  1.00  0.00     0.124 S 
ATOM     87  O   UNL A   1      39.976  20.522  26.718  1.00  0.00    -0.237 OA
ATOM     88  O   UNL A   1      41.867  19.599  25.422  1.00  0.00    -0.237 OA
ATOM     89  O   UNL A   1      42.047  19.825  27.870  1.00  0.00    -0.744 OA
ENDBRANCH  82  86
ENDBRANCH  55  79
BRANCH  67  90
ATOM     90  C   UNL A   1      45.990  25.201  33.284  1.00  0.00     0.023 A 
ATOM     91  C   UNL A   1      45.710  24.139  34.168  1.00  0.00     0.031 A 
ATOM     92  C   UNL A   1      47.308  25.684  33.220  1.00  0.00     0.131 A 
ATOM     93  C   UNL A   1      46.725  23.630  34.987  1.00  0.00     0.055 A 
ATOM     94  C   UNL A   1      48.326  25.139  34.002  1.00  0.00     0.041 A 
ATOM     95  F   UNL A   1      47.620  26.704  32.405  1.00  0.00    -0.206 F 
ATOM     96  C   UNL A   1      48.032  24.119  34.905  1.00  0.00     0.022 A 
BRANCH  93  97
ATOM     97  S   UNL A   1      46.364  22.389  36.262  1.00  0.00     0.124 S 
ATOM     98  O   UNL A   1      47.639  21.683  36.364  1.00  0.00    -0.237 OA
ATOM     99  O   UNL A   1      46.019  23.222  37.411  1.00  0.00    -0.237 OA
ATOM    100  O   UNL A   1      45.265  21.612  35.697  1.00  0.00    -0.744 OA
ENDBRANCH  93  97
ENDBRANCH  67  90
ENDBRANCH  41  42
ENDBRANCH  34  36
ENDBRANCH  33  34
ENDBRANCH  32  33
ENDBRANCH   1  32
TORSDOF 17
ENDMDL
MODEL 3
REMARK VINA RESULT:     -12.1      5.069      9.908
REMARK SMILES Cc1ccc2cc(C[N@H+]3CC[NH2+][C@H](C(=O)OCCOC(=O)c4ccc(-c5c6nc(c(-c7cc(S(=O)(=O)[O-])ccc7F)c7ccc([nH]7)c(-c7cc(S(=O)(=O)[O-])ccc7F)c7nc(c(-c8cc(S(=O)(=O)[O-])ccc8F)c8ccc5[nH]8)C=C7)C=C6)cc4)C3)c(N3CCOCC3)nc2c1
REMARK SMILES IDX 17 1 16 2 14 3 15 4 13 5 9 6 10 7 85 8 11 10 12 11 8 14 7 15
REMARK SMILES IDX 1 16 2 17 3 18 95 19 4 20 94 21 5 22 93 23 6 24 86 25 87 26
REMARK SMILES IDX 88 27 92 28 89 29 91 30 90 31 18 32 19 33 20 34 21 35 22 36
REMARK SMILES IDX 23 37 84 38 24 39 83 40 25 41 26 42 27 43 77 44 28 45 82 46
REMARK SMILES IDX 76 47 78 48 29 49 81 50 75 51 74 52 30 54 62 55 42 56 61 57
REMARK SMILES IDX 43 58 46 59 60 60 79 61 44 62 45 63 59 65 80 66 47 67 31 68
REMARK SMILES IDX 32 69 40 70 33 71 39 72 41 73 38 74 34 75 35 76 36 77 37 78
REMARK SMILES IDX 63 79 64 80 72 81 65 82 71 83 73 84 70 85 66 86 67 87 68 88
REMARK SMILES IDX 69 89 48 90 49 91 57 92 50 93 56 94 58 95 55 96 51 97 52 98
REMARK SMILES IDX 53 99 54 100
REMARK H PARENT 9 9 12 12 12 13 78 53 46 64
REMARK Flexibility Score: inf
ROOT
ATOM      1  C   UNL A   1      31.555  28.905  25.189  1.00  0.00     0.274 C 
ENDROOT
BRANCH   1   2
ATOM      2  O   UNL A   1      32.190  27.741  25.756  1.00  0.00    -0.457 OA
BRANCH   2   3
ATOM      3  C   UNL A   1      31.641  27.220  26.892  1.00  0.00     0.371 C 
ATOM      4  O   UNL A   1      31.261  27.892  27.845  1.00  0.00    -0.245 OA
BRANCH   3   5
ATOM      5  C   UNL A   1      31.490  25.695  26.791  1.00  0.00     0.348 C 
ATOM      6  N   UNL A   1      32.470  23.692  25.561  1.00  0.00    -0.321 N 
ATOM      7  C   UNL A   1      31.096  23.193  25.428  1.00  0.00     0.324 C 
ATOM      8  C   UNL A   1      32.480  25.149  25.732  1.00  0.00     0.341 C 
ATOM      9  H   UNL A   1      32.925  23.508  24.667  1.00  0.00     0.348 HD
ATOM     10  C   UNL A   1      30.059  23.814  26.404  1.00  0.00     0.323 C 
ATOM     11  N   UNL A   1      30.091  25.295  26.451  1.00  0.00    -0.325 N 
ATOM     12  H   UNL A   1      29.447  25.637  27.164  1.00  0.00     0.347 HD
ATOM     13  H   UNL A   1      29.808  25.693  25.555  1.00  0.00     0.347 HD
BRANCH   6  14
ATOM     14  C   UNL A   1      33.385  22.913  26.422  1.00  0.00     0.303 C 
BRANCH  14  15
ATOM     15  C   UNL A   1      34.795  22.646  25.932  1.00  0.00     0.049 A 
ATOM     16  C   UNL A   1      41.163  21.736  26.496  1.00  0.00     0.044 C 
ATOM     17  C   UNL A   1      39.774  22.254  26.289  1.00  0.00    -0.049 A 
ATOM     18  C   UNL A   1      39.487  23.579  26.608  1.00  0.00     0.004 A 
ATOM     19  C   UNL A   1      38.749  21.439  25.770  1.00  0.00     0.032 A 
ATOM     20  C   UNL A   1      38.185  24.042  26.493  1.00  0.00     0.010 A 
ATOM     21  C   UNL A   1      37.427  21.873  25.668  1.00  0.00     0.073 A 
ATOM     22  C   UNL A   1      37.152  23.175  26.100  1.00  0.00     0.001 A 
ATOM     23  N   UNL A   1      36.450  21.060  25.206  1.00  0.00    -0.230 NA
ATOM     24  C   UNL A   1      35.816  23.551  26.215  1.00  0.00     0.023 A 
ATOM     25  C   UNL A   1      35.157  21.470  25.269  1.00  0.00     0.138 A 
BRANCH  25  26
ATOM     26  N   UNL A   1      34.179  20.684  24.688  1.00  0.00    -0.352 N 
ATOM     27  C   UNL A   1      33.550  21.194  23.456  1.00  0.00     0.146 C 
ATOM     28  C   UNL A   1      34.324  19.233  24.697  1.00  0.00     0.146 C 
ATOM     29  C   UNL A   1      32.173  20.527  23.309  1.00  0.00     0.181 C 
ATOM     30  C   UNL A   1      32.920  18.624  24.509  1.00  0.00     0.181 C 
ATOM     31  O   UNL A   1      32.285  19.089  23.302  1.00  0.00    -0.378 OA
ENDBRANCH  25  26
ENDBRANCH  14  15
ENDBRANCH   6  14
ENDBRANCH   3   5
ENDBRANCH   2   3
ENDBRANCH   1   2
BRANCH   1  32
ATOM     32  C   UNL A   1      32.355  30.181  25.506  1.00  0.00     0.275 C 
BRANCH  32  33
ATOM     33  O   UNL A   1      33.469  29.943  26.398  1.00  0.00    -0.458 OA
BRANCH  33  34
ATOM     34  C   UNL A   1      33.812  31.025  27.131  1.00  0.00     0.338 C 
ATOM     35  O   UNL A   1      33.126  32.021  27.281  1.00  0.00    -0.246 OA
BRANCH  34  36
ATOM     36  C   UNL A   1      35.080  30.878  27.861  1.00  0.00     0.060 A 
ATOM     37  C   UNL A   1      36.035  31.885  27.958  1.00  0.00     0.016 A 
ATOM     38  C   UNL A   1      35.235  29.699  28.593  1.00  0.00     0.016 A 
ATOM     39  C   UNL A   1      37.163  31.677  28.768  1.00  0.00     0.010 A 
ATOM     40  C   UNL A   1      36.323  29.509  29.432  1.00  0.00     0.010 A 
ATOM     41  C   UNL A   1      37.321  30.482  29.493  1.00  0.00    -0.014 A 
BRANCH  41  42
ATOM     42  C   UNL A   1      38.551  30.186  30.263  1.00  0.00     0.031 A 
ATOM     43  C   UNL A   1      38.724  30.785  31.633  1.00  0.00     0.074 A 
ATOM     44  C   UNL A   1      39.532  29.444  29.717  1.00  0.00     0.049 A 
ATOM     45  N   UNL A   1      39.678  30.587  32.503  1.00  0.00    -0.248 NA
ATOM     46  C   UNL A   1      37.703  31.751  32.074  1.00  0.00     0.031 C 
ATOM     47  C   UNL A   1      39.518  28.903  28.359  1.00  0.00     0.029 A 
ATOM     48  N   UNL A   1      40.730  29.020  30.236  1.00  0.00    -0.354 N 
ATOM     49  C   UNL A   1      39.364  31.388  33.596  1.00  0.00     0.074 A 
ATOM     50  C   UNL A   1      38.180  32.137  33.248  1.00  0.00     0.031 C 
ATOM     51  C   UNL A   1      40.637  28.186  28.163  1.00  0.00     0.029 A 
ATOM     52  C   UNL A   1      41.452  28.223  29.377  1.00  0.00     0.049 A 
ATOM     53  H   UNL A   1      41.043  29.262  31.137  1.00  0.00     0.167 HD
ATOM     54  C   UNL A   1      39.983  31.456  34.797  1.00  0.00     0.034 A 
ATOM     55  C   UNL A   1      42.621  27.573  29.563  1.00  0.00     0.034 A 
ATOM     56  C   UNL A   1      41.155  30.690  35.127  1.00  0.00     0.049 A 
ATOM     57  C   UNL A   1      43.283  27.641  30.918  1.00  0.00     0.074 A 
ATOM     58  C   UNL A   1      41.816  30.622  36.339  1.00  0.00     0.029 A 
ATOM     59  N   UNL A   1      41.841  29.867  34.247  1.00  0.00    -0.354 N 
ATOM     60  N   UNL A   1      42.891  28.277  31.998  1.00  0.00    -0.248 NA
ATOM     61  C   UNL A   1      44.532  26.885  31.094  1.00  0.00     0.031 C 
ATOM     62  C   UNL A   1      42.934  29.803  36.177  1.00  0.00     0.029 A 
ATOM     63  C   UNL A   1      42.933  29.304  34.882  1.00  0.00     0.049 A 
ATOM     64  H   UNL A   1      41.588  29.707  33.308  1.00  0.00     0.167 HD
ATOM     65  C   UNL A   1      43.823  27.971  32.987  1.00  0.00     0.074 A 
ATOM     66  C   UNL A   1      44.789  27.078  32.382  1.00  0.00     0.031 C 
ATOM     67  C   UNL A   1      43.874  28.393  34.276  1.00  0.00     0.034 A 
BRANCH  54  68
ATOM     68  C   UNL A   1      39.391  32.340  35.866  1.00  0.00     0.023 A 
ATOM     69  C   UNL A   1      39.843  33.662  36.027  1.00  0.00     0.031 A 
ATOM     70  C   UNL A   1      38.473  31.830  36.803  1.00  0.00     0.131 A 
ATOM     71  C   UNL A   1      39.399  34.418  37.119  1.00  0.00     0.055 A 
ATOM     72  C   UNL A   1      38.000  32.603  37.864  1.00  0.00     0.041 A 
ATOM     73  F   UNL A   1      38.014  30.572  36.695  1.00  0.00    -0.206 F 
ATOM     74  C   UNL A   1      38.475  33.901  38.032  1.00  0.00     0.022 A 
BRANCH  71  75
ATOM     75  S   UNL A   1      40.047  36.083  37.433  1.00  0.00     0.124 S 
ATOM     76  O   UNL A   1      39.744  36.765  36.176  1.00  0.00    -0.237 OA
ATOM     77  O   UNL A   1      39.248  36.507  38.580  1.00  0.00    -0.237 OA
ATOM     78  O   UNL A   1      41.464  35.865  37.695  1.00  0.00    -0.744 OA
ENDBRANCH  71  75
ENDBRANCH  54  68
BRANCH  55  79
ATOM     79  C   UNL A   1      43.154  26.707  28.469  1.00  0.00     0.023 A 
ATOM     80  C   UNL A   1      44.228  27.124  27.663  1.00  0.00     0.031 A 
ATOM     81  C   UNL A   1      42.521  25.493  28.151  1.00  0.00     0.131 A 
ATOM     82  C   UNL A   1      44.599  26.359  26.548  1.00  0.00     0.055 A 
ATOM     83  C   UNL A   1      42.935  24.704  27.077  1.00  0.00     0.041 A 
ATOM     84  F   UNL A   1      41.479  25.062  28.880  1.00  0.00    -0.206 F 
ATOM     85  C   UNL A   1      43.969  25.143  26.260  1.00  0.00     0.022 A 
BRANCH  82  86
ATOM     86  S   UNL A   1      45.826  26.974  25.361  1.00  0.00     0.124 S 
ATOM     87  O   UNL A   1      45.110  28.077  24.726  1.00  0.00    -0.237 OA
ATOM     88  O   UNL A   1      46.926  27.360  26.242  1.00  0.00    -0.237 OA
ATOM     89  O   UNL A   1      46.089  25.819  24.509  1.00  0.00    -0.744 OA
ENDBRANCH  82  86
ENDBRANCH  55  79
BRANCH  67  90
ATOM     90  C   UNL A   1      44.996  27.904  35.160  1.00  0.00     0.023 A 
ATOM     91  C   UNL A   1      44.806  26.764  35.967  1.00  0.00     0.031 A 
ATOM     92  C   UNL A   1      46.166  28.661  35.342  1.00  0.00     0.131 A 
ATOM     93  C   UNL A   1      45.746  26.445  36.954  1.00  0.00     0.055 A 
ATOM     94  C   UNL A   1      47.125  28.308  36.292  1.00  0.00     0.041 A 
ATOM     95  F   UNL A   1      46.386  29.762  34.607  1.00  0.00    -0.206 F 
ATOM     96  C   UNL A   1      46.908  27.206  37.116  1.00  0.00     0.022 A 
BRANCH  93  97
ATOM     97  S   UNL A   1      45.447  25.094  38.130  1.00  0.00     0.124 S 
ATOM     98  O   UNL A   1      46.704  24.353  38.062  1.00  0.00    -0.237 OA
ATOM     99  O   UNL A   1      45.216  25.819  39.376  1.00  0.00    -0.237 OA
ATOM    100  O   UNL A   1      44.286  24.401  37.582  1.00  0.00    -0.744 OA
ENDBRANCH  93  97
ENDBRANCH  67  90
ENDBRANCH  41  42
ENDBRANCH  34  36
ENDBRANCH  33  34
ENDBRANCH  32  33
ENDBRANCH   1  32
TORSDOF 17
ENDMDL
