MODEL 1
REMARK VINA RESULT:     -11.2      0.000      0.000
REMARK SMILES O=C(OCCOC(=O)c1noc(-c2ccccc2Cl)n1)c1ccc(-c2c3nc(c(-c4cc(S(=O)(=O)[O-])ccc4F)c4ccc([nH]4)c(-c4cc(S(=O)(=O)[O-])ccc4F)c4nc(c(-c5cc(S(=O)(=O)[O-])ccc5F)c5ccc2[nH]5)C=C4)C=C3)cc1
REMARK SMILES IDX 4 1 3 2 2 3 1 4 21 5 22 6 83 7 23 8 82 9 24 10 25 11 26 12
REMARK SMILES IDX 76 13 27 14 81 15 75 16 77 17 28 18 80 19 74 20 73 21 29 23
REMARK SMILES IDX 61 24 41 25 60 26 42 27 45 28 59 29 78 30 43 31 44 32 58 34
REMARK SMILES IDX 79 35 46 36 30 37 31 38 39 39 32 40 38 41 40 42 37 43 33 44
REMARK SMILES IDX 34 45 35 46 36 47 62 48 63 49 71 50 64 51 70 52 72 53 69 54
REMARK SMILES IDX 65 55 66 56 67 57 68 58 47 59 48 60 56 61 49 62 55 63 57 64
REMARK SMILES IDX 54 65 50 66 51 67 52 68 53 69 5 70 6 71 7 72 8 73 9 74 10 75
REMARK SMILES IDX 20 76 11 77 12 78 13 79 14 80 18 81 15 82 17 83 19 84 16 85
REMARK H PARENT 77 22 45 33
REMARK Flexibility Score: inf
ROOT
ATOM      1  C   UNL A   1      41.920  19.261  26.136  1.00  0.00     0.275 C 
ENDROOT
BRANCH   1   2
ATOM      2  O   UNL A   1      41.829  20.687  26.303  1.00  0.00    -0.458 OA
BRANCH   2   3
ATOM      3  C   UNL A   1      40.747  21.437  26.626  1.00  0.00     0.338 C 
ATOM      4  O   UNL A   1      39.631  21.056  26.278  1.00  0.00    -0.246 OA
BRANCH   3   5
ATOM      5  C   UNL A   1      40.867  22.805  27.214  1.00  0.00     0.060 A 
ATOM      6  C   UNL A   1      40.120  23.918  26.825  1.00  0.00     0.016 A 
ATOM      7  C   UNL A   1      41.869  22.985  28.188  1.00  0.00     0.016 A 
ATOM      8  C   UNL A   1      40.325  25.164  27.422  1.00  0.00     0.010 A 
ATOM      9  C   UNL A   1      42.095  24.236  28.770  1.00  0.00     0.010 A 
ATOM     10  C   UNL A   1      41.325  25.337  28.382  1.00  0.00    -0.014 A 
BRANCH  10  11
ATOM     11  C   UNL A   1      41.660  26.714  28.815  1.00  0.00     0.031 A 
ATOM     12  C   UNL A   1      43.108  27.118  28.839  1.00  0.00     0.074 A 
ATOM     13  C   UNL A   1      40.692  27.608  29.084  1.00  0.00     0.049 A 
ATOM     14  N   UNL A   1      43.637  28.292  29.058  1.00  0.00    -0.248 NA
ATOM     15  C   UNL A   1      44.084  26.055  28.558  1.00  0.00     0.031 C 
ATOM     16  C   UNL A   1      39.255  27.342  29.028  1.00  0.00     0.029 A 
ATOM     17  N   UNL A   1      40.773  28.926  29.453  1.00  0.00    -0.354 N 
ATOM     18  C   UNL A   1      45.007  28.121  28.890  1.00  0.00     0.074 A 
ATOM     19  C   UNL A   1      45.229  26.714  28.633  1.00  0.00     0.031 C 
ATOM     20  C   UNL A   1      38.588  28.454  29.382  1.00  0.00     0.029 A 
ATOM     21  C   UNL A   1      39.549  29.514  29.675  1.00  0.00     0.049 A 
ATOM     22  H   UNL A   1      41.627  29.406  29.550  1.00  0.00     0.167 HD
ATOM     23  C   UNL A   1      45.988  29.058  28.918  1.00  0.00     0.034 A 
ATOM     24  C   UNL A   1      39.246  30.767  30.066  1.00  0.00     0.034 A 
ATOM     25  C   UNL A   1      45.754  30.444  29.237  1.00  0.00     0.049 A 
ATOM     26  C   UNL A   1      40.366  31.758  30.247  1.00  0.00     0.074 A 
ATOM     27  C   UNL A   1      46.666  31.480  29.329  1.00  0.00     0.029 A 
ATOM     28  N   UNL A   1      44.510  30.982  29.543  1.00  0.00    -0.354 N 
ATOM     29  N   UNL A   1      41.656  31.589  30.066  1.00  0.00    -0.248 NA
ATOM     30  C   UNL A   1      39.984  33.113  30.660  1.00  0.00     0.031 C 
ATOM     31  C   UNL A   1      45.982  32.628  29.753  1.00  0.00     0.029 A 
ATOM     32  C   UNL A   1      44.633  32.325  29.860  1.00  0.00     0.049 A 
ATOM     33  H   UNL A   1      43.662  30.482  29.537  1.00  0.00     0.167 HD
ATOM     34  C   UNL A   1      42.236  32.832  30.298  1.00  0.00     0.074 A 
ATOM     35  C   UNL A   1      41.155  33.735  30.641  1.00  0.00     0.031 C 
ATOM     36  C   UNL A   1      43.540  33.201  30.213  1.00  0.00     0.034 A 
BRANCH  23  37
ATOM     37  C   UNL A   1      47.390  28.571  28.643  1.00  0.00     0.023 A 
ATOM     38  C   UNL A   1      47.955  28.655  27.356  1.00  0.00     0.031 A 
ATOM     39  C   UNL A   1      48.135  27.930  29.647  1.00  0.00     0.131 A 
ATOM     40  C   UNL A   1      49.178  28.025  27.084  1.00  0.00     0.055 A 
ATOM     41  C   UNL A   1      49.390  27.374  29.389  1.00  0.00     0.041 A 
ATOM     42  F   UNL A   1      47.639  27.799  30.887  1.00  0.00    -0.206 F 
ATOM     43  C   UNL A   1      49.910  27.402  28.097  1.00  0.00     0.022 A 
BRANCH  40  44
ATOM     44  S   UNL A   1      49.711  27.876  25.355  1.00  0.00     0.124 S 
ATOM     45  O   UNL A   1      48.457  28.101  24.638  1.00  0.00    -0.237 OA
ATOM     46  O   UNL A   1      50.709  28.934  25.241  1.00  0.00    -0.237 OA
ATOM     47  O   UNL A   1      50.232  26.513  25.273  1.00  0.00    -0.744 OA
ENDBRANCH  40  44
ENDBRANCH  23  37
BRANCH  24  48
ATOM     48  C   UNL A   1      37.836  31.155  30.345  1.00  0.00     0.023 A 
ATOM     49  C   UNL A   1      36.981  31.630  29.341  1.00  0.00     0.031 A 
ATOM     50  C   UNL A   1      37.345  31.106  31.661  1.00  0.00     0.131 A 
ATOM     51  C   UNL A   1      35.685  32.057  29.675  1.00  0.00     0.055 A 
ATOM     52  C   UNL A   1      36.041  31.482  31.981  1.00  0.00     0.041 A 
ATOM     53  F   UNL A   1      38.145  30.708  32.660  1.00  0.00    -0.206 F 
ATOM     54  C   UNL A   1      35.204  31.969  30.984  1.00  0.00     0.022 A 
BRANCH  51  55
ATOM     55  S   UNL A   1      34.650  32.804  28.384  1.00  0.00     0.124 S 
ATOM     56  O   UNL A   1      33.816  33.712  29.161  1.00  0.00    -0.237 OA
ATOM     57  O   UNL A   1      35.647  33.426  27.519  1.00  0.00    -0.237 OA
ATOM     58  O   UNL A   1      33.952  31.658  27.803  1.00  0.00    -0.744 OA
ENDBRANCH  51  55
ENDBRANCH  24  48
BRANCH  36  59
ATOM     59  C   UNL A   1      43.844  34.660  30.442  1.00  0.00     0.023 A 
ATOM     60  C   UNL A   1      43.832  35.592  29.391  1.00  0.00     0.031 A 
ATOM     61  C   UNL A   1      44.180  35.112  31.731  1.00  0.00     0.131 A 
ATOM     62  C   UNL A   1      44.211  36.920  29.636  1.00  0.00     0.055 A 
ATOM     63  C   UNL A   1      44.500  36.447  31.979  1.00  0.00     0.041 A 
ATOM     64  F   UNL A   1      44.208  34.260  32.767  1.00  0.00    -0.206 F 
ATOM     65  C   UNL A   1      44.531  37.357  30.925  1.00  0.00     0.022 A 
BRANCH  62  66
ATOM     66  S   UNL A   1      44.378  38.050  28.227  1.00  0.00     0.124 S 
ATOM     67  O   UNL A   1      43.253  37.651  27.385  1.00  0.00    -0.237 OA
ATOM     68  O   UNL A   1      44.266  39.359  28.861  1.00  0.00    -0.237 OA
ATOM     69  O   UNL A   1      45.699  37.733  27.687  1.00  0.00    -0.744 OA
ENDBRANCH  62  66
ENDBRANCH  36  59
ENDBRANCH  10  11
ENDBRANCH   3   5
ENDBRANCH   2   3
ENDBRANCH   1   2
BRANCH   1  70
ATOM     70  C   UNL A   1      43.311  18.760  25.740  1.00  0.00     0.275 C 
BRANCH  70  71
ATOM     71  O   UNL A   1      43.620  18.985  24.359  1.00  0.00    -0.456 OA
BRANCH  71  72
ATOM     72  C   UNL A   1      44.895  19.432  24.115  1.00  0.00     0.380 C 
ATOM     73  O   UNL A   1      45.736  18.776  23.502  1.00  0.00    -0.242 OA
BRANCH  72  74
ATOM     74  C   UNL A   1      45.125  20.793  24.604  1.00  0.00     0.281 A 
ATOM     75  N   UNL A   1      46.038  21.049  25.560  1.00  0.00    -0.049 NA
ATOM     76  N   UNL A   1      44.465  21.921  24.144  1.00  0.00    -0.181 NA
ATOM     77  O   UNL A   1      45.966  22.428  25.725  1.00  0.00    -0.333 OA
ATOM     78  C   UNL A   1      44.995  22.875  24.879  1.00  0.00     0.259 A 
BRANCH  78  79
ATOM     79  C   UNL A   1      44.666  24.279  25.014  1.00  0.00     0.058 A 
ATOM     80  C   UNL A   1      43.318  24.674  25.078  1.00  0.00     0.015 A 
ATOM     81  C   UNL A   1      45.662  25.267  25.033  1.00  0.00     0.053 A 
ATOM     82  C   UNL A   1      42.976  26.025  25.153  1.00  0.00     0.001 A 
ATOM     83  C   UNL A   1      45.315  26.619  25.092  1.00  0.00     0.021 A 
ATOM     84  Cl  UNL A   1      47.346  24.878  24.935  1.00  0.00    -0.083 Cl
ATOM     85  C   UNL A   1      43.974  26.995  25.143  1.00  0.00     0.002 A 
ENDBRANCH  78  79
ENDBRANCH  72  74
ENDBRANCH  71  72
ENDBRANCH  70  71
ENDBRANCH   1  70
TORSDOF 15
ENDMDL
MODEL 2
REMARK VINA RESULT:     -11.1      4.951     12.156
REMARK SMILES O=C(OCCOC(=O)c1noc(-c2ccccc2Cl)n1)c1ccc(-c2c3nc(c(-c4cc(S(=O)(=O)[O-])ccc4F)c4ccc([nH]4)c(-c4cc(S(=O)(=O)[O-])ccc4F)c4nc(c(-c5cc(S(=O)(=O)[O-])ccc5F)c5ccc2[nH]5)C=C4)C=C3)cc1
REMARK SMILES IDX 4 1 3 2 2 3 1 4 21 5 22 6 83 7 23 8 82 9 24 10 25 11 26 12
REMARK SMILES IDX 76 13 27 14 81 15 75 16 77 17 28 18 80 19 74 20 73 21 29 23
REMARK SMILES IDX 61 24 41 25 60 26 42 27 45 28 59 29 78 30 43 31 44 32 58 34
REMARK SMILES IDX 79 35 46 36 30 37 31 38 39 39 32 40 38 41 40 42 37 43 33 44
REMARK SMILES IDX 34 45 35 46 36 47 62 48 63 49 71 50 64 51 70 52 72 53 69 54
REMARK SMILES IDX 65 55 66 56 67 57 68 58 47 59 48 60 56 61 49 62 55 63 57 64
REMARK SMILES IDX 54 65 50 66 51 67 52 68 53 69 5 70 6 71 7 72 8 73 9 74 10 75
REMARK SMILES IDX 20 76 11 77 12 78 13 79 14 80 18 81 15 82 17 83 19 84 16 85
REMARK H PARENT 77 22 45 33
REMARK Flexibility Score: inf
ROOT
ATOM      1  C   UNL A   1      35.074  33.637  28.328  1.00  0.00     0.275 C 
ENDROOT
BRANCH   1   2
ATOM      2  O   UNL A   1      34.633  32.605  27.428  1.00  0.00    -0.458 OA
BRANCH   2   3
ATOM      3  C   UNL A   1      34.572  31.266  27.634  1.00  0.00     0.338 C 
ATOM      4  O   UNL A   1      33.481  30.703  27.575  1.00  0.00    -0.246 OA
BRANCH   3   5
ATOM      5  C   UNL A   1      35.742  30.477  28.124  1.00  0.00     0.060 A 
ATOM      6  C   UNL A   1      35.786  29.760  29.321  1.00  0.00     0.016 A 
ATOM      7  C   UNL A   1      36.909  30.530  27.337  1.00  0.00     0.016 A 
ATOM      8  C   UNL A   1      36.941  29.072  29.702  1.00  0.00     0.010 A 
ATOM      9  C   UNL A   1      38.075  29.863  27.727  1.00  0.00     0.010 A 
ATOM     10  C   UNL A   1      38.097  29.134  28.921  1.00  0.00    -0.014 A 
BRANCH  10  11
ATOM     11  C   UNL A   1      39.357  28.586  29.476  1.00  0.00     0.031 A 
ATOM     12  C   UNL A   1      39.878  29.165  30.761  1.00  0.00     0.074 A 
ATOM     13  C   UNL A   1      39.965  27.534  28.899  1.00  0.00     0.049 A 
ATOM     14  N   UNL A   1      40.882  28.774  31.500  1.00  0.00    -0.248 NA
ATOM     15  C   UNL A   1      39.155  30.332  31.288  1.00  0.00     0.031 C 
ATOM     16  C   UNL A   1      39.510  26.853  27.688  1.00  0.00     0.029 A 
ATOM     17  N   UNL A   1      41.096  26.850  29.261  1.00  0.00    -0.354 N 
ATOM     18  C   UNL A   1      40.879  29.613  32.609  1.00  0.00     0.074 A 
ATOM     19  C   UNL A   1      39.826  30.584  32.401  1.00  0.00     0.031 C 
ATOM     20  C   UNL A   1      40.372  25.865  27.388  1.00  0.00     0.029 A 
ATOM     21  C   UNL A   1      41.430  25.835  28.393  1.00  0.00     0.049 A 
ATOM     22  H   UNL A   1      41.621  27.064  30.066  1.00  0.00     0.167 HD
ATOM     23  C   UNL A   1      41.663  29.560  33.714  1.00  0.00     0.034 A 
ATOM     24  C   UNL A   1      42.472  24.981  28.416  1.00  0.00     0.034 A 
ATOM     25  C   UNL A   1      42.746  28.623  33.875  1.00  0.00     0.049 A 
ATOM     26  C   UNL A   1      43.429  25.041  29.577  1.00  0.00     0.074 A 
ATOM     27  C   UNL A   1      43.631  28.491  34.931  1.00  0.00     0.029 A 
ATOM     28  N   UNL A   1      43.110  27.669  32.932  1.00  0.00    -0.354 N 
ATOM     29  N   UNL A   1      43.405  25.826  30.629  1.00  0.00    -0.248 NA
ATOM     30  C   UNL A   1      44.539  24.081  29.563  1.00  0.00     0.031 C 
ATOM     31  C   UNL A   1      44.566  27.502  34.597  1.00  0.00     0.029 A 
ATOM     32  C   UNL A   1      44.224  26.969  33.363  1.00  0.00     0.049 A 
ATOM     33  H   UNL A   1      42.642  27.512  32.080  1.00  0.00     0.167 HD
ATOM     34  C   UNL A   1      44.470  25.423  31.428  1.00  0.00     0.074 A 
ATOM     35  C   UNL A   1      45.121  24.332  30.728  1.00  0.00     0.031 C 
ATOM     36  C   UNL A   1      44.863  25.894  32.639  1.00  0.00     0.034 A 
BRANCH  23  37
ATOM     37  C   UNL A   1      41.384  30.585  34.787  1.00  0.00     0.023 A 
ATOM     38  C   UNL A   1      40.190  30.558  35.533  1.00  0.00     0.031 A 
ATOM     39  C   UNL A   1      42.269  31.656  35.001  1.00  0.00     0.131 A 
ATOM     40  C   UNL A   1      39.870  31.626  36.383  1.00  0.00     0.055 A 
ATOM     41  C   UNL A   1      41.980  32.676  35.910  1.00  0.00     0.041 A 
ATOM     42  F   UNL A   1      43.411  31.748  34.302  1.00  0.00    -0.206 F 
ATOM     43  C   UNL A   1      40.767  32.676  36.592  1.00  0.00     0.022 A 
BRANCH  40  44
ATOM     44  S   UNL A   1      38.192  31.713  37.072  1.00  0.00     0.124 S 
ATOM     45  O   UNL A   1      38.440  32.311  38.382  1.00  0.00    -0.237 OA
ATOM     46  O   UNL A   1      37.499  32.557  36.106  1.00  0.00    -0.237 OA
ATOM     47  O   UNL A   1      37.762  30.317  37.104  1.00  0.00    -0.744 OA
ENDBRANCH  40  44
ENDBRANCH  23  37
BRANCH  24  48
ATOM     48  C   UNL A   1      42.690  24.020  27.300  1.00  0.00     0.023 A 
ATOM     49  C   UNL A   1      42.089  22.754  27.279  1.00  0.00     0.031 A 
ATOM     50  C   UNL A   1      43.568  24.352  26.254  1.00  0.00     0.131 A 
ATOM     51  C   UNL A   1      42.393  21.857  26.241  1.00  0.00     0.055 A 
ATOM     52  C   UNL A   1      43.828  23.478  25.198  1.00  0.00     0.041 A 
ATOM     53  F   UNL A   1      44.205  25.530  26.262  1.00  0.00    -0.206 F 
ATOM     54  C   UNL A   1      43.243  22.217  25.192  1.00  0.00     0.022 A 
BRANCH  51  55
ATOM     55  S   UNL A   1      41.717  20.173  26.315  1.00  0.00     0.124 S 
ATOM     56  O   UNL A   1      42.190  19.721  27.617  1.00  0.00    -0.237 OA
ATOM     57  O   UNL A   1      40.284  20.417  26.200  1.00  0.00    -0.237 OA
ATOM     58  O   UNL A   1      42.329  19.511  25.163  1.00  0.00    -0.744 OA
ENDBRANCH  51  55
ENDBRANCH  24  48
BRANCH  36  59
ATOM     59  C   UNL A   1      46.017  25.181  33.297  1.00  0.00     0.023 A 
ATOM     60  C   UNL A   1      45.817  24.093  34.163  1.00  0.00     0.031 A 
ATOM     61  C   UNL A   1      47.333  25.623  33.075  1.00  0.00     0.131 A 
ATOM     62  C   UNL A   1      46.914  23.521  34.824  1.00  0.00     0.055 A 
ATOM     63  C   UNL A   1      48.425  25.013  33.690  1.00  0.00     0.041 A 
ATOM     64  F   UNL A   1      47.576  26.661  32.259  1.00  0.00    -0.206 F 
ATOM     65  C   UNL A   1      48.218  23.964  34.582  1.00  0.00     0.022 A 
BRANCH  62  66
ATOM     66  S   UNL A   1      46.604  22.252  36.083  1.00  0.00     0.124 S 
ATOM     67  O   UNL A   1      45.206  21.913  35.833  1.00  0.00    -0.237 OA
ATOM     68  O   UNL A   1      47.581  21.224  35.736  1.00  0.00    -0.237 OA
ATOM     69  O   UNL A   1      46.858  22.948  37.342  1.00  0.00    -0.744 OA
ENDBRANCH  62  66
ENDBRANCH  36  59
ENDBRANCH  10  11
ENDBRANCH   3   5
ENDBRANCH   2   3
ENDBRANCH   1   2
BRANCH   1  70
ATOM     70  C   UNL A   1      34.006  34.111  29.316  1.00  0.00     0.275 C 
BRANCH  70  71
ATOM     71  O   UNL A   1      34.089  33.461  30.591  1.00  0.00    -0.456 OA
BRANCH  71  72
ATOM     72  C   UNL A   1      34.191  34.307  31.667  1.00  0.00     0.380 C 
ATOM     73  O   UNL A   1      33.220  34.835  32.208  1.00  0.00    -0.242 OA
BRANCH  72  74
ATOM     74  C   UNL A   1      35.568  34.463  32.141  1.00  0.00     0.281 A 
ATOM     75  N   UNL A   1      35.848  35.145  33.268  1.00  0.00    -0.049 NA
ATOM     76  N   UNL A   1      36.685  33.934  31.515  1.00  0.00    -0.181 NA
ATOM     77  O   UNL A   1      37.231  35.047  33.377  1.00  0.00    -0.333 OA
ATOM     78  C   UNL A   1      37.663  34.344  32.292  1.00  0.00     0.259 A 
BRANCH  78  79
ATOM     79  C   UNL A   1      39.103  34.265  32.149  1.00  0.00     0.058 A 
ATOM     80  C   UNL A   1      39.929  34.571  33.244  1.00  0.00     0.015 A 
ATOM     81  C   UNL A   1      39.699  33.935  30.922  1.00  0.00     0.053 A 
ATOM     82  C   UNL A   1      41.318  34.555  33.113  1.00  0.00     0.001 A 
ATOM     83  C   UNL A   1      41.090  33.935  30.791  1.00  0.00     0.021 A 
ATOM     84  Cl  UNL A   1      38.763  33.566  29.513  1.00  0.00    -0.083 Cl
ATOM     85  C   UNL A   1      41.896  34.253  31.883  1.00  0.00     0.002 A 
ENDBRANCH  78  79
ENDBRANCH  72  74
ENDBRANCH  71  72
ENDBRANCH  70  71
ENDBRANCH   1  70
TORSDOF 15
ENDMDL
MODEL 3
REMARK VINA RESULT:     -10.7      5.723     11.219
REMARK SMILES O=C(OCCOC(=O)c1noc(-c2ccccc2Cl)n1)c1ccc(-c2c3nc(c(-c4cc(S(=O)(=O)[O-])ccc4F)c4ccc([nH]4)c(-c4cc(S(=O)(=O)[O-])ccc4F)c4nc(c(-c5cc(S(=O)(=O)[O-])ccc5F)c5ccc2[nH]5)C=C4)C=C3)cc1
REMARK SMILES IDX 4 1 3 2 2 3 1 4 21 5 22 6 83 7 23 8 82 9 24 10 25 11 26 12
REMARK SMILES IDX 76 13 27 14 81 15 75 16 77 17 28 18 80 19 74 20 73 21 29 23
REMARK SMILES IDX 61 24 41 25 60 26 42 27 45 28 59 29 78 30 43 31 44 32 58 34
REMARK SMILES IDX 79 35 46 36 30 37 31 38 39 39 32 40 38 41 40 42 37 43 33 44
REMARK SMILES IDX 34 45 35 46 36 47 62 48 63 49 71 50 64 51 70 52 72 53 69 54
REMARK SMILES IDX 65 55 66 56 67 57 68 58 47 59 48 60 56 61 49 62 55 63 57 64
REMARK SMILES IDX 54 65 50 66 51 67 52 68 53 69 5 70 6 71 7 72 8 73 9 74 10 75
REMARK SMILES IDX 20 76 11 77 12 78 13 79 14 80 18 81 15 82 17 83 19 84 16 85
REMARK H PARENT 77 22 45 33
REMARK Flexibility Score: inf
ROOT
ATOM      1  C   UNL A   1      33.700  28.671  25.430  1.00  0.00     0.275 C 
ENDROOT
BRANCH   1   2
ATOM      2  O   UNL A   1      33.362  29.433  26.602  1.00  0.00    -0.458 OA
BRANCH   2   3
ATOM      3  C   UNL A   1      34.105  30.357  27.259  1.00  0.00     0.338 C 
ATOM      4  O   UNL A   1      33.731  31.528  27.267  1.00  0.00    -0.246 OA
BRANCH   3   5
ATOM      5  C   UNL A   1      35.462  30.052  27.806  1.00  0.00     0.060 A 
ATOM      6  C   UNL A   1      36.650  30.074  27.073  1.00  0.00     0.016 A 
ATOM      7  C   UNL A   1      35.519  29.642  29.152  1.00  0.00     0.016 A 
ATOM      8  C   UNL A   1      37.869  29.748  27.673  1.00  0.00     0.010 A 
ATOM      9  C   UNL A   1      36.733  29.291  29.751  1.00  0.00     0.010 A 
ATOM     10  C   UNL A   1      37.918  29.336  29.007  1.00  0.00    -0.014 A 
BRANCH  10  11
ATOM     11  C   UNL A   1      39.187  28.780  29.531  1.00  0.00     0.031 A 
ATOM     12  C   UNL A   1      39.739  29.349  30.808  1.00  0.00     0.074 A 
ATOM     13  C   UNL A   1      39.779  27.731  28.933  1.00  0.00     0.049 A 
ATOM     14  N   UNL A   1      40.756  28.948  31.523  1.00  0.00    -0.248 NA
ATOM     15  C   UNL A   1      39.030  30.514  31.360  1.00  0.00     0.031 C 
ATOM     16  C   UNL A   1      39.296  27.060  27.727  1.00  0.00     0.029 A 
ATOM     17  N   UNL A   1      40.916  27.040  29.265  1.00  0.00    -0.354 N 
ATOM     18  C   UNL A   1      40.780  29.780  32.638  1.00  0.00     0.074 A 
ATOM     19  C   UNL A   1      39.726  30.755  32.459  1.00  0.00     0.031 C 
ATOM     20  C   UNL A   1      40.148  26.072  27.401  1.00  0.00     0.029 A 
ATOM     21  C   UNL A   1      41.228  26.031  28.383  1.00  0.00     0.049 A 
ATOM     22  H   UNL A   1      41.459  27.247  30.061  1.00  0.00     0.167 HD
ATOM     23  C   UNL A   1      41.588  29.716  33.725  1.00  0.00     0.034 A 
ATOM     24  C   UNL A   1      42.267  25.174  28.378  1.00  0.00     0.034 A 
ATOM     25  C   UNL A   1      42.672  28.775  33.856  1.00  0.00     0.049 A 
ATOM     26  C   UNL A   1      43.250  25.222  29.518  1.00  0.00     0.074 A 
ATOM     27  C   UNL A   1      43.578  28.633  34.891  1.00  0.00     0.029 A 
ATOM     28  N   UNL A   1      43.011  27.826  32.898  1.00  0.00    -0.354 N 
ATOM     29  N   UNL A   1      43.251  26.000  30.576  1.00  0.00    -0.248 NA
ATOM     30  C   UNL A   1      44.356  24.259  29.473  1.00  0.00     0.031 C 
ATOM     31  C   UNL A   1      44.503  27.643  34.529  1.00  0.00     0.029 A 
ATOM     32  C   UNL A   1      44.133  27.120  33.300  1.00  0.00     0.049 A 
ATOM     33  H   UNL A   1      42.524  27.678  32.055  1.00  0.00     0.167 HD
ATOM     34  C   UNL A   1      44.332  25.588  31.348  1.00  0.00     0.074 A 
ATOM     35  C   UNL A   1      44.964  24.500  30.627  1.00  0.00     0.031 C 
ATOM     36  C   UNL A   1      44.753  26.049  32.554  1.00  0.00     0.034 A 
BRANCH  23  37
ATOM     37  C   UNL A   1      41.335  30.734  34.811  1.00  0.00     0.023 A 
ATOM     38  C   UNL A   1      40.169  30.691  35.598  1.00  0.00     0.031 A 
ATOM     39  C   UNL A   1      42.216  31.813  34.998  1.00  0.00     0.131 A 
ATOM     40  C   UNL A   1      39.867  31.753  36.463  1.00  0.00     0.055 A 
ATOM     41  C   UNL A   1      41.948  32.828  35.921  1.00  0.00     0.041 A 
ATOM     42  F   UNL A   1      43.331  31.921  34.261  1.00  0.00    -0.206 F 
ATOM     43  C   UNL A   1      40.759  32.812  36.645  1.00  0.00     0.022 A 
BRANCH  40  44
ATOM     44  S   UNL A   1      38.213  31.819  37.210  1.00  0.00     0.124 S 
ATOM     45  O   UNL A   1      37.808  30.416  37.156  1.00  0.00    -0.237 OA
ATOM     46  O   UNL A   1      38.489  32.353  38.539  1.00  0.00    -0.237 OA
ATOM     47  O   UNL A   1      37.470  32.709  36.320  1.00  0.00    -0.744 OA
ENDBRANCH  40  44
ENDBRANCH  23  37
BRANCH  24  48
ATOM     48  C   UNL A   1      42.458  24.220  27.250  1.00  0.00     0.023 A 
ATOM     49  C   UNL A   1      41.941  22.918  27.280  1.00  0.00     0.031 A 
ATOM     50  C   UNL A   1      43.227  24.600  26.136  1.00  0.00     0.131 A 
ATOM     51  C   UNL A   1      42.219  22.034  26.223  1.00  0.00     0.055 A 
ATOM     52  C   UNL A   1      43.458  23.737  25.065  1.00  0.00     0.041 A 
ATOM     53  F   UNL A   1      43.784  25.818  26.090  1.00  0.00    -0.206 F 
ATOM     54  C   UNL A   1      42.958  22.441  25.109  1.00  0.00     0.022 A 
BRANCH  51  55
ATOM     55  S   UNL A   1      41.663  20.311  26.355  1.00  0.00     0.124 S 
ATOM     56  O   UNL A   1      42.412  19.676  25.278  1.00  0.00    -0.237 OA
ATOM     57  O   UNL A   1      42.069  19.965  27.712  1.00  0.00    -0.237 OA
ATOM     58  O   UNL A   1      40.219  20.403  26.142  1.00  0.00    -0.744 OA
ENDBRANCH  51  55
ENDBRANCH  24  48
BRANCH  36  59
ATOM     59  C   UNL A   1      45.918  25.327  33.182  1.00  0.00     0.023 A 
ATOM     60  C   UNL A   1      45.737  24.197  33.995  1.00  0.00     0.031 A 
ATOM     61  C   UNL A   1      47.226  25.804  32.985  1.00  0.00     0.131 A 
ATOM     62  C   UNL A   1      46.843  23.615  34.633  1.00  0.00     0.055 A 
ATOM     63  C   UNL A   1      48.328  25.186  33.575  1.00  0.00     0.041 A 
ATOM     64  F   UNL A   1      47.451  26.884  32.219  1.00  0.00    -0.206 F 
ATOM     65  C   UNL A   1      48.139  24.093  34.416  1.00  0.00     0.022 A 
BRANCH  62  66
ATOM     66  S   UNL A   1      46.554  22.282  35.829  1.00  0.00     0.124 S 
ATOM     67  O   UNL A   1      47.870  21.653  35.905  1.00  0.00    -0.237 OA
ATOM     68  O   UNL A   1      46.130  23.016  37.017  1.00  0.00    -0.237 OA
ATOM     69  O   UNL A   1      45.515  21.473  35.197  1.00  0.00    -0.744 OA
ENDBRANCH  62  66
ENDBRANCH  36  59
ENDBRANCH  10  11
ENDBRANCH   3   5
ENDBRANCH   2   3
ENDBRANCH   1   2
BRANCH   1  70
ATOM     70  C   UNL A   1      32.919  29.065  24.174  1.00  0.00     0.275 C 
BRANCH  70  71
ATOM     71  O   UNL A   1      32.542  27.941  23.369  1.00  0.00    -0.456 OA
BRANCH  71  72
ATOM     72  C   UNL A   1      33.503  27.510  22.489  1.00  0.00     0.380 C 
ATOM     73  O   UNL A   1      34.229  28.272  21.853  1.00  0.00    -0.242 OA
BRANCH  72  74
ATOM     74  C   UNL A   1      33.615  26.050  22.437  1.00  0.00     0.281 A 
ATOM     75  N   UNL A   1      33.380  25.370  21.299  1.00  0.00    -0.049 NA
ATOM     76  N   UNL A   1      33.975  25.246  23.505  1.00  0.00    -0.181 NA
ATOM     77  O   UNL A   1      33.606  24.044  21.655  1.00  0.00    -0.333 OA
ATOM     78  C   UNL A   1      33.924  24.041  22.980  1.00  0.00     0.259 A 
BRANCH  78  79
ATOM     79  C   UNL A   1      34.050  22.726  23.575  1.00  0.00     0.058 A 
ATOM     80  C   UNL A   1      32.940  21.865  23.600  1.00  0.00     0.015 A 
ATOM     81  C   UNL A   1      35.246  22.306  24.177  1.00  0.00     0.053 A 
ATOM     82  C   UNL A   1      33.022  20.617  24.217  1.00  0.00     0.001 A 
ATOM     83  C   UNL A   1      35.320  21.061  24.808  1.00  0.00     0.021 A 
ATOM     84  Cl  UNL A   1      36.658  23.307  24.216  1.00  0.00    -0.083 Cl
ATOM     85  C   UNL A   1      34.206  20.223  24.834  1.00  0.00     0.002 A 
ENDBRANCH  78  79
ENDBRANCH  72  74
ENDBRANCH  71  72
ENDBRANCH  70  71
ENDBRANCH   1  70
TORSDOF 15
ENDMDL
