MODEL 1
REMARK VINA RESULT:     -11.2      0.000      0.000
REMARK SMILES CCC[N@H+]1CCC[C@H]([C@@H](C)Nc2cccc(C(=O)OCCOC(=O)c3ccc(-c4c5nc(c(-c6cc(S(=O)(=O)[O-])ccc6F)c6ccc([nH]6)c(-c6cc(S(=O)(=O)[O-])ccc6F)c6nc(c(-c7cc(S(=O)(=O)[O-])ccc7F)c7ccc4[nH]7)C=C6)C=C5)cc3)c2)C1
REMARK SMILES IDX 20 1 19 2 17 3 18 4 16 5 12 6 13 7 88 8 14 9 15 10 11 11
REMARK SMILES IDX 9 13 10 14 8 15 4 16 5 17 89 18 6 20 7 21 3 22 2 23 1 24
REMARK SMILES IDX 21 25 22 26 23 27 24 28 25 29 26 30 87 31 27 32 86 33 28 34
REMARK SMILES IDX 29 35 30 36 80 37 31 38 85 39 79 40 81 41 32 42 84 43 78 44
REMARK SMILES IDX 77 45 33 47 65 48 45 49 64 50 46 51 49 52 63 53 82 54 47 55
REMARK SMILES IDX 48 56 62 58 83 59 50 60 34 61 35 62 43 63 36 64 42 65 44 66
REMARK SMILES IDX 41 67 37 68 38 69 39 70 40 71 66 72 67 73 75 74 68 75 74 76
REMARK SMILES IDX 76 77 73 78 69 79 70 80 71 81 72 82 51 83 52 84 60 85 53 86
REMARK SMILES IDX 59 87 61 88 58 89 54 90 55 91 56 92 57 93
REMARK H PARENT 11 12 4 19 81 46 49 57
REMARK Flexibility Score: inf
ROOT
ATOM      1  C   UNL A   1      42.137  20.331  26.428  1.00  0.00     0.275 C 
ENDROOT
BRANCH   1   2
ATOM      2  O   UNL A   1      40.868  20.985  26.611  1.00  0.00    -0.458 OA
BRANCH   2   3
ATOM      3  C   UNL A   1      39.815  20.486  25.914  1.00  0.00     0.338 C 
ATOM      4  O   UNL A   1      39.665  19.329  25.556  1.00  0.00    -0.246 OA
BRANCH   3   5
ATOM      5  C   UNL A   1      38.786  21.540  25.738  1.00  0.00     0.062 A 
ATOM      6  C   UNL A   1      36.677  22.287  24.789  1.00  0.00     0.035 A 
ATOM      7  C   UNL A   1      36.904  23.553  25.338  1.00  0.00     0.026 A 
ATOM      8  C   UNL A   1      37.671  21.314  24.933  1.00  0.00     0.041 A 
ATOM      9  C   UNL A   1      38.015  23.792  26.148  1.00  0.00     0.003 A 
ATOM     10  C   UNL A   1      38.916  22.762  26.402  1.00  0.00     0.016 A 
BRANCH   6  11
ATOM     11  N   UNL A   1      35.439  21.990  24.232  1.00  0.00    -0.382 N 
ATOM     12  H   UNL A   1      35.360  21.816  23.265  1.00  0.00     0.160 HD
BRANCH  11  13
ATOM     13  C   UNL A   1      34.254  21.938  25.091  1.00  0.00     0.084 C 
ATOM     14  C   UNL A   1      34.035  20.466  25.451  1.00  0.00     0.031 C 
BRANCH  13  15
ATOM     15  C   UNL A   1      33.022  22.590  24.399  1.00  0.00     0.066 C 
ATOM     16  N   UNL A   1      32.769  24.599  25.914  1.00  0.00    -0.335 N 
ATOM     17  C   UNL A   1      31.502  24.066  26.445  1.00  0.00     0.262 C 
ATOM     18  C   UNL A   1      32.990  24.135  24.537  1.00  0.00     0.267 C 
ATOM     19  H   UNL A   1      33.557  24.251  26.461  1.00  0.00     0.348 HD
ATOM     20  C   UNL A   1      31.416  22.542  26.358  1.00  0.00     0.062 C 
ATOM     21  C   UNL A   1      31.686  22.046  24.939  1.00  0.00     0.017 C 
BRANCH  16  22
ATOM     22  C   UNL A   1      32.748  26.075  26.027  1.00  0.00     0.261 C 
BRANCH  22  23
ATOM     23  C   UNL A   1      32.531  26.884  24.738  1.00  0.00     0.058 C 
ATOM     24  C   UNL A   1      31.138  27.464  24.545  1.00  0.00     0.010 C 
ENDBRANCH  22  23
ENDBRANCH  16  22
ENDBRANCH  13  15
ENDBRANCH  11  13
ENDBRANCH   6  11
ENDBRANCH   3   5
ENDBRANCH   2   3
ENDBRANCH   1   2
BRANCH   1  25
ATOM     25  C   UNL A   1      43.108  21.250  25.687  1.00  0.00     0.275 C 
BRANCH  25  26
ATOM     26  O   UNL A   1      42.413  22.418  25.218  1.00  0.00    -0.458 OA
BRANCH  26  27
ATOM     27  C   UNL A   1      43.143  23.558  25.175  1.00  0.00     0.338 C 
ATOM     28  O   UNL A   1      44.090  23.805  24.450  1.00  0.00    -0.246 OA
BRANCH  27  29
ATOM     29  C   UNL A   1      42.572  24.537  26.113  1.00  0.00     0.060 A 
ATOM     30  C   UNL A   1      42.982  25.860  26.003  1.00  0.00     0.016 A 
ATOM     31  C   UNL A   1      41.759  24.149  27.173  1.00  0.00     0.016 A 
ATOM     32  C   UNL A   1      42.675  26.786  26.995  1.00  0.00     0.010 A 
ATOM     33  C   UNL A   1      41.360  25.107  28.117  1.00  0.00     0.010 A 
ATOM     34  C   UNL A   1      41.844  26.430  28.062  1.00  0.00    -0.014 A 
BRANCH  34  35
ATOM     35  C   UNL A   1      41.524  27.426  29.130  1.00  0.00     0.031 A 
ATOM     36  C   UNL A   1      42.355  27.475  30.390  1.00  0.00     0.074 A 
ATOM     37  C   UNL A   1      40.507  28.302  28.972  1.00  0.00     0.049 A 
ATOM     38  N   UNL A   1      42.141  28.136  31.499  1.00  0.00    -0.248 NA
ATOM     39  C   UNL A   1      43.582  26.662  30.408  1.00  0.00     0.031 C 
ATOM     40  C   UNL A   1      39.656  28.410  27.783  1.00  0.00     0.029 A 
ATOM     41  N   UNL A   1      40.012  29.272  29.812  1.00  0.00    -0.354 N 
ATOM     42  C   UNL A   1      43.166  27.769  32.367  1.00  0.00     0.074 A 
ATOM     43  C   UNL A   1      44.002  26.827  31.654  1.00  0.00     0.031 C 
ATOM     44  C   UNL A   1      38.773  29.404  27.957  1.00  0.00     0.029 A 
ATOM     45  C   UNL A   1      38.916  29.938  29.306  1.00  0.00     0.049 A 
ATOM     46  H   UNL A   1      40.404  29.472  30.693  1.00  0.00     0.167 HD
ATOM     47  C   UNL A   1      43.382  28.179  33.641  1.00  0.00     0.034 A 
ATOM     48  C   UNL A   1      38.082  30.833  29.876  1.00  0.00     0.034 A 
ATOM     49  C   UNL A   1      42.575  29.165  34.318  1.00  0.00     0.049 A 
ATOM     50  C   UNL A   1      38.323  31.236  31.311  1.00  0.00     0.074 A 
ATOM     51  C   UNL A   1      42.739  29.681  35.593  1.00  0.00     0.029 A 
ATOM     52  N   UNL A   1      41.458  29.790  33.780  1.00  0.00    -0.354 N 
ATOM     53  N   UNL A   1      39.278  30.854  32.127  1.00  0.00    -0.248 NA
ATOM     54  C   UNL A   1      37.369  32.182  31.903  1.00  0.00     0.031 C 
ATOM     55  C   UNL A   1      41.683  30.559  35.851  1.00  0.00     0.029 A 
ATOM     56  C   UNL A   1      40.905  30.658  34.709  1.00  0.00     0.049 A 
ATOM     57  H   UNL A   1      41.109  29.639  32.872  1.00  0.00     0.167 HD
ATOM     58  C   UNL A   1      39.054  31.541  33.317  1.00  0.00     0.074 A 
ATOM     59  C   UNL A   1      37.890  32.374  33.106  1.00  0.00     0.031 C 
ATOM     60  C   UNL A   1      39.746  31.486  34.483  1.00  0.00     0.034 A 
BRANCH  47  61
ATOM     61  C   UNL A   1      44.494  27.518  34.421  1.00  0.00     0.023 A 
ATOM     62  C   UNL A   1      44.303  26.344  35.167  1.00  0.00     0.031 A 
ATOM     63  C   UNL A   1      45.787  28.075  34.386  1.00  0.00     0.131 A 
ATOM     64  C   UNL A   1      45.377  25.787  35.880  1.00  0.00     0.055 A 
ATOM     65  C   UNL A   1      46.866  27.479  35.041  1.00  0.00     0.041 A 
ATOM     66  F   UNL A   1      46.024  29.208  33.706  1.00  0.00    -0.206 F 
ATOM     67  C   UNL A   1      46.662  26.331  35.801  1.00  0.00     0.022 A 
BRANCH  64  68
ATOM     68  S   UNL A   1      45.058  24.390  36.992  1.00  0.00     0.124 S 
ATOM     69  O   UNL A   1      46.362  24.213  37.625  1.00  0.00    -0.237 OA
ATOM     70  O   UNL A   1      43.996  24.904  37.849  1.00  0.00    -0.237 OA
ATOM     71  O   UNL A   1      44.660  23.314  36.085  1.00  0.00    -0.744 OA
ENDBRANCH  64  68
ENDBRANCH  47  61
BRANCH  48  72
ATOM     72  C   UNL A   1      36.891  31.354  29.136  1.00  0.00     0.023 A 
ATOM     73  C   UNL A   1      35.853  30.498  28.733  1.00  0.00     0.031 A 
ATOM     74  C   UNL A   1      36.819  32.702  28.738  1.00  0.00     0.131 A 
ATOM     75  C   UNL A   1      34.827  30.982  27.905  1.00  0.00     0.055 A 
ATOM     76  C   UNL A   1      35.757  33.196  27.980  1.00  0.00     0.041 A 
ATOM     77  F   UNL A   1      37.788  33.567  29.081  1.00  0.00    -0.206 F 
ATOM     78  C   UNL A   1      34.763  32.329  27.541  1.00  0.00     0.022 A 
BRANCH  75  79
ATOM     79  S   UNL A   1      33.656  29.795  27.191  1.00  0.00     0.124 S 
ATOM     80  O   UNL A   1      34.254  29.536  25.886  1.00  0.00    -0.237 OA
ATOM     81  O   UNL A   1      33.713  28.699  28.153  1.00  0.00    -0.237 OA
ATOM     82  O   UNL A   1      32.395  30.535  27.165  1.00  0.00    -0.744 OA
ENDBRANCH  75  79
ENDBRANCH  48  72
BRANCH  60  83
ATOM     83  C   UNL A   1      39.296  32.406  35.592  1.00  0.00     0.023 A 
ATOM     84  C   UNL A   1      39.777  33.722  35.709  1.00  0.00     0.031 A 
ATOM     85  C   UNL A   1      38.382  31.948  36.559  1.00  0.00     0.131 A 
ATOM     86  C   UNL A   1      39.389  34.513  36.800  1.00  0.00     0.055 A 
ATOM     87  C   UNL A   1      37.949  32.761  37.606  1.00  0.00     0.041 A 
ATOM     88  F   UNL A   1      37.893  30.698  36.498  1.00  0.00    -0.206 F 
ATOM     89  C   UNL A   1      38.464  34.047  37.739  1.00  0.00     0.022 A 
BRANCH  86  90
ATOM     90  S   UNL A   1      40.180  36.129  37.031  1.00  0.00     0.124 S 
ATOM     91  O   UNL A   1      41.555  35.750  37.344  1.00  0.00    -0.237 OA
ATOM     92  O   UNL A   1      39.974  36.766  35.735  1.00  0.00    -0.237 OA
ATOM     93  O   UNL A   1      39.432  36.722  38.139  1.00  0.00    -0.744 OA
ENDBRANCH  86  90
ENDBRANCH  60  83
ENDBRANCH  34  35
ENDBRANCH  27  29
ENDBRANCH  26  27
ENDBRANCH  25  26
ENDBRANCH   1  25
TORSDOF 19
ENDMDL
MODEL 2
REMARK VINA RESULT:     -11.0      4.971      8.911
REMARK SMILES CCC[N@H+]1CCC[C@H]([C@@H](C)Nc2cccc(C(=O)OCCOC(=O)c3ccc(-c4c5nc(c(-c6cc(S(=O)(=O)[O-])ccc6F)c6ccc([nH]6)c(-c6cc(S(=O)(=O)[O-])ccc6F)c6nc(c(-c7cc(S(=O)(=O)[O-])ccc7F)c7ccc4[nH]7)C=C6)C=C5)cc3)c2)C1
REMARK SMILES IDX 20 1 19 2 17 3 18 4 16 5 12 6 13 7 88 8 14 9 15 10 11 11
REMARK SMILES IDX 9 13 10 14 8 15 4 16 5 17 89 18 6 20 7 21 3 22 2 23 1 24
REMARK SMILES IDX 21 25 22 26 23 27 24 28 25 29 26 30 87 31 27 32 86 33 28 34
REMARK SMILES IDX 29 35 30 36 80 37 31 38 85 39 79 40 81 41 32 42 84 43 78 44
REMARK SMILES IDX 77 45 33 47 65 48 45 49 64 50 46 51 49 52 63 53 82 54 47 55
REMARK SMILES IDX 48 56 62 58 83 59 50 60 34 61 35 62 43 63 36 64 42 65 44 66
REMARK SMILES IDX 41 67 37 68 38 69 39 70 40 71 66 72 67 73 75 74 68 75 74 76
REMARK SMILES IDX 76 77 73 78 69 79 70 80 71 81 72 82 51 83 52 84 60 85 53 86
REMARK SMILES IDX 59 87 61 88 58 89 54 90 55 91 56 92 57 93
REMARK H PARENT 11 12 4 19 81 46 49 57
REMARK Flexibility Score: inf
ROOT
ATOM      1  C   UNL A   1      34.908  20.672  25.440  1.00  0.00     0.275 C 
ENDROOT
BRANCH   1   2
ATOM      2  O   UNL A   1      33.998  21.071  24.398  1.00  0.00    -0.458 OA
BRANCH   2   3
ATOM      3  C   UNL A   1      32.716  21.325  24.767  1.00  0.00     0.338 C 
ATOM      4  O   UNL A   1      31.825  20.503  24.905  1.00  0.00    -0.246 OA
BRANCH   3   5
ATOM      5  C   UNL A   1      32.568  22.762  25.102  1.00  0.00     0.062 A 
ATOM      6  C   UNL A   1      32.934  25.101  24.553  1.00  0.00     0.035 A 
ATOM      7  C   UNL A   1      32.366  25.455  25.781  1.00  0.00     0.026 A 
ATOM      8  C   UNL A   1      33.099  23.742  24.266  1.00  0.00     0.041 A 
ATOM      9  C   UNL A   1      31.828  24.484  26.627  1.00  0.00     0.003 A 
ATOM     10  C   UNL A   1      31.868  23.144  26.250  1.00  0.00     0.016 A 
BRANCH   6  11
ATOM     11  N   UNL A   1      33.202  26.085  23.609  1.00  0.00    -0.382 N 
ATOM     12  H   UNL A   1      34.132  26.311  23.380  1.00  0.00     0.160 HD
BRANCH  11  13
ATOM     13  C   UNL A   1      32.090  26.783  22.959  1.00  0.00     0.084 C 
ATOM     14  C   UNL A   1      31.788  26.021  21.666  1.00  0.00     0.031 C 
BRANCH  13  15
ATOM     15  C   UNL A   1      32.423  28.285  22.724  1.00  0.00     0.066 C 
ATOM     16  N   UNL A   1      32.581  29.010  25.141  1.00  0.00    -0.335 N 
ATOM     17  C   UNL A   1      31.359  29.822  25.000  1.00  0.00     0.262 C 
ATOM     18  C   UNL A   1      33.284  28.904  23.854  1.00  0.00     0.267 C 
ATOM     19  H   UNL A   1      32.343  28.056  25.414  1.00  0.00     0.348 HD
ATOM     20  C   UNL A   1      30.426  29.305  23.903  1.00  0.00     0.062 C 
ATOM     21  C   UNL A   1      31.159  29.152  22.573  1.00  0.00     0.017 C 
BRANCH  16  22
ATOM     22  C   UNL A   1      33.421  29.596  26.209  1.00  0.00     0.261 C 
BRANCH  22  23
ATOM     23  C   UNL A   1      34.374  28.655  26.963  1.00  0.00     0.058 C 
ATOM     24  C   UNL A   1      35.621  29.302  27.547  1.00  0.00     0.010 C 
ENDBRANCH  22  23
ENDBRANCH  16  22
ENDBRANCH  13  15
ENDBRANCH  11  13
ENDBRANCH   6  11
ENDBRANCH   3   5
ENDBRANCH   2   3
ENDBRANCH   1   2
BRANCH   1  25
ATOM     25  C   UNL A   1      36.355  20.815  24.968  1.00  0.00     0.275 C 
BRANCH  25  26
ATOM     26  O   UNL A   1      37.106  21.582  25.926  1.00  0.00    -0.458 OA
BRANCH  26  27
ATOM     27  C   UNL A   1      38.453  21.461  25.847  1.00  0.00     0.338 C 
ATOM     28  O   UNL A   1      39.087  20.594  25.274  1.00  0.00    -0.246 OA
BRANCH  27  29
ATOM     29  C   UNL A   1      39.084  22.610  26.514  1.00  0.00     0.060 A 
ATOM     30  C   UNL A   1      38.639  23.883  26.179  1.00  0.00     0.016 A 
ATOM     31  C   UNL A   1      40.188  22.458  27.346  1.00  0.00     0.016 A 
ATOM     32  C   UNL A   1      39.344  25.013  26.582  1.00  0.00     0.010 A 
ATOM     33  C   UNL A   1      40.836  23.601  27.841  1.00  0.00     0.010 A 
ATOM     34  C   UNL A   1      40.446  24.893  27.435  1.00  0.00    -0.014 A 
BRANCH  34  35
ATOM     35  C   UNL A   1      41.205  26.110  27.859  1.00  0.00     0.031 A 
ATOM     36  C   UNL A   1      40.516  27.185  28.663  1.00  0.00     0.074 A 
ATOM     37  C   UNL A   1      42.512  26.249  27.546  1.00  0.00     0.049 A 
ATOM     38  N   UNL A   1      40.938  28.383  28.978  1.00  0.00    -0.248 NA
ATOM     39  C   UNL A   1      39.168  26.877  29.169  1.00  0.00     0.031 C 
ATOM     40  C   UNL A   1      43.323  25.263  26.825  1.00  0.00     0.029 A 
ATOM     41  N   UNL A   1      43.395  27.273  27.796  1.00  0.00    -0.354 N 
ATOM     42  C   UNL A   1      39.888  28.993  29.659  1.00  0.00     0.074 A 
ATOM     43  C   UNL A   1      38.808  28.031  29.712  1.00  0.00     0.031 C 
ATOM     44  C   UNL A   1      44.581  25.715  26.719  1.00  0.00     0.029 A 
ATOM     45  C   UNL A   1      44.651  27.064  27.266  1.00  0.00     0.049 A 
ATOM     46  H   UNL A   1      43.153  28.081  28.305  1.00  0.00     0.167 HD
ATOM     47  C   UNL A   1      39.833  30.242  30.185  1.00  0.00     0.034 A 
ATOM     48  C   UNL A   1      45.721  27.881  27.175  1.00  0.00     0.034 A 
ATOM     49  C   UNL A   1      40.939  31.168  30.179  1.00  0.00     0.049 A 
ATOM     50  C   UNL A   1      45.614  29.280  27.730  1.00  0.00     0.074 A 
ATOM     51  C   UNL A   1      40.998  32.440  30.725  1.00  0.00     0.029 A 
ATOM     52  N   UNL A   1      42.180  30.927  29.605  1.00  0.00    -0.354 N 
ATOM     53  N   UNL A   1      44.601  29.852  28.342  1.00  0.00    -0.248 NA
ATOM     54  C   UNL A   1      46.789  30.148  27.576  1.00  0.00     0.031 C 
ATOM     55  C   UNL A   1      42.244  32.993  30.419  1.00  0.00     0.029 A 
ATOM     56  C   UNL A   1      42.996  32.038  29.755  1.00  0.00     0.049 A 
ATOM     57  H   UNL A   1      42.442  30.091  29.157  1.00  0.00     0.167 HD
ATOM     58  C   UNL A   1      45.034  31.133  28.672  1.00  0.00     0.074 A 
ATOM     59  C   UNL A   1      46.402  31.243  28.211  1.00  0.00     0.031 C 
ATOM     60  C   UNL A   1      44.360  32.133  29.295  1.00  0.00     0.034 A 
BRANCH  47  61
ATOM     61  C   UNL A   1      38.516  30.716  30.754  1.00  0.00     0.023 A 
ATOM     62  C   UNL A   1      37.590  31.459  30.005  1.00  0.00     0.031 A 
ATOM     63  C   UNL A   1      38.177  30.382  32.080  1.00  0.00     0.131 A 
ATOM     64  C   UNL A   1      36.389  31.879  30.599  1.00  0.00     0.055 A 
ATOM     65  C   UNL A   1      36.952  30.744  32.642  1.00  0.00     0.041 A 
ATOM     66  F   UNL A   1      39.032  29.690  32.849  1.00  0.00    -0.206 F 
ATOM     67  C   UNL A   1      36.052  31.504  31.903  1.00  0.00     0.022 A 
BRANCH  64  68
ATOM     68  S   UNL A   1      35.304  33.003  29.677  1.00  0.00     0.124 S 
ATOM     69  O   UNL A   1      34.197  33.179  30.613  1.00  0.00    -0.237 OA
ATOM     70  O   UNL A   1      36.157  34.168  29.471  1.00  0.00    -0.237 OA
ATOM     71  O   UNL A   1      34.977  32.250  28.468  1.00  0.00    -0.744 OA
ENDBRANCH  64  68
ENDBRANCH  47  61
BRANCH  48  72
ATOM     72  C   UNL A   1      46.962  27.445  26.463  1.00  0.00     0.023 A 
ATOM     73  C   UNL A   1      47.200  27.806  25.127  1.00  0.00     0.031 A 
ATOM     74  C   UNL A   1      47.886  26.581  27.082  1.00  0.00     0.131 A 
ATOM     75  C   UNL A   1      48.292  27.255  24.436  1.00  0.00     0.055 A 
ATOM     76  C   UNL A   1      49.011  26.097  26.414  1.00  0.00     0.041 A 
ATOM     77  F   UNL A   1      47.706  26.189  28.354  1.00  0.00    -0.206 F 
ATOM     78  C   UNL A   1      49.208  26.418  25.076  1.00  0.00     0.022 A 
BRANCH  75  79
ATOM     79  S   UNL A   1      48.415  27.533  22.648  1.00  0.00     0.124 S 
ATOM     80  O   UNL A   1      47.181  28.259  22.374  1.00  0.00    -0.237 OA
ATOM     81  O   UNL A   1      49.651  28.304  22.547  1.00  0.00    -0.237 OA
ATOM     82  O   UNL A   1      48.480  26.180  22.097  1.00  0.00    -0.744 OA
ENDBRANCH  75  79
ENDBRANCH  48  72
BRANCH  60  83
ATOM     83  C   UNL A   1      45.123  33.405  29.573  1.00  0.00     0.023 A 
ATOM     84  C   UNL A   1      45.168  34.462  28.647  1.00  0.00     0.031 A 
ATOM     85  C   UNL A   1      45.833  33.552  30.778  1.00  0.00     0.131 A 
ATOM     86  C   UNL A   1      45.954  35.592  28.915  1.00  0.00     0.055 A 
ATOM     87  C   UNL A   1      46.560  34.706  31.068  1.00  0.00     0.041 A 
ATOM     88  F   UNL A   1      45.828  32.572  31.698  1.00  0.00    -0.206 F 
ATOM     89  C   UNL A   1      46.635  35.729  30.128  1.00  0.00     0.022 A 
BRANCH  86  90
ATOM     90  S   UNL A   1      46.152  36.845  27.618  1.00  0.00     0.124 S 
ATOM     91  O   UNL A   1      46.054  36.041  26.403  1.00  0.00    -0.237 OA
ATOM     92  O   UNL A   1      45.034  37.745  27.879  1.00  0.00    -0.237 OA
ATOM     93  O   UNL A   1      47.475  37.408  27.884  1.00  0.00    -0.744 OA
ENDBRANCH  86  90
ENDBRANCH  60  83
ENDBRANCH  34  35
ENDBRANCH  27  29
ENDBRANCH  26  27
ENDBRANCH  25  26
ENDBRANCH   1  25
TORSDOF 19
ENDMDL
MODEL 3
REMARK VINA RESULT:     -10.8      2.572      8.890
REMARK SMILES CCC[N@H+]1CCC[C@H]([C@@H](C)Nc2cccc(C(=O)OCCOC(=O)c3ccc(-c4c5nc(c(-c6cc(S(=O)(=O)[O-])ccc6F)c6ccc([nH]6)c(-c6cc(S(=O)(=O)[O-])ccc6F)c6nc(c(-c7cc(S(=O)(=O)[O-])ccc7F)c7ccc4[nH]7)C=C6)C=C5)cc3)c2)C1
REMARK SMILES IDX 20 1 19 2 17 3 18 4 16 5 12 6 13 7 88 8 14 9 15 10 11 11
REMARK SMILES IDX 9 13 10 14 8 15 4 16 5 17 89 18 6 20 7 21 3 22 2 23 1 24
REMARK SMILES IDX 21 25 22 26 23 27 24 28 25 29 26 30 87 31 27 32 86 33 28 34
REMARK SMILES IDX 29 35 30 36 80 37 31 38 85 39 79 40 81 41 32 42 84 43 78 44
REMARK SMILES IDX 77 45 33 47 65 48 45 49 64 50 46 51 49 52 63 53 82 54 47 55
REMARK SMILES IDX 48 56 62 58 83 59 50 60 34 61 35 62 43 63 36 64 42 65 44 66
REMARK SMILES IDX 41 67 37 68 38 69 39 70 40 71 66 72 67 73 75 74 68 75 74 76
REMARK SMILES IDX 76 77 73 78 69 79 70 80 71 81 72 82 51 83 52 84 60 85 53 86
REMARK SMILES IDX 59 87 61 88 58 89 54 90 55 91 56 92 57 93
REMARK H PARENT 11 12 4 19 81 46 49 57
REMARK Flexibility Score: inf
ROOT
ATOM      1  C   UNL A   1      31.312  29.978  24.727  1.00  0.00     0.275 C 
ENDROOT
BRANCH   1   2
ATOM      2  O   UNL A   1      30.128  29.924  23.910  1.00  0.00    -0.458 OA
BRANCH   2   3
ATOM      3  C   UNL A   1      30.209  29.205  22.760  1.00  0.00     0.338 C 
ATOM      4  O   UNL A   1      30.219  29.651  21.625  1.00  0.00    -0.246 OA
BRANCH   3   5
ATOM      5  C   UNL A   1      30.405  27.770  23.081  1.00  0.00     0.062 A 
ATOM      6  C   UNL A   1      31.822  25.796  23.125  1.00  0.00     0.035 A 
ATOM      7  C   UNL A   1      30.736  25.055  23.601  1.00  0.00     0.026 A 
ATOM      8  C   UNL A   1      31.613  27.139  22.794  1.00  0.00     0.041 A 
ATOM      9  C   UNL A   1      29.521  25.674  23.895  1.00  0.00     0.003 A 
ATOM     10  C   UNL A   1      29.382  27.046  23.700  1.00  0.00     0.016 A 
BRANCH   6  11
ATOM     11  N   UNL A   1      33.090  25.228  23.109  1.00  0.00    -0.382 N 
ATOM     12  H   UNL A   1      33.567  25.105  22.256  1.00  0.00     0.160 HD
BRANCH  11  13
ATOM     13  C   UNL A   1      33.711  24.814  24.370  1.00  0.00     0.084 C 
ATOM     14  C   UNL A   1      33.935  26.087  25.189  1.00  0.00     0.031 C 
BRANCH  13  15
ATOM     15  C   UNL A   1      35.017  24.007  24.120  1.00  0.00     0.066 C 
ATOM     16  N   UNL A   1      34.222  21.753  24.946  1.00  0.00    -0.335 N 
ATOM     17  C   UNL A   1      35.137  21.829  26.100  1.00  0.00     0.262 C 
ATOM     18  C   UNL A   1      34.761  22.509  23.807  1.00  0.00     0.267 C 
ATOM     19  H   UNL A   1      33.326  22.184  25.175  1.00  0.00     0.348 HD
ATOM     20  C   UNL A   1      35.468  23.267  26.501  1.00  0.00     0.062 C 
ATOM     21  C   UNL A   1      35.989  24.073  25.313  1.00  0.00     0.017 C 
BRANCH  16  22
ATOM     22  C   UNL A   1      33.977  20.329  24.627  1.00  0.00     0.261 C 
BRANCH  22  23
ATOM     23  C   UNL A   1      32.589  19.949  24.087  1.00  0.00     0.058 C 
ATOM     24  C   UNL A   1      32.514  18.644  23.308  1.00  0.00     0.010 C 
ENDBRANCH  22  23
ENDBRANCH  16  22
ENDBRANCH  13  15
ENDBRANCH  11  13
ENDBRANCH   6  11
ENDBRANCH   3   5
ENDBRANCH   2   3
ENDBRANCH   1   2
BRANCH   1  25
ATOM     25  C   UNL A   1      31.193  31.094  25.765  1.00  0.00     0.275 C 
BRANCH  25  26
ATOM     26  O   UNL A   1      32.124  30.865  26.837  1.00  0.00    -0.458 OA
BRANCH  26  27
ATOM     27  C   UNL A   1      32.833  31.946  27.240  1.00  0.00     0.338 C 
ATOM     28  O   UNL A   1      32.469  33.108  27.252  1.00  0.00    -0.246 OA
BRANCH  27  29
ATOM     29  C   UNL A   1      34.139  31.507  27.755  1.00  0.00     0.060 A 
ATOM     30  C   UNL A   1      34.386  30.141  27.828  1.00  0.00     0.016 A 
ATOM     31  C   UNL A   1      35.053  32.406  28.293  1.00  0.00     0.016 A 
ATOM     32  C   UNL A   1      35.487  29.652  28.522  1.00  0.00     0.010 A 
ATOM     33  C   UNL A   1      36.220  31.916  28.900  1.00  0.00     0.010 A 
ATOM     34  C   UNL A   1      36.435  30.532  29.056  1.00  0.00    -0.014 A 
BRANCH  34  35
ATOM     35  C   UNL A   1      37.613  30.001  29.807  1.00  0.00     0.031 A 
ATOM     36  C   UNL A   1      37.789  30.337  31.269  1.00  0.00     0.074 A 
ATOM     37  C   UNL A   1      38.518  29.204  29.196  1.00  0.00     0.049 A 
ATOM     38  N   UNL A   1      38.817  30.126  32.050  1.00  0.00    -0.248 NA
ATOM     39  C   UNL A   1      36.663  31.010  31.936  1.00  0.00     0.031 C 
ATOM     40  C   UNL A   1      38.445  28.749  27.805  1.00  0.00     0.029 A 
ATOM     41  N   UNL A   1      39.677  28.631  29.664  1.00  0.00    -0.354 N 
ATOM     42  C   UNL A   1      38.490  30.697  33.277  1.00  0.00     0.074 A 
ATOM     43  C   UNL A   1      37.165  31.263  33.136  1.00  0.00     0.031 C 
ATOM     44  C   UNL A   1      39.489  27.948  27.544  1.00  0.00     0.029 A 
ATOM     45  C   UNL A   1      40.366  27.913  28.709  1.00  0.00     0.049 A 
ATOM     46  H   UNL A   1      39.987  28.725  30.594  1.00  0.00     0.167 HD
ATOM     47  C   UNL A   1      39.231  30.746  34.411  1.00  0.00     0.034 A 
ATOM     48  C   UNL A   1      41.587  27.341  28.740  1.00  0.00     0.034 A 
ATOM     49  C   UNL A   1      40.525  30.124  34.556  1.00  0.00     0.049 A 
ATOM     50  C   UNL A   1      42.406  27.451  30.003  1.00  0.00     0.074 A 
ATOM     51  C   UNL A   1      41.336  30.078  35.678  1.00  0.00     0.029 A 
ATOM     52  N   UNL A   1      41.197  29.435  33.555  1.00  0.00    -0.354 N 
ATOM     53  N   UNL A   1      42.094  28.023  31.144  1.00  0.00    -0.248 NA
ATOM     54  C   UNL A   1      43.745  26.848  29.981  1.00  0.00     0.031 C 
ATOM     55  C   UNL A   1      42.525  29.429  35.336  1.00  0.00     0.029 A 
ATOM     56  C   UNL A   1      42.425  28.993  34.025  1.00  0.00     0.049 A 
ATOM     57  H   UNL A   1      40.853  29.283  32.646  1.00  0.00     0.167 HD
ATOM     58  C   UNL A   1      43.187  27.817  31.981  1.00  0.00     0.074 A 
ATOM     59  C   UNL A   1      44.155  27.052  31.223  1.00  0.00     0.031 C 
ATOM     60  C   UNL A   1      43.378  28.227  33.261  1.00  0.00     0.034 A 
BRANCH  47  61
ATOM     61  C   UNL A   1      38.701  31.554  35.572  1.00  0.00     0.023 A 
ATOM     62  C   UNL A   1      38.093  30.964  36.691  1.00  0.00     0.031 A 
ATOM     63  C   UNL A   1      38.841  32.956  35.559  1.00  0.00     0.131 A 
ATOM     64  C   UNL A   1      37.610  31.774  37.732  1.00  0.00     0.055 A 
ATOM     65  C   UNL A   1      38.421  33.750  36.628  1.00  0.00     0.041 A 
ATOM     66  F   UNL A   1      39.396  33.576  34.507  1.00  0.00    -0.206 F 
ATOM     67  C   UNL A   1      37.794  33.159  37.720  1.00  0.00     0.022 A 
BRANCH  64  68
ATOM     68  S   UNL A   1      36.654  31.004  39.068  1.00  0.00     0.124 S 
ATOM     69  O   UNL A   1      37.637  30.958  40.146  1.00  0.00    -0.237 OA
ATOM     70  O   UNL A   1      35.551  31.942  39.248  1.00  0.00    -0.237 OA
ATOM     71  O   UNL A   1      36.280  29.703  38.516  1.00  0.00    -0.744 OA
ENDBRANCH  64  68
ENDBRANCH  47  61
BRANCH  48  72
ATOM     72  C   UNL A   1      42.159  26.683  27.525  1.00  0.00     0.023 A 
ATOM     73  C   UNL A   1      41.965  25.315  27.279  1.00  0.00     0.031 A 
ATOM     74  C   UNL A   1      42.988  27.396  26.638  1.00  0.00     0.131 A 
ATOM     75  C   UNL A   1      42.642  24.690  26.218  1.00  0.00     0.055 A 
ATOM     76  C   UNL A   1      43.597  26.787  25.540  1.00  0.00     0.041 A 
ATOM     77  F   UNL A   1      43.223  28.705  26.828  1.00  0.00    -0.206 F 
ATOM     78  C   UNL A   1      43.442  25.421  25.337  1.00  0.00     0.022 A 
BRANCH  75  79
ATOM     79  S   UNL A   1      42.576  22.882  26.093  1.00  0.00     0.124 S 
ATOM     80  O   UNL A   1      41.166  22.616  26.355  1.00  0.00    -0.237 OA
ATOM     81  O   UNL A   1      43.029  22.658  24.723  1.00  0.00    -0.237 OA
ATOM     82  O   UNL A   1      43.500  22.435  27.134  1.00  0.00    -0.744 OA
ENDBRANCH  75  79
ENDBRANCH  48  72
BRANCH  60  83
ATOM     83  C   UNL A   1      44.655  27.792  33.937  1.00  0.00     0.023 A 
ATOM     84  C   UNL A   1      44.750  26.575  34.635  1.00  0.00     0.031 A 
ATOM     85  C   UNL A   1      45.791  28.621  33.896  1.00  0.00     0.131 A 
ATOM     86  C   UNL A   1      45.934  26.250  35.313  1.00  0.00     0.055 A 
ATOM     87  C   UNL A   1      46.986  28.263  34.517  1.00  0.00     0.041 A 
ATOM     88  F   UNL A   1      45.755  29.797  33.246  1.00  0.00    -0.206 F 
ATOM     89  C   UNL A   1      47.058  27.077  35.243  1.00  0.00     0.022 A 
BRANCH  86  90
ATOM     90  S   UNL A   1      45.958  24.774  36.368  1.00  0.00     0.124 S 
ATOM     91  O   UNL A   1      47.014  23.978  35.751  1.00  0.00    -0.237 OA
ATOM     92  O   UNL A   1      46.264  25.333  37.680  1.00  0.00    -0.237 OA
ATOM     93  O   UNL A   1      44.608  24.231  36.226  1.00  0.00    -0.744 OA
ENDBRANCH  86  90
ENDBRANCH  60  83
ENDBRANCH  34  35
ENDBRANCH  27  29
ENDBRANCH  26  27
ENDBRANCH  25  26
ENDBRANCH   1  25
TORSDOF 19
ENDMDL
