MODEL 1
REMARK VINA RESULT:     -10.6      0.000      0.000
REMARK SMILES C[NH+](C)CCCNC(=O)[C@@H]1[C@@H](C(=O)OCCOC(=O)c2ccc(-c3c4nc(c(-c5cc(S(=O)(=O)[O-])ccc5F)c5ccc([nH]5)c(-c5cc(S(=O)(=O)[O-])ccc5F)c5nc(c(-c6cc(S(=O)(=O)[O-])ccc6F)c6ccc3[nH]6)C=C5)C=C4)cc2)C1(C)C
REMARK SMILES IDX 15 1 14 2 12 3 13 4 11 5 10 6 83 7 84 8 85 9 8 10 7 11 9 13
REMARK SMILES IDX 6 14 5 15 4 16 2 17 1 18 3 19 16 21 17 22 18 23 19 24 20 25
REMARK SMILES IDX 21 26 82 27 22 28 81 29 23 30 24 31 25 32 75 33 26 34 80 35
REMARK SMILES IDX 74 36 76 37 27 38 79 39 73 40 72 41 28 43 60 44 40 45 59 46
REMARK SMILES IDX 41 47 44 48 58 49 77 50 42 51 43 52 57 54 78 55 45 56 29 57
REMARK SMILES IDX 30 58 38 59 31 60 37 61 39 62 36 63 32 64 33 65 34 66 35 67
REMARK SMILES IDX 61 68 62 69 70 70 63 71 69 72 71 73 68 74 64 75 65 76 66 77
REMARK SMILES IDX 67 78 46 79 47 80 55 81 48 82 54 83 56 84 53 85 49 86 50 87
REMARK SMILES IDX 51 88 52 89
REMARK H PARENT 7 12 2 20 76 42 44 53
REMARK Flexibility Score: inf
ROOT
ATOM      1  C   UNL A   1      35.201  20.693  25.681  1.00  0.00     0.274 C 
ENDROOT
BRANCH   1   2
ATOM      2  O   UNL A   1      34.139  20.533  24.728  1.00  0.00    -0.462 OA
BRANCH   2   3
ATOM      3  C   UNL A   1      32.948  21.085  25.063  1.00  0.00     0.310 C 
ATOM      4  O   UNL A   1      31.868  20.512  25.032  1.00  0.00    -0.252 OA
BRANCH   3   5
ATOM      5  C   UNL A   1      33.052  22.464  25.585  1.00  0.00     0.118 C 
ATOM      6  C   UNL A   1      32.097  23.546  25.144  1.00  0.00     0.100 C 
ATOM      7  C   UNL A   1      33.592  23.694  24.864  1.00  0.00    -0.009 C 
ATOM      8  C   UNL A   1      33.973  23.719  23.405  1.00  0.00     0.013 C 
ATOM      9  C   UNL A   1      34.454  24.614  25.705  1.00  0.00     0.013 C 
BRANCH   6  10
ATOM     10  C   UNL A   1      31.416  24.354  26.179  1.00  0.00     0.224 C 
ATOM     11  N   UNL A   1      31.064  25.635  25.866  1.00  0.00    -0.356 N 
ATOM     12  H   UNL A   1      30.618  26.148  26.578  1.00  0.00     0.163 HD
ATOM     13  O   UNL A   1      31.167  23.884  27.282  1.00  0.00    -0.275 OA
BRANCH  11  14
ATOM     14  C   UNL A   1      31.267  26.331  24.613  1.00  0.00     0.121 C 
BRANCH  14  15
ATOM     15  C   UNL A   1      30.709  27.746  24.640  1.00  0.00     0.083 C 
BRANCH  15  16
ATOM     16  C   UNL A   1      31.194  28.690  23.531  1.00  0.00     0.263 C 
BRANCH  16  17
ATOM     17  N   UNL A   1      32.455  29.417  23.694  1.00  0.00    -0.340 N 
ATOM     18  C   UNL A   1      32.879  29.600  25.078  1.00  0.00     0.332 C 
ATOM     19  C   UNL A   1      33.542  28.923  22.859  1.00  0.00     0.332 C 
ATOM     20  H   UNL A   1      32.226  30.349  23.348  1.00  0.00     0.347 HD
ENDBRANCH  16  17
ENDBRANCH  15  16
ENDBRANCH  14  15
ENDBRANCH  11  14
ENDBRANCH   6  10
ENDBRANCH   3   5
ENDBRANCH   2   3
ENDBRANCH   1   2
BRANCH   1  21
ATOM     21  C   UNL A   1      36.542  20.395  25.009  1.00  0.00     0.275 C 
BRANCH  21  22
ATOM     22  O   UNL A   1      37.476  21.475  25.205  1.00  0.00    -0.458 OA
BRANCH  22  23
ATOM     23  C   UNL A   1      38.647  21.123  25.790  1.00  0.00     0.338 C 
ATOM     24  O   UNL A   1      39.163  20.019  25.801  1.00  0.00    -0.246 OA
BRANCH  23  25
ATOM     25  C   UNL A   1      39.299  22.316  26.350  1.00  0.00     0.060 A 
ATOM     26  C   UNL A   1      38.836  23.569  25.950  1.00  0.00     0.016 A 
ATOM     27  C   UNL A   1      40.412  22.208  27.184  1.00  0.00     0.016 A 
ATOM     28  C   UNL A   1      39.473  24.728  26.381  1.00  0.00     0.010 A 
ATOM     29  C   UNL A   1      41.051  23.374  27.623  1.00  0.00     0.010 A 
ATOM     30  C   UNL A   1      40.590  24.641  27.218  1.00  0.00    -0.014 A 
BRANCH  30  31
ATOM     31  C   UNL A   1      41.298  25.881  27.620  1.00  0.00     0.031 A 
ATOM     32  C   UNL A   1      40.577  26.929  28.417  1.00  0.00     0.074 A 
ATOM     33  C   UNL A   1      42.592  26.049  27.292  1.00  0.00     0.049 A 
ATOM     34  N   UNL A   1      40.983  28.115  28.791  1.00  0.00    -0.248 NA
ATOM     35  C   UNL A   1      39.210  26.596  28.840  1.00  0.00     0.031 C 
ATOM     36  C   UNL A   1      43.407  25.077  26.561  1.00  0.00     0.029 A 
ATOM     37  N   UNL A   1      43.447  27.096  27.524  1.00  0.00    -0.354 N 
ATOM     38  C   UNL A   1      39.915  28.681  29.480  1.00  0.00     0.074 A 
ATOM     39  C   UNL A   1      38.834  27.717  29.437  1.00  0.00     0.031 C 
ATOM     40  C   UNL A   1      44.641  25.577  26.398  1.00  0.00     0.029 A 
ATOM     41  C   UNL A   1      44.690  26.924  26.959  1.00  0.00     0.049 A 
ATOM     42  H   UNL A   1      43.196  27.893  28.044  1.00  0.00     0.167 HD
ATOM     43  C   UNL A   1      39.850  29.891  30.092  1.00  0.00     0.034 A 
ATOM     44  C   UNL A   1      45.733  27.771  26.864  1.00  0.00     0.034 A 
ATOM     45  C   UNL A   1      40.942  30.836  30.115  1.00  0.00     0.049 A 
ATOM     46  C   UNL A   1      45.617  29.138  27.484  1.00  0.00     0.074 A 
ATOM     47  C   UNL A   1      40.995  32.084  30.713  1.00  0.00     0.029 A 
ATOM     48  N   UNL A   1      42.174  30.646  29.495  1.00  0.00    -0.354 N 
ATOM     49  N   UNL A   1      44.600  29.671  28.122  1.00  0.00    -0.248 NA
ATOM     50  C   UNL A   1      46.786  30.017  27.371  1.00  0.00     0.031 C 
ATOM     51  C   UNL A   1      42.226  32.673  30.397  1.00  0.00     0.029 A 
ATOM     52  C   UNL A   1      42.976  31.765  29.666  1.00  0.00     0.049 A 
ATOM     53  H   UNL A   1      42.437  29.834  29.007  1.00  0.00     0.167 HD
ATOM     54  C   UNL A   1      45.011  30.946  28.496  1.00  0.00     0.074 A 
ATOM     55  C   UNL A   1      46.377  31.092  28.030  1.00  0.00     0.031 C 
ATOM     56  C   UNL A   1      44.326  31.908  29.166  1.00  0.00     0.034 A 
BRANCH  43  57
ATOM     57  C   UNL A   1      38.529  30.270  30.724  1.00  0.00     0.023 A 
ATOM     58  C   UNL A   1      37.511  30.909  29.994  1.00  0.00     0.031 A 
ATOM     59  C   UNL A   1      38.312  30.054  32.097  1.00  0.00     0.131 A 
ATOM     60  C   UNL A   1      36.371  31.395  30.654  1.00  0.00     0.055 A 
ATOM     61  C   UNL A   1      37.136  30.459  32.731  1.00  0.00     0.041 A 
ATOM     62  F   UNL A   1      39.253  29.468  32.854  1.00  0.00    -0.206 F 
ATOM     63  C   UNL A   1      36.166  31.153  32.014  1.00  0.00     0.022 A 
BRANCH  60  64
ATOM     64  S   UNL A   1      35.254  32.505  29.752  1.00  0.00     0.124 S 
ATOM     65  O   UNL A   1      34.718  31.616  28.725  1.00  0.00    -0.237 OA
ATOM     66  O   UNL A   1      34.317  32.920  30.790  1.00  0.00    -0.237 OA
ATOM     67  O   UNL A   1      36.140  33.554  29.254  1.00  0.00    -0.744 OA
ENDBRANCH  60  64
ENDBRANCH  43  57
BRANCH  44  68
ATOM     68  C   UNL A   1      46.943  27.370  26.093  1.00  0.00     0.023 A 
ATOM     69  C   UNL A   1      47.109  27.720  24.745  1.00  0.00     0.031 A 
ATOM     70  C   UNL A   1      47.960  26.616  26.709  1.00  0.00     0.131 A 
ATOM     71  C   UNL A   1      48.255  27.300  24.051  1.00  0.00     0.055 A 
ATOM     72  C   UNL A   1      49.119  26.242  26.030  1.00  0.00     0.041 A 
ATOM     73  F   UNL A   1      47.849  26.253  27.998  1.00  0.00    -0.206 F 
ATOM     74  C   UNL A   1      49.268  26.578  24.689  1.00  0.00     0.022 A 
BRANCH  71  75
ATOM     75  S   UNL A   1      48.385  27.665  22.279  1.00  0.00     0.124 S 
ATOM     76  O   UNL A   1      48.484  26.327  21.705  1.00  0.00    -0.237 OA
ATOM     77  O   UNL A   1      47.141  28.382  22.024  1.00  0.00    -0.237 OA
ATOM     78  O   UNL A   1      49.599  28.475  22.186  1.00  0.00    -0.744 OA
ENDBRANCH  71  75
ENDBRANCH  44  68
BRANCH  56  79
ATOM     79  C   UNL A   1      45.062  33.196  29.450  1.00  0.00     0.023 A 
ATOM     80  C   UNL A   1      45.049  34.269  28.541  1.00  0.00     0.031 A 
ATOM     81  C   UNL A   1      45.798  33.344  30.638  1.00  0.00     0.131 A 
ATOM     82  C   UNL A   1      45.803  35.422  28.810  1.00  0.00     0.055 A 
ATOM     83  C   UNL A   1      46.499  34.516  30.928  1.00  0.00     0.041 A 
ATOM     84  F   UNL A   1      45.848  32.350  31.539  1.00  0.00    -0.206 F 
ATOM     85  C   UNL A   1      46.514  35.558  30.006  1.00  0.00     0.022 A 
BRANCH  82  86
ATOM     86  S   UNL A   1      45.916  36.710  27.538  1.00  0.00     0.124 S 
ATOM     87  O   UNL A   1      47.048  37.502  28.008  1.00  0.00    -0.237 OA
ATOM     88  O   UNL A   1      46.142  35.932  26.324  1.00  0.00    -0.237 OA
ATOM     89  O   UNL A   1      44.619  37.379  27.610  1.00  0.00    -0.744 OA
ENDBRANCH  82  86
ENDBRANCH  56  79
ENDBRANCH  30  31
ENDBRANCH  23  25
ENDBRANCH  22  23
ENDBRANCH  21  22
ENDBRANCH   1  21
TORSDOF 19
ENDMDL
MODEL 2
REMARK VINA RESULT:     -10.4      5.196     10.251
REMARK SMILES C[NH+](C)CCCNC(=O)[C@@H]1[C@@H](C(=O)OCCOC(=O)c2ccc(-c3c4nc(c(-c5cc(S(=O)(=O)[O-])ccc5F)c5ccc([nH]5)c(-c5cc(S(=O)(=O)[O-])ccc5F)c5nc(c(-c6cc(S(=O)(=O)[O-])ccc6F)c6ccc3[nH]6)C=C5)C=C4)cc2)C1(C)C
REMARK SMILES IDX 15 1 14 2 12 3 13 4 11 5 10 6 83 7 84 8 85 9 8 10 7 11 9 13
REMARK SMILES IDX 6 14 5 15 4 16 2 17 1 18 3 19 16 21 17 22 18 23 19 24 20 25
REMARK SMILES IDX 21 26 82 27 22 28 81 29 23 30 24 31 25 32 75 33 26 34 80 35
REMARK SMILES IDX 74 36 76 37 27 38 79 39 73 40 72 41 28 43 60 44 40 45 59 46
REMARK SMILES IDX 41 47 44 48 58 49 77 50 42 51 43 52 57 54 78 55 45 56 29 57
REMARK SMILES IDX 30 58 38 59 31 60 37 61 39 62 36 63 32 64 33 65 34 66 35 67
REMARK SMILES IDX 61 68 62 69 70 70 63 71 69 72 71 73 68 74 64 75 65 76 66 77
REMARK SMILES IDX 67 78 46 79 47 80 55 81 48 82 54 83 56 84 53 85 49 86 50 87
REMARK SMILES IDX 51 88 52 89
REMARK H PARENT 7 12 2 20 76 42 44 53
REMARK Flexibility Score: inf
ROOT
ATOM      1  C   UNL A   1      31.029  29.762  24.519  1.00  0.00     0.274 C 
ENDROOT
BRANCH   1   2
ATOM      2  O   UNL A   1      30.555  28.429  24.272  1.00  0.00    -0.462 OA
BRANCH   2   3
ATOM      3  C   UNL A   1      30.497  28.047  22.974  1.00  0.00     0.310 C 
ATOM      4  O   UNL A   1      29.974  28.685  22.070  1.00  0.00    -0.252 OA
BRANCH   3   5
ATOM      5  C   UNL A   1      31.224  26.792  22.684  1.00  0.00     0.118 C 
ATOM      6  C   UNL A   1      32.256  26.244  23.639  1.00  0.00     0.100 C 
ATOM      7  C   UNL A   1      32.668  26.640  22.221  1.00  0.00    -0.009 C 
ATOM      8  C   UNL A   1      33.652  27.781  22.133  1.00  0.00     0.013 C 
ATOM      9  C   UNL A   1      32.902  25.589  21.155  1.00  0.00     0.013 C 
BRANCH   6  10
ATOM     10  C   UNL A   1      32.157  24.827  24.052  1.00  0.00     0.224 C 
ATOM     11  N   UNL A   1      33.290  24.203  24.484  1.00  0.00    -0.356 N 
ATOM     12  H   UNL A   1      33.192  23.259  24.746  1.00  0.00     0.163 HD
ATOM     13  O   UNL A   1      31.086  24.236  24.016  1.00  0.00    -0.275 OA
BRANCH  11  14
ATOM     14  C   UNL A   1      34.622  24.760  24.603  1.00  0.00     0.121 C 
BRANCH  14  15
ATOM     15  C   UNL A   1      35.444  24.068  25.679  1.00  0.00     0.083 C 
BRANCH  15  16
ATOM     16  C   UNL A   1      34.672  23.163  26.649  1.00  0.00     0.263 C 
BRANCH  16  17
ATOM     17  N   UNL A   1      34.870  21.712  26.605  1.00  0.00    -0.340 N 
ATOM     18  C   UNL A   1      33.654  20.925  26.781  1.00  0.00     0.332 C 
ATOM     19  C   UNL A   1      35.651  21.250  25.466  1.00  0.00     0.332 C 
ATOM     20  H   UNL A   1      35.438  21.536  27.434  1.00  0.00     0.347 HD
ENDBRANCH  16  17
ENDBRANCH  15  16
ENDBRANCH  14  15
ENDBRANCH  11  14
ENDBRANCH   6  10
ENDBRANCH   3   5
ENDBRANCH   2   3
ENDBRANCH   1   2
BRANCH   1  21
ATOM     21  C   UNL A   1      32.418  29.703  25.155  1.00  0.00     0.275 C 
BRANCH  21  22
ATOM     22  O   UNL A   1      32.350  29.923  26.579  1.00  0.00    -0.458 OA
BRANCH  22  23
ATOM     23  C   UNL A   1      32.857  31.107  27.002  1.00  0.00     0.338 C 
ATOM     24  O   UNL A   1      32.311  32.196  26.970  1.00  0.00    -0.246 OA
BRANCH  23  25
ATOM     25  C   UNL A   1      34.170  30.888  27.626  1.00  0.00     0.060 A 
ATOM     26  C   UNL A   1      34.540  29.581  27.942  1.00  0.00     0.016 A 
ATOM     27  C   UNL A   1      34.989  31.959  27.982  1.00  0.00     0.016 A 
ATOM     28  C   UNL A   1      35.731  29.328  28.612  1.00  0.00     0.010 A 
ATOM     29  C   UNL A   1      36.192  31.705  28.652  1.00  0.00     0.010 A 
ATOM     30  C   UNL A   1      36.567  30.388  28.978  1.00  0.00    -0.014 A 
BRANCH  30  31
ATOM     31  C   UNL A   1      37.805  30.110  29.747  1.00  0.00     0.031 A 
ATOM     32  C   UNL A   1      38.852  29.198  29.174  1.00  0.00     0.074 A 
ATOM     33  C   UNL A   1      37.997  30.696  30.942  1.00  0.00     0.049 A 
ATOM     34  N   UNL A   1      39.957  28.757  29.717  1.00  0.00    -0.248 NA
ATOM     35  C   UNL A   1      38.613  28.713  27.808  1.00  0.00     0.031 C 
ATOM     36  C   UNL A   1      37.069  31.636  31.575  1.00  0.00     0.029 A 
ATOM     37  N   UNL A   1      39.027  30.586  31.841  1.00  0.00    -0.354 N 
ATOM     38  C   UNL A   1      40.541  27.926  28.767  1.00  0.00     0.074 A 
ATOM     39  C   UNL A   1      39.644  27.900  27.630  1.00  0.00     0.031 C 
ATOM     40  C   UNL A   1      37.570  32.011  32.762  1.00  0.00     0.029 A 
ATOM     41  C   UNL A   1      38.821  31.297  33.000  1.00  0.00     0.049 A 
ATOM     42  H   UNL A   1      39.836  30.052  31.671  1.00  0.00     0.167 HD
ATOM     43  C   UNL A   1      41.717  27.253  28.840  1.00  0.00     0.034 A 
ATOM     44  C   UNL A   1      39.534  31.333  34.143  1.00  0.00     0.034 A 
ATOM     45  C   UNL A   1      42.591  27.291  29.991  1.00  0.00     0.049 A 
ATOM     46  C   UNL A   1      40.798  30.520  34.236  1.00  0.00     0.074 A 
ATOM     47  C   UNL A   1      43.810  26.662  30.173  1.00  0.00     0.029 A 
ATOM     48  N   UNL A   1      42.330  27.989  31.167  1.00  0.00    -0.354 N 
ATOM     49  N   UNL A   1      41.337  29.726  33.338  1.00  0.00    -0.248 NA
ATOM     50  C   UNL A   1      41.549  30.607  35.493  1.00  0.00     0.031 C 
ATOM     51  C   UNL A   1      44.249  26.920  31.478  1.00  0.00     0.029 A 
ATOM     52  C   UNL A   1      43.344  27.774  32.088  1.00  0.00     0.049 A 
ATOM     53  H   UNL A   1      41.538  28.552  31.322  1.00  0.00     0.167 HD
ATOM     54  C   UNL A   1      42.497  29.227  33.920  1.00  0.00     0.074 A 
ATOM     55  C   UNL A   1      42.590  29.827  35.236  1.00  0.00     0.031 C 
ATOM     56  C   UNL A   1      43.406  28.355  33.412  1.00  0.00     0.034 A 
BRANCH  43  57
ATOM     57  C   UNL A   1      42.079  26.372  27.665  1.00  0.00     0.023 A 
ATOM     58  C   UNL A   1      41.659  25.032  27.582  1.00  0.00     0.031 A 
ATOM     59  C   UNL A   1      42.917  26.860  26.646  1.00  0.00     0.131 A 
ATOM     60  C   UNL A   1      42.155  24.203  26.563  1.00  0.00     0.055 A 
ATOM     61  C   UNL A   1      43.334  26.054  25.585  1.00  0.00     0.041 A 
ATOM     62  F   UNL A   1      43.369  28.123  26.678  1.00  0.00    -0.206 F 
ATOM     63  C   UNL A   1      42.971  24.711  25.550  1.00  0.00     0.022 A 
BRANCH  60  64
ATOM     64  S   UNL A   1      41.870  22.415  26.686  1.00  0.00     0.124 S 
ATOM     65  O   UNL A   1      42.618  22.077  27.895  1.00  0.00    -0.237 OA
ATOM     66  O   UNL A   1      40.418  22.334  26.790  1.00  0.00    -0.237 OA
ATOM     67  O   UNL A   1      42.438  21.890  25.446  1.00  0.00    -0.744 OA
ENDBRANCH  60  64
ENDBRANCH  43  57
BRANCH  44  68
ATOM     68  C   UNL A   1      39.025  32.111  35.308  1.00  0.00     0.023 A 
ATOM     69  C   UNL A   1      38.411  31.485  36.402  1.00  0.00     0.031 A 
ATOM     70  C   UNL A   1      39.149  33.513  35.333  1.00  0.00     0.131 A 
ATOM     71  C   UNL A   1      37.925  32.261  37.467  1.00  0.00     0.055 A 
ATOM     72  C   UNL A   1      38.709  34.275  36.415  1.00  0.00     0.041 A 
ATOM     73  F   UNL A   1      39.728  34.161  34.308  1.00  0.00    -0.206 F 
ATOM     74  C   UNL A   1      38.085  33.648  37.488  1.00  0.00     0.022 A 
BRANCH  71  75
ATOM     75  S   UNL A   1      37.029  31.434  38.811  1.00  0.00     0.124 S 
ATOM     76  O   UNL A   1      35.803  32.221  38.880  1.00  0.00    -0.237 OA
ATOM     77  O   UNL A   1      36.892  30.076  38.295  1.00  0.00    -0.237 OA
ATOM     78  O   UNL A   1      37.926  31.576  39.956  1.00  0.00    -0.744 OA
ENDBRANCH  71  75
ENDBRANCH  44  68
BRANCH  56  79
ATOM     79  C   UNL A   1      44.591  28.020  34.286  1.00  0.00     0.023 A 
ATOM     80  C   UNL A   1      44.566  26.934  35.180  1.00  0.00     0.031 A 
ATOM     81  C   UNL A   1      45.754  28.808  34.235  1.00  0.00     0.131 A 
ATOM     82  C   UNL A   1      45.661  26.699  36.025  1.00  0.00     0.055 A 
ATOM     83  C   UNL A   1      46.863  28.534  35.037  1.00  0.00     0.041 A 
ATOM     84  F   UNL A   1      45.831  29.859  33.404  1.00  0.00    -0.206 F 
ATOM     85  C   UNL A   1      46.816  27.483  35.947  1.00  0.00     0.022 A 
BRANCH  82  86
ATOM     86  S   UNL A   1      45.526  25.409  37.292  1.00  0.00     0.124 S 
ATOM     87  O   UNL A   1      45.549  24.191  36.489  1.00  0.00    -0.237 OA
ATOM     88  O   UNL A   1      46.707  25.653  38.115  1.00  0.00    -0.237 OA
ATOM     89  O   UNL A   1      44.250  25.697  37.943  1.00  0.00    -0.744 OA
ENDBRANCH  82  86
ENDBRANCH  56  79
ENDBRANCH  30  31
ENDBRANCH  23  25
ENDBRANCH  22  23
ENDBRANCH  21  22
ENDBRANCH   1  21
TORSDOF 19
ENDMDL
MODEL 3
REMARK VINA RESULT:     -10.0      1.113      7.765
REMARK SMILES C[NH+](C)CCCNC(=O)[C@@H]1[C@@H](C(=O)OCCOC(=O)c2ccc(-c3c4nc(c(-c5cc(S(=O)(=O)[O-])ccc5F)c5ccc([nH]5)c(-c5cc(S(=O)(=O)[O-])ccc5F)c5nc(c(-c6cc(S(=O)(=O)[O-])ccc6F)c6ccc3[nH]6)C=C5)C=C4)cc2)C1(C)C
REMARK SMILES IDX 15 1 14 2 12 3 13 4 11 5 10 6 83 7 84 8 85 9 8 10 7 11 9 13
REMARK SMILES IDX 6 14 5 15 4 16 2 17 1 18 3 19 16 21 17 22 18 23 19 24 20 25
REMARK SMILES IDX 21 26 82 27 22 28 81 29 23 30 24 31 25 32 75 33 26 34 80 35
REMARK SMILES IDX 74 36 76 37 27 38 79 39 73 40 72 41 28 43 60 44 40 45 59 46
REMARK SMILES IDX 41 47 44 48 58 49 77 50 42 51 43 52 57 54 78 55 45 56 29 57
REMARK SMILES IDX 30 58 38 59 31 60 37 61 39 62 36 63 32 64 33 65 34 66 35 67
REMARK SMILES IDX 61 68 62 69 70 70 63 71 69 72 71 73 68 74 64 75 65 76 66 77
REMARK SMILES IDX 67 78 46 79 47 80 55 81 48 82 54 83 56 84 53 85 49 86 50 87
REMARK SMILES IDX 51 88 52 89
REMARK H PARENT 7 12 2 20 76 42 44 53
REMARK Flexibility Score: inf
ROOT
ATOM      1  C   UNL A   1      36.375  21.488  24.580  1.00  0.00     0.274 C 
ENDROOT
BRANCH   1   2
ATOM      2  O   UNL A   1      35.304  20.633  25.009  1.00  0.00    -0.462 OA
BRANCH   2   3
ATOM      3  C   UNL A   1      34.049  21.102  24.811  1.00  0.00     0.310 C 
ATOM      4  O   UNL A   1      33.143  20.494  24.257  1.00  0.00    -0.252 OA
BRANCH   3   5
ATOM      5  C   UNL A   1      33.800  22.426  25.421  1.00  0.00     0.118 C 
ATOM      6  C   UNL A   1      32.443  23.082  25.349  1.00  0.00     0.100 C 
ATOM      7  C   UNL A   1      33.651  23.766  24.709  1.00  0.00    -0.009 C 
ATOM      8  C   UNL A   1      33.581  23.923  23.210  1.00  0.00     0.013 C 
ATOM      9  C   UNL A   1      34.330  24.940  25.384  1.00  0.00     0.013 C 
BRANCH   6  10
ATOM     10  C   UNL A   1      31.835  23.589  26.598  1.00  0.00     0.224 C 
ATOM     11  N   UNL A   1      30.917  24.594  26.504  1.00  0.00    -0.356 N 
ATOM     12  H   UNL A   1      30.535  24.913  27.354  1.00  0.00     0.163 HD
ATOM     13  O   UNL A   1      32.141  23.115  27.685  1.00  0.00    -0.275 OA
BRANCH  11  14
ATOM     14  C   UNL A   1      30.435  25.249  25.306  1.00  0.00     0.121 C 
BRANCH  14  15
ATOM     15  C   UNL A   1      30.969  26.667  25.167  1.00  0.00     0.083 C 
BRANCH  15  16
ATOM     16  C   UNL A   1      31.479  27.330  26.453  1.00  0.00     0.263 C 
BRANCH  16  17
ATOM     17  N   UNL A   1      32.313  28.533  26.371  1.00  0.00    -0.340 N 
ATOM     18  C   UNL A   1      31.897  29.623  27.246  1.00  0.00     0.332 C 
ATOM     19  C   UNL A   1      33.743  28.276  26.472  1.00  0.00     0.332 C 
ATOM     20  H   UNL A   1      32.145  28.860  25.420  1.00  0.00     0.347 HD
ENDBRANCH  16  17
ENDBRANCH  15  16
ENDBRANCH  14  15
ENDBRANCH  11  14
ENDBRANCH   6  10
ENDBRANCH   3   5
ENDBRANCH   2   3
ENDBRANCH   1   2
BRANCH   1  21
ATOM     21  C   UNL A   1      37.333  21.734  25.746  1.00  0.00     0.275 C 
BRANCH  21  22
ATOM     22  O   UNL A   1      38.694  21.440  25.375  1.00  0.00    -0.458 OA
BRANCH  22  23
ATOM     23  C   UNL A   1      39.558  21.310  26.412  1.00  0.00     0.338 C 
ATOM     24  O   UNL A   1      40.007  20.275  26.872  1.00  0.00    -0.246 OA
BRANCH  23  25
ATOM     25  C   UNL A   1      39.985  22.640  26.870  1.00  0.00     0.060 A 
ATOM     26  C   UNL A   1      39.552  23.755  26.152  1.00  0.00     0.016 A 
ATOM     27  C   UNL A   1      40.874  22.788  27.933  1.00  0.00     0.016 A 
ATOM     28  C   UNL A   1      39.997  25.028  26.490  1.00  0.00     0.010 A 
ATOM     29  C   UNL A   1      41.320  24.070  28.278  1.00  0.00     0.010 A 
ATOM     30  C   UNL A   1      40.889  25.197  27.554  1.00  0.00    -0.014 A 
BRANCH  30  31
ATOM     31  C   UNL A   1      41.405  26.553  27.865  1.00  0.00     0.031 A 
ATOM     32  C   UNL A   1      42.812  26.921  27.494  1.00  0.00     0.074 A 
ATOM     33  C   UNL A   1      40.600  27.456  28.454  1.00  0.00     0.049 A 
ATOM     34  N   UNL A   1      43.482  28.015  27.753  1.00  0.00    -0.248 NA
ATOM     35  C   UNL A   1      43.568  25.914  26.736  1.00  0.00     0.031 C 
ATOM     36  C   UNL A   1      39.201  27.225  28.816  1.00  0.00     0.029 A 
ATOM     37  N   UNL A   1      40.842  28.745  28.857  1.00  0.00    -0.354 N 
ATOM     38  C   UNL A   1      44.746  27.824  27.206  1.00  0.00     0.074 A 
ATOM     39  C   UNL A   1      44.755  26.493  26.634  1.00  0.00     0.031 C 
ATOM     40  C   UNL A   1      38.711  28.332  29.395  1.00  0.00     0.029 A 
ATOM     41  C   UNL A   1      39.773  29.328  29.496  1.00  0.00     0.049 A 
ATOM     42  H   UNL A   1      41.697  29.207  28.702  1.00  0.00     0.167 HD
ATOM     43  C   UNL A   1      45.796  28.683  27.183  1.00  0.00     0.034 A 
ATOM     44  C   UNL A   1      39.673  30.512  30.133  1.00  0.00     0.034 A 
ATOM     45  C   UNL A   1      45.762  30.004  27.768  1.00  0.00     0.049 A 
ATOM     46  C   UNL A   1      40.872  31.422  30.164  1.00  0.00     0.074 A 
ATOM     47  C   UNL A   1      46.758  30.965  27.794  1.00  0.00     0.029 A 
ATOM     48  N   UNL A   1      44.675  30.547  28.446  1.00  0.00    -0.354 N 
ATOM     49  N   UNL A   1      42.069  31.230  29.656  1.00  0.00    -0.248 NA
ATOM     50  C   UNL A   1      40.709  32.708  30.852  1.00  0.00     0.031 C 
ATOM     51  C   UNL A   1      46.300  32.055  28.546  1.00  0.00     0.029 A 
ATOM     52  C   UNL A   1      44.990  31.811  28.926  1.00  0.00     0.049 A 
ATOM     53  H   UNL A   1      43.808  30.099  28.569  1.00  0.00     0.167 HD
ATOM     54  C   UNL A   1      42.798  32.376  29.955  1.00  0.00     0.074 A 
ATOM     55  C   UNL A   1      41.899  33.262  30.668  1.00  0.00     0.031 C 
ATOM     56  C   UNL A   1      44.091  32.671  29.665  1.00  0.00     0.034 A 
BRANCH  43  57
ATOM     57  C   UNL A   1      47.081  28.182  26.561  1.00  0.00     0.023 A 
ATOM     58  C   UNL A   1      47.320  28.264  25.178  1.00  0.00     0.031 A 
ATOM     59  C   UNL A   1      48.050  27.545  27.356  1.00  0.00     0.131 A 
ATOM     60  C   UNL A   1      48.446  27.637  24.621  1.00  0.00     0.055 A 
ATOM     61  C   UNL A   1      49.214  27.002  26.807  1.00  0.00     0.041 A 
ATOM     62  F   UNL A   1      47.872  27.415  28.681  1.00  0.00    -0.206 F 
ATOM     63  C   UNL A   1      49.407  27.026  25.429  1.00  0.00     0.022 A 
BRANCH  60  64
ATOM     64  S   UNL A   1      48.540  27.469  22.817  1.00  0.00     0.124 S 
ATOM     65  O   UNL A   1      49.802  28.143  22.521  1.00  0.00    -0.237 OA
ATOM     66  O   UNL A   1      48.531  26.022  22.634  1.00  0.00    -0.237 OA
ATOM     67  O   UNL A   1      47.347  28.166  22.344  1.00  0.00    -0.744 OA
ENDBRANCH  60  64
ENDBRANCH  43  57
BRANCH  44  68
ATOM     68  C   UNL A   1      38.415  30.862  30.850  1.00  0.00     0.023 A 
ATOM     69  C   UNL A   1      37.372  31.552  30.216  1.00  0.00     0.031 A 
ATOM     70  C   UNL A   1      38.246  30.505  32.201  1.00  0.00     0.131 A 
ATOM     71  C   UNL A   1      36.213  31.881  30.938  1.00  0.00     0.055 A 
ATOM     72  C   UNL A   1      37.073  30.791  32.900  1.00  0.00     0.041 A 
ATOM     73  F   UNL A   1      39.216  29.844  32.855  1.00  0.00    -0.206 F 
ATOM     74  C   UNL A   1      36.051  31.491  32.269  1.00  0.00     0.022 A 
BRANCH  71  75
ATOM     75  S   UNL A   1      34.933  32.878  30.126  1.00  0.00     0.124 S 
ATOM     76  O   UNL A   1      35.711  33.998  29.608  1.00  0.00    -0.237 OA
ATOM     77  O   UNL A   1      34.407  31.948  29.132  1.00  0.00    -0.237 OA
ATOM     78  O   UNL A   1      34.015  33.206  31.216  1.00  0.00    -0.744 OA
ENDBRANCH  71  75
ENDBRANCH  44  68
BRANCH  56  79
ATOM     79  C   UNL A   1      44.596  34.024  30.106  1.00  0.00     0.023 A 
ATOM     80  C   UNL A   1      44.457  35.164  29.294  1.00  0.00     0.031 A 
ATOM     81  C   UNL A   1      45.238  34.171  31.348  1.00  0.00     0.131 A 
ATOM     82  C   UNL A   1      45.002  36.389  29.710  1.00  0.00     0.055 A 
ATOM     83  C   UNL A   1      45.726  35.404  31.782  1.00  0.00     0.041 A 
ATOM     84  F   UNL A   1      45.401  33.115  32.161  1.00  0.00    -0.206 F 
ATOM     85  C   UNL A   1      45.621  36.519  30.956  1.00  0.00     0.022 A 
BRANCH  82  86
ATOM     86  S   UNL A   1      44.971  37.794  28.563  1.00  0.00     0.124 S 
ATOM     87  O   UNL A   1      43.588  38.247  28.676  1.00  0.00    -0.237 OA
ATOM     88  O   UNL A   1      45.981  38.682  29.129  1.00  0.00    -0.237 OA
ATOM     89  O   UNL A   1      45.324  37.197  27.277  1.00  0.00    -0.744 OA
ENDBRANCH  82  86
ENDBRANCH  56  79
ENDBRANCH  30  31
ENDBRANCH  23  25
ENDBRANCH  22  23
ENDBRANCH  21  22
ENDBRANCH   1  21
TORSDOF 19
ENDMDL
