MODEL 1
REMARK VINA RESULT:     -11.4      0.000      0.000
REMARK SMILES CCCCOc1ccc(-c2nc(C)c(C(=O)OCCOC(=O)c3ccc(-c4c5nc(c(-c6cc(S(=O)(=O)[O-])ccc6F)c6ccc([nH]6)c(-c6cc(S(=O)(=O)[O-])ccc6F)c6nc(c(-c7cc(S(=O)(=O)[O-])ccc7F)c7ccc4[nH]7)C=C6)C=C5)cc3)s2)cc1
REMARK SMILES IDX 18 1 17 2 15 3 16 4 14 5 10 6 11 7 86 8 12 9 13 10 9 11 6 12
REMARK SMILES IDX 7 13 88 14 8 15 87 16 5 17 4 18 3 19 2 20 1 21 19 22 20 23
REMARK SMILES IDX 21 24 22 25 23 26 24 27 85 28 25 29 84 30 26 31 27 32 28 33
REMARK SMILES IDX 78 34 29 35 83 36 77 37 79 38 30 39 82 40 76 41 75 42 31 44
REMARK SMILES IDX 63 45 43 46 62 47 44 48 47 49 61 50 80 51 45 52 46 53 60 55
REMARK SMILES IDX 81 56 48 57 32 58 33 59 41 60 34 61 40 62 42 63 39 64 35 65
REMARK SMILES IDX 36 66 37 67 38 68 64 69 65 70 73 71 66 72 72 73 74 74 71 75
REMARK SMILES IDX 67 76 68 77 69 78 70 79 49 80 50 81 58 82 51 83 57 84 59 85
REMARK SMILES IDX 56 86 52 87 53 88 54 89 55 90
REMARK H PARENT 79 43 47 54
REMARK Flexibility Score: inf
ROOT
ATOM      1  C   UNL A   1      35.173  20.335  25.323  1.00  0.00     0.275 C 
ENDROOT
BRANCH   1   2
ATOM      2  O   UNL A   1      34.096  20.388  24.363  1.00  0.00    -0.458 OA
BRANCH   2   3
ATOM      3  C   UNL A   1      32.848  20.630  24.864  1.00  0.00     0.350 C 
ATOM      4  O   UNL A   1      32.068  19.744  25.188  1.00  0.00    -0.245 OA
BRANCH   3   5
ATOM      5  C   UNL A   1      32.617  22.051  25.026  1.00  0.00     0.135 A 
ATOM      6  C   UNL A   1      31.870  24.330  24.601  1.00  0.00     0.124 A 
ATOM      7  N   UNL A   1      32.251  24.212  25.856  1.00  0.00    -0.240 NA
ATOM      8  S   UNL A   1      32.223  22.974  23.622  1.00  0.00    -0.106 S 
ATOM      9  C   UNL A   1      32.668  22.907  26.118  1.00  0.00     0.064 A 
ATOM     10  C   UNL A   1      33.138  22.628  27.500  1.00  0.00     0.068 C 
BRANCH   6  11
ATOM     11  C   UNL A   1      31.254  25.514  23.999  1.00  0.00     0.011 A 
ATOM     12  C   UNL A   1      30.034  27.723  22.791  1.00  0.00     0.119 A 
ATOM     13  C   UNL A   1      29.318  26.959  23.709  1.00  0.00     0.047 A 
ATOM     14  C   UNL A   1      31.371  27.446  22.530  1.00  0.00     0.047 A 
ATOM     15  C   UNL A   1      29.926  25.849  24.305  1.00  0.00     0.015 A 
ATOM     16  C   UNL A   1      31.971  26.326  23.104  1.00  0.00     0.015 A 
BRANCH  12  17
ATOM     17  O   UNL A   1      29.463  28.794  22.165  1.00  0.00    -0.494 OA
BRANCH  17  18
ATOM     18  C   UNL A   1      28.183  29.129  22.724  1.00  0.00     0.229 C 
BRANCH  18  19
ATOM     19  C   UNL A   1      28.113  30.585  23.206  1.00  0.00     0.041 C 
BRANCH  19  20
ATOM     20  C   UNL A   1      28.783  31.633  22.306  1.00  0.00     0.000 C 
ATOM     21  C   UNL A   1      28.780  33.044  22.873  1.00  0.00     0.004 C 
ENDBRANCH  19  20
ENDBRANCH  18  19
ENDBRANCH  17  18
ENDBRANCH  12  17
ENDBRANCH   6  11
ENDBRANCH   3   5
ENDBRANCH   2   3
ENDBRANCH   1   2
BRANCH   1  22
ATOM     22  C   UNL A   1      36.468  20.922  24.755  1.00  0.00     0.275 C 
BRANCH  22  23
ATOM     23  O   UNL A   1      37.173  21.688  25.750  1.00  0.00    -0.458 OA
BRANCH  23  24
ATOM     24  C   UNL A   1      38.472  21.349  25.918  1.00  0.00     0.338 C 
ATOM     25  O   UNL A   1      39.014  20.313  25.575  1.00  0.00    -0.246 OA
BRANCH  24  26
ATOM     26  C   UNL A   1      39.207  22.499  26.462  1.00  0.00     0.060 A 
ATOM     27  C   UNL A   1      38.797  23.764  26.056  1.00  0.00     0.016 A 
ATOM     28  C   UNL A   1      40.331  22.349  27.270  1.00  0.00     0.016 A 
ATOM     29  C   UNL A   1      39.521  24.894  26.415  1.00  0.00     0.010 A 
ATOM     30  C   UNL A   1      41.030  23.494  27.684  1.00  0.00     0.010 A 
ATOM     31  C   UNL A   1      40.637  24.776  27.252  1.00  0.00    -0.014 A 
BRANCH  31  32
ATOM     32  C   UNL A   1      41.381  25.997  27.661  1.00  0.00     0.031 A 
ATOM     33  C   UNL A   1      40.711  27.044  28.507  1.00  0.00     0.074 A 
ATOM     34  C   UNL A   1      42.669  26.152  27.292  1.00  0.00     0.049 A 
ATOM     35  N   UNL A   1      41.137  28.233  28.847  1.00  0.00    -0.248 NA
ATOM     36  C   UNL A   1      39.379  26.709  29.033  1.00  0.00     0.031 C 
ATOM     37  C   UNL A   1      43.451  25.174  26.530  1.00  0.00     0.029 A 
ATOM     38  N   UNL A   1      43.551  27.182  27.506  1.00  0.00    -0.354 N 
ATOM     39  C   UNL A   1      40.116  28.803  29.601  1.00  0.00     0.074 A 
ATOM     40  C   UNL A   1      39.042  27.834  29.646  1.00  0.00     0.031 C 
ATOM     41  C   UNL A   1      44.696  25.642  26.359  1.00  0.00     0.029 A 
ATOM     42  C   UNL A   1      44.777  26.988  26.912  1.00  0.00     0.049 A 
ATOM     43  H   UNL A   1      43.327  27.982  28.033  1.00  0.00     0.167 HD
ATOM     44  C   UNL A   1      40.086  30.024  30.194  1.00  0.00     0.034 A 
ATOM     45  C   UNL A   1      45.831  27.818  26.778  1.00  0.00     0.034 A 
ATOM     46  C   UNL A   1      41.178  30.968  30.141  1.00  0.00     0.049 A 
ATOM     47  C   UNL A   1      45.732  29.206  27.359  1.00  0.00     0.074 A 
ATOM     48  C   UNL A   1      41.257  32.227  30.712  1.00  0.00     0.029 A 
ATOM     49  N   UNL A   1      42.378  30.762  29.472  1.00  0.00    -0.354 N 
ATOM     50  N   UNL A   1      44.746  29.749  28.034  1.00  0.00    -0.248 NA
ATOM     51  C   UNL A   1      46.882  30.093  27.149  1.00  0.00     0.031 C 
ATOM     52  C   UNL A   1      42.468  32.810  30.323  1.00  0.00     0.029 A 
ATOM     53  C   UNL A   1      43.186  31.885  29.582  1.00  0.00     0.049 A 
ATOM     54  H   UNL A   1      42.622  29.939  28.991  1.00  0.00     0.167 HD
ATOM     55  C   UNL A   1      45.169  31.038  28.348  1.00  0.00     0.074 A 
ATOM     56  C   UNL A   1      46.506  31.179  27.808  1.00  0.00     0.031 C 
ATOM     57  C   UNL A   1      44.511  32.018  29.021  1.00  0.00     0.034 A 
BRANCH  44  58
ATOM     58  C   UNL A   1      38.806  30.428  30.890  1.00  0.00     0.023 A 
ATOM     59  C   UNL A   1      37.741  31.039  30.203  1.00  0.00     0.031 A 
ATOM     60  C   UNL A   1      38.662  30.223  32.274  1.00  0.00     0.131 A 
ATOM     61  C   UNL A   1      36.615  31.486  30.912  1.00  0.00     0.055 A 
ATOM     62  C   UNL A   1      37.504  30.595  32.959  1.00  0.00     0.041 A 
ATOM     63  F   UNL A   1      39.652  29.667  32.990  1.00  0.00    -0.206 F 
ATOM     64  C   UNL A   1      36.478  31.245  32.282  1.00  0.00     0.022 A 
BRANCH  61  65
ATOM     65  S   UNL A   1      35.401  32.521  30.050  1.00  0.00     0.124 S 
ATOM     66  O   UNL A   1      35.119  31.719  28.861  1.00  0.00    -0.237 OA
ATOM     67  O   UNL A   1      34.321  32.619  31.025  1.00  0.00    -0.237 OA
ATOM     68  O   UNL A   1      36.127  33.763  29.795  1.00  0.00    -0.744 OA
ENDBRANCH  61  65
ENDBRANCH  44  58
BRANCH  45  69
ATOM     69  C   UNL A   1      47.034  27.397  26.000  1.00  0.00     0.023 A 
ATOM     70  C   UNL A   1      47.199  27.769  24.657  1.00  0.00     0.031 A 
ATOM     71  C   UNL A   1      48.017  26.572  26.580  1.00  0.00     0.131 A 
ATOM     72  C   UNL A   1      48.297  27.284  23.927  1.00  0.00     0.055 A 
ATOM     73  C   UNL A   1      49.140  26.146  25.869  1.00  0.00     0.041 A 
ATOM     74  F   UNL A   1      47.906  26.178  27.859  1.00  0.00    -0.206 F 
ATOM     75  C   UNL A   1      49.277  26.491  24.529  1.00  0.00     0.022 A 
BRANCH  72  76
ATOM     76  S   UNL A   1      48.373  27.620  22.147  1.00  0.00     0.124 S 
ATOM     77  O   UNL A   1      49.511  28.528  22.065  1.00  0.00    -0.237 OA
ATOM     78  O   UNL A   1      48.577  26.285  21.595  1.00  0.00    -0.237 OA
ATOM     79  O   UNL A   1      47.072  28.219  21.858  1.00  0.00    -0.744 OA
ENDBRANCH  72  76
ENDBRANCH  45  69
BRANCH  57  80
ATOM     80  C   UNL A   1      45.255  33.314  29.236  1.00  0.00     0.023 A 
ATOM     81  C   UNL A   1      45.184  34.370  28.311  1.00  0.00     0.031 A 
ATOM     82  C   UNL A   1      46.060  33.487  30.376  1.00  0.00     0.131 A 
ATOM     83  C   UNL A   1      45.951  35.527  28.510  1.00  0.00     0.055 A 
ATOM     84  C   UNL A   1      46.769  34.667  30.603  1.00  0.00     0.041 A 
ATOM     85  F   UNL A   1      46.170  32.510  31.290  1.00  0.00    -0.206 F 
ATOM     86  C   UNL A   1      46.728  35.691  29.660  1.00  0.00     0.022 A 
BRANCH  83  87
ATOM     87  S   UNL A   1      46.000  36.776  27.197  1.00  0.00     0.124 S 
ATOM     88  O   UNL A   1      46.462  35.995  26.053  1.00  0.00    -0.237 OA
ATOM     89  O   UNL A   1      44.614  37.228  27.143  1.00  0.00    -0.237 OA
ATOM     90  O   UNL A   1      46.955  37.764  27.698  1.00  0.00    -0.744 OA
ENDBRANCH  83  87
ENDBRANCH  57  80
ENDBRANCH  31  32
ENDBRANCH  24  26
ENDBRANCH  23  24
ENDBRANCH  22  23
ENDBRANCH   1  22
TORSDOF 19
ENDMDL
MODEL 2
REMARK VINA RESULT:     -11.1      5.187     10.648
REMARK SMILES CCCCOc1ccc(-c2nc(C)c(C(=O)OCCOC(=O)c3ccc(-c4c5nc(c(-c6cc(S(=O)(=O)[O-])ccc6F)c6ccc([nH]6)c(-c6cc(S(=O)(=O)[O-])ccc6F)c6nc(c(-c7cc(S(=O)(=O)[O-])ccc7F)c7ccc4[nH]7)C=C6)C=C5)cc3)s2)cc1
REMARK SMILES IDX 18 1 17 2 15 3 16 4 14 5 10 6 11 7 86 8 12 9 13 10 9 11 6 12
REMARK SMILES IDX 7 13 88 14 8 15 87 16 5 17 4 18 3 19 2 20 1 21 19 22 20 23
REMARK SMILES IDX 21 24 22 25 23 26 24 27 85 28 25 29 84 30 26 31 27 32 28 33
REMARK SMILES IDX 78 34 29 35 83 36 77 37 79 38 30 39 82 40 76 41 75 42 31 44
REMARK SMILES IDX 63 45 43 46 62 47 44 48 47 49 61 50 80 51 45 52 46 53 60 55
REMARK SMILES IDX 81 56 48 57 32 58 33 59 41 60 34 61 40 62 42 63 39 64 35 65
REMARK SMILES IDX 36 66 37 67 38 68 64 69 65 70 73 71 66 72 72 73 74 74 71 75
REMARK SMILES IDX 67 76 68 77 69 78 70 79 49 80 50 81 58 82 51 83 57 84 59 85
REMARK SMILES IDX 56 86 52 87 53 88 54 89 55 90
REMARK H PARENT 79 43 47 54
REMARK Flexibility Score: inf
ROOT
ATOM      1  C   UNL A   1      31.452  29.195  24.689  1.00  0.00     0.275 C 
ENDROOT
BRANCH   1   2
ATOM      2  O   UNL A   1      32.333  28.098  25.007  1.00  0.00    -0.458 OA
BRANCH   2   3
ATOM      3  C   UNL A   1      33.177  27.688  24.012  1.00  0.00     0.350 C 
ATOM      4  O   UNL A   1      34.033  28.407  23.515  1.00  0.00    -0.245 OA
BRANCH   3   5
ATOM      5  C   UNL A   1      32.969  26.289  23.695  1.00  0.00     0.135 A 
ATOM      6  C   UNL A   1      32.869  23.865  23.911  1.00  0.00     0.124 A 
ATOM      7  N   UNL A   1      32.221  24.244  22.829  1.00  0.00    -0.240 NA
ATOM      8  S   UNL A   1      33.754  25.109  24.680  1.00  0.00    -0.106 S 
ATOM      9  C   UNL A   1      32.258  25.632  22.700  1.00  0.00     0.064 A 
ATOM     10  C   UNL A   1      31.572  26.204  21.513  1.00  0.00     0.068 C 
BRANCH   6  11
ATOM     11  C   UNL A   1      32.934  22.500  24.439  1.00  0.00     0.011 A 
ATOM     12  C   UNL A   1      32.970  19.896  25.461  1.00  0.00     0.119 A 
ATOM     13  C   UNL A   1      32.577  20.112  24.142  1.00  0.00     0.047 A 
ATOM     14  C   UNL A   1      33.418  20.952  26.248  1.00  0.00     0.047 A 
ATOM     15  C   UNL A   1      32.551  21.416  23.635  1.00  0.00     0.015 A 
ATOM     16  C   UNL A   1      33.368  22.254  25.752  1.00  0.00     0.015 A 
BRANCH  12  17
ATOM     17  O   UNL A   1      32.976  18.642  26.000  1.00  0.00    -0.494 OA
BRANCH  17  18
ATOM     18  C   UNL A   1      32.549  17.645  25.058  1.00  0.00     0.229 C 
BRANCH  18  19
ATOM     19  C   UNL A   1      32.572  16.228  25.649  1.00  0.00     0.041 C 
BRANCH  19  20
ATOM     20  C   UNL A   1      33.680  15.295  25.140  1.00  0.00     0.000 C 
ATOM     21  C   UNL A   1      35.082  15.878  25.225  1.00  0.00     0.004 C 
ENDBRANCH  19  20
ENDBRANCH  18  19
ENDBRANCH  17  18
ENDBRANCH  12  17
ENDBRANCH   6  11
ENDBRANCH   3   5
ENDBRANCH   2   3
ENDBRANCH   1   2
BRANCH   1  22
ATOM     22  C   UNL A   1      31.650  30.377  25.641  1.00  0.00     0.275 C 
BRANCH  22  23
ATOM     23  O   UNL A   1      33.002  30.430  26.131  1.00  0.00    -0.458 OA
BRANCH  23  24
ATOM     24  C   UNL A   1      33.273  31.473  26.951  1.00  0.00     0.338 C 
ATOM     25  O   UNL A   1      32.544  32.413  27.213  1.00  0.00    -0.246 OA
BRANCH  24  26
ATOM     26  C   UNL A   1      34.558  31.239  27.625  1.00  0.00     0.060 A 
ATOM     27  C   UNL A   1      34.803  29.954  28.097  1.00  0.00     0.016 A 
ATOM     28  C   UNL A   1      35.462  32.267  27.880  1.00  0.00     0.016 A 
ATOM     29  C   UNL A   1      35.930  29.682  28.862  1.00  0.00     0.010 A 
ATOM     30  C   UNL A   1      36.631  31.981  28.601  1.00  0.00     0.010 A 
ATOM     31  C   UNL A   1      36.871  30.689  29.107  1.00  0.00    -0.014 A 
BRANCH  31  32
ATOM     32  C   UNL A   1      38.093  30.376  29.895  1.00  0.00     0.031 A 
ATOM     33  C   UNL A   1      39.125  29.430  29.347  1.00  0.00     0.074 A 
ATOM     34  C   UNL A   1      38.286  30.962  31.094  1.00  0.00     0.049 A 
ATOM     35  N   UNL A   1      40.179  28.922  29.932  1.00  0.00    -0.248 NA
ATOM     36  C   UNL A   1      38.941  28.992  27.956  1.00  0.00     0.031 C 
ATOM     37  C   UNL A   1      37.391  31.950  31.703  1.00  0.00     0.029 A 
ATOM     38  N   UNL A   1      39.292  30.819  32.017  1.00  0.00    -0.354 N 
ATOM     39  C   UNL A   1      40.769  28.081  28.995  1.00  0.00     0.074 A 
ATOM     40  C   UNL A   1      39.938  28.131  27.810  1.00  0.00     0.031 C 
ATOM     41  C   UNL A   1      37.898  32.337  32.883  1.00  0.00     0.029 A 
ATOM     42  C   UNL A   1      39.099  31.559  33.161  1.00  0.00     0.049 A 
ATOM     43  H   UNL A   1      40.077  30.243  31.873  1.00  0.00     0.167 HD
ATOM     44  C   UNL A   1      41.897  27.337  29.119  1.00  0.00     0.034 A 
ATOM     45  C   UNL A   1      39.778  31.573  34.325  1.00  0.00     0.034 A 
ATOM     46  C   UNL A   1      42.714  27.313  30.311  1.00  0.00     0.049 A 
ATOM     47  C   UNL A   1      40.969  30.660  34.475  1.00  0.00     0.074 A 
ATOM     48  C   UNL A   1      43.880  26.604  30.543  1.00  0.00     0.029 A 
ATOM     49  N   UNL A   1      42.448  28.025  31.474  1.00  0.00    -0.354 N 
ATOM     50  N   UNL A   1      41.493  29.838  33.596  1.00  0.00    -0.248 NA
ATOM     51  C   UNL A   1      41.650  30.671  35.774  1.00  0.00     0.031 C 
ATOM     52  C   UNL A   1      44.271  26.823  31.867  1.00  0.00     0.029 A 
ATOM     53  C   UNL A   1      43.403  27.739  32.439  1.00  0.00     0.049 A 
ATOM     54  H   UNL A   1      41.692  28.643  31.597  1.00  0.00     0.167 HD
ATOM     55  C   UNL A   1      42.581  29.248  34.233  1.00  0.00     0.074 A 
ATOM     56  C   UNL A   1      42.649  29.827  35.559  1.00  0.00     0.031 C 
ATOM     57  C   UNL A   1      43.446  28.311  33.765  1.00  0.00     0.034 A 
BRANCH  44  58
ATOM     58  C   UNL A   1      42.271  26.438  27.963  1.00  0.00     0.023 A 
ATOM     59  C   UNL A   1      41.774  25.128  27.841  1.00  0.00     0.031 A 
ATOM     60  C   UNL A   1      43.165  26.894  26.976  1.00  0.00     0.131 A 
ATOM     61  C   UNL A   1      42.228  24.300  26.803  1.00  0.00     0.055 A 
ATOM     62  C   UNL A   1      43.548  26.093  25.899  1.00  0.00     0.041 A 
ATOM     63  F   UNL A   1      43.693  28.127  27.049  1.00  0.00    -0.206 F 
ATOM     64  C   UNL A   1      43.093  24.782  25.816  1.00  0.00     0.022 A 
BRANCH  61  65
ATOM     65  S   UNL A   1      41.795  22.539  26.843  1.00  0.00     0.124 S 
ATOM     66  O   UNL A   1      40.356  22.594  27.094  1.00  0.00    -0.237 OA
ATOM     67  O   UNL A   1      42.194  22.085  25.516  1.00  0.00    -0.237 OA
ATOM     68  O   UNL A   1      42.592  22.014  27.950  1.00  0.00    -0.744 OA
ENDBRANCH  61  65
ENDBRANCH  44  58
BRANCH  45  69
ATOM     69  C   UNL A   1      39.308  32.413  35.467  1.00  0.00     0.023 A 
ATOM     70  C   UNL A   1      39.751  33.735  35.628  1.00  0.00     0.031 A 
ATOM     71  C   UNL A   1      38.443  31.884  36.445  1.00  0.00     0.131 A 
ATOM     72  C   UNL A   1      39.361  34.469  36.760  1.00  0.00     0.055 A 
ATOM     73  C   UNL A   1      38.007  32.640  37.534  1.00  0.00     0.041 A 
ATOM     74  F   UNL A   1      37.996  30.623  36.347  1.00  0.00    -0.206 F 
ATOM     75  C   UNL A   1      38.478  33.938  37.703  1.00  0.00     0.022 A 
BRANCH  72  76
ATOM     76  S   UNL A   1      40.107  36.099  37.038  1.00  0.00     0.124 S 
ATOM     77  O   UNL A   1      39.870  36.755  35.757  1.00  0.00    -0.237 OA
ATOM     78  O   UNL A   1      39.332  36.599  38.168  1.00  0.00    -0.237 OA
ATOM     79  O   UNL A   1      41.504  35.787  37.332  1.00  0.00    -0.744 OA
ENDBRANCH  72  76
ENDBRANCH  45  69
BRANCH  57  80
ATOM     80  C   UNL A   1      44.560  27.889  34.693  1.00  0.00     0.023 A 
ATOM     81  C   UNL A   1      44.342  26.986  35.748  1.00  0.00     0.031 A 
ATOM     82  C   UNL A   1      45.855  28.412  34.529  1.00  0.00     0.131 A 
ATOM     83  C   UNL A   1      45.385  26.679  36.634  1.00  0.00     0.055 A 
ATOM     84  C   UNL A   1      46.906  28.051  35.372  1.00  0.00     0.041 A 
ATOM     85  F   UNL A   1      46.121  29.282  33.542  1.00  0.00    -0.206 F 
ATOM     86  C   UNL A   1      46.671  27.191  36.441  1.00  0.00     0.022 A 
BRANCH  83  87
ATOM     87  S   UNL A   1      45.017  25.681  38.102  1.00  0.00     0.124 S 
ATOM     88  O   UNL A   1      44.020  26.502  38.784  1.00  0.00    -0.237 OA
ATOM     89  O   UNL A   1      44.527  24.437  37.520  1.00  0.00    -0.237 OA
ATOM     90  O   UNL A   1      46.307  25.581  38.782  1.00  0.00    -0.744 OA
ENDBRANCH  83  87
ENDBRANCH  57  80
ENDBRANCH  31  32
ENDBRANCH  24  26
ENDBRANCH  23  24
ENDBRANCH  22  23
ENDBRANCH   1  22
TORSDOF 19
ENDMDL
MODEL 3
REMARK VINA RESULT:     -10.8      1.986      2.621
REMARK SMILES CCCCOc1ccc(-c2nc(C)c(C(=O)OCCOC(=O)c3ccc(-c4c5nc(c(-c6cc(S(=O)(=O)[O-])ccc6F)c6ccc([nH]6)c(-c6cc(S(=O)(=O)[O-])ccc6F)c6nc(c(-c7cc(S(=O)(=O)[O-])ccc7F)c7ccc4[nH]7)C=C6)C=C5)cc3)s2)cc1
REMARK SMILES IDX 18 1 17 2 15 3 16 4 14 5 10 6 11 7 86 8 12 9 13 10 9 11 6 12
REMARK SMILES IDX 7 13 88 14 8 15 87 16 5 17 4 18 3 19 2 20 1 21 19 22 20 23
REMARK SMILES IDX 21 24 22 25 23 26 24 27 85 28 25 29 84 30 26 31 27 32 28 33
REMARK SMILES IDX 78 34 29 35 83 36 77 37 79 38 30 39 82 40 76 41 75 42 31 44
REMARK SMILES IDX 63 45 43 46 62 47 44 48 47 49 61 50 80 51 45 52 46 53 60 55
REMARK SMILES IDX 81 56 48 57 32 58 33 59 41 60 34 61 40 62 42 63 39 64 35 65
REMARK SMILES IDX 36 66 37 67 38 68 64 69 65 70 73 71 66 72 72 73 74 74 71 75
REMARK SMILES IDX 67 76 68 77 69 78 70 79 49 80 50 81 58 82 51 83 57 84 59 85
REMARK SMILES IDX 56 86 52 87 53 88 54 89 55 90
REMARK H PARENT 79 43 47 54
REMARK Flexibility Score: inf
ROOT
ATOM      1  C   UNL A   1      34.900  20.694  25.410  1.00  0.00     0.275 C 
ENDROOT
BRANCH   1   2
ATOM      2  O   UNL A   1      34.133  19.692  24.710  1.00  0.00    -0.458 OA
BRANCH   2   3
ATOM      3  C   UNL A   1      32.774  19.774  24.828  1.00  0.00     0.350 C 
ATOM      4  O   UNL A   1      32.079  18.865  25.262  1.00  0.00    -0.245 OA
BRANCH   3   5
ATOM      5  C   UNL A   1      32.296  21.089  24.450  1.00  0.00     0.135 A 
ATOM      6  C   UNL A   1      31.759  23.463  24.542  1.00  0.00     0.124 A 
ATOM      7  N   UNL A   1      31.664  23.032  23.302  1.00  0.00    -0.240 NA
ATOM      8  S   UNL A   1      31.987  22.231  25.706  1.00  0.00    -0.106 S 
ATOM      9  C   UNL A   1      31.983  21.675  23.232  1.00  0.00     0.064 A 
ATOM     10  C   UNL A   1      31.907  21.047  21.887  1.00  0.00     0.068 C 
BRANCH   6  11
ATOM     11  C   UNL A   1      31.624  24.854  24.980  1.00  0.00     0.011 A 
ATOM     12  C   UNL A   1      31.441  27.531  25.771  1.00  0.00     0.119 A 
ATOM     13  C   UNL A   1      30.996  27.156  24.505  1.00  0.00     0.047 A 
ATOM     14  C   UNL A   1      31.900  26.576  26.671  1.00  0.00     0.047 A 
ATOM     15  C   UNL A   1      31.097  25.818  24.108  1.00  0.00     0.015 A 
ATOM     16  C   UNL A   1      32.025  25.248  26.268  1.00  0.00     0.015 A 
BRANCH  12  17
ATOM     17  O   UNL A   1      31.389  28.832  26.181  1.00  0.00    -0.494 OA
BRANCH  17  18
ATOM     18  C   UNL A   1      32.431  29.147  27.117  1.00  0.00     0.229 C 
BRANCH  18  19
ATOM     19  C   UNL A   1      33.682  29.721  26.436  1.00  0.00     0.041 C 
BRANCH  19  20
ATOM     20  C   UNL A   1      34.708  30.399  27.355  1.00  0.00     0.000 C 
ATOM     21  C   UNL A   1      35.621  29.437  28.098  1.00  0.00     0.004 C 
ENDBRANCH  19  20
ENDBRANCH  18  19
ENDBRANCH  17  18
ENDBRANCH  12  17
ENDBRANCH   6  11
ENDBRANCH   3   5
ENDBRANCH   2   3
ENDBRANCH   1   2
BRANCH   1  22
ATOM     22  C   UNL A   1      36.341  20.768  24.898  1.00  0.00     0.275 C 
BRANCH  22  23
ATOM     23  O   UNL A   1      37.122  21.696  25.672  1.00  0.00    -0.458 OA
BRANCH  23  24
ATOM     24  C   UNL A   1      38.403  21.320  25.894  1.00  0.00     0.338 C 
ATOM     25  O   UNL A   1      38.927  20.266  25.579  1.00  0.00    -0.246 OA
BRANCH  24  26
ATOM     26  C   UNL A   1      39.150  22.451  26.459  1.00  0.00     0.060 A 
ATOM     27  C   UNL A   1      38.746  23.729  26.087  1.00  0.00     0.016 A 
ATOM     28  C   UNL A   1      40.279  22.275  27.255  1.00  0.00     0.016 A 
ATOM     29  C   UNL A   1      39.481  24.845  26.466  1.00  0.00     0.010 A 
ATOM     30  C   UNL A   1      40.989  23.405  27.690  1.00  0.00     0.010 A 
ATOM     31  C   UNL A   1      40.602  24.699  27.292  1.00  0.00    -0.014 A 
BRANCH  31  32
ATOM     32  C   UNL A   1      41.357  25.905  27.724  1.00  0.00     0.031 A 
ATOM     33  C   UNL A   1      40.684  26.964  28.553  1.00  0.00     0.074 A 
ATOM     34  C   UNL A   1      42.658  26.036  27.391  1.00  0.00     0.049 A 
ATOM     35  N   UNL A   1      41.123  28.144  28.907  1.00  0.00    -0.248 NA
ATOM     36  C   UNL A   1      39.333  26.653  29.041  1.00  0.00     0.031 C 
ATOM     37  C   UNL A   1      43.442  25.044  26.649  1.00  0.00     0.029 A 
ATOM     38  N   UNL A   1      43.553  27.049  27.631  1.00  0.00    -0.354 N 
ATOM     39  C   UNL A   1      40.093  28.732  29.634  1.00  0.00     0.074 A 
ATOM     40  C   UNL A   1      38.999  27.784  29.647  1.00  0.00     0.031 C 
ATOM     41  C   UNL A   1      44.700  25.489  26.514  1.00  0.00     0.029 A 
ATOM     42  C   UNL A   1      44.792  26.832  27.071  1.00  0.00     0.049 A 
ATOM     43  H   UNL A   1      43.330  27.852  28.154  1.00  0.00     0.167 HD
ATOM     44  C   UNL A   1      40.070  29.952  30.229  1.00  0.00     0.034 A 
ATOM     45  C   UNL A   1      45.864  27.642  26.969  1.00  0.00     0.034 A 
ATOM     46  C   UNL A   1      41.181  30.875  30.208  1.00  0.00     0.049 A 
ATOM     47  C   UNL A   1      45.776  29.030  27.549  1.00  0.00     0.074 A 
ATOM     48  C   UNL A   1      41.268  32.131  30.784  1.00  0.00     0.029 A 
ATOM     49  N   UNL A   1      42.395  30.648  29.572  1.00  0.00    -0.354 N 
ATOM     50  N   UNL A   1      44.782  29.592  28.198  1.00  0.00    -0.248 NA
ATOM     51  C   UNL A   1      46.948  29.896  27.373  1.00  0.00     0.031 C 
ATOM     52  C   UNL A   1      42.500  32.692  30.429  1.00  0.00     0.029 A 
ATOM     53  C   UNL A   1      43.221  31.754  29.707  1.00  0.00     0.049 A 
ATOM     54  H   UNL A   1      42.636  29.820  29.096  1.00  0.00     0.167 HD
ATOM     55  C   UNL A   1      45.220  30.872  28.527  1.00  0.00     0.074 A 
ATOM     56  C   UNL A   1      46.574  30.988  28.024  1.00  0.00     0.031 C 
ATOM     57  C   UNL A   1      44.563  31.863  29.183  1.00  0.00     0.034 A 
BRANCH  44  58
ATOM     58  C   UNL A   1      38.779  30.380  30.889  1.00  0.00     0.023 A 
ATOM     59  C   UNL A   1      37.908  31.312  30.297  1.00  0.00     0.031 A 
ATOM     60  C   UNL A   1      38.429  29.865  32.151  1.00  0.00     0.131 A 
ATOM     61  C   UNL A   1      36.772  31.751  30.995  1.00  0.00     0.055 A 
ATOM     62  C   UNL A   1      37.255  30.244  32.804  1.00  0.00     0.041 A 
ATOM     63  F   UNL A   1      39.231  28.991  32.780  1.00  0.00    -0.206 F 
ATOM     64  C   UNL A   1      36.426  31.204  32.234  1.00  0.00     0.022 A 
BRANCH  61  65
ATOM     65  S   UNL A   1      35.835  33.156  30.333  1.00  0.00     0.124 S 
ATOM     66  O   UNL A   1      35.457  33.862  31.556  1.00  0.00    -0.237 OA
ATOM     67  O   UNL A   1      36.821  33.823  29.490  1.00  0.00    -0.237 OA
ATOM     68  O   UNL A   1      34.727  32.525  29.620  1.00  0.00    -0.744 OA
ENDBRANCH  61  65
ENDBRANCH  44  58
BRANCH  45  69
ATOM     69  C   UNL A   1      47.080  27.199  26.224  1.00  0.00     0.023 A 
ATOM     70  C   UNL A   1      48.107  26.488  26.864  1.00  0.00     0.031 A 
ATOM     71  C   UNL A   1      47.254  27.525  24.865  1.00  0.00     0.131 A 
ATOM     72  C   UNL A   1      49.277  26.163  26.158  1.00  0.00     0.055 A 
ATOM     73  C   UNL A   1      48.390  27.143  24.151  1.00  0.00     0.041 A 
ATOM     74  F   UNL A   1      46.309  28.213  24.204  1.00  0.00    -0.206 F 
ATOM     75  C   UNL A   1      49.417  26.469  24.803  1.00  0.00     0.022 A 
BRANCH  72  76
ATOM     76  S   UNL A   1      50.661  25.422  27.066  1.00  0.00     0.124 S 
ATOM     77  O   UNL A   1      51.582  25.091  25.985  1.00  0.00    -0.237 OA
ATOM     78  O   UNL A   1      51.068  26.514  27.943  1.00  0.00    -0.237 OA
ATOM     79  O   UNL A   1      50.052  24.278  27.741  1.00  0.00    -0.744 OA
ENDBRANCH  72  76
ENDBRANCH  45  69
BRANCH  57  80
ATOM     80  C   UNL A   1      45.325  33.144  29.421  1.00  0.00     0.023 A 
ATOM     81  C   UNL A   1      45.351  34.178  28.469  1.00  0.00     0.031 A 
ATOM     82  C   UNL A   1      46.052  33.325  30.612  1.00  0.00     0.131 A 
ATOM     83  C   UNL A   1      46.134  35.319  28.697  1.00  0.00     0.055 A 
ATOM     84  C   UNL A   1      46.774  34.491  30.862  1.00  0.00     0.041 A 
ATOM     85  F   UNL A   1      46.068  32.369  31.554  1.00  0.00    -0.206 F 
ATOM     86  C   UNL A   1      46.830  35.491  29.896  1.00  0.00     0.022 A 
BRANCH  83  87
ATOM     87  S   UNL A   1      46.311  36.534  27.362  1.00  0.00     0.124 S 
ATOM     88  O   UNL A   1      46.241  35.689  26.173  1.00  0.00    -0.237 OA
ATOM     89  O   UNL A   1      45.171  37.415  27.586  1.00  0.00    -0.237 OA
ATOM     90  O   UNL A   1      47.619  37.136  27.618  1.00  0.00    -0.744 OA
ENDBRANCH  83  87
ENDBRANCH  57  80
ENDBRANCH  31  32
ENDBRANCH  24  26
ENDBRANCH  23  24
ENDBRANCH  22  23
ENDBRANCH   1  22
TORSDOF 19
ENDMDL
