MODEL 1
REMARK VINA RESULT:     -10.8      0.000      0.000
REMARK SMILES O=C(/C=C/C(=O)OCCOC(=O)c1ccc(-c2c3nc(c(-c4cc(S(=O)(=O)[O-])ccc4F)c4ccc([nH]4)c(-c4cc(S(=O)(=O)[O-])ccc4F)c4nc(c(-c5cc(S(=O)(=O)[O-])ccc5F)c5ccc2[nH]5)C=C4)C=C3)cc1)NCc1ccc(-c2cccs2)s1
REMARK SMILES IDX 8 1 7 2 5 3 6 4 4 5 3 6 2 7 1 8 76 9 77 11 78 12 79 13 87 14
REMARK SMILES IDX 80 15 81 16 82 17 83 18 86 19 84 20 85 21 9 22 10 23 11 24
REMARK SMILES IDX 12 25 13 26 14 27 75 28 15 29 74 30 16 31 17 32 18 33 68 34
REMARK SMILES IDX 19 35 73 36 67 37 69 38 20 39 72 40 66 41 65 42 21 44 53 45
REMARK SMILES IDX 33 46 52 47 34 48 37 49 51 50 70 51 35 52 36 53 50 55 71 56
REMARK SMILES IDX 38 57 22 58 23 59 31 60 24 61 30 62 32 63 29 64 25 65 26 66
REMARK SMILES IDX 27 67 28 68 54 69 55 70 63 71 56 72 62 73 64 74 61 75 57 76
REMARK SMILES IDX 58 77 59 78 60 79 39 80 40 81 48 82 41 83 47 84 49 85 46 86
REMARK SMILES IDX 42 87 43 88 44 89 45 90
REMARK H PARENT 76 10 69 43 37 54
REMARK Flexibility Score: inf
ROOT
ATOM      1  C   UNL A   1      31.467  29.135  24.703  1.00  0.00     0.275 C 
ENDROOT
BRANCH   1   2
ATOM      2  O   UNL A   1      30.356  29.480  23.854  1.00  0.00    -0.459 OA
BRANCH   2   3
ATOM      3  C   UNL A   1      30.202  28.719  22.746  1.00  0.00     0.331 C 
ATOM      4  O   UNL A   1      29.251  28.750  21.977  1.00  0.00    -0.247 OA
BRANCH   3   5
ATOM      5  C   UNL A   1      31.359  27.843  22.488  1.00  0.00     0.099 C 
ATOM      6  C   UNL A   1      31.282  26.591  22.016  1.00  0.00     0.078 C 
BRANCH   6   7
ATOM      7  C   UNL A   1      32.494  25.762  21.818  1.00  0.00     0.244 C 
ATOM      8  O   UNL A   1      33.456  26.214  21.210  1.00  0.00    -0.270 OA
ATOM      9  N   UNL A   1      32.397  24.489  22.304  1.00  0.00    -0.348 N 
ATOM     10  H   UNL A   1      31.546  24.211  22.712  1.00  0.00     0.164 HD
BRANCH   9  11
ATOM     11  C   UNL A   1      33.477  23.528  22.252  1.00  0.00     0.163 C 
BRANCH  11  12
ATOM     12  C   UNL A   1      34.369  23.700  23.447  1.00  0.00     0.024 A 
ATOM     13  C   UNL A   1      34.055  24.285  24.658  1.00  0.00     0.018 A 
ATOM     14  S   UNL A   1      36.012  23.201  23.414  1.00  0.00    -0.138 S 
ATOM     15  C   UNL A   1      35.143  24.248  25.580  1.00  0.00     0.022 A 
ATOM     16  C   UNL A   1      36.264  23.640  25.051  1.00  0.00     0.045 A 
BRANCH  16  17
ATOM     17  C   UNL A   1      37.511  23.360  25.717  1.00  0.00     0.044 A 
ATOM     18  C   UNL A   1      38.300  24.230  26.446  1.00  0.00     0.021 A 
ATOM     19  S   UNL A   1      38.226  21.799  25.637  1.00  0.00    -0.143 S 
ATOM     20  C   UNL A   1      39.500  23.618  26.919  1.00  0.00     0.012 A 
ATOM     21  C   UNL A   1      39.590  22.300  26.535  1.00  0.00     0.065 A 
ENDBRANCH  16  17
ENDBRANCH  11  12
ENDBRANCH   9  11
ENDBRANCH   6   7
ENDBRANCH   3   5
ENDBRANCH   2   3
ENDBRANCH   1   2
BRANCH   1  22
ATOM     22  C   UNL A   1      31.783  30.254  25.700  1.00  0.00     0.275 C 
BRANCH  22  23
ATOM     23  O   UNL A   1      33.076  30.092  26.314  1.00  0.00    -0.458 OA
BRANCH  23  24
ATOM     24  C   UNL A   1      33.494  31.144  27.060  1.00  0.00     0.338 C 
ATOM     25  O   UNL A   1      32.856  32.145  27.339  1.00  0.00    -0.246 OA
BRANCH  24  26
ATOM     26  C   UNL A   1      34.828  30.864  27.620  1.00  0.00     0.060 A 
ATOM     27  C   UNL A   1      35.150  29.534  27.913  1.00  0.00     0.016 A 
ATOM     28  C   UNL A   1      35.722  31.893  27.924  1.00  0.00     0.016 A 
ATOM     29  C   UNL A   1      36.365  29.230  28.524  1.00  0.00     0.010 A 
ATOM     30  C   UNL A   1      36.942  31.584  28.536  1.00  0.00     0.010 A 
ATOM     31  C   UNL A   1      37.266  30.252  28.851  1.00  0.00    -0.014 A 
BRANCH  31  32
ATOM     32  C   UNL A   1      38.528  29.934  29.568  1.00  0.00     0.031 A 
ATOM     33  C   UNL A   1      38.770  30.502  30.938  1.00  0.00     0.074 A 
ATOM     34  C   UNL A   1      39.449  29.141  28.988  1.00  0.00     0.049 A 
ATOM     35  N   UNL A   1      39.837  30.422  31.691  1.00  0.00    -0.248 NA
ATOM     36  C   UNL A   1      37.666  31.266  31.538  1.00  0.00     0.031 C 
ATOM     37  C   UNL A   1      39.305  28.498  27.680  1.00  0.00     0.029 A 
ATOM     38  N   UNL A   1      40.693  28.749  29.415  1.00  0.00    -0.354 N 
ATOM     39  C   UNL A   1      39.543  31.141  32.845  1.00  0.00     0.074 A 
ATOM     40  C   UNL A   1      38.202  31.662  32.685  1.00  0.00     0.031 C 
ATOM     41  C   UNL A   1      40.421  27.801  27.410  1.00  0.00     0.029 A 
ATOM     42  C   UNL A   1      41.379  27.987  28.496  1.00  0.00     0.049 A 
ATOM     43  H   UNL A   1      41.060  28.990  30.296  1.00  0.00     0.167 HD
ATOM     44  C   UNL A   1      40.325  31.346  33.934  1.00  0.00     0.034 A 
ATOM     45  C   UNL A   1      42.646  27.525  28.515  1.00  0.00     0.034 A 
ATOM     46  C   UNL A   1      41.656  30.809  34.082  1.00  0.00     0.049 A 
ATOM     47  C   UNL A   1      43.517  27.829  29.711  1.00  0.00     0.074 A 
ATOM     48  C   UNL A   1      42.515  30.925  35.163  1.00  0.00     0.029 A 
ATOM     49  N   UNL A   1      42.327  30.066  33.121  1.00  0.00    -0.354 N 
ATOM     50  N   UNL A   1      43.218  28.494  30.802  1.00  0.00    -0.248 NA
ATOM     51  C   UNL A   1      44.894  27.317  29.679  1.00  0.00     0.031 C 
ATOM     52  C   UNL A   1      43.727  30.313  34.828  1.00  0.00     0.029 A 
ATOM     53  C   UNL A   1      43.600  29.749  33.569  1.00  0.00     0.049 A 
ATOM     54  H   UNL A   1      41.954  29.803  32.249  1.00  0.00     0.167 HD
ATOM     55  C   UNL A   1      44.358  28.443  31.601  1.00  0.00     0.074 A 
ATOM     56  C   UNL A   1      45.345  27.678  30.870  1.00  0.00     0.031 C 
ATOM     57  C   UNL A   1      44.570  28.976  32.831  1.00  0.00     0.034 A 
BRANCH  44  58
ATOM     58  C   UNL A   1      39.787  32.234  35.027  1.00  0.00     0.023 A 
ATOM     59  C   UNL A   1      39.079  31.719  36.126  1.00  0.00     0.031 A 
ATOM     60  C   UNL A   1      40.006  33.623  34.972  1.00  0.00     0.131 A 
ATOM     61  C   UNL A   1      38.576  32.593  37.102  1.00  0.00     0.055 A 
ATOM     62  C   UNL A   1      39.559  34.479  35.979  1.00  0.00     0.041 A 
ATOM     63  F   UNL A   1      40.659  34.170  33.935  1.00  0.00    -0.206 F 
ATOM     64  C   UNL A   1      38.832  33.966  37.049  1.00  0.00     0.022 A 
BRANCH  61  65
ATOM     65  S   UNL A   1      37.498  31.924  38.398  1.00  0.00     0.124 S 
ATOM     66  O   UNL A   1      38.355  32.032  39.577  1.00  0.00    -0.237 OA
ATOM     67  O   UNL A   1      36.355  32.829  38.357  1.00  0.00    -0.237 OA
ATOM     68  O   UNL A   1      37.230  30.559  37.953  1.00  0.00    -0.744 OA
ENDBRANCH  61  65
ENDBRANCH  44  58
BRANCH  45  69
ATOM     69  C   UNL A   1      43.201  26.773  27.351  1.00  0.00     0.023 A 
ATOM     70  C   UNL A   1      43.049  25.381  27.250  1.00  0.00     0.031 A 
ATOM     71  C   UNL A   1      43.967  27.424  26.367  1.00  0.00     0.131 A 
ATOM     72  C   UNL A   1      43.704  24.677  26.228  1.00  0.00     0.055 A 
ATOM     73  C   UNL A   1      44.566  26.727  25.316  1.00  0.00     0.041 A 
ATOM     74  F   UNL A   1      44.149  28.753  26.416  1.00  0.00    -0.206 F 
ATOM     75  C   UNL A   1      44.451  25.341  25.253  1.00  0.00     0.022 A 
BRANCH  72  76
ATOM     76  S   UNL A   1      43.666  22.864  26.263  1.00  0.00     0.124 S 
ATOM     77  O   UNL A   1      43.005  22.606  27.538  1.00  0.00    -0.237 OA
ATOM     78  O   UNL A   1      42.892  22.557  25.065  1.00  0.00    -0.237 OA
ATOM     79  O   UNL A   1      45.078  22.493  26.205  1.00  0.00    -0.744 OA
ENDBRANCH  72  76
ENDBRANCH  45  69
BRANCH  57  80
ATOM     80  C   UNL A   1      45.896  28.686  33.489  1.00  0.00     0.023 A 
ATOM     81  C   UNL A   1      47.004  29.536  33.335  1.00  0.00     0.031 A 
ATOM     82  C   UNL A   1      46.047  27.536  34.285  1.00  0.00     0.131 A 
ATOM     83  C   UNL A   1      48.230  29.199  33.930  1.00  0.00     0.055 A 
ATOM     84  C   UNL A   1      47.252  27.235  34.918  1.00  0.00     0.041 A 
ATOM     85  F   UNL A   1      45.020  26.690  34.464  1.00  0.00    -0.206 F 
ATOM     86  C   UNL A   1      48.355  28.062  34.734  1.00  0.00     0.022 A 
BRANCH  83  87
ATOM     87  S   UNL A   1      49.682  30.228  33.582  1.00  0.00     0.124 S 
ATOM     88  O   UNL A   1      49.110  31.293  32.764  1.00  0.00    -0.237 OA
ATOM     89  O   UNL A   1      50.118  30.617  34.919  1.00  0.00    -0.237 OA
ATOM     90  O   UNL A   1      50.585  29.321  32.877  1.00  0.00    -0.744 OA
ENDBRANCH  83  87
ENDBRANCH  57  80
ENDBRANCH  31  32
ENDBRANCH  24  26
ENDBRANCH  23  24
ENDBRANCH  22  23
ENDBRANCH   1  22
TORSDOF 18
ENDMDL
MODEL 2
REMARK VINA RESULT:     -10.5      3.098      5.219
REMARK SMILES O=C(/C=C/C(=O)OCCOC(=O)c1ccc(-c2c3nc(c(-c4cc(S(=O)(=O)[O-])ccc4F)c4ccc([nH]4)c(-c4cc(S(=O)(=O)[O-])ccc4F)c4nc(c(-c5cc(S(=O)(=O)[O-])ccc5F)c5ccc2[nH]5)C=C4)C=C3)cc1)NCc1ccc(-c2cccs2)s1
REMARK SMILES IDX 8 1 7 2 5 3 6 4 4 5 3 6 2 7 1 8 76 9 77 11 78 12 79 13 87 14
REMARK SMILES IDX 80 15 81 16 82 17 83 18 86 19 84 20 85 21 9 22 10 23 11 24
REMARK SMILES IDX 12 25 13 26 14 27 75 28 15 29 74 30 16 31 17 32 18 33 68 34
REMARK SMILES IDX 19 35 73 36 67 37 69 38 20 39 72 40 66 41 65 42 21 44 53 45
REMARK SMILES IDX 33 46 52 47 34 48 37 49 51 50 70 51 35 52 36 53 50 55 71 56
REMARK SMILES IDX 38 57 22 58 23 59 31 60 24 61 30 62 32 63 29 64 25 65 26 66
REMARK SMILES IDX 27 67 28 68 54 69 55 70 63 71 56 72 62 73 64 74 61 75 57 76
REMARK SMILES IDX 58 77 59 78 60 79 39 80 40 81 48 82 41 83 47 84 49 85 46 86
REMARK SMILES IDX 42 87 43 88 44 89 45 90
REMARK H PARENT 76 10 69 43 37 54
REMARK Flexibility Score: inf
ROOT
ATOM      1  C   UNL A   1      32.554  31.663  27.253  1.00  0.00     0.275 C 
ENDROOT
BRANCH   1   2
ATOM      2  O   UNL A   1      33.835  31.148  27.667  1.00  0.00    -0.459 OA
BRANCH   2   3
ATOM      3  C   UNL A   1      34.164  29.928  27.184  1.00  0.00     0.331 C 
ATOM      4  O   UNL A   1      35.288  29.449  27.144  1.00  0.00    -0.247 OA
BRANCH   3   5
ATOM      5  C   UNL A   1      32.992  29.153  26.739  1.00  0.00     0.099 C 
ATOM      6  C   UNL A   1      32.915  27.816  26.737  1.00  0.00     0.078 C 
BRANCH   6   7
ATOM      7  C   UNL A   1      31.710  27.111  26.239  1.00  0.00     0.244 C 
ATOM      8  O   UNL A   1      30.784  26.861  27.000  1.00  0.00    -0.270 OA
ATOM      9  N   UNL A   1      31.774  26.733  24.927  1.00  0.00    -0.348 N 
ATOM     10  H   UNL A   1      32.601  26.924  24.428  1.00  0.00     0.164 HD
BRANCH   9  11
ATOM     11  C   UNL A   1      30.693  26.070  24.231  1.00  0.00     0.163 C 
BRANCH  11  12
ATOM     12  C   UNL A   1      29.709  27.088  23.732  1.00  0.00     0.024 A 
ATOM     13  C   UNL A   1      28.331  27.043  23.815  1.00  0.00     0.018 A 
ATOM     14  S   UNL A   1      30.226  28.495  22.894  1.00  0.00    -0.138 S 
ATOM     15  C   UNL A   1      27.712  28.202  23.262  1.00  0.00     0.022 A 
ATOM     16  C   UNL A   1      28.630  29.105  22.762  1.00  0.00     0.045 A 
BRANCH  16  17
ATOM     17  C   UNL A   1      28.371  30.408  22.205  1.00  0.00     0.044 A 
ATOM     18  C   UNL A   1      28.181  30.742  20.877  1.00  0.00     0.021 A 
ATOM     19  S   UNL A   1      28.304  31.802  23.207  1.00  0.00    -0.143 S 
ATOM     20  C   UNL A   1      28.001  32.145  20.684  1.00  0.00     0.012 A 
ATOM     21  C   UNL A   1      28.062  32.839  21.871  1.00  0.00     0.065 A 
ENDBRANCH  16  17
ENDBRANCH  11  12
ENDBRANCH   9  11
ENDBRANCH   6   7
ENDBRANCH   3   5
ENDBRANCH   2   3
ENDBRANCH   1   2
BRANCH   1  22
ATOM     22  C   UNL A   1      32.567  33.192  27.155  1.00  0.00     0.275 C 
BRANCH  22  23
ATOM     23  O   UNL A   1      32.523  33.824  28.448  1.00  0.00    -0.458 OA
BRANCH  23  24
ATOM     24  C   UNL A   1      33.550  34.670  28.709  1.00  0.00     0.338 C 
ATOM     25  O   UNL A   1      33.577  35.873  28.512  1.00  0.00    -0.246 OA
BRANCH  24  26
ATOM     26  C   UNL A   1      34.631  33.950  29.405  1.00  0.00     0.060 A 
ATOM     27  C   UNL A   1      35.946  34.176  28.983  1.00  0.00     0.016 A 
ATOM     28  C   UNL A   1      34.359  33.012  30.403  1.00  0.00     0.016 A 
ATOM     29  C   UNL A   1      36.994  33.454  29.551  1.00  0.00     0.010 A 
ATOM     30  C   UNL A   1      35.414  32.290  30.972  1.00  0.00     0.010 A 
ATOM     31  C   UNL A   1      36.737  32.497  30.542  1.00  0.00    -0.014 A 
BRANCH  31  32
ATOM     32  C   UNL A   1      37.845  31.677  31.095  1.00  0.00     0.031 A 
ATOM     33  C   UNL A   1      38.361  31.958  32.478  1.00  0.00     0.074 A 
ATOM     34  C   UNL A   1      38.383  30.689  30.356  1.00  0.00     0.049 A 
ATOM     35  N   UNL A   1      39.374  31.423  33.108  1.00  0.00    -0.248 NA
ATOM     36  C   UNL A   1      37.642  32.981  33.254  1.00  0.00     0.031 C 
ATOM     37  C   UNL A   1      37.936  30.297  29.018  1.00  0.00     0.029 A 
ATOM     38  N   UNL A   1      39.430  29.840  30.617  1.00  0.00    -0.354 N 
ATOM     39  C   UNL A   1      39.431  32.056  34.346  1.00  0.00     0.074 A 
ATOM     40  C   UNL A   1      38.357  33.025  34.370  1.00  0.00     0.031 C 
ATOM     41  C   UNL A   1      38.710  29.293  28.574  1.00  0.00     0.029 A 
ATOM     42  C   UNL A   1      39.739  29.003  29.569  1.00  0.00     0.049 A 
ATOM     43  H   UNL A   1      39.914  29.832  31.474  1.00  0.00     0.167 HD
ATOM     44  C   UNL A   1      40.302  31.844  35.363  1.00  0.00     0.034 A 
ATOM     45  C   UNL A   1      40.755  28.130  29.417  1.00  0.00     0.034 A 
ATOM     46  C   UNL A   1      41.360  30.864  35.327  1.00  0.00     0.049 A 
ATOM     47  C   UNL A   1      41.752  27.967  30.540  1.00  0.00     0.074 A 
ATOM     48  C   UNL A   1      42.271  30.544  36.320  1.00  0.00     0.029 A 
ATOM     49  N   UNL A   1      41.659  30.055  34.240  1.00  0.00    -0.354 N 
ATOM     50  N   UNL A   1      41.781  28.560  31.712  1.00  0.00    -0.248 NA
ATOM     51  C   UNL A   1      42.851  27.016  30.323  1.00  0.00     0.031 C 
ATOM     52  C   UNL A   1      43.161  29.593  35.810  1.00  0.00     0.029 A 
ATOM     53  C   UNL A   1      42.761  29.263  34.525  1.00  0.00     0.049 A 
ATOM     54  H   UNL A   1      41.162  30.043  33.390  1.00  0.00     0.167 HD
ATOM     55  C   UNL A   1      42.876  28.020  32.382  1.00  0.00     0.074 A 
ATOM     56  C   UNL A   1      43.476  27.052  31.489  1.00  0.00     0.031 C 
ATOM     57  C   UNL A   1      43.342  28.295  33.627  1.00  0.00     0.034 A 
BRANCH  44  58
ATOM     58  C   UNL A   1      40.188  32.727  36.581  1.00  0.00     0.023 A 
ATOM     59  C   UNL A   1      39.344  32.407  37.657  1.00  0.00     0.031 A 
ATOM     60  C   UNL A   1      40.956  33.902  36.667  1.00  0.00     0.131 A 
ATOM     61  C   UNL A   1      39.253  33.278  38.754  1.00  0.00     0.055 A 
ATOM     62  C   UNL A   1      40.910  34.730  37.790  1.00  0.00     0.041 A 
ATOM     63  F   UNL A   1      41.764  34.265  35.659  1.00  0.00    -0.206 F 
ATOM     64  C   UNL A   1      40.049  34.424  38.839  1.00  0.00     0.022 A 
BRANCH  61  65
ATOM     65  S   UNL A   1      38.011  32.944  40.032  1.00  0.00     0.124 S 
ATOM     66  O   UNL A   1      38.594  31.790  40.714  1.00  0.00    -0.237 OA
ATOM     67  O   UNL A   1      37.992  34.190  40.789  1.00  0.00    -0.237 OA
ATOM     68  O   UNL A   1      36.798  32.660  39.268  1.00  0.00    -0.744 OA
ENDBRANCH  61  65
ENDBRANCH  44  58
BRANCH  45  69
ATOM     69  C   UNL A   1      40.930  27.377  28.141  1.00  0.00     0.023 A 
ATOM     70  C   UNL A   1      40.703  25.993  28.081  1.00  0.00     0.031 A 
ATOM     71  C   UNL A   1      41.411  28.015  26.983  1.00  0.00     0.131 A 
ATOM     72  C   UNL A   1      41.015  25.282  26.911  1.00  0.00     0.055 A 
ATOM     73  C   UNL A   1      41.661  27.314  25.803  1.00  0.00     0.041 A 
ATOM     74  F   UNL A   1      41.649  29.336  26.984  1.00  0.00    -0.206 F 
ATOM     75  C   UNL A   1      41.481  25.934  25.768  1.00  0.00     0.022 A 
BRANCH  72  76
ATOM     76  S   UNL A   1      40.920  23.471  26.948  1.00  0.00     0.124 S 
ATOM     77  O   UNL A   1      39.513  23.241  26.638  1.00  0.00    -0.237 OA
ATOM     78  O   UNL A   1      41.875  23.099  25.911  1.00  0.00    -0.237 OA
ATOM     79  O   UNL A   1      41.320  23.136  28.313  1.00  0.00    -0.744 OA
ENDBRANCH  72  76
ENDBRANCH  45  69
BRANCH  57  80
ATOM     80  C   UNL A   1      44.516  27.485  34.118  1.00  0.00     0.023 A 
ATOM     81  C   UNL A   1      44.346  26.264  34.792  1.00  0.00     0.031 A 
ATOM     82  C   UNL A   1      45.826  27.948  33.904  1.00  0.00     0.131 A 
ATOM     83  C   UNL A   1      45.468  25.569  35.270  1.00  0.00     0.055 A 
ATOM     84  C   UNL A   1      46.940  27.226  34.333  1.00  0.00     0.041 A 
ATOM     85  F   UNL A   1      46.044  29.110  33.266  1.00  0.00    -0.206 F 
ATOM     86  C   UNL A   1      46.764  26.035  35.030  1.00  0.00     0.022 A 
BRANCH  83  87
ATOM     87  S   UNL A   1      45.211  24.081  36.275  1.00  0.00     0.124 S 
ATOM     88  O   UNL A   1      46.580  23.692  36.598  1.00  0.00    -0.237 OA
ATOM     89  O   UNL A   1      44.414  24.588  37.387  1.00  0.00    -0.237 OA
ATOM     90  O   UNL A   1      44.506  23.174  35.371  1.00  0.00    -0.744 OA
ENDBRANCH  83  87
ENDBRANCH  57  80
ENDBRANCH  31  32
ENDBRANCH  24  26
ENDBRANCH  23  24
ENDBRANCH  22  23
ENDBRANCH   1  22
TORSDOF 18
ENDMDL
MODEL 3
REMARK VINA RESULT:     -10.4      1.879      2.217
REMARK SMILES O=C(/C=C/C(=O)OCCOC(=O)c1ccc(-c2c3nc(c(-c4cc(S(=O)(=O)[O-])ccc4F)c4ccc([nH]4)c(-c4cc(S(=O)(=O)[O-])ccc4F)c4nc(c(-c5cc(S(=O)(=O)[O-])ccc5F)c5ccc2[nH]5)C=C4)C=C3)cc1)NCc1ccc(-c2cccs2)s1
REMARK SMILES IDX 8 1 7 2 5 3 6 4 4 5 3 6 2 7 1 8 76 9 77 11 78 12 79 13 87 14
REMARK SMILES IDX 80 15 81 16 82 17 83 18 86 19 84 20 85 21 9 22 10 23 11 24
REMARK SMILES IDX 12 25 13 26 14 27 75 28 15 29 74 30 16 31 17 32 18 33 68 34
REMARK SMILES IDX 19 35 73 36 67 37 69 38 20 39 72 40 66 41 65 42 21 44 53 45
REMARK SMILES IDX 33 46 52 47 34 48 37 49 51 50 70 51 35 52 36 53 50 55 71 56
REMARK SMILES IDX 38 57 22 58 23 59 31 60 24 61 30 62 32 63 29 64 25 65 26 66
REMARK SMILES IDX 27 67 28 68 54 69 55 70 63 71 56 72 62 73 64 74 61 75 57 76
REMARK SMILES IDX 58 77 59 78 60 79 39 80 40 81 48 82 41 83 47 84 49 85 46 86
REMARK SMILES IDX 42 87 43 88 44 89 45 90
REMARK H PARENT 76 10 69 43 37 54
REMARK Flexibility Score: inf
ROOT
ATOM      1  C   UNL A   1      31.615  29.113  24.588  1.00  0.00     0.275 C 
ENDROOT
BRANCH   1   2
ATOM      2  O   UNL A   1      30.414  29.437  23.861  1.00  0.00    -0.459 OA
BRANCH   2   3
ATOM      3  C   UNL A   1      30.087  28.591  22.857  1.00  0.00     0.331 C 
ATOM      4  O   UNL A   1      29.205  28.765  22.028  1.00  0.00    -0.247 OA
BRANCH   3   5
ATOM      5  C   UNL A   1      30.963  27.407  22.797  1.00  0.00     0.099 C 
ATOM      6  C   UNL A   1      31.522  26.924  21.680  1.00  0.00     0.078 C 
BRANCH   6   7
ATOM      7  C   UNL A   1      32.364  25.704  21.700  1.00  0.00     0.244 C 
ATOM      8  O   UNL A   1      33.308  25.595  20.929  1.00  0.00    -0.270 OA
ATOM      9  N   UNL A   1      31.950  24.743  22.579  1.00  0.00    -0.348 N 
ATOM     10  H   UNL A   1      31.131  24.911  23.100  1.00  0.00     0.164 HD
BRANCH   9  11
ATOM     11  C   UNL A   1      32.649  23.494  22.788  1.00  0.00     0.163 C 
BRANCH  11  12
ATOM     12  C   UNL A   1      33.708  23.673  23.837  1.00  0.00     0.024 A 
ATOM     13  C   UNL A   1      33.599  24.339  25.043  1.00  0.00     0.018 A 
ATOM     14  S   UNL A   1      35.301  23.074  23.609  1.00  0.00    -0.138 S 
ATOM     15  C   UNL A   1      34.802  24.282  25.807  1.00  0.00     0.022 A 
ATOM     16  C   UNL A   1      35.804  23.581  25.166  1.00  0.00     0.045 A 
BRANCH  16  17
ATOM     17  C   UNL A   1      37.115  23.259  25.670  1.00  0.00     0.044 A 
ATOM     18  C   UNL A   1      37.997  24.089  26.339  1.00  0.00     0.021 A 
ATOM     19  S   UNL A   1      37.793  21.697  25.442  1.00  0.00    -0.143 S 
ATOM     20  C   UNL A   1      39.233  23.446  26.643  1.00  0.00     0.012 A 
ATOM     21  C   UNL A   1      39.259  22.145  26.196  1.00  0.00     0.065 A 
ENDBRANCH  16  17
ENDBRANCH  11  12
ENDBRANCH   9  11
ENDBRANCH   6   7
ENDBRANCH   3   5
ENDBRANCH   2   3
ENDBRANCH   1   2
BRANCH   1  22
ATOM     22  C   UNL A   1      31.803  30.030  25.802  1.00  0.00     0.275 C 
BRANCH  22  23
ATOM     23  O   UNL A   1      33.191  30.296  26.076  1.00  0.00    -0.458 OA
BRANCH  23  24
ATOM     24  C   UNL A   1      33.420  31.280  26.979  1.00  0.00     0.338 C 
ATOM     25  O   UNL A   1      32.722  32.257  27.193  1.00  0.00    -0.246 OA
BRANCH  24  26
ATOM     26  C   UNL A   1      34.604  30.951  27.793  1.00  0.00     0.060 A 
ATOM     27  C   UNL A   1      35.590  31.933  27.944  1.00  0.00     0.016 A 
ATOM     28  C   UNL A   1      34.783  29.678  28.339  1.00  0.00     0.016 A 
ATOM     29  C   UNL A   1      36.766  31.640  28.632  1.00  0.00     0.010 A 
ATOM     30  C   UNL A   1      35.964  29.388  29.030  1.00  0.00     0.010 A 
ATOM     31  C   UNL A   1      36.969  30.362  29.170  1.00  0.00    -0.014 A 
BRANCH  31  32
ATOM     32  C   UNL A   1      38.252  30.029  29.840  1.00  0.00     0.031 A 
ATOM     33  C   UNL A   1      38.544  30.579  31.208  1.00  0.00     0.074 A 
ATOM     34  C   UNL A   1      39.149  29.239  29.219  1.00  0.00     0.049 A 
ATOM     35  N   UNL A   1      39.634  30.483  31.924  1.00  0.00    -0.248 NA
ATOM     36  C   UNL A   1      37.464  31.340  31.855  1.00  0.00     0.031 C 
ATOM     37  C   UNL A   1      38.957  28.613  27.909  1.00  0.00     0.029 A 
ATOM     38  N   UNL A   1      40.404  28.835  29.599  1.00  0.00    -0.354 N 
ATOM     39  C   UNL A   1      39.384  31.189  33.095  1.00  0.00     0.074 A 
ATOM     40  C   UNL A   1      38.042  31.719  32.987  1.00  0.00     0.031 C 
ATOM     41  C   UNL A   1      40.059  27.913  27.593  1.00  0.00     0.029 A 
ATOM     42  C   UNL A   1      41.054  28.081  28.648  1.00  0.00     0.049 A 
ATOM     43  H   UNL A   1      40.802  29.062  30.470  1.00  0.00     0.167 HD
ATOM     44  C   UNL A   1      40.204  31.376  34.160  1.00  0.00     0.034 A 
ATOM     45  C   UNL A   1      42.318  27.612  28.618  1.00  0.00     0.034 A 
ATOM     46  C   UNL A   1      41.535  30.830  34.256  1.00  0.00     0.049 A 
ATOM     47  C   UNL A   1      43.231  27.896  29.788  1.00  0.00     0.074 A 
ATOM     48  C   UNL A   1      42.431  30.928  35.309  1.00  0.00     0.029 A 
ATOM     49  N   UNL A   1      42.169  30.096  33.264  1.00  0.00    -0.354 N 
ATOM     50  N   UNL A   1      42.973  28.549  30.897  1.00  0.00    -0.248 NA
ATOM     51  C   UNL A   1      44.603  27.378  29.703  1.00  0.00     0.031 C 
ATOM     52  C   UNL A   1      43.627  30.314  34.926  1.00  0.00     0.029 A 
ATOM     53  C   UNL A   1      43.455  29.766  33.664  1.00  0.00     0.049 A 
ATOM     54  H   UNL A   1      41.766  29.846  32.402  1.00  0.00     0.167 HD
ATOM     55  C   UNL A   1      44.139  28.482  31.656  1.00  0.00     0.074 A 
ATOM     56  C   UNL A   1      45.096  27.721  30.882  1.00  0.00     0.031 C 
ATOM     57  C   UNL A   1      44.395  28.998  32.885  1.00  0.00     0.034 A 
BRANCH  44  58
ATOM     58  C   UNL A   1      39.708  32.253  35.282  1.00  0.00     0.023 A 
ATOM     59  C   UNL A   1      40.060  33.609  35.381  1.00  0.00     0.031 A 
ATOM     60  C   UNL A   1      38.851  31.718  36.261  1.00  0.00     0.131 A 
ATOM     61  C   UNL A   1      39.593  34.374  36.461  1.00  0.00     0.055 A 
ATOM     62  C   UNL A   1      38.338  32.500  37.297  1.00  0.00     0.041 A 
ATOM     63  F   UNL A   1      38.499  30.423  36.227  1.00  0.00    -0.206 F 
ATOM     64  C   UNL A   1      38.715  33.835  37.406  1.00  0.00     0.022 A 
BRANCH  61  65
ATOM     65  S   UNL A   1      40.223  36.061  36.672  1.00  0.00     0.124 S 
ATOM     66  O   UNL A   1      41.662  35.828  36.772  1.00  0.00    -0.237 OA
ATOM     67  O   UNL A   1      39.768  36.723  35.455  1.00  0.00    -0.237 OA
ATOM     68  O   UNL A   1      39.584  36.516  37.905  1.00  0.00    -0.744 OA
ENDBRANCH  61  65
ENDBRANCH  44  58
BRANCH  45  69
ATOM     69  C   UNL A   1      42.830  26.872  27.427  1.00  0.00     0.023 A 
ATOM     70  C   UNL A   1      42.702  25.477  27.332  1.00  0.00     0.031 A 
ATOM     71  C   UNL A   1      43.531  27.539  26.406  1.00  0.00     0.131 A 
ATOM     72  C   UNL A   1      43.319  24.787  26.277  1.00  0.00     0.055 A 
ATOM     73  C   UNL A   1      44.091  26.855  25.326  1.00  0.00     0.041 A 
ATOM     74  F   UNL A   1      43.688  28.871  26.448  1.00  0.00    -0.206 F 
ATOM     75  C   UNL A   1      44.002  25.468  25.266  1.00  0.00     0.022 A 
BRANCH  72  76
ATOM     76  S   UNL A   1      43.320  22.974  26.312  1.00  0.00     0.124 S 
ATOM     77  O   UNL A   1      44.748  22.679  26.368  1.00  0.00    -0.237 OA
ATOM     78  O   UNL A   1      42.560  22.697  27.525  1.00  0.00    -0.237 OA
ATOM     79  O   UNL A   1      42.656  22.609  25.063  1.00  0.00    -0.744 OA
ENDBRANCH  72  76
ENDBRANCH  45  69
BRANCH  57  80
ATOM     80  C   UNL A   1      45.740  28.693  33.494  1.00  0.00     0.023 A 
ATOM     81  C   UNL A   1      45.955  27.553  34.288  1.00  0.00     0.031 A 
ATOM     82  C   UNL A   1      46.825  29.560  33.272  1.00  0.00     0.131 A 
ATOM     83  C   UNL A   1      47.214  27.336  34.871  1.00  0.00     0.055 A 
ATOM     84  C   UNL A   1      48.087  29.310  33.809  1.00  0.00     0.041 A 
ATOM     85  F   UNL A   1      46.673  30.664  32.521  1.00  0.00    -0.206 F 
ATOM     86  C   UNL A   1      48.285  28.199  34.622  1.00  0.00     0.022 A 
BRANCH  83  87
ATOM     87  S   UNL A   1      47.416  25.947  36.019  1.00  0.00     0.124 S 
ATOM     88  O   UNL A   1      48.331  26.503  37.011  1.00  0.00    -0.237 OA
ATOM     89  O   UNL A   1      46.049  25.714  36.473  1.00  0.00    -0.237 OA
ATOM     90  O   UNL A   1      47.978  24.888  35.181  1.00  0.00    -0.744 OA
ENDBRANCH  83  87
ENDBRANCH  57  80
ENDBRANCH  31  32
ENDBRANCH  24  26
ENDBRANCH  23  24
ENDBRANCH  22  23
ENDBRANCH   1  22
TORSDOF 18
ENDMDL
