MODEL 1
REMARK VINA RESULT:     -11.0      0.000      0.000
REMARK SMILES O=C(CN(CC(=O)OCCOC(=O)c1ccc(-c2c3nc(c(-c4cc(S(=O)(=O)[O-])ccc4F)c4ccc([nH]4)c(-c4cc(S(=O)(=O)[O-])ccc4F)c4nc(c(-c5cc(S(=O)(=O)[O-])ccc5F)c5ccc2[nH]5)C=C4)C=C3)cc1)c1ccccc1)NCc1ccccc1
REMARK SMILES IDX 9 1 8 2 6 3 7 4 5 5 4 6 3 7 2 8 1 9 83 10 84 12 85 13 86 14
REMARK SMILES IDX 90 15 87 16 89 17 88 18 77 19 78 20 82 21 79 22 81 23 80 24
REMARK SMILES IDX 10 25 11 26 12 27 13 28 14 29 15 30 76 31 16 32 75 33 17 34
REMARK SMILES IDX 18 35 19 36 69 37 20 38 74 39 68 40 70 41 21 42 73 43 67 44
REMARK SMILES IDX 66 45 22 47 54 48 34 49 53 50 35 51 38 52 52 53 71 54 36 55
REMARK SMILES IDX 37 56 51 58 72 59 39 60 23 61 24 62 32 63 25 64 31 65 33 66
REMARK SMILES IDX 30 67 26 68 27 69 28 70 29 71 55 72 56 73 64 74 57 75 63 76
REMARK SMILES IDX 65 77 62 78 58 79 59 80 60 81 61 82 40 83 41 84 49 85 42 86
REMARK SMILES IDX 48 87 50 88 47 89 43 90 44 91 45 92 46 93
REMARK H PARENT 83 11 70 46 38 57
REMARK Flexibility Score: inf
ROOT
ATOM      1  C   UNL A   1      35.583  20.356  25.005  1.00  0.00     0.274 C 
ENDROOT
BRANCH   1   2
ATOM      2  O   UNL A   1      35.200  21.562  25.695  1.00  0.00    -0.461 OA
BRANCH   2   3
ATOM      3  C   UNL A   1      34.087  21.487  26.468  1.00  0.00     0.325 C 
ATOM      4  O   UNL A   1      34.102  21.440  27.696  1.00  0.00    -0.250 OA
BRANCH   3   5
ATOM      5  C   UNL A   1      32.777  21.587  25.692  1.00  0.00     0.239 C 
BRANCH   5   6
ATOM      6  N   UNL A   1      32.663  22.690  24.732  1.00  0.00    -0.351 N 
BRANCH   6   7
ATOM      7  C   UNL A   1      32.643  22.412  23.285  1.00  0.00     0.217 C 
BRANCH   7   8
ATOM      8  C   UNL A   1      33.223  23.535  22.402  1.00  0.00     0.239 C 
ATOM      9  O   UNL A   1      34.437  23.711  22.299  1.00  0.00    -0.273 OA
ATOM     10  N   UNL A   1      32.300  24.279  21.697  1.00  0.00    -0.350 N 
ATOM     11  H   UNL A   1      31.378  23.940  21.619  1.00  0.00     0.163 HD
BRANCH  10  12
ATOM     12  C   UNL A   1      32.636  25.536  21.070  1.00  0.00     0.151 C 
BRANCH  12  13
ATOM     13  C   UNL A   1      32.481  26.728  21.974  1.00  0.00    -0.029 A 
ATOM     14  C   UNL A   1      33.617  27.298  22.567  1.00  0.00     0.005 A 
ATOM     15  C   UNL A   1      31.217  27.227  22.319  1.00  0.00     0.005 A 
ATOM     16  C   UNL A   1      33.494  28.337  23.489  1.00  0.00     0.000 A 
ATOM     17  C   UNL A   1      31.095  28.272  23.239  1.00  0.00     0.000 A 
ATOM     18  C   UNL A   1      32.233  28.823  23.826  1.00  0.00     0.000 A 
ENDBRANCH  12  13
ENDBRANCH  10  12
ENDBRANCH   7   8
ENDBRANCH   6   7
BRANCH   6  19
ATOM     19  C   UNL A   1      32.213  23.916  25.205  1.00  0.00     0.038 A 
ATOM     20  C   UNL A   1      33.112  24.848  25.732  1.00  0.00     0.026 A 
ATOM     21  C   UNL A   1      30.851  24.249  25.231  1.00  0.00     0.026 A 
ATOM     22  C   UNL A   1      32.665  26.057  26.281  1.00  0.00     0.002 A 
ATOM     23  C   UNL A   1      30.399  25.460  25.762  1.00  0.00     0.002 A 
ATOM     24  C   UNL A   1      31.308  26.364  26.296  1.00  0.00     0.000 A 
ENDBRANCH   6  19
ENDBRANCH   5   6
ENDBRANCH   3   5
ENDBRANCH   2   3
ENDBRANCH   1   2
BRANCH   1  25
ATOM     25  C   UNL A   1      37.103  20.266  24.942  1.00  0.00     0.275 C 
BRANCH  25  26
ATOM     26  O   UNL A   1      37.672  21.409  25.610  1.00  0.00    -0.458 OA
BRANCH  26  27
ATOM     27  C   UNL A   1      38.953  21.239  26.010  1.00  0.00     0.338 C 
ATOM     28  O   UNL A   1      39.604  20.210  25.983  1.00  0.00    -0.246 OA
BRANCH  27  29
ATOM     29  C   UNL A   1      39.477  22.488  26.580  1.00  0.00     0.060 A 
ATOM     30  C   UNL A   1      39.010  23.731  26.144  1.00  0.00     0.016 A 
ATOM     31  C   UNL A   1      40.551  22.403  27.468  1.00  0.00     0.016 A 
ATOM     32  C   UNL A   1      39.677  24.892  26.538  1.00  0.00     0.010 A 
ATOM     33  C   UNL A   1      41.176  23.568  27.907  1.00  0.00     0.010 A 
ATOM     34  C   UNL A   1      40.768  24.818  27.419  1.00  0.00    -0.014 A 
BRANCH  34  35
ATOM     35  C   UNL A   1      41.475  26.046  27.853  1.00  0.00     0.031 A 
ATOM     36  C   UNL A   1      40.764  27.090  28.666  1.00  0.00     0.074 A 
ATOM     37  C   UNL A   1      42.756  26.222  27.482  1.00  0.00     0.049 A 
ATOM     38  N   UNL A   1      41.184  28.270  29.046  1.00  0.00    -0.248 NA
ATOM     39  C   UNL A   1      39.399  26.766  29.105  1.00  0.00     0.031 C 
ATOM     40  C   UNL A   1      43.543  25.264  26.702  1.00  0.00     0.029 A 
ATOM     41  N   UNL A   1      43.618  27.263  27.702  1.00  0.00    -0.354 N 
ATOM     42  C   UNL A   1      40.131  28.841  29.754  1.00  0.00     0.074 A 
ATOM     43  C   UNL A   1      39.046  27.881  29.733  1.00  0.00     0.031 C 
ATOM     44  C   UNL A   1      44.776  25.758  26.518  1.00  0.00     0.029 A 
ATOM     45  C   UNL A   1      44.848  27.087  27.114  1.00  0.00     0.049 A 
ATOM     46  H   UNL A   1      43.380  28.059  28.230  1.00  0.00     0.167 HD
ATOM     47  C   UNL A   1      40.079  30.054  30.361  1.00  0.00     0.034 A 
ATOM     48  C   UNL A   1      45.905  27.917  27.036  1.00  0.00     0.034 A 
ATOM     49  C   UNL A   1      41.172  31.001  30.357  1.00  0.00     0.049 A 
ATOM     50  C   UNL A   1      45.812  29.269  27.683  1.00  0.00     0.074 A 
ATOM     51  C   UNL A   1      41.233  32.257  30.939  1.00  0.00     0.029 A 
ATOM     52  N   UNL A   1      42.398  30.797  29.734  1.00  0.00    -0.354 N 
ATOM     53  N   UNL A   1      44.801  29.806  28.328  1.00  0.00    -0.248 NA
ATOM     54  C   UNL A   1      46.998  30.126  27.590  1.00  0.00     0.031 C 
ATOM     55  C   UNL A   1      42.471  32.830  30.623  1.00  0.00     0.029 A 
ATOM     56  C   UNL A   1      43.210  31.911  29.895  1.00  0.00     0.049 A 
ATOM     57  H   UNL A   1      42.653  29.980  29.247  1.00  0.00     0.167 HD
ATOM     58  C   UNL A   1      45.233  31.068  28.720  1.00  0.00     0.074 A 
ATOM     59  C   UNL A   1      46.603  31.198  28.262  1.00  0.00     0.031 C 
ATOM     60  C   UNL A   1      44.560  32.033  29.396  1.00  0.00     0.034 A 
BRANCH  47  61
ATOM     61  C   UNL A   1      38.779  30.444  31.023  1.00  0.00     0.023 A 
ATOM     62  C   UNL A   1      37.735  31.057  30.308  1.00  0.00     0.031 A 
ATOM     63  C   UNL A   1      38.592  30.223  32.399  1.00  0.00     0.131 A 
ATOM     64  C   UNL A   1      36.578  31.480  30.982  1.00  0.00     0.055 A 
ATOM     65  C   UNL A   1      37.411  30.586  33.052  1.00  0.00     0.041 A 
ATOM     66  F   UNL A   1      39.561  29.660  33.139  1.00  0.00    -0.206 F 
ATOM     67  C   UNL A   1      36.400  31.230  32.344  1.00  0.00     0.022 A 
BRANCH  64  68
ATOM     68  S   UNL A   1      35.358  32.474  30.078  1.00  0.00     0.124 S 
ATOM     69  O   UNL A   1      34.308  32.641  31.080  1.00  0.00    -0.237 OA
ATOM     70  O   UNL A   1      36.116  33.673  29.741  1.00  0.00    -0.237 OA
ATOM     71  O   UNL A   1      34.996  31.626  28.944  1.00  0.00    -0.744 OA
ENDBRANCH  64  68
ENDBRANCH  47  61
BRANCH  48  72
ATOM     72  C   UNL A   1      47.116  27.501  26.280  1.00  0.00     0.023 A 
ATOM     73  C   UNL A   1      47.236  27.757  24.906  1.00  0.00     0.031 A 
ATOM     74  C   UNL A   1      48.179  26.852  26.932  1.00  0.00     0.131 A 
ATOM     75  C   UNL A   1      48.390  27.350  24.222  1.00  0.00     0.055 A 
ATOM     76  C   UNL A   1      49.342  26.484  26.255  1.00  0.00     0.041 A 
ATOM     77  F   UNL A   1      48.113  26.597  28.248  1.00  0.00    -0.206 F 
ATOM     78  C   UNL A   1      49.449  26.726  24.889  1.00  0.00     0.022 A 
BRANCH  75  79
ATOM     79  S   UNL A   1      48.476  27.615  22.430  1.00  0.00     0.124 S 
ATOM     80  O   UNL A   1      48.577  26.248  21.931  1.00  0.00    -0.237 OA
ATOM     81  O   UNL A   1      47.219  28.305  22.165  1.00  0.00    -0.237 OA
ATOM     82  O   UNL A   1      49.678  28.429  22.264  1.00  0.00    -0.744 OA
ENDBRANCH  75  79
ENDBRANCH  48  72
BRANCH  60  83
ATOM     83  C   UNL A   1      45.321  33.301  29.675  1.00  0.00     0.023 A 
ATOM     84  C   UNL A   1      46.068  33.459  30.856  1.00  0.00     0.031 A 
ATOM     85  C   UNL A   1      45.250  34.384  28.782  1.00  0.00     0.131 A 
ATOM     86  C   UNL A   1      46.664  34.696  31.142  1.00  0.00     0.055 A 
ATOM     87  C   UNL A   1      45.888  35.596  29.050  1.00  0.00     0.041 A 
ATOM     88  F   UNL A   1      44.546  34.285  27.643  1.00  0.00    -0.206 F 
ATOM     89  C   UNL A   1      46.587  35.762  30.242  1.00  0.00     0.022 A 
BRANCH  86  90
ATOM     90  S   UNL A   1      47.454  34.926  32.760  1.00  0.00     0.124 S 
ATOM     91  O   UNL A   1      48.870  34.807  32.426  1.00  0.00    -0.237 OA
ATOM     92  O   UNL A   1      46.999  36.259  33.142  1.00  0.00    -0.237 OA
ATOM     93  O   UNL A   1      46.913  33.832  33.564  1.00  0.00    -0.744 OA
ENDBRANCH  86  90
ENDBRANCH  60  83
ENDBRANCH  34  35
ENDBRANCH  27  29
ENDBRANCH  26  27
ENDBRANCH  25  26
ENDBRANCH   1  25
TORSDOF 20
ENDMDL
MODEL 2
REMARK VINA RESULT:     -10.8      1.863      2.427
REMARK SMILES O=C(CN(CC(=O)OCCOC(=O)c1ccc(-c2c3nc(c(-c4cc(S(=O)(=O)[O-])ccc4F)c4ccc([nH]4)c(-c4cc(S(=O)(=O)[O-])ccc4F)c4nc(c(-c5cc(S(=O)(=O)[O-])ccc5F)c5ccc2[nH]5)C=C4)C=C3)cc1)c1ccccc1)NCc1ccccc1
REMARK SMILES IDX 9 1 8 2 6 3 7 4 5 5 4 6 3 7 2 8 1 9 83 10 84 12 85 13 86 14
REMARK SMILES IDX 90 15 87 16 89 17 88 18 77 19 78 20 82 21 79 22 81 23 80 24
REMARK SMILES IDX 10 25 11 26 12 27 13 28 14 29 15 30 76 31 16 32 75 33 17 34
REMARK SMILES IDX 18 35 19 36 69 37 20 38 74 39 68 40 70 41 21 42 73 43 67 44
REMARK SMILES IDX 66 45 22 47 54 48 34 49 53 50 35 51 38 52 52 53 71 54 36 55
REMARK SMILES IDX 37 56 51 58 72 59 39 60 23 61 24 62 32 63 25 64 31 65 33 66
REMARK SMILES IDX 30 67 26 68 27 69 28 70 29 71 55 72 56 73 64 74 57 75 63 76
REMARK SMILES IDX 65 77 62 78 58 79 59 80 60 81 61 82 40 83 41 84 49 85 42 86
REMARK SMILES IDX 48 87 50 88 47 89 43 90 44 91 45 92 46 93
REMARK H PARENT 83 11 70 46 38 57
REMARK Flexibility Score: inf
ROOT
ATOM      1  C   UNL A   1      35.131  22.043  24.651  1.00  0.00     0.274 C 
ENDROOT
BRANCH   1   2
ATOM      2  O   UNL A   1      33.948  22.110  25.471  1.00  0.00    -0.461 OA
BRANCH   2   3
ATOM      3  C   UNL A   1      33.916  23.095  26.405  1.00  0.00     0.325 C 
ATOM      4  O   UNL A   1      33.942  22.896  27.617  1.00  0.00    -0.250 OA
BRANCH   3   5
ATOM      5  C   UNL A   1      33.968  24.506  25.829  1.00  0.00     0.239 C 
BRANCH   5   6
ATOM      6  N   UNL A   1      32.706  25.255  25.807  1.00  0.00    -0.351 N 
BRANCH   6   7
ATOM      7  C   UNL A   1      31.420  24.536  25.837  1.00  0.00     0.217 C 
BRANCH   7   8
ATOM      8  C   UNL A   1      30.523  24.764  24.604  1.00  0.00     0.239 C 
ATOM      9  O   UNL A   1      30.664  24.105  23.574  1.00  0.00    -0.273 OA
ATOM     10  N   UNL A   1      29.524  25.704  24.756  1.00  0.00    -0.350 N 
ATOM     11  H   UNL A   1      29.298  26.013  25.663  1.00  0.00     0.163 HD
BRANCH  10  12
ATOM     12  C   UNL A   1      28.798  26.250  23.632  1.00  0.00     0.151 C 
BRANCH  12  13
ATOM     13  C   UNL A   1      28.945  27.739  23.479  1.00  0.00    -0.029 A 
ATOM     14  C   UNL A   1      30.157  28.353  23.830  1.00  0.00     0.005 A 
ATOM     15  C   UNL A   1      27.868  28.545  23.085  1.00  0.00     0.005 A 
ATOM     16  C   UNL A   1      30.288  29.741  23.796  1.00  0.00     0.000 A 
ATOM     17  C   UNL A   1      28.002  29.936  23.046  1.00  0.00     0.000 A 
ATOM     18  C   UNL A   1      29.210  30.533  23.406  1.00  0.00     0.000 A 
ENDBRANCH  12  13
ENDBRANCH  10  12
ENDBRANCH   7   8
ENDBRANCH   6   7
BRANCH   6  19
ATOM     19  C   UNL A   1      32.749  26.606  26.127  1.00  0.00     0.038 A 
ATOM     20  C   UNL A   1      31.840  27.149  27.040  1.00  0.00     0.026 A 
ATOM     21  C   UNL A   1      33.652  27.487  25.516  1.00  0.00     0.026 A 
ATOM     22  C   UNL A   1      31.822  28.523  27.316  1.00  0.00     0.002 A 
ATOM     23  C   UNL A   1      33.652  28.856  25.799  1.00  0.00     0.002 A 
ATOM     24  C   UNL A   1      32.728  29.376  26.696  1.00  0.00     0.000 A 
ENDBRANCH   6  19
ENDBRANCH   5   6
ENDBRANCH   3   5
ENDBRANCH   2   3
ENDBRANCH   1   2
BRANCH   1  25
ATOM     25  C   UNL A   1      36.174  21.162  25.331  1.00  0.00     0.275 C 
BRANCH  25  26
ATOM     26  O   UNL A   1      37.472  21.457  24.779  1.00  0.00    -0.458 OA
BRANCH  26  27
ATOM     27  C   UNL A   1      38.507  21.118  25.582  1.00  0.00     0.338 C 
ATOM     28  O   UNL A   1      38.900  19.995  25.845  1.00  0.00    -0.246 OA
BRANCH  27  29
ATOM     29  C   UNL A   1      39.092  22.320  26.192  1.00  0.00     0.060 A 
ATOM     30  C   UNL A   1      38.494  23.572  26.033  1.00  0.00     0.016 A 
ATOM     31  C   UNL A   1      40.335  22.198  26.817  1.00  0.00     0.016 A 
ATOM     32  C   UNL A   1      39.183  24.718  26.431  1.00  0.00     0.010 A 
ATOM     33  C   UNL A   1      40.993  23.340  27.268  1.00  0.00     0.010 A 
ATOM     34  C   UNL A   1      40.440  24.610  27.047  1.00  0.00    -0.014 A 
BRANCH  34  35
ATOM     35  C   UNL A   1      41.175  25.821  27.484  1.00  0.00     0.031 A 
ATOM     36  C   UNL A   1      40.491  26.874  28.310  1.00  0.00     0.074 A 
ATOM     37  C   UNL A   1      42.457  25.973  27.107  1.00  0.00     0.049 A 
ATOM     38  N   UNL A   1      40.937  28.042  28.694  1.00  0.00    -0.248 NA
ATOM     39  C   UNL A   1      39.122  26.575  28.755  1.00  0.00     0.031 C 
ATOM     40  C   UNL A   1      43.219  25.005  26.315  1.00  0.00     0.029 A 
ATOM     41  N   UNL A   1      43.342  26.995  27.328  1.00  0.00    -0.354 N 
ATOM     42  C   UNL A   1      39.901  28.631  29.413  1.00  0.00     0.074 A 
ATOM     43  C   UNL A   1      38.796  27.693  29.393  1.00  0.00     0.031 C 
ATOM     44  C   UNL A   1      44.460  25.475  26.126  1.00  0.00     0.029 A 
ATOM     45  C   UNL A   1      44.564  26.797  26.730  1.00  0.00     0.049 A 
ATOM     46  H   UNL A   1      43.124  27.792  27.862  1.00  0.00     0.167 HD
ATOM     47  C   UNL A   1      39.878  29.840  30.028  1.00  0.00     0.034 A 
ATOM     48  C   UNL A   1      45.637  27.606  26.650  1.00  0.00     0.034 A 
ATOM     49  C   UNL A   1      40.990  30.765  30.023  1.00  0.00     0.049 A 
ATOM     50  C   UNL A   1      45.576  28.956  27.307  1.00  0.00     0.074 A 
ATOM     51  C   UNL A   1      41.080  32.015  30.613  1.00  0.00     0.029 A 
ATOM     52  N   UNL A   1      42.207  30.540  29.390  1.00  0.00    -0.354 N 
ATOM     53  N   UNL A   1      44.581  29.509  27.962  1.00  0.00    -0.248 NA
ATOM     54  C   UNL A   1      46.779  29.789  27.211  1.00  0.00     0.031 C 
ATOM     55  C   UNL A   1      42.328  32.565  30.292  1.00  0.00     0.029 A 
ATOM     56  C   UNL A   1      43.043  31.635  29.553  1.00  0.00     0.049 A 
ATOM     57  H   UNL A   1      42.442  29.721  28.897  1.00  0.00     0.167 HD
ATOM     58  C   UNL A   1      45.040  30.759  28.360  1.00  0.00     0.074 A 
ATOM     59  C   UNL A   1      46.410  30.864  27.893  1.00  0.00     0.031 C 
ATOM     60  C   UNL A   1      44.392  31.733  29.046  1.00  0.00     0.034 A 
BRANCH  47  61
ATOM     61  C   UNL A   1      38.590  30.252  30.701  1.00  0.00     0.023 A 
ATOM     62  C   UNL A   1      37.583  30.953  30.014  1.00  0.00     0.031 A 
ATOM     63  C   UNL A   1      38.379  29.962  32.061  1.00  0.00     0.131 A 
ATOM     64  C   UNL A   1      36.440  31.391  30.702  1.00  0.00     0.055 A 
ATOM     65  C   UNL A   1      37.209  30.343  32.723  1.00  0.00     0.041 A 
ATOM     66  F   UNL A   1      39.313  29.314  32.775  1.00  0.00    -0.206 F 
ATOM     67  C   UNL A   1      36.236  31.072  32.046  1.00  0.00     0.022 A 
BRANCH  64  68
ATOM     68  S   UNL A   1      35.277  32.490  29.846  1.00  0.00     0.124 S 
ATOM     69  O   UNL A   1      36.173  33.516  29.316  1.00  0.00    -0.237 OA
ATOM     70  O   UNL A   1      34.669  31.602  28.863  1.00  0.00    -0.237 OA
ATOM     71  O   UNL A   1      34.386  32.945  30.912  1.00  0.00    -0.744 OA
ENDBRANCH  64  68
ENDBRANCH  47  61
BRANCH  48  72
ATOM     72  C   UNL A   1      46.834  27.171  25.884  1.00  0.00     0.023 A 
ATOM     73  C   UNL A   1      47.050  27.607  24.568  1.00  0.00     0.031 A 
ATOM     74  C   UNL A   1      47.789  26.321  26.469  1.00  0.00     0.131 A 
ATOM     75  C   UNL A   1      48.188  27.175  23.872  1.00  0.00     0.055 A 
ATOM     76  C   UNL A   1      48.939  25.926  25.787  1.00  0.00     0.041 A 
ATOM     77  F   UNL A   1      47.630  25.888  27.730  1.00  0.00    -0.206 F 
ATOM     78  C   UNL A   1      49.141  26.348  24.476  1.00  0.00     0.022 A 
BRANCH  75  79
ATOM     79  S   UNL A   1      48.393  27.683  22.144  1.00  0.00     0.124 S 
ATOM     80  O   UNL A   1      49.635  28.447  22.201  1.00  0.00    -0.237 OA
ATOM     81  O   UNL A   1      48.460  26.398  21.456  1.00  0.00    -0.237 OA
ATOM     82  O   UNL A   1      47.190  28.468  21.875  1.00  0.00    -0.744 OA
ENDBRANCH  75  79
ENDBRANCH  48  72
BRANCH  60  83
ATOM     83  C   UNL A   1      45.181  32.984  29.328  1.00  0.00     0.023 A 
ATOM     84  C   UNL A   1      45.123  34.094  28.467  1.00  0.00     0.031 A 
ATOM     85  C   UNL A   1      46.044  33.045  30.436  1.00  0.00     0.131 A 
ATOM     86  C   UNL A   1      45.964  35.194  28.692  1.00  0.00     0.055 A 
ATOM     87  C   UNL A   1      46.840  34.164  30.683  1.00  0.00     0.041 A 
ATOM     88  F   UNL A   1      46.137  32.009  31.286  1.00  0.00    -0.206 F 
ATOM     89  C   UNL A   1      46.814  35.240  29.800  1.00  0.00     0.022 A 
BRANCH  86  90
ATOM     90  S   UNL A   1      46.007  36.522  27.456  1.00  0.00     0.124 S 
ATOM     91  O   UNL A   1      46.963  36.001  26.483  1.00  0.00    -0.237 OA
ATOM     92  O   UNL A   1      44.617  36.582  27.014  1.00  0.00    -0.237 OA
ATOM     93  O   UNL A   1      46.467  37.682  28.216  1.00  0.00    -0.744 OA
ENDBRANCH  86  90
ENDBRANCH  60  83
ENDBRANCH  34  35
ENDBRANCH  27  29
ENDBRANCH  26  27
ENDBRANCH  25  26
ENDBRANCH   1  25
TORSDOF 20
ENDMDL
MODEL 3
REMARK VINA RESULT:     -10.8      4.766      9.791
REMARK SMILES O=C(CN(CC(=O)OCCOC(=O)c1ccc(-c2c3nc(c(-c4cc(S(=O)(=O)[O-])ccc4F)c4ccc([nH]4)c(-c4cc(S(=O)(=O)[O-])ccc4F)c4nc(c(-c5cc(S(=O)(=O)[O-])ccc5F)c5ccc2[nH]5)C=C4)C=C3)cc1)c1ccccc1)NCc1ccccc1
REMARK SMILES IDX 9 1 8 2 6 3 7 4 5 5 4 6 3 7 2 8 1 9 83 10 84 12 85 13 86 14
REMARK SMILES IDX 90 15 87 16 89 17 88 18 77 19 78 20 82 21 79 22 81 23 80 24
REMARK SMILES IDX 10 25 11 26 12 27 13 28 14 29 15 30 76 31 16 32 75 33 17 34
REMARK SMILES IDX 18 35 19 36 69 37 20 38 74 39 68 40 70 41 21 42 73 43 67 44
REMARK SMILES IDX 66 45 22 47 54 48 34 49 53 50 35 51 38 52 52 53 71 54 36 55
REMARK SMILES IDX 37 56 51 58 72 59 39 60 23 61 24 62 32 63 25 64 31 65 33 66
REMARK SMILES IDX 30 67 26 68 27 69 28 70 29 71 55 72 56 73 64 74 57 75 63 76
REMARK SMILES IDX 65 77 62 78 58 79 59 80 60 81 61 82 40 83 41 84 49 85 42 86
REMARK SMILES IDX 48 87 50 88 47 89 43 90 44 91 45 92 46 93
REMARK H PARENT 83 11 70 46 38 57
REMARK Flexibility Score: inf
ROOT
ATOM      1  C   UNL A   1      31.442  29.996  25.443  1.00  0.00     0.274 C 
ENDROOT
BRANCH   1   2
ATOM      2  O   UNL A   1      31.421  28.588  25.747  1.00  0.00    -0.461 OA
BRANCH   2   3
ATOM      3  C   UNL A   1      32.236  27.798  25.003  1.00  0.00     0.325 C 
ATOM      4  O   UNL A   1      32.749  26.758  25.410  1.00  0.00    -0.250 OA
BRANCH   3   5
ATOM      5  C   UNL A   1      32.381  28.240  23.550  1.00  0.00     0.239 C 
BRANCH   5   6
ATOM      6  N   UNL A   1      31.341  27.788  22.618  1.00  0.00    -0.351 N 
BRANCH   6   7
ATOM      7  C   UNL A   1      31.370  26.413  22.090  1.00  0.00     0.217 C 
BRANCH   7   8
ATOM      8  C   UNL A   1      32.761  25.749  22.086  1.00  0.00     0.239 C 
ATOM      9  O   UNL A   1      33.649  26.119  21.318  1.00  0.00    -0.273 OA
ATOM     10  N   UNL A   1      32.958  24.766  23.034  1.00  0.00    -0.350 N 
ATOM     11  H   UNL A   1      32.315  24.687  23.775  1.00  0.00     0.163 HD
BRANCH  10  12
ATOM     12  C   UNL A   1      34.073  23.850  22.978  1.00  0.00     0.151 C 
BRANCH  12  13
ATOM     13  C   UNL A   1      33.786  22.504  23.584  1.00  0.00    -0.029 A 
ATOM     14  C   UNL A   1      34.746  21.899  24.410  1.00  0.00     0.005 A 
ATOM     15  C   UNL A   1      32.622  21.790  23.268  1.00  0.00     0.005 A 
ATOM     16  C   UNL A   1      34.552  20.608  24.901  1.00  0.00     0.000 A 
ATOM     17  C   UNL A   1      32.426  20.498  23.765  1.00  0.00     0.000 A 
ATOM     18  C   UNL A   1      33.392  19.907  24.578  1.00  0.00     0.000 A 
ENDBRANCH  12  13
ENDBRANCH  10  12
ENDBRANCH   7   8
ENDBRANCH   6   7
BRANCH   6  19
ATOM     19  C   UNL A   1      30.170  28.531  22.545  1.00  0.00     0.038 A 
ATOM     20  C   UNL A   1      28.990  28.057  23.125  1.00  0.00     0.026 A 
ATOM     21  C   UNL A   1      30.102  29.744  21.846  1.00  0.00     0.026 A 
ATOM     22  C   UNL A   1      27.784  28.758  22.995  1.00  0.00     0.002 A 
ATOM     23  C   UNL A   1      28.906  30.459  21.726  1.00  0.00     0.002 A 
ATOM     24  C   UNL A   1      27.742  29.960  22.295  1.00  0.00     0.000 A 
ENDBRANCH   6  19
ENDBRANCH   5   6
ENDBRANCH   3   5
ENDBRANCH   2   3
ENDBRANCH   1   2
BRANCH   1  25
ATOM     25  C   UNL A   1      31.938  30.773  26.658  1.00  0.00     0.275 C 
BRANCH  25  26
ATOM     26  O   UNL A   1      33.369  30.912  26.576  1.00  0.00    -0.458 OA
BRANCH  26  27
ATOM     27  C   UNL A   1      33.894  31.793  27.459  1.00  0.00     0.338 C 
ATOM     28  O   UNL A   1      33.453  32.887  27.760  1.00  0.00    -0.246 OA
BRANCH  27  29
ATOM     29  C   UNL A   1      35.167  31.284  27.989  1.00  0.00     0.060 A 
ATOM     30  C   UNL A   1      35.275  29.979  28.474  1.00  0.00     0.016 A 
ATOM     31  C   UNL A   1      36.227  32.183  28.122  1.00  0.00     0.016 A 
ATOM     32  C   UNL A   1      36.422  29.597  29.170  1.00  0.00     0.010 A 
ATOM     33  C   UNL A   1      37.396  31.780  28.764  1.00  0.00     0.010 A 
ATOM     34  C   UNL A   1      37.489  30.497  29.324  1.00  0.00    -0.014 A 
BRANCH  34  35
ATOM     35  C   UNL A   1      38.718  30.098  30.051  1.00  0.00     0.031 A 
ATOM     36  C   UNL A   1      39.667  29.096  29.456  1.00  0.00     0.074 A 
ATOM     37  C   UNL A   1      38.955  30.627  31.264  1.00  0.00     0.049 A 
ATOM     38  N   UNL A   1      40.730  28.548  29.985  1.00  0.00    -0.248 NA
ATOM     39  C   UNL A   1      39.376  28.646  28.086  1.00  0.00     0.031 C 
ATOM     40  C   UNL A   1      38.104  31.617  31.928  1.00  0.00     0.029 A 
ATOM     41  N   UNL A   1      39.970  30.406  32.157  1.00  0.00    -0.354 N 
ATOM     42  C   UNL A   1      41.230  27.675  29.024  1.00  0.00     0.074 A 
ATOM     43  C   UNL A   1      40.338  27.755  27.885  1.00  0.00     0.031 C 
ATOM     44  C   UNL A   1      38.638  31.925  33.119  1.00  0.00     0.029 A 
ATOM     45  C   UNL A   1      39.833  31.116  33.326  1.00  0.00     0.049 A 
ATOM     46  H   UNL A   1      40.723  29.798  31.978  1.00  0.00     0.167 HD
ATOM     47  C   UNL A   1      42.329  26.881  29.092  1.00  0.00     0.034 A 
ATOM     48  C   UNL A   1      40.569  31.091  34.453  1.00  0.00     0.034 A 
ATOM     49  C   UNL A   1      43.198  26.810  30.245  1.00  0.00     0.049 A 
ATOM     50  C   UNL A   1      41.760  30.179  34.519  1.00  0.00     0.074 A 
ATOM     51  C   UNL A   1      44.339  26.044  30.425  1.00  0.00     0.029 A 
ATOM     52  N   UNL A   1      43.018  27.529  31.422  1.00  0.00    -0.354 N 
ATOM     53  N   UNL A   1      42.207  29.340  33.612  1.00  0.00    -0.248 NA
ATOM     54  C   UNL A   1      42.542  30.207  35.759  1.00  0.00     0.031 C 
ATOM     55  C   UNL A   1      44.814  26.261  31.725  1.00  0.00     0.029 A 
ATOM     56  C   UNL A   1      44.008  27.207  32.338  1.00  0.00     0.049 A 
ATOM     57  H   UNL A   1      42.291  28.173  31.581  1.00  0.00     0.167 HD
ATOM     58  C   UNL A   1      43.328  28.740  34.174  1.00  0.00     0.074 A 
ATOM     59  C   UNL A   1      43.502  29.334  35.485  1.00  0.00     0.031 C 
ATOM     60  C   UNL A   1      44.140  27.784  33.656  1.00  0.00     0.034 A 
BRANCH  47  61
ATOM     61  C   UNL A   1      42.614  25.987  27.908  1.00  0.00     0.023 A 
ATOM     62  C   UNL A   1      42.019  24.720  27.774  1.00  0.00     0.031 A 
ATOM     63  C   UNL A   1      43.516  26.399  26.911  1.00  0.00     0.131 A 
ATOM     64  C   UNL A   1      42.378  23.887  26.702  1.00  0.00     0.055 A 
ATOM     65  C   UNL A   1      43.819  25.592  25.811  1.00  0.00     0.041 A 
ATOM     66  F   UNL A   1      44.132  27.589  26.996  1.00  0.00    -0.206 F 
ATOM     67  C   UNL A   1      43.258  24.323  25.708  1.00  0.00     0.022 A 
BRANCH  64  68
ATOM     68  S   UNL A   1      41.773  22.177  26.688  1.00  0.00     0.124 S 
ATOM     69  O   UNL A   1      42.273  21.695  25.402  1.00  0.00    -0.237 OA
ATOM     70  O   UNL A   1      42.406  21.609  27.873  1.00  0.00    -0.237 OA
ATOM     71  O   UNL A   1      40.321  22.324  26.767  1.00  0.00    -0.744 OA
ENDBRANCH  64  68
ENDBRANCH  47  61
BRANCH  48  72
ATOM     72  C   UNL A   1      40.168  31.928  35.614  1.00  0.00     0.023 A 
ATOM     73  C   UNL A   1      39.147  31.518  36.484  1.00  0.00     0.031 A 
ATOM     74  C   UNL A   1      40.816  33.147  35.877  1.00  0.00     0.131 A 
ATOM     75  C   UNL A   1      38.791  32.332  37.570  1.00  0.00     0.055 A 
ATOM     76  C   UNL A   1      40.486  33.934  36.980  1.00  0.00     0.041 A 
ATOM     77  F   UNL A   1      41.807  33.575  35.078  1.00  0.00    -0.206 F 
ATOM     78  C   UNL A   1      39.462  33.530  37.831  1.00  0.00     0.022 A 
BRANCH  75  79
ATOM     79  S   UNL A   1      37.408  31.817  38.623  1.00  0.00     0.124 S 
ATOM     80  O   UNL A   1      37.121  30.482  38.109  1.00  0.00    -0.237 OA
ATOM     81  O   UNL A   1      38.002  31.879  39.955  1.00  0.00    -0.237 OA
ATOM     82  O   UNL A   1      36.383  32.823  38.354  1.00  0.00    -0.744 OA
ENDBRANCH  75  79
ENDBRANCH  48  72
BRANCH  60  83
ATOM     83  C   UNL A   1      45.288  27.346  34.525  1.00  0.00     0.023 A 
ATOM     84  C   UNL A   1      45.158  26.266  35.416  1.00  0.00     0.031 A 
ATOM     85  C   UNL A   1      46.503  28.052  34.508  1.00  0.00     0.131 A 
ATOM     86  C   UNL A   1      46.204  25.962  36.299  1.00  0.00     0.055 A 
ATOM     87  C   UNL A   1      47.559  27.712  35.354  1.00  0.00     0.041 A 
ATOM     88  F   UNL A   1      46.674  29.094  33.678  1.00  0.00    -0.206 F 
ATOM     89  C   UNL A   1      47.408  26.672  36.266  1.00  0.00     0.022 A 
BRANCH  86  90
ATOM     90  S   UNL A   1      45.932  24.691  37.565  1.00  0.00     0.124 S 
ATOM     91  O   UNL A   1      47.151  24.789  38.362  1.00  0.00    -0.237 OA
ATOM     92  O   UNL A   1      44.708  25.153  38.212  1.00  0.00    -0.237 OA
ATOM     93  O   UNL A   1      45.796  23.460  36.790  1.00  0.00    -0.744 OA
ENDBRANCH  86  90
ENDBRANCH  60  83
ENDBRANCH  34  35
ENDBRANCH  27  29
ENDBRANCH  26  27
ENDBRANCH  25  26
ENDBRANCH   1  25
TORSDOF 20
ENDMDL
