MODEL 1
REMARK VINA RESULT:     -12.8      0.000      0.000
REMARK SMILES O=C(Cc1c(C(=O)c2cc3c(cn2)CCCC3)[nH]c2cc(Cl)ccc12)OCCOC(=O)c1ccc(-c2c3nc(c(-c4cc(S(=O)(=O)[O-])ccc4F)c4ccc([nH]4)c(-c4cc(S(=O)(=O)[O-])ccc4F)c4nc(c(-c5cc(S(=O)(=O)[O-])ccc5F)c5ccc2[nH]5)C=C4)C=C3)cc1
REMARK SMILES IDX 27 1 26 2 2 3 1 4 3 5 4 6 5 7 25 8 18 9 19 10 24 11 20 13
REMARK SMILES IDX 23 14 21 15 22 16 6 17 7 18 8 19 9 20 13 21 10 22 12 23
REMARK SMILES IDX 11 24 17 25 14 26 16 27 15 28 28 29 29 30 30 31 31 32 32 33
REMARK SMILES IDX 33 34 94 35 34 36 93 37 35 38 36 39 37 40 87 41 38 42 92 43
REMARK SMILES IDX 86 44 88 45 39 46 91 47 85 48 84 49 40 51 72 52 52 53 71 54
REMARK SMILES IDX 53 55 56 56 70 57 89 58 54 59 55 60 69 62 90 63 57 64 41 65
REMARK SMILES IDX 42 66 50 67 43 68 49 69 51 70 48 71 44 72 45 73 46 74 47 75
REMARK SMILES IDX 73 76 74 77 82 78 75 79 81 80 83 81 80 82 76 83 77 84 78 85
REMARK SMILES IDX 79 86 58 87 59 88 67 89 60 90 66 91 68 92 65 93 61 94 62 95
REMARK SMILES IDX 63 96 64 97
REMARK H PARENT 18 12 88 50 56 61
REMARK Flexibility Score: inf
ROOT
ATOM      1  C   UNL A   1      31.742  29.485  26.104  1.00  0.00     0.274 C 
ENDROOT
BRANCH   1   2
ATOM      2  O   UNL A   1      31.948  28.453  27.082  1.00  0.00    -0.462 OA
BRANCH   2   3
ATOM      3  C   UNL A   1      32.311  27.197  26.700  1.00  0.00     0.310 C 
ATOM      4  O   UNL A   1      31.547  26.252  26.882  1.00  0.00    -0.252 OA
BRANCH   3   5
ATOM      5  C   UNL A   1      33.732  27.037  26.196  1.00  0.00     0.161 C 
BRANCH   5   6
ATOM      6  C   UNL A   1      33.892  25.994  25.132  1.00  0.00     0.000 A 
ATOM      7  C   UNL A   1      33.737  26.194  23.765  1.00  0.00     0.093 A 
ATOM      8  C   UNL A   1      34.054  24.579  25.329  1.00  0.00     0.004 A 
ATOM      9  N   UNL A   1      34.025  24.995  23.150  1.00  0.00    -0.351 N 
ATOM     10  C   UNL A   1      34.106  23.986  24.071  1.00  0.00     0.048 A 
ATOM     11  C   UNL A   1      34.127  23.734  26.457  1.00  0.00     0.012 A 
ATOM     12  H   UNL A   1      34.156  24.882  22.181  1.00  0.00     0.167 HD
ATOM     13  C   UNL A   1      34.220  22.605  23.871  1.00  0.00     0.047 A 
ATOM     14  C   UNL A   1      34.219  22.347  26.284  1.00  0.00     0.021 A 
ATOM     15  C   UNL A   1      34.266  21.799  25.008  1.00  0.00     0.043 A 
ATOM     16  Cl  UNL A   1      34.381  20.090  24.822  1.00  0.00    -0.084 Cl
BRANCH   7  17
ATOM     17  C   UNL A   1      33.327  27.387  23.035  1.00  0.00     0.227 C 
ATOM     18  O   UNL A   1      34.092  28.241  22.604  1.00  0.00    -0.285 OA
BRANCH  17  19
ATOM     19  C   UNL A   1      31.862  27.606  22.944  1.00  0.00     0.113 A 
ATOM     20  C   UNL A   1      31.402  28.835  22.472  1.00  0.00     0.036 A 
ATOM     21  N   UNL A   1      31.078  26.641  23.466  1.00  0.00    -0.252 NA
ATOM     22  C   UNL A   1      30.039  29.101  22.545  1.00  0.00    -0.041 A 
ATOM     23  C   UNL A   1      29.758  26.908  23.500  1.00  0.00     0.115 A 
ATOM     24  C   UNL A   1      29.201  28.126  23.105  1.00  0.00    -0.026 A 
ATOM     25  C   UNL A   1      29.507  30.419  22.047  1.00  0.00     0.036 C 
ATOM     26  C   UNL A   1      27.717  28.315  23.203  1.00  0.00     0.037 C 
ATOM     27  C   UNL A   1      28.001  30.405  21.814  1.00  0.00     0.005 C 
ATOM     28  C   UNL A   1      27.270  29.759  22.985  1.00  0.00     0.005 C 
ENDBRANCH  17  19
ENDBRANCH   7  17
ENDBRANCH   5   6
ENDBRANCH   3   5
ENDBRANCH   2   3
ENDBRANCH   1   2
BRANCH   1  29
ATOM     29  C   UNL A   1      31.937  30.895  26.663  1.00  0.00     0.275 C 
BRANCH  29  30
ATOM     30  O   UNL A   1      33.286  31.365  26.483  1.00  0.00    -0.458 OA
BRANCH  30  31
ATOM     31  C   UNL A   1      33.774  32.131  27.497  1.00  0.00     0.338 C 
ATOM     32  O   UNL A   1      33.188  33.060  28.029  1.00  0.00    -0.246 OA
BRANCH  31  33
ATOM     33  C   UNL A   1      35.078  31.600  27.969  1.00  0.00     0.060 A 
ATOM     34  C   UNL A   1      36.220  32.401  28.078  1.00  0.00     0.016 A 
ATOM     35  C   UNL A   1      35.147  30.249  28.330  1.00  0.00     0.016 A 
ATOM     36  C   UNL A   1      37.417  31.854  28.570  1.00  0.00     0.010 A 
ATOM     37  C   UNL A   1      36.346  29.701  28.808  1.00  0.00     0.010 A 
ATOM     38  C   UNL A   1      37.489  30.501  28.952  1.00  0.00    -0.014 A 
BRANCH  38  39
ATOM     39  C   UNL A   1      38.683  29.969  29.667  1.00  0.00     0.031 A 
ATOM     40  C   UNL A   1      39.098  30.430  31.034  1.00  0.00     0.074 A 
ATOM     41  C   UNL A   1      39.439  29.043  29.049  1.00  0.00     0.049 A 
ATOM     42  N   UNL A   1      40.183  30.144  31.711  1.00  0.00    -0.248 NA
ATOM     43  C   UNL A   1      38.172  31.316  31.739  1.00  0.00     0.031 C 
ATOM     44  C   UNL A   1      39.164  28.493  27.726  1.00  0.00     0.029 A 
ATOM     45  N   UNL A   1      40.586  28.406  29.453  1.00  0.00    -0.354 N 
ATOM     46  C   UNL A   1      40.089  30.849  32.905  1.00  0.00     0.074 A 
ATOM     47  C   UNL A   1      38.833  31.553  32.868  1.00  0.00     0.031 C 
ATOM     48  C   UNL A   1      40.112  27.596  27.426  1.00  0.00     0.029 A 
ATOM     49  C   UNL A   1      41.086  27.534  28.518  1.00  0.00     0.049 A 
ATOM     50  H   UNL A   1      41.009  28.559  30.329  1.00  0.00     0.167 HD
ATOM     51  C   UNL A   1      40.958  30.890  33.942  1.00  0.00     0.034 A 
ATOM     52  C   UNL A   1      42.204  26.777  28.523  1.00  0.00     0.034 A 
ATOM     53  C   UNL A   1      42.148  30.092  34.034  1.00  0.00     0.049 A 
ATOM     54  C   UNL A   1      43.094  26.745  29.736  1.00  0.00     0.074 A 
ATOM     55  C   UNL A   1      43.060  30.061  35.076  1.00  0.00     0.029 A 
ATOM     56  N   UNL A   1      42.547  29.145  33.115  1.00  0.00    -0.354 N 
ATOM     57  N   UNL A   1      42.974  27.414  30.858  1.00  0.00    -0.248 NA
ATOM     58  C   UNL A   1      44.258  25.845  29.706  1.00  0.00     0.031 C 
ATOM     59  C   UNL A   1      43.987  29.062  34.810  1.00  0.00     0.029 A 
ATOM     60  C   UNL A   1      43.660  28.482  33.596  1.00  0.00     0.049 A 
ATOM     61  H   UNL A   1      42.109  28.968  32.252  1.00  0.00     0.167 HD
ATOM     62  C   UNL A   1      44.021  26.989  31.673  1.00  0.00     0.074 A 
ATOM     63  C   UNL A   1      44.760  25.998  30.928  1.00  0.00     0.031 C 
ATOM     64  C   UNL A   1      44.338  27.409  32.920  1.00  0.00     0.034 A 
BRANCH  51  65
ATOM     65  C   UNL A   1      40.681  31.722  35.165  1.00  0.00     0.023 A 
ATOM     66  C   UNL A   1      39.646  31.364  36.049  1.00  0.00     0.031 A 
ATOM     67  C   UNL A   1      41.184  33.033  35.211  1.00  0.00     0.131 A 
ATOM     68  C   UNL A   1      39.115  32.331  36.920  1.00  0.00     0.055 A 
ATOM     69  C   UNL A   1      40.642  33.992  36.069  1.00  0.00     0.041 A 
ATOM     70  F   UNL A   1      42.170  33.410  34.382  1.00  0.00    -0.206 F 
ATOM     71  C   UNL A   1      39.593  33.647  36.917  1.00  0.00     0.022 A 
BRANCH  68  72
ATOM     72  S   UNL A   1      37.719  31.920  38.005  1.00  0.00     0.124 S 
ATOM     73  O   UNL A   1      36.751  32.945  37.619  1.00  0.00    -0.237 OA
ATOM     74  O   UNL A   1      37.375  30.560  37.601  1.00  0.00    -0.237 OA
ATOM     75  O   UNL A   1      38.278  32.050  39.345  1.00  0.00    -0.744 OA
ENDBRANCH  68  72
ENDBRANCH  51  65
BRANCH  52  76
ATOM     76  C   UNL A   1      42.464  25.922  27.333  1.00  0.00     0.023 A 
ATOM     77  C   UNL A   1      41.949  24.615  27.269  1.00  0.00     0.031 A 
ATOM     78  C   UNL A   1      43.367  26.336  26.342  1.00  0.00     0.131 A 
ATOM     79  C   UNL A   1      42.420  23.737  26.286  1.00  0.00     0.055 A 
ATOM     80  C   UNL A   1      43.772  25.481  25.319  1.00  0.00     0.041 A 
ATOM     81  F   UNL A   1      43.893  27.570  26.379  1.00  0.00    -0.206 F 
ATOM     82  C   UNL A   1      43.315  24.165  25.302  1.00  0.00     0.022 A 
BRANCH  79  83
ATOM     83  S   UNL A   1      42.017  21.970  26.356  1.00  0.00     0.124 S 
ATOM     84  O   UNL A   1      42.835  21.429  25.275  1.00  0.00    -0.237 OA
ATOM     85  O   UNL A   1      42.448  21.622  27.708  1.00  0.00    -0.237 OA
ATOM     86  O   UNL A   1      40.575  21.935  26.135  1.00  0.00    -0.744 OA
ENDBRANCH  79  83
ENDBRANCH  52  76
BRANCH  64  87
ATOM     87  C   UNL A   1      45.506  26.816  33.664  1.00  0.00     0.023 A 
ATOM     88  C   UNL A   1      45.276  25.775  34.589  1.00  0.00     0.031 A 
ATOM     89  C   UNL A   1      46.739  27.485  33.700  1.00  0.00     0.131 A 
ATOM     90  C   UNL A   1      46.240  25.489  35.564  1.00  0.00     0.055 A 
ATOM     91  C   UNL A   1      47.713  27.166  34.647  1.00  0.00     0.041 A 
ATOM     92  F   UNL A   1      46.985  28.503  32.860  1.00  0.00    -0.206 F 
ATOM     93  C   UNL A   1      47.456  26.181  35.599  1.00  0.00     0.022 A 
BRANCH  90  94
ATOM     94  S   UNL A   1      45.888  24.329  36.917  1.00  0.00     0.124 S 
ATOM     95  O   UNL A   1      47.181  23.672  37.095  1.00  0.00    -0.237 OA
ATOM     96  O   UNL A   1      45.489  25.225  37.998  1.00  0.00    -0.237 OA
ATOM     97  O   UNL A   1      44.828  23.477  36.385  1.00  0.00    -0.744 OA
ENDBRANCH  90  94
ENDBRANCH  64  87
ENDBRANCH  38  39
ENDBRANCH  31  33
ENDBRANCH  30  31
ENDBRANCH  29  30
ENDBRANCH   1  29
TORSDOF 17
ENDMDL
MODEL 2
REMARK VINA RESULT:     -12.7      1.631      7.409
REMARK SMILES O=C(Cc1c(C(=O)c2cc3c(cn2)CCCC3)[nH]c2cc(Cl)ccc12)OCCOC(=O)c1ccc(-c2c3nc(c(-c4cc(S(=O)(=O)[O-])ccc4F)c4ccc([nH]4)c(-c4cc(S(=O)(=O)[O-])ccc4F)c4nc(c(-c5cc(S(=O)(=O)[O-])ccc5F)c5ccc2[nH]5)C=C4)C=C3)cc1
REMARK SMILES IDX 27 1 26 2 2 3 1 4 3 5 4 6 5 7 25 8 18 9 19 10 24 11 20 13
REMARK SMILES IDX 23 14 21 15 22 16 6 17 7 18 8 19 9 20 13 21 10 22 12 23
REMARK SMILES IDX 11 24 17 25 14 26 16 27 15 28 28 29 29 30 30 31 31 32 32 33
REMARK SMILES IDX 33 34 94 35 34 36 93 37 35 38 36 39 37 40 87 41 38 42 92 43
REMARK SMILES IDX 86 44 88 45 39 46 91 47 85 48 84 49 40 51 72 52 52 53 71 54
REMARK SMILES IDX 53 55 56 56 70 57 89 58 54 59 55 60 69 62 90 63 57 64 41 65
REMARK SMILES IDX 42 66 50 67 43 68 49 69 51 70 48 71 44 72 45 73 46 74 47 75
REMARK SMILES IDX 73 76 74 77 82 78 75 79 81 80 83 81 80 82 76 83 77 84 78 85
REMARK SMILES IDX 79 86 58 87 59 88 67 89 60 90 66 91 68 92 65 93 61 94 62 95
REMARK SMILES IDX 63 96 64 97
REMARK H PARENT 18 12 88 50 56 61
REMARK Flexibility Score: inf
ROOT
ATOM      1  C   UNL A   1      32.319  29.648  25.659  1.00  0.00     0.274 C 
ENDROOT
BRANCH   1   2
ATOM      2  O   UNL A   1      31.520  28.556  26.142  1.00  0.00    -0.462 OA
BRANCH   2   3
ATOM      3  C   UNL A   1      32.078  27.332  26.360  1.00  0.00     0.310 C 
ATOM      4  O   UNL A   1      31.450  26.469  26.969  1.00  0.00    -0.252 OA
BRANCH   3   5
ATOM      5  C   UNL A   1      33.528  27.176  25.948  1.00  0.00     0.161 C 
BRANCH   5   6
ATOM      6  C   UNL A   1      33.767  26.092  24.942  1.00  0.00     0.000 A 
ATOM      7  C   UNL A   1      33.660  26.223  23.562  1.00  0.00     0.093 A 
ATOM      8  C   UNL A   1      33.971  24.695  25.212  1.00  0.00     0.004 A 
ATOM      9  N   UNL A   1      34.014  25.008  23.016  1.00  0.00    -0.351 N 
ATOM     10  C   UNL A   1      34.093  24.046  23.986  1.00  0.00     0.048 A 
ATOM     11  C   UNL A   1      34.028  23.905  26.380  1.00  0.00     0.012 A 
ATOM     12  H   UNL A   1      34.187  24.855  22.059  1.00  0.00     0.167 HD
ATOM     13  C   UNL A   1      34.263  22.663  23.857  1.00  0.00     0.047 A 
ATOM     14  C   UNL A   1      34.175  22.516  26.278  1.00  0.00     0.021 A 
ATOM     15  C   UNL A   1      34.292  21.912  25.031  1.00  0.00     0.043 A 
ATOM     16  Cl  UNL A   1      34.474  20.202  24.932  1.00  0.00    -0.084 Cl
BRANCH   7  17
ATOM     17  C   UNL A   1      33.237  27.365  22.761  1.00  0.00     0.227 C 
ATOM     18  O   UNL A   1      33.997  28.158  22.217  1.00  0.00    -0.285 OA
BRANCH  17  19
ATOM     19  C   UNL A   1      31.776  27.621  22.737  1.00  0.00     0.113 A 
ATOM     20  C   UNL A   1      31.330  28.891  22.373  1.00  0.00     0.036 A 
ATOM     21  N   UNL A   1      30.987  26.636  23.213  1.00  0.00    -0.252 NA
ATOM     22  C   UNL A   1      29.977  29.180  22.513  1.00  0.00    -0.041 A 
ATOM     23  C   UNL A   1      29.675  26.927  23.312  1.00  0.00     0.115 A 
ATOM     24  C   UNL A   1      29.134  28.183  23.028  1.00  0.00    -0.026 A 
ATOM     25  C   UNL A   1      29.460  30.542  22.132  1.00  0.00     0.036 C 
ATOM     26  C   UNL A   1      27.659  28.395  23.191  1.00  0.00     0.037 C 
ATOM     27  C   UNL A   1      27.947  30.577  21.951  1.00  0.00     0.005 C 
ATOM     28  C   UNL A   1      27.240  29.861  23.096  1.00  0.00     0.005 C 
ENDBRANCH  17  19
ENDBRANCH   7  17
ENDBRANCH   5   6
ENDBRANCH   3   5
ENDBRANCH   2   3
ENDBRANCH   1   2
BRANCH   1  29
ATOM     29  C   UNL A   1      31.958  30.990  26.298  1.00  0.00     0.275 C 
BRANCH  29  30
ATOM     30  O   UNL A   1      32.583  31.160  27.584  1.00  0.00    -0.458 OA
BRANCH  30  31
ATOM     31  C   UNL A   1      33.462  32.197  27.670  1.00  0.00     0.338 C 
ATOM     32  O   UNL A   1      33.176  33.379  27.564  1.00  0.00    -0.246 OA
BRANCH  31  33
ATOM     33  C   UNL A   1      34.812  31.705  28.045  1.00  0.00     0.060 A 
ATOM     34  C   UNL A   1      35.928  32.547  28.105  1.00  0.00     0.016 A 
ATOM     35  C   UNL A   1      34.954  30.349  28.361  1.00  0.00     0.016 A 
ATOM     36  C   UNL A   1      37.173  32.033  28.506  1.00  0.00     0.010 A 
ATOM     37  C   UNL A   1      36.200  29.836  28.748  1.00  0.00     0.010 A 
ATOM     38  C   UNL A   1      37.319  30.675  28.843  1.00  0.00    -0.014 A 
BRANCH  38  39
ATOM     39  C   UNL A   1      38.575  30.171  29.468  1.00  0.00     0.031 A 
ATOM     40  C   UNL A   1      39.463  29.148  28.823  1.00  0.00     0.074 A 
ATOM     41  C   UNL A   1      38.920  30.644  30.679  1.00  0.00     0.049 A 
ATOM     42  N   UNL A   1      40.511  28.533  29.314  1.00  0.00    -0.248 NA
ATOM     43  C   UNL A   1      39.145  28.775  27.445  1.00  0.00     0.031 C 
ATOM     44  C   UNL A   1      38.165  31.642  31.430  1.00  0.00     0.029 A 
ATOM     45  N   UNL A   1      39.991  30.347  31.487  1.00  0.00    -0.354 N 
ATOM     46  C   UNL A   1      40.951  27.667  28.319  1.00  0.00     0.074 A 
ATOM     47  C   UNL A   1      40.074  27.858  27.192  1.00  0.00     0.031 C 
ATOM     48  C   UNL A   1      38.796  31.881  32.586  1.00  0.00     0.029 A 
ATOM     49  C   UNL A   1      39.981  31.024  32.680  1.00  0.00     0.049 A 
ATOM     50  H   UNL A   1      40.698  29.709  31.233  1.00  0.00     0.167 HD
ATOM     51  C   UNL A   1      41.998  26.811  28.336  1.00  0.00     0.034 A 
ATOM     52  C   UNL A   1      40.816  30.964  33.739  1.00  0.00     0.034 A 
ATOM     53  C   UNL A   1      42.948  26.712  29.409  1.00  0.00     0.049 A 
ATOM     54  C   UNL A   1      42.043  30.093  33.689  1.00  0.00     0.074 A 
ATOM     55  C   UNL A   1      44.056  25.884  29.477  1.00  0.00     0.029 A 
ATOM     56  N   UNL A   1      42.958  27.499  30.541  1.00  0.00    -0.354 N 
ATOM     57  N   UNL A   1      42.442  29.294  32.729  1.00  0.00    -0.248 NA
ATOM     58  C   UNL A   1      42.952  30.126  34.847  1.00  0.00     0.031 C 
ATOM     59  C   UNL A   1      44.763  26.201  30.629  1.00  0.00     0.029 A 
ATOM     60  C   UNL A   1      44.087  27.216  31.284  1.00  0.00     0.049 A 
ATOM     61  H   UNL A   1      42.268  28.159  30.783  1.00  0.00     0.167 HD
ATOM     62  C   UNL A   1      43.657  28.761  33.152  1.00  0.00     0.074 A 
ATOM     63  C   UNL A   1      43.941  29.333  34.447  1.00  0.00     0.031 C 
ATOM     64  C   UNL A   1      44.447  27.862  32.518  1.00  0.00     0.034 A 
BRANCH  51  65
ATOM     65  C   UNL A   1      42.323  25.944  27.149  1.00  0.00     0.023 A 
ATOM     66  C   UNL A   1      41.935  24.591  27.131  1.00  0.00     0.031 A 
ATOM     67  C   UNL A   1      43.324  26.371  26.261  1.00  0.00     0.131 A 
ATOM     68  C   UNL A   1      42.585  23.698  26.261  1.00  0.00     0.055 A 
ATOM     69  C   UNL A   1      43.975  25.475  25.411  1.00  0.00     0.041 A 
ATOM     70  F   UNL A   1      43.719  27.654  26.252  1.00  0.00    -0.206 F 
ATOM     71  C   UNL A   1      43.617  24.130  25.420  1.00  0.00     0.022 A 
BRANCH  68  72
ATOM     72  S   UNL A   1      42.169  21.931  26.282  1.00  0.00     0.124 S 
ATOM     73  O   UNL A   1      40.742  21.974  25.966  1.00  0.00    -0.237 OA
ATOM     74  O   UNL A   1      43.020  21.378  25.231  1.00  0.00    -0.237 OA
ATOM     75  O   UNL A   1      42.505  21.516  27.639  1.00  0.00    -0.744 OA
ENDBRANCH  68  72
ENDBRANCH  51  65
BRANCH  52  76
ATOM     76  C   UNL A   1      40.523  31.846  34.901  1.00  0.00     0.023 A 
ATOM     77  C   UNL A   1      39.614  31.438  35.894  1.00  0.00     0.031 A 
ATOM     78  C   UNL A   1      41.006  33.163  34.935  1.00  0.00     0.131 A 
ATOM     79  C   UNL A   1      39.144  32.372  36.823  1.00  0.00     0.055 A 
ATOM     80  C   UNL A   1      40.594  34.068  35.912  1.00  0.00     0.041 A 
ATOM     81  F   UNL A   1      41.861  33.594  33.995  1.00  0.00    -0.206 F 
ATOM     82  C   UNL A   1      39.639  33.679  36.849  1.00  0.00     0.022 A 
BRANCH  79  83
ATOM     83  S   UNL A   1      37.754  31.969  37.916  1.00  0.00     0.124 S 
ATOM     84  O   UNL A   1      36.765  32.970  37.531  1.00  0.00    -0.237 OA
ATOM     85  O   UNL A   1      37.453  30.597  37.516  1.00  0.00    -0.237 OA
ATOM     86  O   UNL A   1      38.313  32.118  39.256  1.00  0.00    -0.744 OA
ENDBRANCH  79  83
ENDBRANCH  52  76
BRANCH  64  87
ATOM     87  C   UNL A   1      45.750  27.411  33.124  1.00  0.00     0.023 A 
ATOM     88  C   UNL A   1      46.957  27.983  32.668  1.00  0.00     0.031 A 
ATOM     89  C   UNL A   1      45.811  26.229  33.878  1.00  0.00     0.131 A 
ATOM     90  C   UNL A   1      48.169  27.323  32.903  1.00  0.00     0.055 A 
ATOM     91  C   UNL A   1      47.027  25.598  34.146  1.00  0.00     0.041 A 
ATOM     92  F   UNL A   1      44.684  25.634  34.303  1.00  0.00    -0.206 F 
ATOM     93  C   UNL A   1      48.210  26.133  33.638  1.00  0.00     0.022 A 
BRANCH  90  94
ATOM     94  S   UNL A   1      49.711  27.892  32.130  1.00  0.00     0.124 S 
ATOM     95  O   UNL A   1      49.926  29.174  32.796  1.00  0.00    -0.237 OA
ATOM     96  O   UNL A   1      50.650  26.835  32.494  1.00  0.00    -0.237 OA
ATOM     97  O   UNL A   1      49.384  27.978  30.710  1.00  0.00    -0.744 OA
ENDBRANCH  90  94
ENDBRANCH  64  87
ENDBRANCH  38  39
ENDBRANCH  31  33
ENDBRANCH  30  31
ENDBRANCH  29  30
ENDBRANCH   1  29
TORSDOF 17
ENDMDL
MODEL 3
REMARK VINA RESULT:     -12.6      0.465      7.218
REMARK SMILES O=C(Cc1c(C(=O)c2cc3c(cn2)CCCC3)[nH]c2cc(Cl)ccc12)OCCOC(=O)c1ccc(-c2c3nc(c(-c4cc(S(=O)(=O)[O-])ccc4F)c4ccc([nH]4)c(-c4cc(S(=O)(=O)[O-])ccc4F)c4nc(c(-c5cc(S(=O)(=O)[O-])ccc5F)c5ccc2[nH]5)C=C4)C=C3)cc1
REMARK SMILES IDX 27 1 26 2 2 3 1 4 3 5 4 6 5 7 25 8 18 9 19 10 24 11 20 13
REMARK SMILES IDX 23 14 21 15 22 16 6 17 7 18 8 19 9 20 13 21 10 22 12 23
REMARK SMILES IDX 11 24 17 25 14 26 16 27 15 28 28 29 29 30 30 31 31 32 32 33
REMARK SMILES IDX 33 34 94 35 34 36 93 37 35 38 36 39 37 40 87 41 38 42 92 43
REMARK SMILES IDX 86 44 88 45 39 46 91 47 85 48 84 49 40 51 72 52 52 53 71 54
REMARK SMILES IDX 53 55 56 56 70 57 89 58 54 59 55 60 69 62 90 63 57 64 41 65
REMARK SMILES IDX 42 66 50 67 43 68 49 69 51 70 48 71 44 72 45 73 46 74 47 75
REMARK SMILES IDX 73 76 74 77 82 78 75 79 81 80 83 81 80 82 76 83 77 84 78 85
REMARK SMILES IDX 79 86 58 87 59 88 67 89 60 90 66 91 68 92 65 93 61 94 62 95
REMARK SMILES IDX 63 96 64 97
REMARK H PARENT 18 12 88 50 56 61
REMARK Flexibility Score: inf
ROOT
ATOM      1  C   UNL A   1      32.682  29.692  25.814  1.00  0.00     0.274 C 
ENDROOT
BRANCH   1   2
ATOM      2  O   UNL A   1      31.782  28.611  26.104  1.00  0.00    -0.462 OA
BRANCH   2   3
ATOM      3  C   UNL A   1      32.261  27.372  26.407  1.00  0.00     0.310 C 
ATOM      4  O   UNL A   1      31.580  26.594  27.071  1.00  0.00    -0.252 OA
BRANCH   3   5
ATOM      5  C   UNL A   1      33.698  27.097  26.013  1.00  0.00     0.161 C 
BRANCH   5   6
ATOM      6  C   UNL A   1      33.857  26.018  24.985  1.00  0.00     0.000 A 
ATOM      7  C   UNL A   1      33.697  26.170  23.612  1.00  0.00     0.093 A 
ATOM      8  C   UNL A   1      34.022  24.611  25.231  1.00  0.00     0.004 A 
ATOM      9  N   UNL A   1      33.985  24.951  23.038  1.00  0.00    -0.351 N 
ATOM     10  C   UNL A   1      34.070  23.974  23.993  1.00  0.00     0.048 A 
ATOM     11  C   UNL A   1      34.099  23.805  26.386  1.00  0.00     0.012 A 
ATOM     12  H   UNL A   1      34.113  24.804  22.073  1.00  0.00     0.167 HD
ATOM     13  C   UNL A   1      34.186  22.588  23.841  1.00  0.00     0.047 A 
ATOM     14  C   UNL A   1      34.193  22.413  26.261  1.00  0.00     0.021 A 
ATOM     15  C   UNL A   1      34.237  21.821  25.004  1.00  0.00     0.043 A 
ATOM     16  Cl  UNL A   1      34.353  20.107  24.878  1.00  0.00    -0.084 Cl
BRANCH   7  17
ATOM     17  C   UNL A   1      33.282  27.337  22.843  1.00  0.00     0.227 C 
ATOM     18  O   UNL A   1      34.047  28.150  22.339  1.00  0.00    -0.285 OA
BRANCH  17  19
ATOM     19  C   UNL A   1      31.820  27.587  22.803  1.00  0.00     0.113 A 
ATOM     20  C   UNL A   1      31.373  28.846  22.402  1.00  0.00     0.036 A 
ATOM     21  N   UNL A   1      31.031  26.613  23.300  1.00  0.00    -0.252 NA
ATOM     22  C   UNL A   1      30.018  29.133  22.526  1.00  0.00    -0.041 A 
ATOM     23  C   UNL A   1      29.718  26.902  23.383  1.00  0.00     0.115 A 
ATOM     24  C   UNL A   1      29.175  28.148  23.062  1.00  0.00    -0.026 A 
ATOM     25  C   UNL A   1      29.499  30.483  22.105  1.00  0.00     0.036 C 
ATOM     26  C   UNL A   1      27.698  28.360  23.210  1.00  0.00     0.037 C 
ATOM     27  C   UNL A   1      27.987  30.508  21.913  1.00  0.00     0.005 C 
ATOM     28  C   UNL A   1      27.275  29.821  23.073  1.00  0.00     0.005 C 
ENDBRANCH  17  19
ENDBRANCH   7  17
ENDBRANCH   5   6
ENDBRANCH   3   5
ENDBRANCH   2   3
ENDBRANCH   1   2
BRANCH   1  29
ATOM     29  C   UNL A   1      32.238  31.027  26.416  1.00  0.00     0.275 C 
BRANCH  29  30
ATOM     30  O   UNL A   1      32.811  31.248  27.718  1.00  0.00    -0.458 OA
BRANCH  30  31
ATOM     31  C   UNL A   1      33.717  32.262  27.788  1.00  0.00     0.338 C 
ATOM     32  O   UNL A   1      33.462  33.450  27.670  1.00  0.00    -0.246 OA
BRANCH  31  33
ATOM     33  C   UNL A   1      35.056  31.739  28.163  1.00  0.00     0.060 A 
ATOM     34  C   UNL A   1      36.183  32.563  28.262  1.00  0.00     0.016 A 
ATOM     35  C   UNL A   1      35.174  30.372  28.441  1.00  0.00     0.016 A 
ATOM     36  C   UNL A   1      37.415  32.019  28.662  1.00  0.00     0.010 A 
ATOM     37  C   UNL A   1      36.408  29.830  28.827  1.00  0.00     0.010 A 
ATOM     38  C   UNL A   1      37.538  30.649  28.960  1.00  0.00    -0.014 A 
BRANCH  38  39
ATOM     39  C   UNL A   1      38.779  30.109  29.583  1.00  0.00     0.031 A 
ATOM     40  C   UNL A   1      39.645  29.071  28.931  1.00  0.00     0.074 A 
ATOM     41  C   UNL A   1      39.130  30.559  30.801  1.00  0.00     0.049 A 
ATOM     42  N   UNL A   1      40.675  28.425  29.418  1.00  0.00    -0.248 NA
ATOM     43  C   UNL A   1      39.323  28.721  27.547  1.00  0.00     0.031 C 
ATOM     44  C   UNL A   1      38.396  31.567  31.560  1.00  0.00     0.029 A 
ATOM     45  N   UNL A   1      40.191  30.228  31.609  1.00  0.00    -0.354 N 
ATOM     46  C   UNL A   1      41.098  27.560  28.416  1.00  0.00     0.074 A 
ATOM     47  C   UNL A   1      40.231  27.784  27.288  1.00  0.00     0.031 C 
ATOM     48  C   UNL A   1      39.029  31.778  32.721  1.00  0.00     0.029 A 
ATOM     49  C   UNL A   1      40.192  30.892  32.810  1.00  0.00     0.049 A 
ATOM     50  H   UNL A   1      40.883  29.576  31.352  1.00  0.00     0.167 HD
ATOM     51  C   UNL A   1      42.125  26.679  28.427  1.00  0.00     0.034 A 
ATOM     52  C   UNL A   1      41.021  30.800  33.872  1.00  0.00     0.034 A 
ATOM     53  C   UNL A   1      43.067  26.546  29.503  1.00  0.00     0.049 A 
ATOM     54  C   UNL A   1      42.227  29.900  33.817  1.00  0.00     0.074 A 
ATOM     55  C   UNL A   1      44.155  25.690  29.566  1.00  0.00     0.029 A 
ATOM     56  N   UNL A   1      43.091  27.319  30.644  1.00  0.00    -0.354 N 
ATOM     57  N   UNL A   1      42.610  29.102  32.849  1.00  0.00    -0.248 NA
ATOM     58  C   UNL A   1      43.132  29.899  34.978  1.00  0.00     0.031 C 
ATOM     59  C   UNL A   1      44.865  25.977  30.724  1.00  0.00     0.029 A 
ATOM     60  C   UNL A   1      44.211  27.002  31.388  1.00  0.00     0.049 A 
ATOM     61  H   UNL A   1      42.417  27.993  30.890  1.00  0.00     0.167 HD
ATOM     62  C   UNL A   1      43.811  28.536  33.271  1.00  0.00     0.074 A 
ATOM     63  C   UNL A   1      44.103  29.086  34.573  1.00  0.00     0.031 C 
ATOM     64  C   UNL A   1      44.581  27.625  32.630  1.00  0.00     0.034 A 
BRANCH  51  65
ATOM     65  C   UNL A   1      42.433  25.818  27.232  1.00  0.00     0.023 A 
ATOM     66  C   UNL A   1      42.015  24.474  27.198  1.00  0.00     0.031 A 
ATOM     67  C   UNL A   1      43.447  26.231  26.352  1.00  0.00     0.131 A 
ATOM     68  C   UNL A   1      42.647  23.576  26.321  1.00  0.00     0.055 A 
ATOM     69  C   UNL A   1      44.079  25.330  25.493  1.00  0.00     0.041 A 
ATOM     70  F   UNL A   1      43.871  27.504  26.357  1.00  0.00    -0.206 F 
ATOM     71  C   UNL A   1      43.690  23.993  25.487  1.00  0.00     0.022 A 
BRANCH  68  72
ATOM     72  S   UNL A   1      42.190  21.818  26.322  1.00  0.00     0.124 S 
ATOM     73  O   UNL A   1      43.139  21.280  25.350  1.00  0.00    -0.237 OA
ATOM     74  O   UNL A   1      42.426  21.416  27.706  1.00  0.00    -0.237 OA
ATOM     75  O   UNL A   1      40.793  21.828  25.906  1.00  0.00    -0.744 OA
ENDBRANCH  68  72
ENDBRANCH  51  65
BRANCH  52  76
ATOM     76  C   UNL A   1      40.745  31.676  35.042  1.00  0.00     0.023 A 
ATOM     77  C   UNL A   1      39.750  31.327  35.973  1.00  0.00     0.031 A 
ATOM     78  C   UNL A   1      41.341  32.943  35.140  1.00  0.00     0.131 A 
ATOM     79  C   UNL A   1      39.315  32.277  36.904  1.00  0.00     0.055 A 
ATOM     80  C   UNL A   1      40.958  33.857  36.120  1.00  0.00     0.041 A 
ATOM     81  F   UNL A   1      42.281  33.318  34.258  1.00  0.00    -0.206 F 
ATOM     82  C   UNL A   1      39.923  33.534  36.994  1.00  0.00     0.022 A 
BRANCH  79  83
ATOM     83  S   UNL A   1      37.838  31.975  37.911  1.00  0.00     0.124 S 
ATOM     84  O   UNL A   1      36.910  32.978  37.399  1.00  0.00    -0.237 OA
ATOM     85  O   UNL A   1      37.524  30.591  37.566  1.00  0.00    -0.237 OA
ATOM     86  O   UNL A   1      38.302  32.185  39.278  1.00  0.00    -0.744 OA
ENDBRANCH  79  83
ENDBRANCH  52  76
BRANCH  64  87
ATOM     87  C   UNL A   1      45.870  27.136  33.236  1.00  0.00     0.023 A 
ATOM     88  C   UNL A   1      45.832  26.094  34.187  1.00  0.00     0.031 A 
ATOM     89  C   UNL A   1      47.042  27.899  33.123  1.00  0.00     0.131 A 
ATOM     90  C   UNL A   1      46.922  25.899  35.045  1.00  0.00     0.055 A 
ATOM     91  C   UNL A   1      48.142  27.671  33.952  1.00  0.00     0.041 A 
ATOM     92  F   UNL A   1      47.108  28.920  32.254  1.00  0.00    -0.206 F 
ATOM     93  C   UNL A   1      48.075  26.683  34.934  1.00  0.00     0.022 A 
BRANCH  90  94
ATOM     94  S   UNL A   1      46.822  24.736  36.437  1.00  0.00     0.124 S 
ATOM     95  O   UNL A   1      48.102  24.955  37.106  1.00  0.00    -0.237 OA
ATOM     96  O   UNL A   1      45.649  25.218  37.161  1.00  0.00    -0.237 OA
ATOM     97  O   UNL A   1      46.671  23.432  35.798  1.00  0.00    -0.744 OA
ENDBRANCH  90  94
ENDBRANCH  64  87
ENDBRANCH  38  39
ENDBRANCH  31  33
ENDBRANCH  30  31
ENDBRANCH  29  30
ENDBRANCH   1  29
TORSDOF 17
ENDMDL
