MODEL 1
REMARK VINA RESULT:     -12.1      0.000      0.000
REMARK SMILES CC(C)(C)c1cc2c(cc1Cl)C=C(C(=O)OCCOC(=O)c1ccc(-c3c4nc(c(-c5cc(S(=O)(=O)[O-])ccc5F)c5ccc([nH]5)c(-c5cc(S(=O)(=O)[O-])ccc5F)c5nc(c(-c6cc(S(=O)(=O)[O-])ccc6F)c6ccc3[nH]6)C=C5)C=C4)cc1)[C@H](C(F)(F)F)O2
REMARK SMILES IDX 18 1 17 2 16 3 14 4 15 5 13 6 5 7 6 8 10 9 7 10 9 11 11 12
REMARK SMILES IDX 8 13 90 14 12 15 85 16 2 17 1 18 3 19 4 20 86 21 87 22 88 23
REMARK SMILES IDX 89 24 19 25 20 26 21 27 22 28 23 29 84 30 24 31 83 32 25 33
REMARK SMILES IDX 26 34 27 35 77 36 28 37 82 38 76 39 78 40 29 41 81 42 75 43
REMARK SMILES IDX 74 44 30 46 62 47 42 48 61 49 43 50 46 51 60 52 79 53 44 54
REMARK SMILES IDX 45 55 59 57 80 58 47 59 31 60 32 61 40 62 33 63 39 64 41 65
REMARK SMILES IDX 38 66 34 67 35 68 36 69 37 70 63 71 64 72 72 73 65 74 71 75
REMARK SMILES IDX 73 76 70 77 66 78 67 79 68 80 69 81 48 82 49 83 57 84 50 85
REMARK SMILES IDX 56 86 58 87 55 88 51 89 52 90 53 91 54 92
REMARK H PARENT 78 45 46 56
REMARK Flexibility Score: inf
ROOT
ATOM      1  C   UNL A   1      37.241  20.848  24.762  1.00  0.00     0.275 C 
ENDROOT
BRANCH   1   2
ATOM      2  C   UNL A   1      35.758  20.573  25.021  1.00  0.00     0.275 C 
BRANCH   2   3
ATOM      3  O   UNL A   1      35.280  21.349  26.141  1.00  0.00    -0.459 OA
BRANCH   3   4
ATOM      4  C   UNL A   1      33.946  21.339  26.354  1.00  0.00     0.338 C 
ATOM      5  O   UNL A   1      33.351  20.570  27.088  1.00  0.00    -0.246 OA
BRANCH   4   6
ATOM      6  C   UNL A   1      33.293  22.469  25.660  1.00  0.00     0.087 C 
ATOM      7  C   UNL A   1      31.873  27.139  24.297  1.00  0.00    -0.020 A 
ATOM      8  C   UNL A   1      31.323  25.835  24.154  1.00  0.00     0.053 A 
ATOM      9  C   UNL A   1      33.124  27.224  24.955  1.00  0.00     0.045 A 
ATOM     10  C   UNL A   1      31.950  24.699  24.675  1.00  0.00     0.128 A 
ATOM     11  C   UNL A   1      33.732  26.086  25.499  1.00  0.00     0.032 A 
ATOM     12  Cl  UNL A   1      34.017  28.685  25.195  1.00  0.00    -0.084 Cl
ATOM     13  C   UNL A   1      33.129  24.837  25.387  1.00  0.00     0.019 A 
ATOM     14  O   UNL A   1      31.328  23.484  24.524  1.00  0.00    -0.475 OA
ATOM     15  C   UNL A   1      33.691  23.685  26.054  1.00  0.00     0.027 C 
ATOM     16  C   UNL A   1      32.171  22.285  24.669  1.00  0.00     0.316 C 
BRANCH   7  17
ATOM     17  C   UNL A   1      31.087  28.377  23.792  1.00  0.00    -0.012 C 
ATOM     18  C   UNL A   1      31.799  29.001  22.569  1.00  0.00     0.016 C 
ATOM     19  C   UNL A   1      30.997  29.518  24.841  1.00  0.00     0.016 C 
ATOM     20  C   UNL A   1      29.625  28.024  23.440  1.00  0.00     0.016 C 
ENDBRANCH   7  17
BRANCH  16  21
ATOM     21  C   UNL A   1      32.549  21.774  23.267  1.00  0.00     0.430 C 
ATOM     22  F   UNL A   1      33.661  22.363  22.776  1.00  0.00    -0.167 F 
ATOM     23  F   UNL A   1      32.836  20.445  23.321  1.00  0.00    -0.167 F 
ATOM     24  F   UNL A   1      31.557  21.931  22.367  1.00  0.00    -0.167 F 
ENDBRANCH  16  21
ENDBRANCH   4   6
ENDBRANCH   3   4
ENDBRANCH   2   3
ENDBRANCH   1   2
BRANCH   1  25
ATOM     25  O   UNL A   1      37.762  21.786  25.724  1.00  0.00    -0.458 OA
BRANCH  25  26
ATOM     26  C   UNL A   1      39.026  21.552  26.145  1.00  0.00     0.338 C 
ATOM     27  O   UNL A   1      39.671  20.523  26.012  1.00  0.00    -0.246 OA
BRANCH  26  28
ATOM     28  C   UNL A   1      39.596  22.799  26.675  1.00  0.00     0.060 A 
ATOM     29  C   UNL A   1      40.652  22.819  27.580  1.00  0.00     0.016 A 
ATOM     30  C   UNL A   1      39.095  23.990  26.164  1.00  0.00     0.016 A 
ATOM     31  C   UNL A   1      41.178  24.057  27.987  1.00  0.00     0.010 A 
ATOM     32  C   UNL A   1      39.673  25.211  26.496  1.00  0.00     0.010 A 
ATOM     33  C   UNL A   1      40.704  25.267  27.440  1.00  0.00    -0.014 A 
BRANCH  33  34
ATOM     34  C   UNL A   1      41.261  26.597  27.833  1.00  0.00     0.031 A 
ATOM     35  C   UNL A   1      42.693  26.957  27.509  1.00  0.00     0.074 A 
ATOM     36  C   UNL A   1      40.508  27.456  28.551  1.00  0.00     0.049 A 
ATOM     37  N   UNL A   1      43.367  28.034  27.829  1.00  0.00    -0.248 NA
ATOM     38  C   UNL A   1      43.485  25.962  26.767  1.00  0.00     0.031 C 
ATOM     39  C   UNL A   1      39.143  27.194  29.005  1.00  0.00     0.029 A 
ATOM     40  N   UNL A   1      40.779  28.715  29.028  1.00  0.00    -0.354 N 
ATOM     41  C   UNL A   1      44.660  27.832  27.353  1.00  0.00     0.074 A 
ATOM     42  C   UNL A   1      44.695  26.503  26.786  1.00  0.00     0.031 C 
ATOM     43  C   UNL A   1      38.677  28.277  29.647  1.00  0.00     0.029 A 
ATOM     44  C   UNL A   1      39.724  29.295  29.696  1.00  0.00     0.049 A 
ATOM     45  H   UNL A   1      41.648  29.163  28.903  1.00  0.00     0.167 HD
ATOM     46  C   UNL A   1      45.711  28.687  27.351  1.00  0.00     0.034 A 
ATOM     47  C   UNL A   1      39.604  30.508  30.277  1.00  0.00     0.034 A 
ATOM     48  C   UNL A   1      45.644  30.034  27.858  1.00  0.00     0.049 A 
ATOM     49  C   UNL A   1      40.766  31.469  30.214  1.00  0.00     0.074 A 
ATOM     50  C   UNL A   1      46.622  31.010  27.817  1.00  0.00     0.029 A 
ATOM     51  N   UNL A   1      44.539  30.600  28.476  1.00  0.00    -0.354 N 
ATOM     52  N   UNL A   1      41.947  31.296  29.668  1.00  0.00    -0.248 NA
ATOM     53  C   UNL A   1      40.584  32.792  30.830  1.00  0.00     0.031 C 
ATOM     54  C   UNL A   1      46.129  32.149  28.453  1.00  0.00     0.029 A 
ATOM     55  C   UNL A   1      44.818  31.909  28.832  1.00  0.00     0.049 A 
ATOM     56  H   UNL A   1      43.683  30.141  28.638  1.00  0.00     0.167 HD
ATOM     57  C   UNL A   1      42.635  32.494  29.850  1.00  0.00     0.074 A 
ATOM     58  C   UNL A   1      41.732  33.391  30.540  1.00  0.00     0.031 C 
ATOM     59  C   UNL A   1      43.901  32.812  29.485  1.00  0.00     0.034 A 
BRANCH  46  60
ATOM     60  C   UNL A   1      47.017  28.242  26.732  1.00  0.00     0.023 A 
ATOM     61  C   UNL A   1      47.166  28.212  25.331  1.00  0.00     0.031 A 
ATOM     62  C   UNL A   1      48.058  27.718  27.519  1.00  0.00     0.131 A 
ATOM     63  C   UNL A   1      48.314  27.644  24.763  1.00  0.00     0.055 A 
ATOM     64  C   UNL A   1      49.221  27.198  26.949  1.00  0.00     0.041 A 
ATOM     65  F   UNL A   1      47.964  27.710  28.858  1.00  0.00    -0.206 F 
ATOM     66  C   UNL A   1      49.347  27.147  25.565  1.00  0.00     0.022 A 
BRANCH  63  67
ATOM     67  S   UNL A   1      48.487  27.459  22.967  1.00  0.00     0.124 S 
ATOM     68  O   UNL A   1      48.365  26.013  22.801  1.00  0.00    -0.237 OA
ATOM     69  O   UNL A   1      47.358  28.241  22.470  1.00  0.00    -0.237 OA
ATOM     70  O   UNL A   1      49.809  28.007  22.682  1.00  0.00    -0.744 OA
ENDBRANCH  63  67
ENDBRANCH  46  60
BRANCH  47  71
ATOM     71  C   UNL A   1      38.293  30.899  30.879  1.00  0.00     0.023 A 
ATOM     72  C   UNL A   1      37.292  31.526  30.113  1.00  0.00     0.031 A 
ATOM     73  C   UNL A   1      38.075  30.759  32.260  1.00  0.00     0.131 A 
ATOM     74  C   UNL A   1      36.156  32.049  30.746  1.00  0.00     0.055 A 
ATOM     75  C   UNL A   1      36.910  31.220  32.875  1.00  0.00     0.041 A 
ATOM     76  F   UNL A   1      39.006  30.183  33.036  1.00  0.00    -0.206 F 
ATOM     77  C   UNL A   1      35.951  31.885  32.119  1.00  0.00     0.022 A 
BRANCH  74  78
ATOM     78  S   UNL A   1      34.975  33.082  29.835  1.00  0.00     0.124 S 
ATOM     79  O   UNL A   1      35.842  34.112  29.272  1.00  0.00    -0.237 OA
ATOM     80  O   UNL A   1      34.424  32.128  28.874  1.00  0.00    -0.237 OA
ATOM     81  O   UNL A   1      34.045  33.532  30.865  1.00  0.00    -0.744 OA
ENDBRANCH  74  78
ENDBRANCH  47  71
BRANCH  59  82
ATOM     82  C   UNL A   1      44.428  34.196  29.784  1.00  0.00     0.023 A 
ATOM     83  C   UNL A   1      44.344  35.202  28.802  1.00  0.00     0.031 A 
ATOM     84  C   UNL A   1      45.183  34.454  30.940  1.00  0.00     0.131 A 
ATOM     85  C   UNL A   1      45.056  36.397  28.966  1.00  0.00     0.055 A 
ATOM     86  C   UNL A   1      45.850  35.666  31.122  1.00  0.00     0.041 A 
ATOM     87  F   UNL A   1      45.302  33.521  31.898  1.00  0.00    -0.206 F 
ATOM     88  C   UNL A   1      45.803  36.637  30.124  1.00  0.00     0.022 A 
BRANCH  85  89
ATOM     89  S   UNL A   1      45.122  37.637  27.643  1.00  0.00     0.124 S 
ATOM     90  O   UNL A   1      45.519  38.839  28.373  1.00  0.00    -0.237 OA
ATOM     91  O   UNL A   1      46.140  37.083  26.755  1.00  0.00    -0.237 OA
ATOM     92  O   UNL A   1      43.764  37.657  27.109  1.00  0.00    -0.744 OA
ENDBRANCH  85  89
ENDBRANCH  59  82
ENDBRANCH  33  34
ENDBRANCH  26  28
ENDBRANCH  25  26
ENDBRANCH   1  25
TORSDOF 16
ENDMDL
MODEL 2
REMARK VINA RESULT:     -11.8      1.528      1.811
REMARK SMILES CC(C)(C)c1cc2c(cc1Cl)C=C(C(=O)OCCOC(=O)c1ccc(-c3c4nc(c(-c5cc(S(=O)(=O)[O-])ccc5F)c5ccc([nH]5)c(-c5cc(S(=O)(=O)[O-])ccc5F)c5nc(c(-c6cc(S(=O)(=O)[O-])ccc6F)c6ccc3[nH]6)C=C5)C=C4)cc1)[C@H](C(F)(F)F)O2
REMARK SMILES IDX 18 1 17 2 16 3 14 4 15 5 13 6 5 7 6 8 10 9 7 10 9 11 11 12
REMARK SMILES IDX 8 13 90 14 12 15 85 16 2 17 1 18 3 19 4 20 86 21 87 22 88 23
REMARK SMILES IDX 89 24 19 25 20 26 21 27 22 28 23 29 84 30 24 31 83 32 25 33
REMARK SMILES IDX 26 34 27 35 77 36 28 37 82 38 76 39 78 40 29 41 81 42 75 43
REMARK SMILES IDX 74 44 30 46 62 47 42 48 61 49 43 50 46 51 60 52 79 53 44 54
REMARK SMILES IDX 45 55 59 57 80 58 47 59 31 60 32 61 40 62 33 63 39 64 41 65
REMARK SMILES IDX 38 66 34 67 35 68 36 69 37 70 63 71 64 72 72 73 65 74 71 75
REMARK SMILES IDX 73 76 70 77 66 78 67 79 68 80 69 81 48 82 49 83 57 84 50 85
REMARK SMILES IDX 56 86 58 87 55 88 51 89 52 90 53 91 54 92
REMARK H PARENT 78 45 46 56
REMARK Flexibility Score: inf
ROOT
ATOM      1  C   UNL A   1      36.903  19.964  24.795  1.00  0.00     0.275 C 
ENDROOT
BRANCH   1   2
ATOM      2  C   UNL A   1      35.466  20.269  25.227  1.00  0.00     0.275 C 
BRANCH   2   3
ATOM      3  O   UNL A   1      35.411  21.481  26.009  1.00  0.00    -0.459 OA
BRANCH   3   4
ATOM      4  C   UNL A   1      34.241  21.744  26.630  1.00  0.00     0.338 C 
ATOM      5  O   UNL A   1      33.888  21.287  27.702  1.00  0.00    -0.246 OA
BRANCH   4   6
ATOM      6  C   UNL A   1      33.468  22.761  25.886  1.00  0.00     0.087 C 
ATOM      7  C   UNL A   1      31.739  27.187  24.122  1.00  0.00    -0.020 A 
ATOM      8  C   UNL A   1      31.215  25.869  24.228  1.00  0.00     0.053 A 
ATOM      9  C   UNL A   1      33.063  27.376  24.589  1.00  0.00     0.045 A 
ATOM     10  C   UNL A   1      31.940  24.821  24.805  1.00  0.00     0.128 A 
ATOM     11  C   UNL A   1      33.772  26.329  25.192  1.00  0.00     0.032 A 
ATOM     12  Cl  UNL A   1      33.935  28.866  24.512  1.00  0.00    -0.084 Cl
ATOM     13  C   UNL A   1      33.198  25.069  25.327  1.00  0.00     0.019 A 
ATOM     14  O   UNL A   1      31.340  23.589  24.900  1.00  0.00    -0.475 OA
ATOM     15  C   UNL A   1      33.877  24.025  26.059  1.00  0.00     0.027 C 
ATOM     16  C   UNL A   1      32.232  22.432  25.088  1.00  0.00     0.316 C 
BRANCH   7  17
ATOM     17  C   UNL A   1      30.856  28.336  23.568  1.00  0.00    -0.012 C 
ATOM     18  C   UNL A   1      31.433  28.856  22.231  1.00  0.00     0.016 C 
ATOM     19  C   UNL A   1      30.803  29.574  24.502  1.00  0.00     0.016 C 
ATOM     20  C   UNL A   1      29.388  27.893  23.385  1.00  0.00     0.016 C 
ENDBRANCH   7  17
BRANCH  16  21
ATOM     21  C   UNL A   1      32.437  21.741  23.728  1.00  0.00     0.430 C 
ATOM     22  F   UNL A   1      31.504  22.091  22.815  1.00  0.00    -0.167 F 
ATOM     23  F   UNL A   1      33.629  22.118  23.191  1.00  0.00    -0.167 F 
ATOM     24  F   UNL A   1      32.450  20.396  23.820  1.00  0.00    -0.167 F 
ENDBRANCH  16  21
ENDBRANCH   4   6
ENDBRANCH   3   4
ENDBRANCH   2   3
ENDBRANCH   1   2
BRANCH   1  25
ATOM     25  O   UNL A   1      37.785  21.043  25.161  1.00  0.00    -0.458 OA
BRANCH  25  26
ATOM     26  C   UNL A   1      38.888  20.688  25.859  1.00  0.00     0.338 C 
ATOM     27  O   UNL A   1      39.372  19.570  25.958  1.00  0.00    -0.246 OA
BRANCH  26  28
ATOM     28  C   UNL A   1      39.536  21.898  26.384  1.00  0.00     0.060 A 
ATOM     29  C   UNL A   1      40.691  21.857  27.158  1.00  0.00     0.016 A 
ATOM     30  C   UNL A   1      39.000  23.120  25.998  1.00  0.00     0.016 A 
ATOM     31  C   UNL A   1      41.282  23.065  27.565  1.00  0.00     0.010 A 
ATOM     32  C   UNL A   1      39.634  24.315  26.324  1.00  0.00     0.010 A 
ATOM     33  C   UNL A   1      40.769  24.308  27.142  1.00  0.00    -0.014 A 
BRANCH  33  34
ATOM     34  C   UNL A   1      41.390  25.608  27.537  1.00  0.00     0.031 A 
ATOM     35  C   UNL A   1      42.809  25.937  27.133  1.00  0.00     0.074 A 
ATOM     36  C   UNL A   1      40.711  26.466  28.326  1.00  0.00     0.049 A 
ATOM     37  N   UNL A   1      43.536  26.983  27.440  1.00  0.00    -0.248 NA
ATOM     38  C   UNL A   1      43.522  24.943  26.313  1.00  0.00     0.031 C 
ATOM     39  C   UNL A   1      39.370  26.231  28.860  1.00  0.00     0.029 A 
ATOM     40  N   UNL A   1      41.051  27.702  28.821  1.00  0.00    -0.354 N 
ATOM     41  C   UNL A   1      44.789  26.758  26.876  1.00  0.00     0.074 A 
ATOM     42  C   UNL A   1      44.746  25.447  26.270  1.00  0.00     0.031 C 
ATOM     43  C   UNL A   1      38.980  27.306  29.561  1.00  0.00     0.029 A 
ATOM     44  C   UNL A   1      40.059  28.292  29.573  1.00  0.00     0.049 A 
ATOM     45  H   UNL A   1      41.924  28.128  28.654  1.00  0.00     0.167 HD
ATOM     46  C   UNL A   1      45.864  27.582  26.832  1.00  0.00     0.034 A 
ATOM     47  C   UNL A   1      40.014  29.489  30.195  1.00  0.00     0.034 A 
ATOM     48  C   UNL A   1      45.870  28.914  27.380  1.00  0.00     0.049 A 
ATOM     49  C   UNL A   1      41.198  30.417  30.085  1.00  0.00     0.074 A 
ATOM     50  C   UNL A   1      46.874  29.862  27.305  1.00  0.00     0.029 A 
ATOM     51  N   UNL A   1      44.825  29.493  28.084  1.00  0.00    -0.354 N 
ATOM     52  N   UNL A   1      42.337  30.227  29.460  1.00  0.00    -0.248 NA
ATOM     53  C   UNL A   1      41.096  31.725  30.749  1.00  0.00     0.031 C 
ATOM     54  C   UNL A   1      46.458  30.995  28.004  1.00  0.00     0.029 A 
ATOM     55  C   UNL A   1      45.166  30.781  28.459  1.00  0.00     0.049 A 
ATOM     56  H   UNL A   1      43.967  29.054  28.287  1.00  0.00     0.167 HD
ATOM     57  C   UNL A   1      43.071  31.398  29.632  1.00  0.00     0.074 A 
ATOM     58  C   UNL A   1      42.242  32.299  30.403  1.00  0.00     0.031 C 
ATOM     59  C   UNL A   1      44.321  31.690  29.195  1.00  0.00     0.034 A 
BRANCH  46  60
ATOM     60  C   UNL A   1      47.113  27.119  26.117  1.00  0.00     0.023 A 
ATOM     61  C   UNL A   1      48.120  26.429  26.820  1.00  0.00     0.031 A 
ATOM     62  C   UNL A   1      47.367  27.479  24.781  1.00  0.00     0.131 A 
ATOM     63  C   UNL A   1      49.342  26.149  26.193  1.00  0.00     0.055 A 
ATOM     64  C   UNL A   1      48.567  27.155  24.147  1.00  0.00     0.041 A 
ATOM     65  F   UNL A   1      46.447  28.149  24.067  1.00  0.00    -0.206 F 
ATOM     66  C   UNL A   1      49.566  26.499  24.857  1.00  0.00     0.022 A 
BRANCH  63  67
ATOM     67  S   UNL A   1      50.716  25.387  27.100  1.00  0.00     0.124 S 
ATOM     68  O   UNL A   1      50.045  24.296  27.801  1.00  0.00    -0.237 OA
ATOM     69  O   UNL A   1      51.606  24.976  26.016  1.00  0.00    -0.237 OA
ATOM     70  O   UNL A   1      51.214  26.461  27.952  1.00  0.00    -0.744 OA
ENDBRANCH  63  67
ENDBRANCH  46  60
BRANCH  47  71
ATOM     71  C   UNL A   1      38.756  29.899  30.890  1.00  0.00     0.023 A 
ATOM     72  C   UNL A   1      37.738  30.599  30.214  1.00  0.00     0.031 A 
ATOM     73  C   UNL A   1      38.612  29.702  32.274  1.00  0.00     0.131 A 
ATOM     74  C   UNL A   1      36.662  31.133  30.937  1.00  0.00     0.055 A 
ATOM     75  C   UNL A   1      37.504  30.175  32.978  1.00  0.00     0.041 A 
ATOM     76  F   UNL A   1      39.563  29.054  32.966  1.00  0.00    -0.206 F 
ATOM     77  C   UNL A   1      36.530  30.911  32.311  1.00  0.00     0.022 A 
BRANCH  74  78
ATOM     78  S   UNL A   1      35.473  32.252  30.145  1.00  0.00     0.124 S 
ATOM     79  O   UNL A   1      36.299  33.419  29.855  1.00  0.00    -0.237 OA
ATOM     80  O   UNL A   1      35.056  31.470  28.983  1.00  0.00    -0.237 OA
ATOM     81  O   UNL A   1      34.447  32.442  31.166  1.00  0.00    -0.744 OA
ENDBRANCH  74  78
ENDBRANCH  47  71
BRANCH  59  82
ATOM     82  C   UNL A   1      44.908  33.048  29.499  1.00  0.00     0.023 A 
ATOM     83  C   UNL A   1      44.759  34.098  28.572  1.00  0.00     0.031 A 
ATOM     84  C   UNL A   1      45.774  33.240  30.589  1.00  0.00     0.131 A 
ATOM     85  C   UNL A   1      45.513  35.268  28.717  1.00  0.00     0.055 A 
ATOM     86  C   UNL A   1      46.486  34.429  30.757  1.00  0.00     0.041 A 
ATOM     87  F   UNL A   1      45.958  32.264  31.493  1.00  0.00    -0.206 F 
ATOM     88  C   UNL A   1      46.371  35.442  29.809  1.00  0.00     0.022 A 
BRANCH  85  89
ATOM     89  S   UNL A   1      45.488  36.562  27.445  1.00  0.00     0.124 S 
ATOM     90  O   UNL A   1      46.488  36.076  26.498  1.00  0.00    -0.237 OA
ATOM     91  O   UNL A   1      44.106  36.504  26.977  1.00  0.00    -0.237 OA
ATOM     92  O   UNL A   1      45.857  37.776  28.168  1.00  0.00    -0.744 OA
ENDBRANCH  85  89
ENDBRANCH  59  82
ENDBRANCH  33  34
ENDBRANCH  26  28
ENDBRANCH  25  26
ENDBRANCH   1  25
TORSDOF 16
ENDMDL
MODEL 3
REMARK VINA RESULT:     -11.8      5.136     10.263
REMARK SMILES CC(C)(C)c1cc2c(cc1Cl)C=C(C(=O)OCCOC(=O)c1ccc(-c3c4nc(c(-c5cc(S(=O)(=O)[O-])ccc5F)c5ccc([nH]5)c(-c5cc(S(=O)(=O)[O-])ccc5F)c5nc(c(-c6cc(S(=O)(=O)[O-])ccc6F)c6ccc3[nH]6)C=C5)C=C4)cc1)[C@H](C(F)(F)F)O2
REMARK SMILES IDX 18 1 17 2 16 3 14 4 15 5 13 6 5 7 6 8 10 9 7 10 9 11 11 12
REMARK SMILES IDX 8 13 90 14 12 15 85 16 2 17 1 18 3 19 4 20 86 21 87 22 88 23
REMARK SMILES IDX 89 24 19 25 20 26 21 27 22 28 23 29 84 30 24 31 83 32 25 33
REMARK SMILES IDX 26 34 27 35 77 36 28 37 82 38 76 39 78 40 29 41 81 42 75 43
REMARK SMILES IDX 74 44 30 46 62 47 42 48 61 49 43 50 46 51 60 52 79 53 44 54
REMARK SMILES IDX 45 55 59 57 80 58 47 59 31 60 32 61 40 62 33 63 39 64 41 65
REMARK SMILES IDX 38 66 34 67 35 68 36 69 37 70 63 71 64 72 72 73 65 74 71 75
REMARK SMILES IDX 73 76 70 77 66 78 67 79 68 80 69 81 48 82 49 83 57 84 50 85
REMARK SMILES IDX 56 86 58 87 55 88 51 89 52 90 53 91 54 92
REMARK H PARENT 78 45 46 56
REMARK Flexibility Score: inf
ROOT
ATOM      1  C   UNL A   1      31.030  32.393  26.069  1.00  0.00     0.275 C 
ENDROOT
BRANCH   1   2
ATOM      2  C   UNL A   1      30.482  31.186  25.305  1.00  0.00     0.275 C 
BRANCH   2   3
ATOM      3  O   UNL A   1      31.531  30.232  25.031  1.00  0.00    -0.459 OA
BRANCH   3   4
ATOM      4  C   UNL A   1      31.185  29.148  24.305  1.00  0.00     0.338 C 
ATOM      5  O   UNL A   1      30.597  29.166  23.238  1.00  0.00    -0.246 OA
BRANCH   4   6
ATOM      6  C   UNL A   1      31.713  27.912  24.919  1.00  0.00     0.087 C 
ATOM      7  C   UNL A   1      33.977  23.426  25.585  1.00  0.00    -0.020 A 
ATOM      8  C   UNL A   1      32.982  24.168  26.281  1.00  0.00     0.053 A 
ATOM      9  C   UNL A   1      34.518  24.035  24.426  1.00  0.00     0.045 A 
ATOM     10  C   UNL A   1      32.522  25.409  25.828  1.00  0.00     0.128 A 
ATOM     11  C   UNL A   1      34.033  25.264  23.963  1.00  0.00     0.032 A 
ATOM     12  Cl  UNL A   1      35.775  23.359  23.451  1.00  0.00    -0.084 Cl
ATOM     13  C   UNL A   1      33.017  25.928  24.644  1.00  0.00     0.019 A 
ATOM     14  O   UNL A   1      31.533  26.036  26.543  1.00  0.00    -0.475 OA
ATOM     15  C   UNL A   1      32.429  27.131  24.101  1.00  0.00     0.027 C 
ATOM     16  C   UNL A   1      31.377  27.485  26.326  1.00  0.00     0.316 C 
BRANCH   7  17
ATOM     17  C   UNL A   1      34.377  22.009  26.072  1.00  0.00    -0.012 C 
ATOM     18  C   UNL A   1      33.856  21.771  27.508  1.00  0.00     0.016 C 
ATOM     19  C   UNL A   1      35.913  21.798  26.152  1.00  0.00     0.016 C 
ATOM     20  C   UNL A   1      33.858  20.907  25.122  1.00  0.00     0.016 C 
ENDBRANCH   7  17
BRANCH  16  21
ATOM     21  C   UNL A   1      32.076  28.235  27.474  1.00  0.00     0.430 C 
ATOM     22  F   UNL A   1      31.523  29.441  27.727  1.00  0.00    -0.167 F 
ATOM     23  F   UNL A   1      31.953  27.530  28.631  1.00  0.00    -0.167 F 
ATOM     24  F   UNL A   1      33.395  28.414  27.256  1.00  0.00    -0.167 F 
ENDBRANCH  16  21
ENDBRANCH   4   6
ENDBRANCH   3   4
ENDBRANCH   2   3
ENDBRANCH   1   2
BRANCH   1  25
ATOM     25  O   UNL A   1      32.257  32.056  26.745  1.00  0.00    -0.458 OA
BRANCH  25  26
ATOM     26  C   UNL A   1      32.860  33.071  27.405  1.00  0.00     0.338 C 
ATOM     27  O   UNL A   1      32.406  34.184  27.624  1.00  0.00    -0.246 OA
BRANCH  26  28
ATOM     28  C   UNL A   1      34.127  32.589  27.975  1.00  0.00     0.060 A 
ATOM     29  C   UNL A   1      35.270  33.378  28.041  1.00  0.00     0.016 A 
ATOM     30  C   UNL A   1      34.123  31.321  28.543  1.00  0.00     0.016 A 
ATOM     31  C   UNL A   1      36.420  32.861  28.660  1.00  0.00     0.010 A 
ATOM     32  C   UNL A   1      35.230  30.843  29.235  1.00  0.00     0.010 A 
ATOM     33  C   UNL A   1      36.411  31.593  29.277  1.00  0.00    -0.014 A 
BRANCH  33  34
ATOM     34  C   UNL A   1      37.610  31.027  29.965  1.00  0.00     0.031 A 
ATOM     35  C   UNL A   1      37.937  31.419  31.388  1.00  0.00     0.074 A 
ATOM     36  C   UNL A   1      38.454  30.219  29.290  1.00  0.00     0.049 A 
ATOM     37  N   UNL A   1      38.968  31.083  32.122  1.00  0.00    -0.248 NA
ATOM     38  C   UNL A   1      37.008  32.343  32.061  1.00  0.00     0.031 C 
ATOM     39  C   UNL A   1      38.303  29.834  27.887  1.00  0.00     0.029 A 
ATOM     40  N   UNL A   1      39.604  29.580  29.686  1.00  0.00    -0.354 N 
ATOM     41  C   UNL A   1      38.823  31.772  33.324  1.00  0.00     0.074 A 
ATOM     42  C   UNL A   1      37.645  32.598  33.193  1.00  0.00     0.031 C 
ATOM     43  C   UNL A   1      39.289  28.987  27.555  1.00  0.00     0.029 A 
ATOM     44  C   UNL A   1      40.174  28.802  28.703  1.00  0.00     0.049 A 
ATOM     45  H   UNL A   1      39.987  29.670  30.590  1.00  0.00     0.167 HD
ATOM     46  C   UNL A   1      39.579  31.696  34.447  1.00  0.00     0.034 A 
ATOM     47  C   UNL A   1      41.276  28.023  28.719  1.00  0.00     0.034 A 
ATOM     48  C   UNL A   1      40.711  30.817  34.587  1.00  0.00     0.049 A 
ATOM     49  C   UNL A   1      42.071  27.904  29.997  1.00  0.00     0.074 A 
ATOM     50  C   UNL A   1      41.483  30.594  35.712  1.00  0.00     0.029 A 
ATOM     51  N   UNL A   1      41.220  30.004  33.585  1.00  0.00    -0.354 N 
ATOM     52  N   UNL A   1      41.859  28.486  31.154  1.00  0.00    -0.248 NA
ATOM     53  C   UNL A   1      43.246  27.020  29.983  1.00  0.00     0.031 C 
ATOM     54  C   UNL A   1      42.488  29.687  35.380  1.00  0.00     0.029 A 
ATOM     55  C   UNL A   1      42.305  29.289  34.065  1.00  0.00     0.049 A 
ATOM     56  H   UNL A   1      40.864  29.944  32.669  1.00  0.00     0.167 HD
ATOM     57  C   UNL A   1      42.853  28.016  32.009  1.00  0.00     0.074 A 
ATOM     58  C   UNL A   1      43.657  27.087  31.243  1.00  0.00     0.031 C 
ATOM     59  C   UNL A   1      43.079  28.335  33.308  1.00  0.00     0.034 A 
BRANCH  46  60
ATOM     60  C   UNL A   1      39.189  32.525  35.649  1.00  0.00     0.023 A 
ATOM     61  C   UNL A   1      39.656  33.847  35.783  1.00  0.00     0.031 A 
ATOM     62  C   UNL A   1      38.475  31.964  36.723  1.00  0.00     0.131 A 
ATOM     63  C   UNL A   1      39.429  34.551  36.974  1.00  0.00     0.055 A 
ATOM     64  C   UNL A   1      38.209  32.686  37.888  1.00  0.00     0.041 A 
ATOM     65  F   UNL A   1      38.017  30.704  36.655  1.00  0.00    -0.206 F 
ATOM     66  C   UNL A   1      38.699  33.981  38.022  1.00  0.00     0.022 A 
BRANCH  63  67
ATOM     67  S   UNL A   1      40.129  36.203  37.243  1.00  0.00     0.124 S 
ATOM     68  O   UNL A   1      39.975  36.813  35.925  1.00  0.00    -0.237 OA
ATOM     69  O   UNL A   1      39.255  36.738  38.283  1.00  0.00    -0.237 OA
ATOM     70  O   UNL A   1      41.505  35.939  37.649  1.00  0.00    -0.744 OA
ENDBRANCH  63  67
ENDBRANCH  46  60
BRANCH  47  71
ATOM     71  C   UNL A   1      41.620  27.225  27.503  1.00  0.00     0.023 A 
ATOM     72  C   UNL A   1      41.411  25.834  27.455  1.00  0.00     0.031 A 
ATOM     73  C   UNL A   1      42.277  27.830  26.418  1.00  0.00     0.131 A 
ATOM     74  C   UNL A   1      41.917  25.090  26.380  1.00  0.00     0.055 A 
ATOM     75  C   UNL A   1      42.716  27.095  25.316  1.00  0.00     0.041 A 
ATOM     76  F   UNL A   1      42.513  29.151  26.424  1.00  0.00    -0.206 F 
ATOM     77  C   UNL A   1      42.553  25.714  25.303  1.00  0.00     0.022 A 
BRANCH  74  78
ATOM     78  S   UNL A   1      41.892  23.275  26.408  1.00  0.00     0.124 S 
ATOM     79  O   UNL A   1      42.591  22.981  27.655  1.00  0.00    -0.237 OA
ATOM     80  O   UNL A   1      40.457  22.997  26.409  1.00  0.00    -0.237 OA
ATOM     81  O   UNL A   1      42.596  22.903  25.186  1.00  0.00    -0.744 OA
ENDBRANCH  74  78
ENDBRANCH  47  71
BRANCH  59  82
ATOM     82  C   UNL A   1      44.227  27.678  34.038  1.00  0.00     0.023 A 
ATOM     83  C   UNL A   1      44.040  26.420  34.643  1.00  0.00     0.031 A 
ATOM     84  C   UNL A   1      45.416  28.377  34.305  1.00  0.00     0.131 A 
ATOM     85  C   UNL A   1      45.001  25.927  35.535  1.00  0.00     0.055 A 
ATOM     86  C   UNL A   1      46.393  27.859  35.157  1.00  0.00     0.041 A 
ATOM     87  F   UNL A   1      45.632  29.585  33.761  1.00  0.00    -0.206 F 
ATOM     88  C   UNL A   1      46.179  26.637  35.790  1.00  0.00     0.022 A 
BRANCH  85  89
ATOM     89  S   UNL A   1      44.711  24.402  36.474  1.00  0.00     0.124 S 
ATOM     90  O   UNL A   1      45.982  23.700  36.313  1.00  0.00    -0.237 OA
ATOM     91  O   UNL A   1      44.446  24.914  37.816  1.00  0.00    -0.237 OA
ATOM     92  O   UNL A   1      43.572  23.783  35.801  1.00  0.00    -0.744 OA
ENDBRANCH  85  89
ENDBRANCH  59  82
ENDBRANCH  33  34
ENDBRANCH  26  28
ENDBRANCH  25  26
ENDBRANCH   1  25
TORSDOF 16
ENDMDL
