MODEL 1
REMARK VINA RESULT:     -11.5      0.000      0.000
REMARK SMILES CC(C)C[C@H](C(=O)OCCOC(=O)c1ccc(-c2c3nc(c(-c4cc(S(=O)(=O)[O-])ccc4F)c4ccc([nH]4)c(-c4cc(S(=O)(=O)[O-])ccc4F)c4nc(c(-c5cc(S(=O)(=O)[O-])ccc5F)c5ccc2[nH]5)C=C4)C=C3)cc1)[C@@H]1CCO[C@]2(CCOC2)C1
REMARK SMILES IDX 10 1 9 2 8 3 6 4 7 5 5 6 4 7 2 8 1 9 3 10 77 11 78 12 86 13
REMARK SMILES IDX 79 14 81 15 80 16 82 17 85 18 83 19 84 20 11 21 12 22 13 23
REMARK SMILES IDX 14 24 15 25 76 26 16 27 75 28 17 29 18 30 19 31 69 32 20 33
REMARK SMILES IDX 74 34 68 35 70 36 21 37 73 38 67 39 66 40 22 42 54 43 34 44
REMARK SMILES IDX 53 45 35 46 38 47 52 48 71 49 36 50 37 51 51 53 72 54 39 55
REMARK SMILES IDX 23 56 24 57 32 58 25 59 31 60 33 61 30 62 26 63 27 64 28 65
REMARK SMILES IDX 29 66 55 67 56 68 64 69 57 70 63 71 65 72 62 73 58 74 59 75
REMARK SMILES IDX 60 76 61 77 40 78 41 79 49 80 42 81 48 82 50 83 47 84 43 85
REMARK SMILES IDX 44 86 45 87 46 88
REMARK H PARENT 70 41 38 52
REMARK Flexibility Score: inf
ROOT
ATOM      1  C   UNL A   1      31.581  29.988  25.517  1.00  0.00     0.275 C 
ENDROOT
BRANCH   1   2
ATOM      2  C   UNL A   1      31.439  28.514  25.088  1.00  0.00     0.274 C 
BRANCH   2   3
ATOM      3  O   UNL A   1      32.497  27.634  25.588  1.00  0.00    -0.462 OA
BRANCH   3   4
ATOM      4  C   UNL A   1      33.492  27.277  24.740  1.00  0.00     0.309 C 
ATOM      5  O   UNL A   1      34.074  28.140  24.084  1.00  0.00    -0.252 OA
BRANCH   4   6
ATOM      6  C   UNL A   1      33.709  25.724  24.458  1.00  0.00     0.103 C 
BRANCH   6   7
ATOM      7  C   UNL A   1      33.678  25.592  22.878  1.00  0.00     0.018 C 
BRANCH   7   8
ATOM      8  C   UNL A   1      32.304  25.166  22.299  1.00  0.00    -0.017 C 
ATOM      9  C   UNL A   1      31.251  24.795  23.345  1.00  0.00     0.007 C 
ATOM     10  C   UNL A   1      31.776  26.247  21.345  1.00  0.00     0.007 C 
ENDBRANCH   7   8
ENDBRANCH   6   7
BRANCH   6  11
ATOM     11  C   UNL A   1      34.748  24.633  24.986  1.00  0.00     0.008 C 
ATOM     12  C   UNL A   1      35.282  23.655  23.907  1.00  0.00     0.033 C 
ATOM     13  C   UNL A   1      34.600  23.863  26.298  1.00  0.00     0.042 C 
ATOM     14  C   UNL A   1      34.613  22.286  23.892  1.00  0.00     0.161 C 
ATOM     15  C   UNL A   1      33.882  22.507  26.151  1.00  0.00     0.094 C 
ATOM     16  O   UNL A   1      34.548  21.692  25.193  1.00  0.00    -0.372 OA
ATOM     17  C   UNL A   1      32.419  22.648  25.835  1.00  0.00     0.066 C 
ATOM     18  C   UNL A   1      33.717  21.833  27.516  1.00  0.00     0.195 C 
ATOM     19  C   UNL A   1      31.914  23.227  27.135  1.00  0.00     0.163 C 
ATOM     20  O   UNL A   1      32.656  22.561  28.170  1.00  0.00    -0.378 OA
ENDBRANCH   6  11
ENDBRANCH   4   6
ENDBRANCH   3   4
ENDBRANCH   2   3
ENDBRANCH   1   2
BRANCH   1  21
ATOM     21  O   UNL A   1      32.358  30.045  26.718  1.00  0.00    -0.458 OA
BRANCH  21  22
ATOM     22  C   UNL A   1      32.944  31.207  27.104  1.00  0.00     0.338 C 
ATOM     23  O   UNL A   1      32.420  32.313  27.101  1.00  0.00    -0.246 OA
BRANCH  22  24
ATOM     24  C   UNL A   1      34.322  30.894  27.588  1.00  0.00     0.060 A 
ATOM     25  C   UNL A   1      35.174  31.942  27.923  1.00  0.00     0.016 A 
ATOM     26  C   UNL A   1      34.811  29.587  27.698  1.00  0.00     0.016 A 
ATOM     27  C   UNL A   1      36.473  31.692  28.345  1.00  0.00     0.010 A 
ATOM     28  C   UNL A   1      36.100  29.345  28.236  1.00  0.00     0.010 A 
ATOM     29  C   UNL A   1      36.938  30.408  28.610  1.00  0.00    -0.014 A 
BRANCH  29  30
ATOM     30  C   UNL A   1      38.244  30.250  29.335  1.00  0.00     0.031 A 
ATOM     31  C   UNL A   1      39.353  29.402  28.775  1.00  0.00     0.074 A 
ATOM     32  C   UNL A   1      38.467  30.903  30.504  1.00  0.00     0.049 A 
ATOM     33  N   UNL A   1      40.399  28.898  29.382  1.00  0.00    -0.248 NA
ATOM     34  C   UNL A   1      39.280  29.085  27.343  1.00  0.00     0.031 C 
ATOM     35  C   UNL A   1      37.562  31.875  31.132  1.00  0.00     0.029 A 
ATOM     36  N   UNL A   1      39.533  30.859  31.378  1.00  0.00    -0.354 N 
ATOM     37  C   UNL A   1      41.070  28.138  28.428  1.00  0.00     0.074 A 
ATOM     38  C   UNL A   1      40.323  28.278  27.192  1.00  0.00     0.031 C 
ATOM     39  C   UNL A   1      38.127  32.367  32.240  1.00  0.00     0.029 A 
ATOM     40  C   UNL A   1      39.336  31.612  32.518  1.00  0.00     0.049 A 
ATOM     41  H   UNL A   1      40.353  30.343  31.207  1.00  0.00     0.167 HD
ATOM     42  C   UNL A   1      42.184  27.379  28.590  1.00  0.00     0.034 A 
ATOM     43  C   UNL A   1      39.968  31.623  33.709  1.00  0.00     0.034 A 
ATOM     44  C   UNL A   1      42.926  27.296  29.832  1.00  0.00     0.049 A 
ATOM     45  C   UNL A   1      41.112  30.674  33.920  1.00  0.00     0.074 A 
ATOM     46  C   UNL A   1      44.052  26.539  30.118  1.00  0.00     0.029 A 
ATOM     47  N   UNL A   1      42.624  27.997  30.994  1.00  0.00    -0.354 N 
ATOM     48  N   UNL A   1      41.650  29.833  33.068  1.00  0.00    -0.248 NA
ATOM     49  C   UNL A   1      41.716  30.654  35.256  1.00  0.00     0.031 C 
ATOM     50  C   UNL A   1      44.377  26.721  31.467  1.00  0.00     0.029 A 
ATOM     51  C   UNL A   1      43.518  27.664  32.004  1.00  0.00     0.049 A 
ATOM     52  H   UNL A   1      41.883  28.638  31.087  1.00  0.00     0.167 HD
ATOM     53  C   UNL A   1      42.670  29.194  33.763  1.00  0.00     0.074 A 
ATOM     54  C   UNL A   1      42.684  29.764  35.096  1.00  0.00     0.031 C 
ATOM     55  C   UNL A   1      43.517  28.224  33.336  1.00  0.00     0.034 A 
BRANCH  42  56
ATOM     56  C   UNL A   1      42.609  26.492  27.439  1.00  0.00     0.023 A 
ATOM     57  C   UNL A   1      42.138  25.180  27.270  1.00  0.00     0.031 A 
ATOM     58  C   UNL A   1      43.531  26.981  26.492  1.00  0.00     0.131 A 
ATOM     59  C   UNL A   1      42.638  24.384  26.223  1.00  0.00     0.055 A 
ATOM     60  C   UNL A   1      43.960  26.215  25.407  1.00  0.00     0.041 A 
ATOM     61  F   UNL A   1      44.039  28.218  26.609  1.00  0.00    -0.206 F 
ATOM     62  C   UNL A   1      43.525  24.901  25.276  1.00  0.00     0.022 A 
BRANCH  59  63
ATOM     63  S   UNL A   1      42.229  22.616  26.200  1.00  0.00     0.124 S 
ATOM     64  O   UNL A   1      40.770  22.648  26.299  1.00  0.00    -0.237 OA
ATOM     65  O   UNL A   1      42.773  22.182  24.919  1.00  0.00    -0.237 OA
ATOM     66  O   UNL A   1      42.912  22.089  27.380  1.00  0.00    -0.744 OA
ENDBRANCH  59  63
ENDBRANCH  42  56
BRANCH  43  67
ATOM     67  C   UNL A   1      39.438  32.452  34.837  1.00  0.00     0.023 A 
ATOM     68  C   UNL A   1      39.904  33.754  35.072  1.00  0.00     0.031 A 
ATOM     69  C   UNL A   1      38.466  31.936  35.718  1.00  0.00     0.131 A 
ATOM     70  C   UNL A   1      39.414  34.485  36.166  1.00  0.00     0.055 A 
ATOM     71  C   UNL A   1      37.929  32.693  36.759  1.00  0.00     0.041 A 
ATOM     72  F   UNL A   1      37.996  30.688  35.560  1.00  0.00    -0.206 F 
ATOM     73  C   UNL A   1      38.412  33.974  36.995  1.00  0.00     0.022 A 
BRANCH  70  74
ATOM     74  S   UNL A   1      40.168  36.089  36.551  1.00  0.00     0.124 S 
ATOM     75  O   UNL A   1      39.837  36.864  35.361  1.00  0.00    -0.237 OA
ATOM     76  O   UNL A   1      39.471  36.466  37.777  1.00  0.00    -0.237 OA
ATOM     77  O   UNL A   1      41.584  35.770  36.715  1.00  0.00    -0.744 OA
ENDBRANCH  70  74
ENDBRANCH  43  67
BRANCH  55  78
ATOM     78  C   UNL A   1      44.573  27.769  34.314  1.00  0.00     0.023 A 
ATOM     79  C   UNL A   1      44.337  26.730  35.231  1.00  0.00     0.031 A 
ATOM     80  C   UNL A   1      45.818  28.420  34.358  1.00  0.00     0.131 A 
ATOM     81  C   UNL A   1      45.305  26.420  36.197  1.00  0.00     0.055 A 
ATOM     82  C   UNL A   1      46.806  28.057  35.275  1.00  0.00     0.041 A 
ATOM     83  F   UNL A   1      46.095  29.427  33.514  1.00  0.00    -0.206 F 
ATOM     84  C   UNL A   1      46.545  27.063  36.213  1.00  0.00     0.022 A 
BRANCH  81  85
ATOM     85  S   UNL A   1      44.875  25.247  37.514  1.00  0.00     0.124 S 
ATOM     86  O   UNL A   1      43.434  25.107  37.334  1.00  0.00    -0.237 OA
ATOM     87  O   UNL A   1      45.678  24.079  37.167  1.00  0.00    -0.237 OA
ATOM     88  O   UNL A   1      45.283  25.939  38.736  1.00  0.00    -0.744 OA
ENDBRANCH  81  85
ENDBRANCH  55  78
ENDBRANCH  29  30
ENDBRANCH  22  24
ENDBRANCH  21  22
ENDBRANCH   1  21
TORSDOF 17
ENDMDL
MODEL 2
REMARK VINA RESULT:     -11.5      1.048      1.960
REMARK SMILES CC(C)C[C@H](C(=O)OCCOC(=O)c1ccc(-c2c3nc(c(-c4cc(S(=O)(=O)[O-])ccc4F)c4ccc([nH]4)c(-c4cc(S(=O)(=O)[O-])ccc4F)c4nc(c(-c5cc(S(=O)(=O)[O-])ccc5F)c5ccc2[nH]5)C=C4)C=C3)cc1)[C@@H]1CCO[C@]2(CCOC2)C1
REMARK SMILES IDX 10 1 9 2 8 3 6 4 7 5 5 6 4 7 2 8 1 9 3 10 77 11 78 12 86 13
REMARK SMILES IDX 79 14 81 15 80 16 82 17 85 18 83 19 84 20 11 21 12 22 13 23
REMARK SMILES IDX 14 24 15 25 76 26 16 27 75 28 17 29 18 30 19 31 69 32 20 33
REMARK SMILES IDX 74 34 68 35 70 36 21 37 73 38 67 39 66 40 22 42 54 43 34 44
REMARK SMILES IDX 53 45 35 46 38 47 52 48 71 49 36 50 37 51 51 53 72 54 39 55
REMARK SMILES IDX 23 56 24 57 32 58 25 59 31 60 33 61 30 62 26 63 27 64 28 65
REMARK SMILES IDX 29 66 55 67 56 68 64 69 57 70 63 71 65 72 62 73 58 74 59 75
REMARK SMILES IDX 60 76 61 77 40 78 41 79 49 80 42 81 48 82 50 83 47 84 43 85
REMARK SMILES IDX 44 86 45 87 46 88
REMARK H PARENT 70 41 38 52
REMARK Flexibility Score: inf
ROOT
ATOM      1  C   UNL A   1      32.185  28.411  25.587  1.00  0.00     0.275 C 
ENDROOT
BRANCH   1   2
ATOM      2  C   UNL A   1      32.659  27.057  26.154  1.00  0.00     0.274 C 
BRANCH   2   3
ATOM      3  O   UNL A   1      33.923  26.575  25.592  1.00  0.00    -0.462 OA
BRANCH   3   4
ATOM      4  C   UNL A   1      33.878  25.610  24.641  1.00  0.00     0.309 C 
ATOM      5  O   UNL A   1      33.306  25.830  23.574  1.00  0.00    -0.252 OA
BRANCH   4   6
ATOM      6  C   UNL A   1      34.370  24.148  25.040  1.00  0.00     0.103 C 
BRANCH   6   7
ATOM      7  C   UNL A   1      35.864  24.345  25.532  1.00  0.00     0.018 C 
BRANCH   7   8
ATOM      8  C   UNL A   1      36.900  23.450  24.802  1.00  0.00    -0.017 C 
ATOM      9  C   UNL A   1      37.243  22.144  25.521  1.00  0.00     0.007 C 
ATOM     10  C   UNL A   1      36.443  23.183  23.361  1.00  0.00     0.007 C 
ENDBRANCH   7   8
ENDBRANCH   6   7
BRANCH   6  11
ATOM     11  C   UNL A   1      33.751  22.970  25.923  1.00  0.00     0.008 C 
ATOM     12  C   UNL A   1      33.736  21.576  25.244  1.00  0.00     0.033 C 
ATOM     13  C   UNL A   1      32.489  23.101  26.775  1.00  0.00     0.042 C 
ATOM     14  C   UNL A   1      32.395  21.164  24.649  1.00  0.00     0.161 C 
ATOM     15  C   UNL A   1      31.196  22.679  26.048  1.00  0.00     0.094 C 
ATOM     16  O   UNL A   1      31.309  21.345  25.565  1.00  0.00    -0.372 OA
ATOM     17  C   UNL A   1      30.800  23.631  24.954  1.00  0.00     0.066 C 
ATOM     18  C   UNL A   1      29.975  22.902  26.944  1.00  0.00     0.195 C 
ATOM     19  C   UNL A   1      30.420  24.843  25.771  1.00  0.00     0.163 C 
ATOM     20  O   UNL A   1      29.760  24.329  26.940  1.00  0.00    -0.378 OA
ENDBRANCH   6  11
ENDBRANCH   4   6
ENDBRANCH   3   4
ENDBRANCH   2   3
ENDBRANCH   1   2
BRANCH   1  21
ATOM     21  O   UNL A   1      33.260  29.351  25.684  1.00  0.00    -0.458 OA
BRANCH  21  22
ATOM     22  C   UNL A   1      33.154  30.438  26.490  1.00  0.00     0.338 C 
ATOM     23  O   UNL A   1      32.206  31.211  26.533  1.00  0.00    -0.246 OA
BRANCH  22  24
ATOM     24  C   UNL A   1      34.367  30.494  27.359  1.00  0.00     0.060 A 
ATOM     25  C   UNL A   1      34.808  29.329  27.979  1.00  0.00     0.016 A 
ATOM     26  C   UNL A   1      35.074  31.678  27.602  1.00  0.00     0.016 A 
ATOM     27  C   UNL A   1      35.912  29.348  28.821  1.00  0.00     0.010 A 
ATOM     28  C   UNL A   1      36.263  31.657  28.374  1.00  0.00     0.010 A 
ATOM     29  C   UNL A   1      36.723  30.469  28.962  1.00  0.00    -0.014 A 
BRANCH  29  30
ATOM     30  C   UNL A   1      38.048  30.315  29.655  1.00  0.00     0.031 A 
ATOM     31  C   UNL A   1      39.158  29.501  29.049  1.00  0.00     0.074 A 
ATOM     32  C   UNL A   1      38.286  30.943  30.834  1.00  0.00     0.049 A 
ATOM     33  N   UNL A   1      40.225  28.999  29.621  1.00  0.00    -0.248 NA
ATOM     34  C   UNL A   1      39.059  29.218  27.612  1.00  0.00     0.031 C 
ATOM     35  C   UNL A   1      37.378  31.882  31.506  1.00  0.00     0.029 A 
ATOM     36  N   UNL A   1      39.370  30.895  31.684  1.00  0.00    -0.354 N 
ATOM     37  C   UNL A   1      40.887  28.276  28.634  1.00  0.00     0.074 A 
ATOM     38  C   UNL A   1      40.112  28.433  27.419  1.00  0.00     0.031 C 
ATOM     39  C   UNL A   1      37.959  32.356  32.614  1.00  0.00     0.029 A 
ATOM     40  C   UNL A   1      39.186  31.616  32.847  1.00  0.00     0.049 A 
ATOM     41  H   UNL A   1      40.195  30.397  31.483  1.00  0.00     0.167 HD
ATOM     42  C   UNL A   1      42.017  27.531  28.753  1.00  0.00     0.034 A 
ATOM     43  C   UNL A   1      39.844  31.608  34.025  1.00  0.00     0.034 A 
ATOM     44  C   UNL A   1      42.787  27.430  29.976  1.00  0.00     0.049 A 
ATOM     45  C   UNL A   1      41.008  30.674  34.186  1.00  0.00     0.074 A 
ATOM     46  C   UNL A   1      43.932  26.685  30.219  1.00  0.00     0.029 A 
ATOM     47  N   UNL A   1      42.500  28.097  31.161  1.00  0.00    -0.354 N 
ATOM     48  N   UNL A   1      41.541  29.863  33.302  1.00  0.00    -0.248 NA
ATOM     49  C   UNL A   1      41.641  30.630  35.508  1.00  0.00     0.031 C 
ATOM     50  C   UNL A   1      44.283  26.839  31.564  1.00  0.00     0.029 A 
ATOM     51  C   UNL A   1      43.420  27.754  32.143  1.00  0.00     0.049 A 
ATOM     52  H   UNL A   1      41.750  28.722  31.287  1.00  0.00     0.167 HD
ATOM     53  C   UNL A   1      42.587  29.225  33.959  1.00  0.00     0.074 A 
ATOM     54  C   UNL A   1      42.620  29.761  35.304  1.00  0.00     0.031 C 
ATOM     55  C   UNL A   1      43.440  28.281  33.489  1.00  0.00     0.034 A 
BRANCH  42  56
ATOM     56  C   UNL A   1      42.432  26.681  27.570  1.00  0.00     0.023 A 
ATOM     57  C   UNL A   1      42.059  25.334  27.429  1.00  0.00     0.031 A 
ATOM     58  C   UNL A   1      43.242  27.243  26.564  1.00  0.00     0.131 A 
ATOM     59  C   UNL A   1      42.548  24.582  26.346  1.00  0.00     0.055 A 
ATOM     60  C   UNL A   1      43.655  26.513  25.447  1.00  0.00     0.041 A 
ATOM     61  F   UNL A   1      43.653  28.518  26.650  1.00  0.00    -0.206 F 
ATOM     62  C   UNL A   1      43.320  25.169  25.342  1.00  0.00     0.022 A 
BRANCH  59  63
ATOM     63  S   UNL A   1      42.284  22.785  26.344  1.00  0.00     0.124 S 
ATOM     64  O   UNL A   1      43.237  22.345  27.361  1.00  0.00    -0.237 OA
ATOM     65  O   UNL A   1      40.875  22.672  26.697  1.00  0.00    -0.237 OA
ATOM     66  O   UNL A   1      42.620  22.391  24.976  1.00  0.00    -0.744 OA
ENDBRANCH  59  63
ENDBRANCH  42  56
BRANCH  43  67
ATOM     67  C   UNL A   1      39.324  32.398  35.184  1.00  0.00     0.023 A 
ATOM     68  C   UNL A   1      39.790  33.695  35.454  1.00  0.00     0.031 A 
ATOM     69  C   UNL A   1      38.365  31.852  36.060  1.00  0.00     0.131 A 
ATOM     70  C   UNL A   1      39.310  34.389  36.577  1.00  0.00     0.055 A 
ATOM     71  C   UNL A   1      37.839  32.574  37.131  1.00  0.00     0.041 A 
ATOM     72  F   UNL A   1      37.897  30.608  35.868  1.00  0.00    -0.206 F 
ATOM     73  C   UNL A   1      38.320  33.849  37.401  1.00  0.00     0.022 A 
BRANCH  70  74
ATOM     74  S   UNL A   1      40.064  35.983  37.003  1.00  0.00     0.124 S 
ATOM     75  O   UNL A   1      41.459  35.606  37.205  1.00  0.00    -0.237 OA
ATOM     76  O   UNL A   1      39.780  36.780  35.814  1.00  0.00    -0.237 OA
ATOM     77  O   UNL A   1      39.346  36.388  38.209  1.00  0.00    -0.744 OA
ENDBRANCH  70  74
ENDBRANCH  43  67
BRANCH  55  78
ATOM     78  C   UNL A   1      44.524  27.819  34.432  1.00  0.00     0.023 A 
ATOM     79  C   UNL A   1      44.251  26.973  35.520  1.00  0.00     0.031 A 
ATOM     80  C   UNL A   1      45.844  28.274  34.263  1.00  0.00     0.131 A 
ATOM     81  C   UNL A   1      45.267  26.665  36.437  1.00  0.00     0.055 A 
ATOM     82  C   UNL A   1      46.867  27.905  35.138  1.00  0.00     0.041 A 
ATOM     83  F   UNL A   1      46.161  29.094  33.248  1.00  0.00    -0.206 F 
ATOM     84  C   UNL A   1      46.577  27.108  36.242  1.00  0.00     0.022 A 
BRANCH  81  85
ATOM     85  S   UNL A   1      44.828  25.775  37.956  1.00  0.00     0.124 S 
ATOM     86  O   UNL A   1      45.914  26.157  38.853  1.00  0.00    -0.237 OA
ATOM     87  O   UNL A   1      43.515  26.326  38.274  1.00  0.00    -0.237 OA
ATOM     88  O   UNL A   1      44.828  24.372  37.545  1.00  0.00    -0.744 OA
ENDBRANCH  81  85
ENDBRANCH  55  78
ENDBRANCH  29  30
ENDBRANCH  22  24
ENDBRANCH  21  22
ENDBRANCH   1  21
TORSDOF 17
ENDMDL
MODEL 3
REMARK VINA RESULT:     -11.5      0.989      1.828
REMARK SMILES CC(C)C[C@H](C(=O)OCCOC(=O)c1ccc(-c2c3nc(c(-c4cc(S(=O)(=O)[O-])ccc4F)c4ccc([nH]4)c(-c4cc(S(=O)(=O)[O-])ccc4F)c4nc(c(-c5cc(S(=O)(=O)[O-])ccc5F)c5ccc2[nH]5)C=C4)C=C3)cc1)[C@@H]1CCO[C@]2(CCOC2)C1
REMARK SMILES IDX 10 1 9 2 8 3 6 4 7 5 5 6 4 7 2 8 1 9 3 10 77 11 78 12 86 13
REMARK SMILES IDX 79 14 81 15 80 16 82 17 85 18 83 19 84 20 11 21 12 22 13 23
REMARK SMILES IDX 14 24 15 25 76 26 16 27 75 28 17 29 18 30 19 31 69 32 20 33
REMARK SMILES IDX 74 34 68 35 70 36 21 37 73 38 67 39 66 40 22 42 54 43 34 44
REMARK SMILES IDX 53 45 35 46 38 47 52 48 71 49 36 50 37 51 51 53 72 54 39 55
REMARK SMILES IDX 23 56 24 57 32 58 25 59 31 60 33 61 30 62 26 63 27 64 28 65
REMARK SMILES IDX 29 66 55 67 56 68 64 69 57 70 63 71 65 72 62 73 58 74 59 75
REMARK SMILES IDX 60 76 61 77 40 78 41 79 49 80 42 81 48 82 50 83 47 84 43 85
REMARK SMILES IDX 44 86 45 87 46 88
REMARK H PARENT 70 41 38 52
REMARK Flexibility Score: inf
ROOT
ATOM      1  C   UNL A   1      32.114  28.934  24.952  1.00  0.00     0.275 C 
ENDROOT
BRANCH   1   2
ATOM      2  C   UNL A   1      32.192  27.409  25.164  1.00  0.00     0.274 C 
BRANCH   2   3
ATOM      3  O   UNL A   1      32.966  26.695  24.146  1.00  0.00    -0.462 OA
BRANCH   3   4
ATOM      4  C   UNL A   1      32.369  25.677  23.480  1.00  0.00     0.309 C 
ATOM      5  O   UNL A   1      31.494  25.921  22.650  1.00  0.00    -0.252 OA
BRANCH   4   6
ATOM      6  C   UNL A   1      32.666  24.191  23.970  1.00  0.00     0.103 C 
BRANCH   6   7
ATOM      7  C   UNL A   1      31.253  23.619  24.405  1.00  0.00     0.018 C 
BRANCH   7   8
ATOM      8  C   UNL A   1      30.937  23.778  25.915  1.00  0.00    -0.017 C 
ATOM      9  C   UNL A   1      30.170  22.611  26.539  1.00  0.00     0.007 C 
ATOM     10  C   UNL A   1      32.226  24.071  26.696  1.00  0.00     0.007 C 
ENDBRANCH   7   8
ENDBRANCH   6   7
BRANCH   6  11
ATOM     11  C   UNL A   1      33.487  22.964  23.362  1.00  0.00     0.008 C 
ATOM     12  C   UNL A   1      32.887  21.562  23.650  1.00  0.00     0.033 C 
ATOM     13  C   UNL A   1      35.011  22.846  23.388  1.00  0.00     0.042 C 
ATOM     14  C   UNL A   1      33.553  20.799  24.789  1.00  0.00     0.161 C 
ATOM     15  C   UNL A   1      35.559  22.075  24.605  1.00  0.00     0.094 C 
ATOM     16  O   UNL A   1      34.980  20.778  24.675  1.00  0.00    -0.372 OA
ATOM     17  C   UNL A   1      35.394  22.825  25.898  1.00  0.00     0.066 C 
ATOM     18  C   UNL A   1      37.090  22.060  24.590  1.00  0.00     0.195 C 
ATOM     19  C   UNL A   1      36.361  23.964  25.679  1.00  0.00     0.163 C 
ATOM     20  O   UNL A   1      37.484  23.390  24.990  1.00  0.00    -0.378 OA
ENDBRANCH   6  11
ENDBRANCH   4   6
ENDBRANCH   3   4
ENDBRANCH   2   3
ENDBRANCH   1   2
BRANCH   1  21
ATOM     21  O   UNL A   1      33.252  29.544  25.570  1.00  0.00    -0.458 OA
BRANCH  21  22
ATOM     22  C   UNL A   1      33.090  30.528  26.491  1.00  0.00     0.338 C 
ATOM     23  O   UNL A   1      32.100  31.234  26.622  1.00  0.00    -0.246 OA
BRANCH  22  24
ATOM     24  C   UNL A   1      34.307  30.559  27.356  1.00  0.00     0.060 A 
ATOM     25  C   UNL A   1      34.766  29.373  27.919  1.00  0.00     0.016 A 
ATOM     26  C   UNL A   1      34.999  31.740  27.653  1.00  0.00     0.016 A 
ATOM     27  C   UNL A   1      35.874  29.367  28.756  1.00  0.00     0.010 A 
ATOM     28  C   UNL A   1      36.192  31.700  28.417  1.00  0.00     0.010 A 
ATOM     29  C   UNL A   1      36.671  30.491  28.947  1.00  0.00    -0.014 A 
BRANCH  29  30
ATOM     30  C   UNL A   1      38.001  30.324  29.626  1.00  0.00     0.031 A 
ATOM     31  C   UNL A   1      39.102  29.512  29.001  1.00  0.00     0.074 A 
ATOM     32  C   UNL A   1      38.252  30.937  30.810  1.00  0.00     0.049 A 
ATOM     33  N   UNL A   1      40.172  28.999  29.556  1.00  0.00    -0.248 NA
ATOM     34  C   UNL A   1      38.989  29.247  27.561  1.00  0.00     0.031 C 
ATOM     35  C   UNL A   1      37.355  31.872  31.501  1.00  0.00     0.029 A 
ATOM     36  N   UNL A   1      39.344  30.874  31.650  1.00  0.00    -0.354 N 
ATOM     37  C   UNL A   1      40.822  28.284  28.555  1.00  0.00     0.074 A 
ATOM     38  C   UNL A   1      40.036  28.459  27.349  1.00  0.00     0.031 C 
ATOM     39  C   UNL A   1      37.948  32.330  32.609  1.00  0.00     0.029 A 
ATOM     40  C   UNL A   1      39.174  31.582  32.822  1.00  0.00     0.049 A 
ATOM     41  H   UNL A   1      40.165  30.375  31.435  1.00  0.00     0.167 HD
ATOM     42  C   UNL A   1      41.950  27.533  28.655  1.00  0.00     0.034 A 
ATOM     43  C   UNL A   1      39.842  31.557  33.994  1.00  0.00     0.034 A 
ATOM     44  C   UNL A   1      42.730  27.414  29.870  1.00  0.00     0.049 A 
ATOM     45  C   UNL A   1      41.003  30.616  34.134  1.00  0.00     0.074 A 
ATOM     46  C   UNL A   1      43.873  26.662  30.094  1.00  0.00     0.029 A 
ATOM     47  N   UNL A   1      42.456  28.068  31.066  1.00  0.00    -0.354 N 
ATOM     48  N   UNL A   1      41.525  29.813  33.236  1.00  0.00    -0.248 NA
ATOM     49  C   UNL A   1      41.648  30.555  35.450  1.00  0.00     0.031 C 
ATOM     50  C   UNL A   1      44.238  26.798  31.438  1.00  0.00     0.029 A 
ATOM     51  C   UNL A   1      43.384  27.710  32.035  1.00  0.00     0.049 A 
ATOM     52  H   UNL A   1      41.710  28.696  31.206  1.00  0.00     0.167 HD
ATOM     53  C   UNL A   1      42.573  29.163  33.876  1.00  0.00     0.074 A 
ATOM     54  C   UNL A   1      42.621  29.684  35.227  1.00  0.00     0.031 C 
ATOM     55  C   UNL A   1      43.418  28.221  33.387  1.00  0.00     0.034 A 
BRANCH  42  56
ATOM     56  C   UNL A   1      42.350  26.695  27.459  1.00  0.00     0.023 A 
ATOM     57  C   UNL A   1      41.977  25.349  27.310  1.00  0.00     0.031 A 
ATOM     58  C   UNL A   1      43.146  27.268  26.447  1.00  0.00     0.131 A 
ATOM     59  C   UNL A   1      42.452  24.608  26.214  1.00  0.00     0.055 A 
ATOM     60  C   UNL A   1      43.545  26.550  25.319  1.00  0.00     0.041 A 
ATOM     61  F   UNL A   1      43.556  28.543  26.541  1.00  0.00    -0.206 F 
ATOM     62  C   UNL A   1      43.211  25.206  25.205  1.00  0.00     0.022 A 
BRANCH  59  63
ATOM     63  S   UNL A   1      42.192  22.811  26.197  1.00  0.00     0.124 S 
ATOM     64  O   UNL A   1      42.999  22.385  27.338  1.00  0.00    -0.237 OA
ATOM     65  O   UNL A   1      40.747  22.700  26.359  1.00  0.00    -0.237 OA
ATOM     66  O   UNL A   1      42.707  22.401  24.892  1.00  0.00    -0.744 OA
ENDBRANCH  59  63
ENDBRANCH  42  56
BRANCH  43  67
ATOM     67  C   UNL A   1      39.337  32.336  35.167  1.00  0.00     0.023 A 
ATOM     68  C   UNL A   1      39.791  33.638  35.433  1.00  0.00     0.031 A 
ATOM     69  C   UNL A   1      38.403  31.774  36.060  1.00  0.00     0.131 A 
ATOM     70  C   UNL A   1      39.326  34.321  36.568  1.00  0.00     0.055 A 
ATOM     71  C   UNL A   1      37.890  32.485  37.145  1.00  0.00     0.041 A 
ATOM     72  F   UNL A   1      37.948  30.524  35.873  1.00  0.00    -0.206 F 
ATOM     73  C   UNL A   1      38.360  33.765  37.411  1.00  0.00     0.022 A 
BRANCH  70  74
ATOM     74  S   UNL A   1      40.067  35.923  36.985  1.00  0.00     0.124 S 
ATOM     75  O   UNL A   1      39.751  36.713  35.799  1.00  0.00    -0.237 OA
ATOM     76  O   UNL A   1      39.350  36.281  38.204  1.00  0.00    -0.237 OA
ATOM     77  O   UNL A   1      41.482  35.607  37.166  1.00  0.00    -0.744 OA
ENDBRANCH  70  74
ENDBRANCH  43  67
BRANCH  55  78
ATOM     78  C   UNL A   1      44.508  27.743  34.315  1.00  0.00     0.023 A 
ATOM     79  C   UNL A   1      44.329  26.639  35.165  1.00  0.00     0.031 A 
ATOM     80  C   UNL A   1      45.730  28.437  34.380  1.00  0.00     0.131 A 
ATOM     81  C   UNL A   1      45.326  26.304  36.093  1.00  0.00     0.055 A 
ATOM     82  C   UNL A   1      46.747  28.053  35.255  1.00  0.00     0.041 A 
ATOM     83  F   UNL A   1      45.952  29.506  33.599  1.00  0.00    -0.206 F 
ATOM     84  C   UNL A   1      46.542  26.991  36.130  1.00  0.00     0.022 A 
BRANCH  81  85
ATOM     85  S   UNL A   1      44.966  25.032  37.337  1.00  0.00     0.124 S 
ATOM     86  O   UNL A   1      43.727  25.530  37.926  1.00  0.00    -0.237 OA
ATOM     87  O   UNL A   1      44.846  23.825  36.526  1.00  0.00    -0.237 OA
ATOM     88  O   UNL A   1      46.132  25.074  38.218  1.00  0.00    -0.744 OA
ENDBRANCH  81  85
ENDBRANCH  55  78
ENDBRANCH  29  30
ENDBRANCH  22  24
ENDBRANCH  21  22
ENDBRANCH   1  21
TORSDOF 17
ENDMDL
