MODEL 1
REMARK VINA RESULT:     -11.0      0.000      0.000
REMARK SMILES Cc1cc(C)c2c(c1)C=C(C(=O)OCCOC(=O)c1ccc(-c3c4nc(c(-c5cc(S(=O)(=O)[O-])ccc5F)c5ccc([nH]5)c(-c5cc(S(=O)(=O)[O-])ccc5F)c5nc(c(-c6cc(S(=O)(=O)[O-])ccc6F)c6ccc3[nH]6)C=C5)C=C4)cc1)[C@@H](C(F)(F)F)O2
REMARK SMILES IDX 15 1 14 2 13 3 11 4 12 5 10 6 1 7 2 8 3 9 8 10 4 11 7 12
REMARK SMILES IDX 5 13 6 14 9 15 87 16 82 17 83 18 84 19 85 20 86 21 16 22
REMARK SMILES IDX 17 23 18 24 19 25 20 26 81 27 21 28 80 29 22 30 23 31 24 32
REMARK SMILES IDX 74 33 25 34 79 35 73 36 75 37 26 38 78 39 72 40 71 41 27 43
REMARK SMILES IDX 59 44 39 45 58 46 40 47 43 48 57 49 76 50 41 51 42 52 56 54
REMARK SMILES IDX 77 55 44 56 28 57 29 58 37 59 30 60 36 61 38 62 35 63 31 64
REMARK SMILES IDX 32 65 33 66 34 67 60 68 61 69 69 70 62 71 68 72 70 73 67 74
REMARK SMILES IDX 63 75 64 76 65 77 66 78 45 79 46 80 54 81 47 82 53 83 55 84
REMARK SMILES IDX 52 85 48 86 49 87 50 88 51 89
REMARK H PARENT 75 42 43 53
REMARK Flexibility Score: inf
ROOT
ATOM      1  C   UNL A   1      40.822  20.020  26.173  1.00  0.00     0.275 C 
ENDROOT
BRANCH   1   2
ATOM      2  C   UNL A   1      42.211  19.857  26.789  1.00  0.00     0.275 C 
BRANCH   2   3
ATOM      3  O   UNL A   1      43.236  20.376  25.914  1.00  0.00    -0.459 OA
BRANCH   3   4
ATOM      4  C   UNL A   1      43.200  21.715  25.714  1.00  0.00     0.338 C 
ATOM      5  O   UNL A   1      42.379  22.327  25.050  1.00  0.00    -0.246 OA
BRANCH   4   6
ATOM      6  C   UNL A   1      44.312  22.375  26.420  1.00  0.00     0.087 C 
ATOM      7  C   UNL A   1      45.429  26.028  31.247  1.00  0.00     0.044 C 
ATOM      8  C   UNL A   1      45.760  25.246  30.009  1.00  0.00    -0.050 A 
ATOM      9  C   UNL A   1      47.006  25.381  29.387  1.00  0.00     0.010 A 
ATOM     10  C   UNL A   1      44.800  24.421  29.419  1.00  0.00     0.015 A 
ATOM     11  C   UNL A   1      47.308  24.686  28.202  1.00  0.00    -0.008 A 
ATOM     12  C   UNL A   1      45.084  23.736  28.231  1.00  0.00     0.018 A 
ATOM     13  C   UNL A   1      48.652  24.853  27.557  1.00  0.00     0.048 C 
ATOM     14  C   UNL A   1      46.334  23.858  27.625  1.00  0.00     0.130 A 
ATOM     15  C   UNL A   1      44.052  22.935  27.605  1.00  0.00     0.027 C 
ATOM     16  O   UNL A   1      46.671  23.190  26.477  1.00  0.00    -0.475 OA
ATOM     17  C   UNL A   1      45.628  22.518  25.719  1.00  0.00     0.316 C 
BRANCH  17  18
ATOM     18  C   UNL A   1      45.468  23.222  24.361  1.00  0.00     0.430 C 
ATOM     19  F   UNL A   1      44.976  22.376  23.423  1.00  0.00    -0.167 F 
ATOM     20  F   UNL A   1      44.590  24.253  24.438  1.00  0.00    -0.167 F 
ATOM     21  F   UNL A   1      46.633  23.717  23.890  1.00  0.00    -0.167 F 
ENDBRANCH  17  18
ENDBRANCH   4   6
ENDBRANCH   3   4
ENDBRANCH   2   3
ENDBRANCH   1   2
BRANCH   1  22
ATOM     22  O   UNL A   1      40.009  20.868  27.004  1.00  0.00    -0.458 OA
BRANCH  22  23
ATOM     23  C   UNL A   1      39.332  21.840  26.350  1.00  0.00     0.338 C 
ATOM     24  O   UNL A   1      38.522  21.698  25.451  1.00  0.00    -0.246 OA
BRANCH  23  25
ATOM     25  C   UNL A   1      39.665  23.155  26.922  1.00  0.00     0.060 A 
ATOM     26  C   UNL A   1      39.329  24.299  26.208  1.00  0.00     0.016 A 
ATOM     27  C   UNL A   1      40.467  23.254  28.056  1.00  0.00     0.016 A 
ATOM     28  C   UNL A   1      39.931  25.513  26.519  1.00  0.00     0.010 A 
ATOM     29  C   UNL A   1      40.939  24.511  28.461  1.00  0.00     0.010 A 
ATOM     30  C   UNL A   1      40.727  25.651  27.665  1.00  0.00    -0.014 A 
BRANCH  30  31
ATOM     31  C   UNL A   1      41.357  26.970  27.986  1.00  0.00     0.031 A 
ATOM     32  C   UNL A   1      40.606  27.999  28.801  1.00  0.00     0.074 A 
ATOM     33  C   UNL A   1      42.624  27.233  27.598  1.00  0.00     0.049 A 
ATOM     34  N   UNL A   1      40.929  29.241  29.062  1.00  0.00    -0.248 NA
ATOM     35  C   UNL A   1      39.322  27.585  29.389  1.00  0.00     0.031 C 
ATOM     36  C   UNL A   1      43.491  26.314  26.854  1.00  0.00     0.029 A 
ATOM     37  N   UNL A   1      43.424  28.332  27.805  1.00  0.00    -0.354 N 
ATOM     38  C   UNL A   1      39.870  29.768  29.796  1.00  0.00     0.074 A 
ATOM     39  C   UNL A   1      38.884  28.717  29.922  1.00  0.00     0.031 C 
ATOM     40  C   UNL A   1      44.717  26.845  26.749  1.00  0.00     0.029 A 
ATOM     41  C   UNL A   1      44.699  28.193  27.302  1.00  0.00     0.049 A 
ATOM     42  H   UNL A   1      43.114  29.144  28.268  1.00  0.00     0.167 HD
ATOM     43  C   UNL A   1      39.739  31.007  30.328  1.00  0.00     0.034 A 
ATOM     44  C   UNL A   1      45.732  29.058  27.250  1.00  0.00     0.034 A 
ATOM     45  C   UNL A   1      40.753  32.028  30.251  1.00  0.00     0.049 A 
ATOM     46  C   UNL A   1      45.534  30.452  27.779  1.00  0.00     0.074 A 
ATOM     47  C   UNL A   1      40.719  33.315  30.760  1.00  0.00     0.029 A 
ATOM     48  N   UNL A   1      41.993  31.871  29.649  1.00  0.00    -0.354 N 
ATOM     49  N   UNL A   1      44.485  30.960  28.384  1.00  0.00    -0.248 NA
ATOM     50  C   UNL A   1      46.639  31.401  27.588  1.00  0.00     0.031 C 
ATOM     51  C   UNL A   1      41.914  33.953  30.419  1.00  0.00     0.029 A 
ATOM     52  C   UNL A   1      42.721  33.045  29.752  1.00  0.00     0.049 A 
ATOM     53  H   UNL A   1      42.309  31.049  29.211  1.00  0.00     0.167 HD
ATOM     54  C   UNL A   1      44.809  32.285  28.649  1.00  0.00     0.074 A 
ATOM     55  C   UNL A   1      46.154  32.496  28.155  1.00  0.00     0.031 C 
ATOM     56  C   UNL A   1      44.055  33.242  29.244  1.00  0.00     0.034 A 
BRANCH  43  57
ATOM     57  C   UNL A   1      38.441  31.349  31.016  1.00  0.00     0.023 A 
ATOM     58  C   UNL A   1      37.366  31.927  30.324  1.00  0.00     0.031 A 
ATOM     59  C   UNL A   1      38.270  31.059  32.382  1.00  0.00     0.131 A 
ATOM     60  C   UNL A   1      36.180  32.238  31.008  1.00  0.00     0.055 A 
ATOM     61  C   UNL A   1      37.066  31.311  33.043  1.00  0.00     0.041 A 
ATOM     62  F   UNL A   1      39.270  30.518  33.096  1.00  0.00    -0.206 F 
ATOM     63  C   UNL A   1      36.014  31.911  32.357  1.00  0.00     0.022 A 
BRANCH  60  64
ATOM     64  S   UNL A   1      34.881  33.147  30.130  1.00  0.00     0.124 S 
ATOM     65  O   UNL A   1      35.641  34.242  29.534  1.00  0.00    -0.237 OA
ATOM     66  O   UNL A   1      34.366  32.147  29.201  1.00  0.00    -0.237 OA
ATOM     67  O   UNL A   1      33.959  33.541  31.193  1.00  0.00    -0.744 OA
ENDBRANCH  60  64
ENDBRANCH  43  57
BRANCH  44  68
ATOM     68  C   UNL A   1      47.020  28.655  26.617  1.00  0.00     0.023 A 
ATOM     69  C   UNL A   1      47.103  28.419  25.236  1.00  0.00     0.031 A 
ATOM     70  C   UNL A   1      48.190  28.499  27.384  1.00  0.00     0.131 A 
ATOM     71  C   UNL A   1      48.325  28.024  24.667  1.00  0.00     0.055 A 
ATOM     72  C   UNL A   1      49.413  28.157  26.806  1.00  0.00     0.041 A 
ATOM     73  F   UNL A   1      48.165  28.710  28.710  1.00  0.00    -0.206 F 
ATOM     74  C   UNL A   1      49.483  27.910  25.439  1.00  0.00     0.022 A 
BRANCH  71  75
ATOM     75  S   UNL A   1      48.373  27.618  22.900  1.00  0.00     0.124 S 
ATOM     76  O   UNL A   1      47.172  28.286  22.411  1.00  0.00    -0.237 OA
ATOM     77  O   UNL A   1      49.645  28.200  22.487  1.00  0.00    -0.237 OA
ATOM     78  O   UNL A   1      48.324  26.158  22.885  1.00  0.00    -0.744 OA
ENDBRANCH  71  75
ENDBRANCH  44  68
BRANCH  56  79
ATOM     79  C   UNL A   1      44.669  34.604  29.408  1.00  0.00     0.023 A 
ATOM     80  C   UNL A   1      44.473  35.610  28.448  1.00  0.00     0.031 A 
ATOM     81  C   UNL A   1      45.402  34.917  30.566  1.00  0.00     0.131 A 
ATOM     82  C   UNL A   1      45.019  36.883  28.657  1.00  0.00     0.055 A 
ATOM     83  C   UNL A   1      45.907  36.198  30.788  1.00  0.00     0.041 A 
ATOM     84  F   UNL A   1      45.611  33.987  31.512  1.00  0.00    -0.206 F 
ATOM     85  C   UNL A   1      45.719  37.189  29.828  1.00  0.00     0.022 A 
BRANCH  82  86
ATOM     86  S   UNL A   1      44.814  38.142  27.367  1.00  0.00     0.124 S 
ATOM     87  O   UNL A   1      45.940  37.851  26.482  1.00  0.00    -0.237 OA
ATOM     88  O   UNL A   1      43.490  37.838  26.834  1.00  0.00    -0.237 OA
ATOM     89  O   UNL A   1      44.911  39.403  28.099  1.00  0.00    -0.744 OA
ENDBRANCH  82  86
ENDBRANCH  56  79
ENDBRANCH  30  31
ENDBRANCH  23  25
ENDBRANCH  22  23
ENDBRANCH   1  22
TORSDOF 15
ENDMDL
MODEL 2
REMARK VINA RESULT:     -10.9      3.763      6.156
REMARK SMILES Cc1cc(C)c2c(c1)C=C(C(=O)OCCOC(=O)c1ccc(-c3c4nc(c(-c5cc(S(=O)(=O)[O-])ccc5F)c5ccc([nH]5)c(-c5cc(S(=O)(=O)[O-])ccc5F)c5nc(c(-c6cc(S(=O)(=O)[O-])ccc6F)c6ccc3[nH]6)C=C5)C=C4)cc1)[C@@H](C(F)(F)F)O2
REMARK SMILES IDX 15 1 14 2 13 3 11 4 12 5 10 6 1 7 2 8 3 9 8 10 4 11 7 12
REMARK SMILES IDX 5 13 6 14 9 15 87 16 82 17 83 18 84 19 85 20 86 21 16 22
REMARK SMILES IDX 17 23 18 24 19 25 20 26 81 27 21 28 80 29 22 30 23 31 24 32
REMARK SMILES IDX 74 33 25 34 79 35 73 36 75 37 26 38 78 39 72 40 71 41 27 43
REMARK SMILES IDX 59 44 39 45 58 46 40 47 43 48 57 49 76 50 41 51 42 52 56 54
REMARK SMILES IDX 77 55 44 56 28 57 29 58 37 59 30 60 36 61 38 62 35 63 31 64
REMARK SMILES IDX 32 65 33 66 34 67 60 68 61 69 69 70 62 71 68 72 70 73 67 74
REMARK SMILES IDX 63 75 64 76 65 77 66 78 45 79 46 80 54 81 47 82 53 83 55 84
REMARK SMILES IDX 52 85 48 86 49 87 50 88 51 89
REMARK H PARENT 75 42 43 53
REMARK Flexibility Score: inf
ROOT
ATOM      1  C   UNL A   1      36.555  20.261  24.983  1.00  0.00     0.275 C 
ENDROOT
BRANCH   1   2
ATOM      2  C   UNL A   1      35.122  20.789  25.021  1.00  0.00     0.275 C 
BRANCH   2   3
ATOM      3  O   UNL A   1      35.097  22.222  25.201  1.00  0.00    -0.459 OA
BRANCH   3   4
ATOM      4  C   UNL A   1      33.862  22.770  25.293  1.00  0.00     0.338 C 
ATOM      5  O   UNL A   1      32.835  22.194  25.616  1.00  0.00    -0.246 OA
BRANCH   4   6
ATOM      6  C   UNL A   1      33.903  24.201  24.946  1.00  0.00     0.087 C 
ATOM      7  C   UNL A   1      32.308  29.718  27.166  1.00  0.00     0.044 C 
ATOM      8  C   UNL A   1      32.831  28.742  26.150  1.00  0.00    -0.050 A 
ATOM      9  C   UNL A   1      33.066  29.140  24.829  1.00  0.00     0.010 A 
ATOM     10  C   UNL A   1      33.025  27.403  26.495  1.00  0.00     0.015 A 
ATOM     11  C   UNL A   1      33.513  28.222  23.862  1.00  0.00    -0.008 A 
ATOM     12  C   UNL A   1      33.456  26.477  25.536  1.00  0.00     0.018 A 
ATOM     13  C   UNL A   1      33.755  28.677  22.453  1.00  0.00     0.048 C 
ATOM     14  C   UNL A   1      33.708  26.882  24.226  1.00  0.00     0.130 A 
ATOM     15  C   UNL A   1      33.591  25.083  25.901  1.00  0.00     0.027 C 
ATOM     16  O   UNL A   1      34.154  26.022  23.256  1.00  0.00    -0.475 OA
ATOM     17  C   UNL A   1      34.140  24.592  23.519  1.00  0.00     0.316 C 
BRANCH  17  18
ATOM     18  C   UNL A   1      33.126  23.923  22.578  1.00  0.00     0.430 C 
ATOM     19  F   UNL A   1      31.880  23.927  23.113  1.00  0.00    -0.167 F 
ATOM     20  F   UNL A   1      33.031  24.587  21.398  1.00  0.00    -0.167 F 
ATOM     21  F   UNL A   1      33.442  22.640  22.296  1.00  0.00    -0.167 F 
ENDBRANCH  17  18
ENDBRANCH   4   6
ENDBRANCH   3   4
ENDBRANCH   2   3
ENDBRANCH   1   2
BRANCH   1  22
ATOM     22  O   UNL A   1      37.488  21.350  25.108  1.00  0.00    -0.458 OA
BRANCH  22  23
ATOM     23  C   UNL A   1      38.659  21.040  25.711  1.00  0.00     0.338 C 
ATOM     24  O   UNL A   1      39.235  19.967  25.695  1.00  0.00    -0.246 OA
BRANCH  23  25
ATOM     25  C   UNL A   1      39.212  22.232  26.374  1.00  0.00     0.060 A 
ATOM     26  C   UNL A   1      38.654  23.473  26.094  1.00  0.00     0.016 A 
ATOM     27  C   UNL A   1      40.388  22.150  27.116  1.00  0.00     0.016 A 
ATOM     28  C   UNL A   1      39.355  24.635  26.399  1.00  0.00     0.010 A 
ATOM     29  C   UNL A   1      41.006  23.327  27.564  1.00  0.00     0.010 A 
ATOM     30  C   UNL A   1      40.530  24.588  27.161  1.00  0.00    -0.014 A 
BRANCH  30  31
ATOM     31  C   UNL A   1      41.263  25.852  27.487  1.00  0.00     0.031 A 
ATOM     32  C   UNL A   1      40.650  26.875  28.417  1.00  0.00     0.074 A 
ATOM     33  C   UNL A   1      42.504  26.066  26.998  1.00  0.00     0.049 A 
ATOM     34  N   UNL A   1      41.067  28.082  28.707  1.00  0.00    -0.248 NA
ATOM     35  C   UNL A   1      39.401  26.500  29.099  1.00  0.00     0.031 C 
ATOM     36  C   UNL A   1      43.246  25.143  26.134  1.00  0.00     0.029 A 
ATOM     37  N   UNL A   1      43.383  27.107  27.183  1.00  0.00    -0.354 N 
ATOM     38  C   UNL A   1      40.111  28.625  29.560  1.00  0.00     0.074 A 
ATOM     39  C   UNL A   1      39.079  27.624  29.725  1.00  0.00     0.031 C 
ATOM     40  C   UNL A   1      44.486  25.612  25.942  1.00  0.00     0.029 A 
ATOM     41  C   UNL A   1      44.597  26.926  26.559  1.00  0.00     0.049 A 
ATOM     42  H   UNL A   1      43.164  27.909  27.711  1.00  0.00     0.167 HD
ATOM     43  C   UNL A   1      40.101  29.840  30.161  1.00  0.00     0.034 A 
ATOM     44  C   UNL A   1      45.671  27.736  26.454  1.00  0.00     0.034 A 
ATOM     45  C   UNL A   1      41.163  30.806  30.042  1.00  0.00     0.049 A 
ATOM     46  C   UNL A   1      45.603  29.108  27.067  1.00  0.00     0.074 A 
ATOM     47  C   UNL A   1      41.250  32.064  30.614  1.00  0.00     0.029 A 
ATOM     48  N   UNL A   1      42.333  30.615  29.321  1.00  0.00    -0.354 N 
ATOM     49  N   UNL A   1      44.645  29.638  27.790  1.00  0.00    -0.248 NA
ATOM     50  C   UNL A   1      46.741  30.004  26.821  1.00  0.00     0.031 C 
ATOM     51  C   UNL A   1      42.446  32.654  30.196  1.00  0.00     0.029 A 
ATOM     52  C   UNL A   1      43.135  31.741  29.414  1.00  0.00     0.049 A 
ATOM     53  H   UNL A   1      42.559  29.801  28.817  1.00  0.00     0.167 HD
ATOM     54  C   UNL A   1      45.068  30.928  28.088  1.00  0.00     0.074 A 
ATOM     55  C   UNL A   1      46.374  31.092  27.484  1.00  0.00     0.031 C 
ATOM     56  C   UNL A   1      44.428  31.892  28.795  1.00  0.00     0.034 A 
BRANCH  43  57
ATOM     57  C   UNL A   1      38.892  30.213  30.981  1.00  0.00     0.023 A 
ATOM     58  C   UNL A   1      37.812  30.921  30.430  1.00  0.00     0.031 A 
ATOM     59  C   UNL A   1      38.808  29.825  32.332  1.00  0.00     0.131 A 
ATOM     60  C   UNL A   1      36.713  31.256  31.235  1.00  0.00     0.055 A 
ATOM     61  C   UNL A   1      37.683  30.106  33.110  1.00  0.00     0.041 A 
ATOM     62  F   UNL A   1      39.817  29.159  32.914  1.00  0.00    -0.206 F 
ATOM     63  C   UNL A   1      36.630  30.833  32.563  1.00  0.00     0.022 A 
BRANCH  60  64
ATOM     64  S   UNL A   1      35.421  32.323  30.541  1.00  0.00     0.124 S 
ATOM     65  O   UNL A   1      36.139  33.583  30.376  1.00  0.00    -0.237 OA
ATOM     66  O   UNL A   1      35.060  31.628  29.312  1.00  0.00    -0.237 OA
ATOM     67  O   UNL A   1      34.390  32.330  31.577  1.00  0.00    -0.744 OA
ENDBRANCH  60  64
ENDBRANCH  43  57
BRANCH  44  68
ATOM     68  C   UNL A   1      46.872  27.298  25.687  1.00  0.00     0.023 A 
ATOM     69  C   UNL A   1      47.063  27.700  24.356  1.00  0.00     0.031 A 
ATOM     70  C   UNL A   1      47.848  26.470  26.273  1.00  0.00     0.131 A 
ATOM     71  C   UNL A   1      48.195  27.260  23.650  1.00  0.00     0.055 A 
ATOM     72  C   UNL A   1      48.995  26.077  25.584  1.00  0.00     0.041 A 
ATOM     73  F   UNL A   1      47.711  26.054  27.543  1.00  0.00    -0.206 F 
ATOM     74  C   UNL A   1      49.171  26.468  24.260  1.00  0.00     0.022 A 
BRANCH  71  75
ATOM     75  S   UNL A   1      48.357  27.705  21.899  1.00  0.00     0.124 S 
ATOM     76  O   UNL A   1      49.501  28.608  21.928  1.00  0.00    -0.237 OA
ATOM     77  O   UNL A   1      48.579  26.406  21.273  1.00  0.00    -0.237 OA
ATOM     78  O   UNL A   1      47.074  28.332  21.588  1.00  0.00    -0.744 OA
ENDBRANCH  71  75
ENDBRANCH  44  68
BRANCH  56  79
ATOM     79  C   UNL A   1      45.134  33.207  28.969  1.00  0.00     0.023 A 
ATOM     80  C   UNL A   1      44.904  34.276  28.087  1.00  0.00     0.031 A 
ATOM     81  C   UNL A   1      45.992  33.413  30.062  1.00  0.00     0.131 A 
ATOM     82  C   UNL A   1      45.541  35.505  28.306  1.00  0.00     0.055 A 
ATOM     83  C   UNL A   1      46.591  34.650  30.299  1.00  0.00     0.041 A 
ATOM     84  F   UNL A   1      46.237  32.421  30.933  1.00  0.00    -0.206 F 
ATOM     85  C   UNL A   1      46.368  35.704  29.416  1.00  0.00     0.022 A 
BRANCH  82  86
ATOM     86  S   UNL A   1      45.286  36.845  27.111  1.00  0.00     0.124 S 
ATOM     87  O   UNL A   1      45.714  38.014  27.875  1.00  0.00    -0.237 OA
ATOM     88  O   UNL A   1      46.155  36.454  26.006  1.00  0.00    -0.237 OA
ATOM     89  O   UNL A   1      43.855  36.781  26.825  1.00  0.00    -0.744 OA
ENDBRANCH  82  86
ENDBRANCH  56  79
ENDBRANCH  30  31
ENDBRANCH  23  25
ENDBRANCH  22  23
ENDBRANCH   1  22
TORSDOF 15
ENDMDL
MODEL 3
REMARK VINA RESULT:     -10.8      5.819     11.842
REMARK SMILES Cc1cc(C)c2c(c1)C=C(C(=O)OCCOC(=O)c1ccc(-c3c4nc(c(-c5cc(S(=O)(=O)[O-])ccc5F)c5ccc([nH]5)c(-c5cc(S(=O)(=O)[O-])ccc5F)c5nc(c(-c6cc(S(=O)(=O)[O-])ccc6F)c6ccc3[nH]6)C=C5)C=C4)cc1)[C@@H](C(F)(F)F)O2
REMARK SMILES IDX 15 1 14 2 13 3 11 4 12 5 10 6 1 7 2 8 3 9 8 10 4 11 7 12
REMARK SMILES IDX 5 13 6 14 9 15 87 16 82 17 83 18 84 19 85 20 86 21 16 22
REMARK SMILES IDX 17 23 18 24 19 25 20 26 81 27 21 28 80 29 22 30 23 31 24 32
REMARK SMILES IDX 74 33 25 34 79 35 73 36 75 37 26 38 78 39 72 40 71 41 27 43
REMARK SMILES IDX 59 44 39 45 58 46 40 47 43 48 57 49 76 50 41 51 42 52 56 54
REMARK SMILES IDX 77 55 44 56 28 57 29 58 37 59 30 60 36 61 38 62 35 63 31 64
REMARK SMILES IDX 32 65 33 66 34 67 60 68 61 69 69 70 62 71 68 72 70 73 67 74
REMARK SMILES IDX 63 75 64 76 65 77 66 78 45 79 46 80 54 81 47 82 53 83 55 84
REMARK SMILES IDX 52 85 48 86 49 87 50 88 51 89
REMARK H PARENT 75 42 43 53
REMARK Flexibility Score: inf
ROOT
ATOM      1  C   UNL A   1      31.741  30.097  25.415  1.00  0.00     0.275 C 
ENDROOT
BRANCH   1   2
ATOM      2  C   UNL A   1      31.779  28.696  24.808  1.00  0.00     0.275 C 
BRANCH   2   3
ATOM      3  O   UNL A   1      32.465  27.767  25.675  1.00  0.00    -0.459 OA
BRANCH   3   4
ATOM      4  C   UNL A   1      31.677  26.834  26.261  1.00  0.00     0.338 C 
ATOM      5  O   UNL A   1      30.707  27.046  26.971  1.00  0.00    -0.246 OA
BRANCH   4   6
ATOM      6  C   UNL A   1      32.144  25.477  25.928  1.00  0.00     0.087 C 
ATOM      7  C   UNL A   1      37.325  22.214  25.289  1.00  0.00     0.044 C 
ATOM      8  C   UNL A   1      35.847  22.472  25.236  1.00  0.00    -0.050 A 
ATOM      9  C   UNL A   1      34.982  21.563  24.616  1.00  0.00     0.010 A 
ATOM     10  C   UNL A   1      35.320  23.660  25.747  1.00  0.00     0.015 A 
ATOM     11  C   UNL A   1      33.603  21.818  24.522  1.00  0.00    -0.008 A 
ATOM     12  C   UNL A   1      33.950  23.931  25.646  1.00  0.00     0.018 A 
ATOM     13  C   UNL A   1      32.701  20.825  23.849  1.00  0.00     0.048 C 
ATOM     14  C   UNL A   1      33.089  23.014  25.044  1.00  0.00     0.130 A 
ATOM     15  C   UNL A   1      33.436  25.197  26.127  1.00  0.00     0.027 C 
ATOM     16  O   UNL A   1      31.738  23.219  24.943  1.00  0.00    -0.475 OA
ATOM     17  C   UNL A   1      31.199  24.535  25.248  1.00  0.00     0.316 C 
BRANCH  17  18
ATOM     18  C   UNL A   1      30.623  25.147  23.962  1.00  0.00     0.430 C 
ATOM     19  F   UNL A   1      30.168  24.187  23.119  1.00  0.00    -0.167 F 
ATOM     20  F   UNL A   1      29.561  25.950  24.226  1.00  0.00    -0.167 F 
ATOM     21  F   UNL A   1      31.529  25.884  23.283  1.00  0.00    -0.167 F 
ENDBRANCH  17  18
ENDBRANCH   4   6
ENDBRANCH   3   4
ENDBRANCH   2   3
ENDBRANCH   1   2
BRANCH   1  22
ATOM     22  O   UNL A   1      32.309  30.079  26.737  1.00  0.00    -0.458 OA
BRANCH  22  23
ATOM     23  C   UNL A   1      32.913  31.227  27.120  1.00  0.00     0.338 C 
ATOM     24  O   UNL A   1      32.428  32.344  27.144  1.00  0.00    -0.246 OA
BRANCH  23  25
ATOM     25  C   UNL A   1      34.282  30.942  27.584  1.00  0.00     0.060 A 
ATOM     26  C   UNL A   1      34.657  29.620  27.788  1.00  0.00     0.016 A 
ATOM     27  C   UNL A   1      35.122  31.974  27.995  1.00  0.00     0.016 A 
ATOM     28  C   UNL A   1      35.780  29.327  28.553  1.00  0.00     0.010 A 
ATOM     29  C   UNL A   1      36.337  31.667  28.623  1.00  0.00     0.010 A 
ATOM     30  C   UNL A   1      36.657  30.341  28.964  1.00  0.00    -0.014 A 
BRANCH  30  31
ATOM     31  C   UNL A   1      37.866  30.002  29.779  1.00  0.00     0.031 A 
ATOM     32  C   UNL A   1      38.975  29.161  29.189  1.00  0.00     0.074 A 
ATOM     33  C   UNL A   1      38.004  30.491  31.031  1.00  0.00     0.049 A 
ATOM     34  N   UNL A   1      40.028  28.651  29.779  1.00  0.00    -0.248 NA
ATOM     35  C   UNL A   1      38.886  28.838  27.756  1.00  0.00     0.031 C 
ATOM     36  C   UNL A   1      37.041  31.362  31.711  1.00  0.00     0.029 A 
ATOM     37  N   UNL A   1      39.021  30.362  31.946  1.00  0.00    -0.354 N 
ATOM     38  C   UNL A   1      40.694  27.911  28.806  1.00  0.00     0.074 A 
ATOM     39  C   UNL A   1      39.915  28.019  27.591  1.00  0.00     0.031 C 
ATOM     40  C   UNL A   1      37.552  31.758  32.886  1.00  0.00     0.029 A 
ATOM     41  C   UNL A   1      38.819  31.075  33.106  1.00  0.00     0.049 A 
ATOM     42  H   UNL A   1      39.821  29.808  31.787  1.00  0.00     0.167 HD
ATOM     43  C   UNL A   1      41.854  27.218  28.912  1.00  0.00     0.034 A 
ATOM     44  C   UNL A   1      39.543  31.148  34.242  1.00  0.00     0.034 A 
ATOM     45  C   UNL A   1      42.655  27.167  30.109  1.00  0.00     0.049 A 
ATOM     46  C   UNL A   1      40.786  30.309  34.361  1.00  0.00     0.074 A 
ATOM     47  C   UNL A   1      43.848  26.496  30.317  1.00  0.00     0.029 A 
ATOM     48  N   UNL A   1      42.360  27.831  31.291  1.00  0.00    -0.354 N 
ATOM     49  N   UNL A   1      41.346  29.538  33.458  1.00  0.00    -0.248 NA
ATOM     50  C   UNL A   1      41.475  30.319  35.658  1.00  0.00     0.031 C 
ATOM     51  C   UNL A   1      44.245  26.710  31.640  1.00  0.00     0.029 A 
ATOM     52  C   UNL A   1      43.334  27.565  32.238  1.00  0.00     0.049 A 
ATOM     53  H   UNL A   1      41.574  28.405  31.435  1.00  0.00     0.167 HD
ATOM     54  C   UNL A   1      42.455  28.976  34.079  1.00  0.00     0.074 A 
ATOM     55  C   UNL A   1      42.497  29.507  35.426  1.00  0.00     0.031 C 
ATOM     56  C   UNL A   1      43.354  28.093  33.579  1.00  0.00     0.034 A 
BRANCH  43  57
ATOM     57  C   UNL A   1      42.318  26.428  27.714  1.00  0.00     0.023 A 
ATOM     58  C   UNL A   1      41.977  25.078  27.539  1.00  0.00     0.031 A 
ATOM     59  C   UNL A   1      43.090  27.051  26.716  1.00  0.00     0.131 A 
ATOM     60  C   UNL A   1      42.441  24.381  26.413  1.00  0.00     0.055 A 
ATOM     61  C   UNL A   1      43.496  26.369  25.567  1.00  0.00     0.041 A 
ATOM     62  F   UNL A   1      43.458  28.336  26.839  1.00  0.00    -0.206 F 
ATOM     63  C   UNL A   1      43.177  25.023  25.414  1.00  0.00     0.022 A 
BRANCH  60  64
ATOM     64  S   UNL A   1      42.134  22.597  26.307  1.00  0.00     0.124 S 
ATOM     65  O   UNL A   1      40.683  22.540  26.456  1.00  0.00    -0.237 OA
ATOM     66  O   UNL A   1      42.654  22.262  24.987  1.00  0.00    -0.237 OA
ATOM     67  O   UNL A   1      42.892  22.052  27.431  1.00  0.00    -0.744 OA
ENDBRANCH  60  64
ENDBRANCH  43  57
BRANCH  44  68
ATOM     68  C   UNL A   1      39.078  31.993  35.379  1.00  0.00     0.023 A 
ATOM     69  C   UNL A   1      38.420  31.424  36.480  1.00  0.00     0.031 A 
ATOM     70  C   UNL A   1      39.284  33.386  35.381  1.00  0.00     0.131 A 
ATOM     71  C   UNL A   1      37.977  32.245  37.530  1.00  0.00     0.055 A 
ATOM     72  C   UNL A   1      38.888  34.190  36.450  1.00  0.00     0.041 A 
ATOM     73  F   UNL A   1      39.905  33.982  34.350  1.00  0.00    -0.206 F 
ATOM     74  C   UNL A   1      38.223  33.620  37.531  1.00  0.00     0.022 A 
BRANCH  71  75
ATOM     75  S   UNL A   1      37.033  31.494  38.884  1.00  0.00     0.124 S 
ATOM     76  O   UNL A   1      37.947  31.659  40.008  1.00  0.00    -0.237 OA
ATOM     77  O   UNL A   1      35.828  32.317  38.909  1.00  0.00    -0.237 OA
ATOM     78  O   UNL A   1      36.835  30.116  38.437  1.00  0.00    -0.744 OA
ENDBRANCH  71  75
ENDBRANCH  44  68
BRANCH  56  79
ATOM     79  C   UNL A   1      44.471  27.655  34.484  1.00  0.00     0.023 A 
ATOM     80  C   UNL A   1      44.364  26.486  35.255  1.00  0.00     0.031 A 
ATOM     81  C   UNL A   1      45.677  28.376  34.525  1.00  0.00     0.131 A 
ATOM     82  C   UNL A   1      45.443  26.080  36.051  1.00  0.00     0.055 A 
ATOM     83  C   UNL A   1      46.762  27.944  35.286  1.00  0.00     0.041 A 
ATOM     84  F   UNL A   1      45.825  29.497  33.800  1.00  0.00    -0.206 F 
ATOM     85  C   UNL A   1      46.647  26.790  36.058  1.00  0.00     0.022 A 
BRANCH  82  86
ATOM     86  S   UNL A   1      45.252  24.609  37.095  1.00  0.00     0.124 S 
ATOM     87  O   UNL A   1      44.036  24.925  37.840  1.00  0.00    -0.237 OA
ATOM     88  O   UNL A   1      45.136  23.536  36.113  1.00  0.00    -0.237 OA
ATOM     89  O   UNL A   1      46.478  24.590  37.889  1.00  0.00    -0.744 OA
ENDBRANCH  82  86
ENDBRANCH  56  79
ENDBRANCH  30  31
ENDBRANCH  23  25
ENDBRANCH  22  23
ENDBRANCH   1  22
TORSDOF 15
ENDMDL
