MODEL 1
REMARK VINA RESULT:     -10.4      0.000      0.000
REMARK SMILES O=C(Cn1cc(C(=O)C(F)(F)F)c2ccccc21)OCCOC(=O)c1ccc(-c2c3nc(c(-c4cc(S(=O)(=O)[O-])ccc4F)c4ccc([nH]4)c(-c4cc(S(=O)(=O)[O-])ccc4F)c4nc(c(-c5cc(S(=O)(=O)[O-])ccc5F)c5ccc2[nH]5)C=C4)C=C3)cc1
REMARK SMILES IDX 20 1 19 2 2 3 1 4 3 5 4 6 5 7 18 8 6 9 13 10 17 11 14 12
REMARK SMILES IDX 16 13 15 14 7 15 8 16 9 17 10 18 11 19 12 20 21 21 22 22
REMARK SMILES IDX 23 23 24 24 25 25 26 26 87 27 27 28 86 29 28 30 29 31 30 32
REMARK SMILES IDX 80 33 31 34 85 35 79 36 81 37 32 38 84 39 78 40 77 41 33 43
REMARK SMILES IDX 65 44 45 45 64 46 46 47 49 48 63 49 82 50 47 51 48 52 62 54
REMARK SMILES IDX 83 55 50 56 34 57 35 58 43 59 36 60 42 61 44 62 41 63 37 64
REMARK SMILES IDX 38 65 39 66 40 67 66 68 67 69 75 70 68 71 74 72 76 73 73 74
REMARK SMILES IDX 69 75 70 76 71 77 72 78 51 79 52 80 60 81 53 82 59 83 61 84
REMARK SMILES IDX 58 85 54 86 55 87 56 88 57 89
REMARK H PARENT 81 42 49 53
REMARK Flexibility Score: inf
ROOT
ATOM      1  C   UNL A   1      41.961  20.742  26.203  1.00  0.00     0.274 C 
ENDROOT
BRANCH   1   2
ATOM      2  O   UNL A   1      43.188  21.466  26.439  1.00  0.00    -0.461 OA
BRANCH   2   3
ATOM      3  C   UNL A   1      44.241  21.523  25.587  1.00  0.00     0.326 C 
ATOM      4  O   UNL A   1      44.156  20.951  24.501  1.00  0.00    -0.250 OA
BRANCH   3   5
ATOM      5  C   UNL A   1      45.486  22.261  25.996  1.00  0.00     0.244 C 
BRANCH   5   6
ATOM      6  N   UNL A   1      45.378  23.696  26.181  1.00  0.00    -0.335 N 
ATOM      7  C   UNL A   1      45.474  24.637  25.203  1.00  0.00     0.099 A 
ATOM      8  C   UNL A   1      45.232  24.300  27.415  1.00  0.00     0.049 A 
ATOM      9  C   UNL A   1      45.406  25.888  25.788  1.00  0.00     0.053 A 
ATOM     10  C   UNL A   1      45.337  25.678  27.205  1.00  0.00     0.011 A 
ATOM     11  C   UNL A   1      45.056  23.752  28.698  1.00  0.00     0.027 A 
ATOM     12  C   UNL A   1      45.338  26.525  28.335  1.00  0.00     0.011 A 
ATOM     13  C   UNL A   1      45.055  24.614  29.796  1.00  0.00     0.002 A 
ATOM     14  C   UNL A   1      45.216  25.983  29.620  1.00  0.00     0.001 A 
BRANCH   9  15
ATOM     15  C   UNL A   1      45.399  27.150  25.043  1.00  0.00     0.268 C 
ATOM     16  O   UNL A   1      44.345  27.728  24.768  1.00  0.00    -0.284 OA
BRANCH  15  17
ATOM     17  C   UNL A   1      46.757  27.657  24.553  1.00  0.00     0.454 C 
ATOM     18  F   UNL A   1      47.474  28.299  25.520  1.00  0.00    -0.163 F 
ATOM     19  F   UNL A   1      47.561  26.639  24.112  1.00  0.00    -0.163 F 
ATOM     20  F   UNL A   1      46.672  28.526  23.506  1.00  0.00    -0.163 F 
ENDBRANCH  15  17
ENDBRANCH   9  15
ENDBRANCH   5   6
ENDBRANCH   3   5
ENDBRANCH   2   3
ENDBRANCH   1   2
BRANCH   1  21
ATOM     21  C   UNL A   1      41.180  20.561  27.508  1.00  0.00     0.275 C 
BRANCH  21  22
ATOM     22  O   UNL A   1      40.728  21.849  27.956  1.00  0.00    -0.458 OA
BRANCH  22  23
ATOM     23  C   UNL A   1      39.931  22.545  27.097  1.00  0.00     0.338 C 
ATOM     24  O   UNL A   1      38.952  22.136  26.516  1.00  0.00    -0.246 OA
BRANCH  23  25
ATOM     25  C   UNL A   1      40.292  23.973  27.277  1.00  0.00     0.060 A 
ATOM     26  C   UNL A   1      41.553  24.346  27.748  1.00  0.00     0.016 A 
ATOM     27  C   UNL A   1      39.251  24.905  27.223  1.00  0.00     0.016 A 
ATOM     28  C   UNL A   1      41.712  25.606  28.321  1.00  0.00     0.010 A 
ATOM     29  C   UNL A   1      39.425  26.172  27.779  1.00  0.00     0.010 A 
ATOM     30  C   UNL A   1      40.624  26.495  28.417  1.00  0.00    -0.014 A 
BRANCH  30  31
ATOM     31  C   UNL A   1      40.817  27.737  29.196  1.00  0.00     0.031 A 
ATOM     32  C   UNL A   1      41.829  28.685  28.633  1.00  0.00     0.074 A 
ATOM     33  C   UNL A   1      40.095  28.103  30.280  1.00  0.00     0.049 A 
ATOM     34  N   UNL A   1      42.863  29.227  29.198  1.00  0.00    -0.248 NA
ATOM     35  C   UNL A   1      41.708  28.971  27.196  1.00  0.00     0.031 C 
ATOM     36  C   UNL A   1      38.881  27.475  30.811  1.00  0.00     0.029 A 
ATOM     37  N   UNL A   1      40.233  29.210  31.078  1.00  0.00    -0.354 N 
ATOM     38  C   UNL A   1      43.440  30.047  28.226  1.00  0.00     0.074 A 
ATOM     39  C   UNL A   1      42.772  29.739  26.987  1.00  0.00     0.031 C 
ATOM     40  C   UNL A   1      38.264  28.331  31.654  1.00  0.00     0.029 A 
ATOM     41  C   UNL A   1      39.102  29.502  31.831  1.00  0.00     0.049 A 
ATOM     42  H   UNL A   1      41.057  29.747  31.114  1.00  0.00     0.167 HD
ATOM     43  C   UNL A   1      44.334  31.040  28.501  1.00  0.00     0.034 A 
ATOM     44  C   UNL A   1      38.808  30.663  32.467  1.00  0.00     0.034 A 
ATOM     45  C   UNL A   1      44.931  30.900  29.794  1.00  0.00     0.049 A 
ATOM     46  C   UNL A   1      40.044  31.461  32.613  1.00  0.00     0.074 A 
ATOM     47  C   UNL A   1      45.795  29.998  30.376  1.00  0.00     0.029 A 
ATOM     48  N   UNL A   1      44.447  31.672  30.818  1.00  0.00    -0.354 N 
ATOM     49  N   UNL A   1      41.019  31.187  33.429  1.00  0.00    -0.248 NA
ATOM     50  C   UNL A   1      40.353  32.414  31.560  1.00  0.00     0.031 C 
ATOM     51  C   UNL A   1      45.448  29.980  31.756  1.00  0.00     0.029 A 
ATOM     52  C   UNL A   1      44.400  30.885  31.938  1.00  0.00     0.049 A 
ATOM     53  H   UNL A   1      44.181  32.619  30.759  1.00  0.00     0.167 HD
ATOM     54  C   UNL A   1      42.160  31.577  32.746  1.00  0.00     0.074 A 
ATOM     55  C   UNL A   1      41.682  32.438  31.669  1.00  0.00     0.031 C 
ATOM     56  C   UNL A   1      43.356  30.950  32.942  1.00  0.00     0.034 A 
BRANCH  43  57
ATOM     57  C   UNL A   1      44.489  32.281  27.654  1.00  0.00     0.023 A 
ATOM     58  C   UNL A   1      43.875  33.503  27.991  1.00  0.00     0.031 A 
ATOM     59  C   UNL A   1      45.409  32.336  26.588  1.00  0.00     0.131 A 
ATOM     60  C   UNL A   1      44.107  34.676  27.265  1.00  0.00     0.055 A 
ATOM     61  C   UNL A   1      45.705  33.528  25.909  1.00  0.00     0.041 A 
ATOM     62  F   UNL A   1      46.085  31.242  26.201  1.00  0.00    -0.206 F 
ATOM     63  C   UNL A   1      45.043  34.705  26.238  1.00  0.00     0.022 A 
BRANCH  60  64
ATOM     64  S   UNL A   1      43.162  36.177  27.638  1.00  0.00     0.124 S 
ATOM     65  O   UNL A   1      41.823  35.807  27.194  1.00  0.00    -0.237 OA
ATOM     66  O   UNL A   1      43.343  36.294  29.083  1.00  0.00    -0.237 OA
ATOM     67  O   UNL A   1      43.836  37.206  26.851  1.00  0.00    -0.744 OA
ENDBRANCH  60  64
ENDBRANCH  43  57
BRANCH  44  68
ATOM     68  C   UNL A   1      37.474  31.310  32.526  1.00  0.00     0.023 A 
ATOM     69  C   UNL A   1      36.821  31.657  31.328  1.00  0.00     0.031 A 
ATOM     70  C   UNL A   1      36.981  31.872  33.716  1.00  0.00     0.131 A 
ATOM     71  C   UNL A   1      35.754  32.563  31.332  1.00  0.00     0.055 A 
ATOM     72  C   UNL A   1      35.903  32.766  33.720  1.00  0.00     0.041 A 
ATOM     73  F   UNL A   1      37.581  31.616  34.889  1.00  0.00    -0.206 F 
ATOM     74  C   UNL A   1      35.292  33.126  32.522  1.00  0.00     0.022 A 
BRANCH  71  75
ATOM     75  S   UNL A   1      35.000  33.091  29.769  1.00  0.00     0.124 S 
ATOM     76  O   UNL A   1      34.695  31.815  29.127  1.00  0.00    -0.237 OA
ATOM     77  O   UNL A   1      33.847  33.850  30.239  1.00  0.00    -0.237 OA
ATOM     78  O   UNL A   1      36.055  33.868  29.125  1.00  0.00    -0.744 OA
ENDBRANCH  71  75
ENDBRANCH  44  68
BRANCH  56  79
ATOM     79  C   UNL A   1      43.513  30.020  34.124  1.00  0.00     0.023 A 
ATOM     80  C   UNL A   1      42.828  28.791  34.073  1.00  0.00     0.031 A 
ATOM     81  C   UNL A   1      44.096  30.389  35.351  1.00  0.00     0.131 A 
ATOM     82  C   UNL A   1      42.700  28.003  35.224  1.00  0.00     0.055 A 
ATOM     83  C   UNL A   1      44.030  29.563  36.477  1.00  0.00     0.041 A 
ATOM     84  F   UNL A   1      44.663  31.592  35.522  1.00  0.00    -0.206 F 
ATOM     85  C   UNL A   1      43.315  28.372  36.424  1.00  0.00     0.022 A 
BRANCH  82  86
ATOM     86  S   UNL A   1      41.589  26.572  35.234  1.00  0.00     0.124 S 
ATOM     87  O   UNL A   1      41.121  26.550  36.617  1.00  0.00    -0.237 OA
ATOM     88  O   UNL A   1      40.586  26.948  34.239  1.00  0.00    -0.237 OA
ATOM     89  O   UNL A   1      42.446  25.454  34.849  1.00  0.00    -0.744 OA
ENDBRANCH  82  86
ENDBRANCH  56  79
ENDBRANCH  30  31
ENDBRANCH  23  25
ENDBRANCH  22  23
ENDBRANCH  21  22
ENDBRANCH   1  21
TORSDOF 17
ENDMDL
MODEL 2
REMARK VINA RESULT:     -10.2      5.381     11.264
REMARK SMILES O=C(Cn1cc(C(=O)C(F)(F)F)c2ccccc21)OCCOC(=O)c1ccc(-c2c3nc(c(-c4cc(S(=O)(=O)[O-])ccc4F)c4ccc([nH]4)c(-c4cc(S(=O)(=O)[O-])ccc4F)c4nc(c(-c5cc(S(=O)(=O)[O-])ccc5F)c5ccc2[nH]5)C=C4)C=C3)cc1
REMARK SMILES IDX 20 1 19 2 2 3 1 4 3 5 4 6 5 7 18 8 6 9 13 10 17 11 14 12
REMARK SMILES IDX 16 13 15 14 7 15 8 16 9 17 10 18 11 19 12 20 21 21 22 22
REMARK SMILES IDX 23 23 24 24 25 25 26 26 87 27 27 28 86 29 28 30 29 31 30 32
REMARK SMILES IDX 80 33 31 34 85 35 79 36 81 37 32 38 84 39 78 40 77 41 33 43
REMARK SMILES IDX 65 44 45 45 64 46 46 47 49 48 63 49 82 50 47 51 48 52 62 54
REMARK SMILES IDX 83 55 50 56 34 57 35 58 43 59 36 60 42 61 44 62 41 63 37 64
REMARK SMILES IDX 38 65 39 66 40 67 66 68 67 69 75 70 68 71 74 72 76 73 73 74
REMARK SMILES IDX 69 75 70 76 71 77 72 78 51 79 52 80 60 81 53 82 59 83 61 84
REMARK SMILES IDX 58 85 54 86 55 87 56 88 57 89
REMARK H PARENT 81 42 49 53
REMARK Flexibility Score: inf
ROOT
ATOM      1  C   UNL A   1      33.536  29.674  26.472  1.00  0.00     0.274 C 
ENDROOT
BRANCH   1   2
ATOM      2  O   UNL A   1      33.225  28.549  27.322  1.00  0.00    -0.461 OA
BRANCH   2   3
ATOM      3  C   UNL A   1      32.085  27.817  27.267  1.00  0.00     0.326 C 
ATOM      4  O   UNL A   1      31.177  28.072  28.057  1.00  0.00    -0.250 OA
BRANCH   3   5
ATOM      5  C   UNL A   1      31.968  26.703  26.263  1.00  0.00     0.244 C 
BRANCH   5   6
ATOM      6  N   UNL A   1      31.648  27.070  24.896  1.00  0.00    -0.335 N 
ATOM      7  C   UNL A   1      30.771  28.037  24.513  1.00  0.00     0.099 A 
ATOM      8  C   UNL A   1      32.157  26.417  23.790  1.00  0.00     0.049 A 
ATOM      9  C   UNL A   1      30.677  28.025  23.134  1.00  0.00     0.053 A 
ATOM     10  C   UNL A   1      31.494  26.938  22.675  1.00  0.00     0.011 A 
ATOM     11  C   UNL A   1      33.111  25.390  23.679  1.00  0.00     0.027 A 
ATOM     12  C   UNL A   1      31.749  26.352  21.415  1.00  0.00     0.011 A 
ATOM     13  C   UNL A   1      33.347  24.834  22.420  1.00  0.00     0.002 A 
ATOM     14  C   UNL A   1      32.660  25.294  21.304  1.00  0.00     0.001 A 
BRANCH   9  15
ATOM     15  C   UNL A   1      29.886  28.975  22.350  1.00  0.00     0.268 C 
ATOM     16  O   UNL A   1      30.405  29.687  21.488  1.00  0.00    -0.284 OA
BRANCH  15  17
ATOM     17  C   UNL A   1      28.407  29.098  22.724  1.00  0.00     0.454 C 
ATOM     18  F   UNL A   1      27.619  29.494  21.682  1.00  0.00    -0.163 F 
ATOM     19  F   UNL A   1      27.881  27.908  23.153  1.00  0.00    -0.163 F 
ATOM     20  F   UNL A   1      28.168  29.982  23.734  1.00  0.00    -0.163 F 
ENDBRANCH  15  17
ENDBRANCH   9  15
ENDBRANCH   5   6
ENDBRANCH   3   5
ENDBRANCH   2   3
ENDBRANCH   1   2
BRANCH   1  21
ATOM     21  C   UNL A   1      33.715  30.948  27.304  1.00  0.00     0.275 C 
BRANCH  21  22
ATOM     22  O   UNL A   1      35.111  31.107  27.605  1.00  0.00    -0.458 OA
BRANCH  22  23
ATOM     23  C   UNL A   1      35.415  31.882  28.683  1.00  0.00     0.338 C 
ATOM     24  O   UNL A   1      34.722  32.739  29.185  1.00  0.00    -0.246 OA
BRANCH  23  25
ATOM     25  C   UNL A   1      36.595  31.247  29.320  1.00  0.00     0.060 A 
ATOM     26  C   UNL A   1      37.829  31.900  29.369  1.00  0.00     0.016 A 
ATOM     27  C   UNL A   1      36.501  29.883  29.617  1.00  0.00     0.016 A 
ATOM     28  C   UNL A   1      38.984  31.143  29.550  1.00  0.00     0.010 A 
ATOM     29  C   UNL A   1      37.661  29.136  29.818  1.00  0.00     0.010 A 
ATOM     30  C   UNL A   1      38.912  29.743  29.689  1.00  0.00    -0.014 A 
BRANCH  30  31
ATOM     31  C   UNL A   1      40.182  28.986  29.695  1.00  0.00     0.031 A 
ATOM     32  C   UNL A   1      40.699  28.627  31.053  1.00  0.00     0.074 A 
ATOM     33  C   UNL A   1      40.827  28.527  28.597  1.00  0.00     0.049 A 
ATOM     34  N   UNL A   1      41.861  28.848  31.584  1.00  0.00    -0.248 NA
ATOM     35  C   UNL A   1      39.719  28.029  31.972  1.00  0.00     0.031 C 
ATOM     36  C   UNL A   1      40.349  28.510  27.211  1.00  0.00     0.029 A 
ATOM     37  N   UNL A   1      42.020  27.856  28.511  1.00  0.00    -0.354 N 
ATOM     38  C   UNL A   1      41.810  28.278  32.858  1.00  0.00     0.074 A 
ATOM     39  C   UNL A   1      40.433  27.920  33.088  1.00  0.00     0.031 C 
ATOM     40  C   UNL A   1      41.101  27.653  26.487  1.00  0.00     0.029 A 
ATOM     41  C   UNL A   1      42.192  27.172  27.314  1.00  0.00     0.049 A 
ATOM     42  H   UNL A   1      42.691  27.859  29.231  1.00  0.00     0.167 HD
ATOM     43  C   UNL A   1      42.912  27.993  33.609  1.00  0.00     0.034 A 
ATOM     44  C   UNL A   1      43.091  26.194  27.041  1.00  0.00     0.034 A 
ATOM     45  C   UNL A   1      44.078  28.694  33.162  1.00  0.00     0.049 A 
ATOM     46  C   UNL A   1      44.163  26.224  28.059  1.00  0.00     0.074 A 
ATOM     47  C   UNL A   1      44.471  30.014  33.136  1.00  0.00     0.029 A 
ATOM     48  N   UNL A   1      44.986  28.015  32.392  1.00  0.00    -0.354 N 
ATOM     49  N   UNL A   1      45.086  27.136  28.147  1.00  0.00    -0.248 NA
ATOM     50  C   UNL A   1      43.992  25.387  29.236  1.00  0.00     0.031 C 
ATOM     51  C   UNL A   1      45.321  30.131  32.000  1.00  0.00     0.029 A 
ATOM     52  C   UNL A   1      45.409  28.869  31.408  1.00  0.00     0.049 A 
ATOM     53  H   UNL A   1      45.280  27.084  32.521  1.00  0.00     0.167 HD
ATOM     54  C   UNL A   1      45.302  27.279  29.508  1.00  0.00     0.074 A 
ATOM     55  C   UNL A   1      44.703  26.095  30.114  1.00  0.00     0.031 C 
ATOM     56  C   UNL A   1      45.698  28.470  30.045  1.00  0.00     0.034 A 
BRANCH  43  57
ATOM     57  C   UNL A   1      42.963  26.880  34.629  1.00  0.00     0.023 A 
ATOM     58  C   UNL A   1      43.745  25.724  34.441  1.00  0.00     0.031 A 
ATOM     59  C   UNL A   1      42.384  27.023  35.905  1.00  0.00     0.131 A 
ATOM     60  C   UNL A   1      43.874  24.746  35.433  1.00  0.00     0.055 A 
ATOM     61  C   UNL A   1      42.577  26.083  36.930  1.00  0.00     0.041 A 
ATOM     62  F   UNL A   1      41.649  28.103  36.214  1.00  0.00    -0.206 F 
ATOM     63  C   UNL A   1      43.315  24.929  36.692  1.00  0.00     0.022 A 
BRANCH  60  64
ATOM     64  S   UNL A   1      44.752  23.200  35.077  1.00  0.00     0.124 S 
ATOM     65  O   UNL A   1      43.786  22.491  34.245  1.00  0.00    -0.237 OA
ATOM     66  O   UNL A   1      45.946  23.687  34.389  1.00  0.00    -0.237 OA
ATOM     67  O   UNL A   1      44.995  22.635  36.400  1.00  0.00    -0.744 OA
ENDBRANCH  60  64
ENDBRANCH  43  57
BRANCH  44  68
ATOM     68  C   UNL A   1      42.829  24.967  26.250  1.00  0.00     0.023 A 
ATOM     69  C   UNL A   1      41.822  24.078  26.667  1.00  0.00     0.031 A 
ATOM     70  C   UNL A   1      43.745  24.501  25.291  1.00  0.00     0.131 A 
ATOM     71  C   UNL A   1      41.774  22.768  26.173  1.00  0.00     0.055 A 
ATOM     72  C   UNL A   1      43.687  23.196  24.786  1.00  0.00     0.041 A 
ATOM     73  F   UNL A   1      44.755  25.282  24.878  1.00  0.00    -0.206 F 
ATOM     74  C   UNL A   1      42.705  22.318  25.237  1.00  0.00     0.022 A 
BRANCH  71  75
ATOM     75  S   UNL A   1      40.543  21.599  26.810  1.00  0.00     0.124 S 
ATOM     76  O   UNL A   1      40.774  21.659  28.250  1.00  0.00    -0.237 OA
ATOM     77  O   UNL A   1      39.297  22.201  26.347  1.00  0.00    -0.237 OA
ATOM     78  O   UNL A   1      40.911  20.336  26.178  1.00  0.00    -0.744 OA
ENDBRANCH  71  75
ENDBRANCH  44  68
BRANCH  56  79
ATOM     79  C   UNL A   1      46.191  29.563  29.124  1.00  0.00     0.023 A 
ATOM     80  C   UNL A   1      45.220  30.355  28.483  1.00  0.00     0.031 A 
ATOM     81  C   UNL A   1      47.524  29.690  28.688  1.00  0.00     0.131 A 
ATOM     82  C   UNL A   1      45.577  31.194  27.421  1.00  0.00     0.055 A 
ATOM     83  C   UNL A   1      47.888  30.586  27.678  1.00  0.00     0.041 A 
ATOM     84  F   UNL A   1      48.493  28.892  29.159  1.00  0.00    -0.206 F 
ATOM     85  C   UNL A   1      46.911  31.331  27.026  1.00  0.00     0.022 A 
BRANCH  82  86
ATOM     86  S   UNL A   1      44.299  31.994  26.416  1.00  0.00     0.124 S 
ATOM     87  O   UNL A   1      45.055  32.444  25.250  1.00  0.00    -0.237 OA
ATOM     88  O   UNL A   1      43.363  30.898  26.171  1.00  0.00    -0.237 OA
ATOM     89  O   UNL A   1      43.787  33.058  27.275  1.00  0.00    -0.744 OA
ENDBRANCH  82  86
ENDBRANCH  56  79
ENDBRANCH  30  31
ENDBRANCH  23  25
ENDBRANCH  22  23
ENDBRANCH  21  22
ENDBRANCH   1  21
TORSDOF 17
ENDMDL
MODEL 3
REMARK VINA RESULT:     -10.0      2.771     10.694
REMARK SMILES O=C(Cn1cc(C(=O)C(F)(F)F)c2ccccc21)OCCOC(=O)c1ccc(-c2c3nc(c(-c4cc(S(=O)(=O)[O-])ccc4F)c4ccc([nH]4)c(-c4cc(S(=O)(=O)[O-])ccc4F)c4nc(c(-c5cc(S(=O)(=O)[O-])ccc5F)c5ccc2[nH]5)C=C4)C=C3)cc1
REMARK SMILES IDX 20 1 19 2 2 3 1 4 3 5 4 6 5 7 18 8 6 9 13 10 17 11 14 12
REMARK SMILES IDX 16 13 15 14 7 15 8 16 9 17 10 18 11 19 12 20 21 21 22 22
REMARK SMILES IDX 23 23 24 24 25 25 26 26 87 27 27 28 86 29 28 30 29 31 30 32
REMARK SMILES IDX 80 33 31 34 85 35 79 36 81 37 32 38 84 39 78 40 77 41 33 43
REMARK SMILES IDX 65 44 45 45 64 46 46 47 49 48 63 49 82 50 47 51 48 52 62 54
REMARK SMILES IDX 83 55 50 56 34 57 35 58 43 59 36 60 42 61 44 62 41 63 37 64
REMARK SMILES IDX 38 65 39 66 40 67 66 68 67 69 75 70 68 71 74 72 76 73 73 74
REMARK SMILES IDX 69 75 70 76 71 77 72 78 51 79 52 80 60 81 53 82 59 83 61 84
REMARK SMILES IDX 58 85 54 86 55 87 56 88 57 89
REMARK H PARENT 81 42 49 53
REMARK Flexibility Score: inf
ROOT
ATOM      1  C   UNL A   1      34.724  32.477  31.539  1.00  0.00     0.274 C 
ENDROOT
BRANCH   1   2
ATOM      2  O   UNL A   1      34.032  33.121  32.630  1.00  0.00    -0.461 OA
BRANCH   2   3
ATOM      3  C   UNL A   1      34.428  34.264  33.243  1.00  0.00     0.326 C 
ATOM      4  O   UNL A   1      33.861  35.317  32.958  1.00  0.00    -0.250 OA
BRANCH   3   5
ATOM      5  C   UNL A   1      35.558  34.219  34.235  1.00  0.00     0.244 C 
BRANCH   5   6
ATOM      6  N   UNL A   1      36.888  33.957  33.717  1.00  0.00    -0.335 N 
ATOM      7  C   UNL A   1      37.478  34.595  32.671  1.00  0.00     0.099 A 
ATOM      8  C   UNL A   1      37.709  32.952  34.192  1.00  0.00     0.049 A 
ATOM      9  C   UNL A   1      38.705  34.005  32.431  1.00  0.00     0.053 A 
ATOM     10  C   UNL A   1      38.818  32.903  33.342  1.00  0.00     0.011 A 
ATOM     11  C   UNL A   1      37.553  32.061  35.269  1.00  0.00     0.027 A 
ATOM     12  C   UNL A   1      39.764  31.873  33.542  1.00  0.00     0.011 A 
ATOM     13  C   UNL A   1      38.508  31.057  35.445  1.00  0.00     0.002 A 
ATOM     14  C   UNL A   1      39.589  30.950  34.580  1.00  0.00     0.001 A 
BRANCH   9  15
ATOM     15  C   UNL A   1      39.665  34.471  31.428  1.00  0.00     0.268 C 
ATOM     16  O   UNL A   1      39.295  34.883  30.326  1.00  0.00    -0.284 OA
BRANCH  15  17
ATOM     17  C   UNL A   1      41.146  34.333  31.789  1.00  0.00     0.454 C 
ATOM     18  F   UNL A   1      41.622  33.063  31.634  1.00  0.00    -0.163 F 
ATOM     19  F   UNL A   1      41.945  35.125  31.008  1.00  0.00    -0.163 F 
ATOM     20  F   UNL A   1      41.432  34.689  33.073  1.00  0.00    -0.163 F 
ENDBRANCH  15  17
ENDBRANCH   9  15
ENDBRANCH   5   6
ENDBRANCH   3   5
ENDBRANCH   2   3
ENDBRANCH   1   2
BRANCH   1  21
ATOM     21  C   UNL A   1      34.469  33.219  30.224  1.00  0.00     0.275 C 
BRANCH  21  22
ATOM     22  O   UNL A   1      34.501  32.271  29.146  1.00  0.00    -0.458 OA
BRANCH  22  23
ATOM     23  C   UNL A   1      35.593  32.313  28.332  1.00  0.00     0.338 C 
ATOM     24  O   UNL A   1      35.790  33.080  27.416  1.00  0.00    -0.246 OA
BRANCH  23  25
ATOM     25  C   UNL A   1      36.624  31.475  28.992  1.00  0.00     0.060 A 
ATOM     26  C   UNL A   1      37.762  32.048  29.565  1.00  0.00     0.016 A 
ATOM     27  C   UNL A   1      36.553  30.094  28.782  1.00  0.00     0.016 A 
ATOM     28  C   UNL A   1      38.888  31.252  29.764  1.00  0.00     0.010 A 
ATOM     29  C   UNL A   1      37.678  29.301  29.005  1.00  0.00     0.010 A 
ATOM     30  C   UNL A   1      38.879  29.891  29.404  1.00  0.00    -0.014 A 
BRANCH  30  31
ATOM     31  C   UNL A   1      40.159  29.153  29.474  1.00  0.00     0.031 A 
ATOM     32  C   UNL A   1      40.611  28.799  30.856  1.00  0.00     0.074 A 
ATOM     33  C   UNL A   1      40.865  28.705  28.410  1.00  0.00     0.049 A 
ATOM     34  N   UNL A   1      41.740  29.036  31.445  1.00  0.00    -0.248 NA
ATOM     35  C   UNL A   1      39.594  28.185  31.723  1.00  0.00     0.031 C 
ATOM     36  C   UNL A   1      40.458  28.683  27.001  1.00  0.00     0.029 A 
ATOM     37  N   UNL A   1      42.071  28.052  28.384  1.00  0.00    -0.354 N 
ATOM     38  C   UNL A   1      41.634  28.463  32.715  1.00  0.00     0.074 A 
ATOM     39  C   UNL A   1      40.252  28.084  32.874  1.00  0.00     0.031 C 
ATOM     40  C   UNL A   1      41.260  27.839  26.315  1.00  0.00     0.029 A 
ATOM     41  C   UNL A   1      42.314  27.373  27.196  1.00  0.00     0.049 A 
ATOM     42  H   UNL A   1      42.705  28.064  29.137  1.00  0.00     0.167 HD
ATOM     43  C   UNL A   1      42.700  28.193  33.521  1.00  0.00     0.034 A 
ATOM     44  C   UNL A   1      43.240  26.409  26.969  1.00  0.00     0.034 A 
ATOM     45  C   UNL A   1      43.877  28.912  33.135  1.00  0.00     0.049 A 
ATOM     46  C   UNL A   1      44.258  26.453  28.040  1.00  0.00     0.074 A 
ATOM     47  C   UNL A   1      44.251  30.238  33.129  1.00  0.00     0.029 A 
ATOM     48  N   UNL A   1      44.833  28.248  32.411  1.00  0.00    -0.354 N 
ATOM     49  N   UNL A   1      45.162  27.378  28.176  1.00  0.00    -0.248 NA
ATOM     50  C   UNL A   1      44.040  25.611  29.206  1.00  0.00     0.031 C 
ATOM     51  C   UNL A   1      45.156  30.369  32.039  1.00  0.00     0.029 A 
ATOM     52  C   UNL A   1      45.293  29.110  31.451  1.00  0.00     0.049 A 
ATOM     53  H   UNL A   1      45.133  27.321  32.554  1.00  0.00     0.167 HD
ATOM     54  C   UNL A   1      45.306  27.522  29.546  1.00  0.00     0.074 A 
ATOM     55  C   UNL A   1      44.694  26.328  30.120  1.00  0.00     0.031 C 
ATOM     56  C   UNL A   1      45.656  28.717  30.103  1.00  0.00     0.034 A 
BRANCH  43  57
ATOM     57  C   UNL A   1      42.715  27.079  34.541  1.00  0.00     0.023 A 
ATOM     58  C   UNL A   1      43.498  25.920  34.376  1.00  0.00     0.031 A 
ATOM     59  C   UNL A   1      42.098  27.224  35.799  1.00  0.00     0.131 A 
ATOM     60  C   UNL A   1      43.593  24.941  35.370  1.00  0.00     0.055 A 
ATOM     61  C   UNL A   1      42.256  26.283  36.828  1.00  0.00     0.041 A 
ATOM     62  F   UNL A   1      41.359  28.306  36.087  1.00  0.00    -0.206 F 
ATOM     63  C   UNL A   1      42.997  25.126  36.612  1.00  0.00     0.022 A 
BRANCH  60  64
ATOM     64  S   UNL A   1      44.475  23.392  35.039  1.00  0.00     0.124 S 
ATOM     65  O   UNL A   1      44.885  22.988  36.379  1.00  0.00    -0.237 OA
ATOM     66  O   UNL A   1      43.429  22.578  34.423  1.00  0.00    -0.237 OA
ATOM     67  O   UNL A   1      45.548  23.798  34.137  1.00  0.00    -0.744 OA
ENDBRANCH  60  64
ENDBRANCH  43  57
BRANCH  44  68
ATOM     68  C   UNL A   1      43.037  25.179  26.164  1.00  0.00     0.023 A 
ATOM     69  C   UNL A   1      42.081  24.233  26.578  1.00  0.00     0.031 A 
ATOM     70  C   UNL A   1      43.969  24.774  25.193  1.00  0.00     0.131 A 
ATOM     71  C   UNL A   1      42.099  22.929  26.067  1.00  0.00     0.055 A 
ATOM     72  C   UNL A   1      43.976  23.474  24.672  1.00  0.00     0.041 A 
ATOM     73  F   UNL A   1      44.933  25.612  24.782  1.00  0.00    -0.206 F 
ATOM     74  C   UNL A   1      43.045  22.540  25.119  1.00  0.00     0.022 A 
BRANCH  71  75
ATOM     75  S   UNL A   1      40.936  21.688  26.698  1.00  0.00     0.124 S 
ATOM     76  O   UNL A   1      39.652  22.201  26.229  1.00  0.00    -0.237 OA
ATOM     77  O   UNL A   1      41.409  20.477  26.035  1.00  0.00    -0.237 OA
ATOM     78  O   UNL A   1      41.130  21.739  28.143  1.00  0.00    -0.744 OA
ENDBRANCH  71  75
ENDBRANCH  44  68
BRANCH  56  79
ATOM     79  C   UNL A   1      46.179  29.820  29.210  1.00  0.00     0.023 A 
ATOM     80  C   UNL A   1      45.231  30.589  28.511  1.00  0.00     0.031 A 
ATOM     81  C   UNL A   1      47.533  29.974  28.853  1.00  0.00     0.131 A 
ATOM     82  C   UNL A   1      45.632  31.435  27.469  1.00  0.00     0.055 A 
ATOM     83  C   UNL A   1      47.936  30.876  27.864  1.00  0.00     0.041 A 
ATOM     84  F   UNL A   1      48.489  29.198  29.382  1.00  0.00    -0.206 F 
ATOM     85  C   UNL A   1      46.984  31.599  27.153  1.00  0.00     0.022 A 
BRANCH  82  86
ATOM     86  S   UNL A   1      44.399  32.205  26.388  1.00  0.00     0.124 S 
ATOM     87  O   UNL A   1      43.944  33.337  27.192  1.00  0.00    -0.237 OA
ATOM     88  O   UNL A   1      45.191  32.551  25.209  1.00  0.00    -0.237 OA
ATOM     89  O   UNL A   1      43.408  31.154  26.176  1.00  0.00    -0.744 OA
ENDBRANCH  82  86
ENDBRANCH  56  79
ENDBRANCH  30  31
ENDBRANCH  23  25
ENDBRANCH  22  23
ENDBRANCH  21  22
ENDBRANCH   1  21
TORSDOF 17
ENDMDL
