MODEL 1
REMARK VINA RESULT:     -12.0      0.000      0.000
REMARK SMILES Cc1ccc(C)c(N2C(=O)C[C@@H](SCC(=O)OCCOC(=O)c3ccc(-c4c5nc(c(-c6cc(S(=O)(=O)[O-])ccc6F)c6ccc([nH]6)c(-c6cc(S(=O)(=O)[O-])ccc6F)c6nc(c(-c7cc(S(=O)(=O)[O-])ccc7F)c7ccc4[nH]7)C=C6)C=C5)cc3)C2=O)c1
REMARK SMILES IDX 18 1 17 2 15 3 16 4 14 5 13 6 12 7 8 8 9 9 86 10 10 11 11 12
REMARK SMILES IDX 87 13 7 14 1 15 2 16 3 17 88 18 4 19 5 20 6 21 19 22 20 23
REMARK SMILES IDX 21 24 22 25 23 26 24 27 85 28 25 29 84 30 26 31 27 32 28 33
REMARK SMILES IDX 78 34 29 35 83 36 77 37 79 38 30 39 82 40 76 41 75 42 31 44
REMARK SMILES IDX 63 45 43 46 62 47 44 48 47 49 61 50 80 51 45 52 46 53 60 55
REMARK SMILES IDX 81 56 48 57 32 58 33 59 41 60 34 61 40 62 42 63 39 64 35 65
REMARK SMILES IDX 36 66 37 67 38 68 64 69 65 70 73 71 66 72 72 73 74 74 71 75
REMARK SMILES IDX 67 76 68 77 69 78 70 79 49 80 50 81 58 82 51 83 57 84 59 85
REMARK SMILES IDX 56 86 52 87 53 88 54 89 55 90
REMARK H PARENT 79 43 47 54
REMARK Flexibility Score: inf
ROOT
ATOM      1  C   UNL A   1      37.721  22.297  25.779  1.00  0.00     0.274 C 
ENDROOT
BRANCH   1   2
ATOM      2  O   UNL A   1      36.330  22.362  25.456  1.00  0.00    -0.461 OA
BRANCH   2   3
ATOM      3  C   UNL A   1      35.649  21.192  25.409  1.00  0.00     0.316 C 
ATOM      4  O   UNL A   1      36.117  20.145  24.987  1.00  0.00    -0.251 OA
BRANCH   3   5
ATOM      5  C   UNL A   1      34.311  21.274  26.106  1.00  0.00     0.192 C 
BRANCH   5   6
ATOM      6  S   UNL A   1      33.883  22.909  26.771  1.00  0.00    -0.136 SA
BRANCH   6   7
ATOM      7  C   UNL A   1      32.624  23.494  25.553  1.00  0.00     0.146 C 
ATOM      8  N   UNL A   1      32.770  25.794  25.268  1.00  0.00    -0.249 N 
ATOM      9  C   UNL A   1      33.325  25.274  24.128  1.00  0.00     0.235 C 
ATOM     10  C   UNL A   1      32.161  24.842  26.042  1.00  0.00     0.247 C 
ATOM     11  O   UNL A   1      33.840  25.880  23.199  1.00  0.00    -0.274 OA
ATOM     12  C   UNL A   1      33.169  23.781  24.164  1.00  0.00     0.125 C 
ATOM     13  O   UNL A   1      31.379  25.016  26.969  1.00  0.00    -0.273 OA
BRANCH   8  14
ATOM     14  C   UNL A   1      32.781  27.155  25.608  1.00  0.00     0.055 A 
ATOM     15  C   UNL A   1      35.005  29.555  27.560  1.00  0.00     0.044 C 
ATOM     16  C   UNL A   1      33.882  29.009  26.731  1.00  0.00    -0.049 A 
ATOM     17  C   UNL A   1      32.901  29.873  26.236  1.00  0.00     0.004 A 
ATOM     18  C   UNL A   1      33.805  27.644  26.432  1.00  0.00     0.030 A 
ATOM     19  C   UNL A   1      31.863  29.385  25.442  1.00  0.00     0.006 A 
ATOM     20  C   UNL A   1      31.785  28.024  25.121  1.00  0.00    -0.027 A 
ATOM     21  C   UNL A   1      30.609  27.566  24.302  1.00  0.00     0.046 C 
ENDBRANCH   8  14
ENDBRANCH   6   7
ENDBRANCH   5   6
ENDBRANCH   3   5
ENDBRANCH   2   3
ENDBRANCH   1   2
BRANCH   1  22
ATOM     22  C   UNL A   1      38.192  23.711  26.142  1.00  0.00     0.275 C 
BRANCH  22  23
ATOM     23  O   UNL A   1      39.591  23.864  26.559  1.00  0.00    -0.458 OA
BRANCH  23  24
ATOM     24  C   UNL A   1      40.372  24.973  26.699  1.00  0.00     0.338 C 
ATOM     25  O   UNL A   1      41.441  25.050  26.128  1.00  0.00    -0.246 OA
BRANCH  24  26
ATOM     26  C   UNL A   1      39.852  26.114  27.479  1.00  0.00     0.060 A 
ATOM     27  C   UNL A   1      39.302  25.895  28.753  1.00  0.00     0.016 A 
ATOM     28  C   UNL A   1      40.014  27.400  26.997  1.00  0.00     0.016 A 
ATOM     29  C   UNL A   1      39.099  26.979  29.608  1.00  0.00     0.010 A 
ATOM     30  C   UNL A   1      39.947  28.447  27.884  1.00  0.00     0.010 A 
ATOM     31  C   UNL A   1      39.492  28.254  29.191  1.00  0.00    -0.014 A 
BRANCH  31  32
ATOM     32  C   UNL A   1      39.637  29.370  30.131  1.00  0.00     0.031 A 
ATOM     33  C   UNL A   1      38.400  30.158  30.401  1.00  0.00     0.074 A 
ATOM     34  C   UNL A   1      40.712  29.482  30.942  1.00  0.00     0.049 A 
ATOM     35  N   UNL A   1      38.134  31.364  30.018  1.00  0.00    -0.248 NA
ATOM     36  C   UNL A   1      37.266  29.503  31.068  1.00  0.00     0.031 C 
ATOM     37  C   UNL A   1      41.914  28.638  30.962  1.00  0.00     0.029 A 
ATOM     38  N   UNL A   1      40.907  30.300  32.015  1.00  0.00    -0.354 N 
ATOM     39  C   UNL A   1      36.928  31.715  30.626  1.00  0.00     0.074 A 
ATOM     40  C   UNL A   1      36.347  30.473  31.054  1.00  0.00     0.031 C 
ATOM     41  C   UNL A   1      42.588  28.821  32.119  1.00  0.00     0.029 A 
ATOM     42  C   UNL A   1      41.990  29.944  32.815  1.00  0.00     0.049 A 
ATOM     43  H   UNL A   1      40.331  31.075  32.207  1.00  0.00     0.167 HD
ATOM     44  C   UNL A   1      36.660  33.015  30.953  1.00  0.00     0.034 A 
ATOM     45  C   UNL A   1      42.448  30.575  33.925  1.00  0.00     0.034 A 
ATOM     46  C   UNL A   1      37.665  33.884  30.373  1.00  0.00     0.049 A 
ATOM     47  C   UNL A   1      42.024  31.983  33.797  1.00  0.00     0.074 A 
ATOM     48  C   UNL A   1      38.069  34.219  29.098  1.00  0.00     0.029 A 
ATOM     49  N   UNL A   1      38.700  34.241  31.209  1.00  0.00    -0.354 N 
ATOM     50  N   UNL A   1      42.444  32.755  32.831  1.00  0.00    -0.248 NA
ATOM     51  C   UNL A   1      40.798  32.422  34.443  1.00  0.00     0.031 C 
ATOM     52  C   UNL A   1      39.490  34.332  29.182  1.00  0.00     0.029 A 
ATOM     53  C   UNL A   1      39.878  34.160  30.515  1.00  0.00     0.049 A 
ATOM     54  H   UNL A   1      38.607  34.510  32.151  1.00  0.00     0.167 HD
ATOM     55  C   UNL A   1      41.324  33.467  32.439  1.00  0.00     0.074 A 
ATOM     56  C   UNL A   1      40.401  33.351  33.566  1.00  0.00     0.031 C 
ATOM     57  C   UNL A   1      41.154  33.835  31.132  1.00  0.00     0.034 A 
BRANCH  44  58
ATOM     58  C   UNL A   1      35.807  33.515  32.115  1.00  0.00     0.023 A 
ATOM     59  C   UNL A   1      34.826  34.487  31.810  1.00  0.00     0.031 A 
ATOM     60  C   UNL A   1      36.070  33.341  33.488  1.00  0.00     0.131 A 
ATOM     61  C   UNL A   1      34.281  35.320  32.803  1.00  0.00     0.055 A 
ATOM     62  C   UNL A   1      35.481  34.133  34.483  1.00  0.00     0.041 A 
ATOM     63  F   UNL A   1      36.956  32.454  33.951  1.00  0.00    -0.206 F 
ATOM     64  C   UNL A   1      34.612  35.156  34.142  1.00  0.00     0.022 A 
BRANCH  61  65
ATOM     65  S   UNL A   1      33.280  36.741  32.286  1.00  0.00     0.124 S 
ATOM     66  O   UNL A   1      33.918  37.830  33.018  1.00  0.00    -0.237 OA
ATOM     67  O   UNL A   1      33.471  36.735  30.840  1.00  0.00    -0.237 OA
ATOM     68  O   UNL A   1      31.936  36.390  32.738  1.00  0.00    -0.744 OA
ENDBRANCH  61  65
ENDBRANCH  44  58
BRANCH  45  69
ATOM     69  C   UNL A   1      42.992  29.971  35.166  1.00  0.00     0.023 A 
ATOM     70  C   UNL A   1      42.551  28.738  35.687  1.00  0.00     0.031 A 
ATOM     71  C   UNL A   1      44.171  30.516  35.720  1.00  0.00     0.131 A 
ATOM     72  C   UNL A   1      43.291  28.092  36.706  1.00  0.00     0.055 A 
ATOM     73  C   UNL A   1      44.904  29.870  36.719  1.00  0.00     0.041 A 
ATOM     74  F   UNL A   1      44.696  31.655  35.240  1.00  0.00    -0.206 F 
ATOM     75  C   UNL A   1      44.471  28.647  37.209  1.00  0.00     0.022 A 
BRANCH  72  76
ATOM     76  S   UNL A   1      42.765  26.467  37.344  1.00  0.00     0.124 S 
ATOM     77  O   UNL A   1      43.525  26.356  38.584  1.00  0.00    -0.237 OA
ATOM     78  O   UNL A   1      41.323  26.637  37.478  1.00  0.00    -0.237 OA
ATOM     79  O   UNL A   1      43.174  25.537  36.291  1.00  0.00    -0.744 OA
ENDBRANCH  72  76
ENDBRANCH  45  69
BRANCH  57  80
ATOM     80  C   UNL A   1      42.360  33.738  30.213  1.00  0.00     0.023 A 
ATOM     81  C   UNL A   1      42.720  32.599  29.455  1.00  0.00     0.031 A 
ATOM     82  C   UNL A   1      43.129  34.901  30.039  1.00  0.00     0.131 A 
ATOM     83  C   UNL A   1      43.820  32.650  28.574  1.00  0.00     0.055 A 
ATOM     84  C   UNL A   1      44.202  34.956  29.151  1.00  0.00     0.041 A 
ATOM     85  F   UNL A   1      42.825  36.023  30.711  1.00  0.00    -0.206 F 
ATOM     86  C   UNL A   1      44.557  33.828  28.421  1.00  0.00     0.022 A 
BRANCH  83  87
ATOM     87  S   UNL A   1      44.328  31.175  27.629  1.00  0.00     0.124 S 
ATOM     88  O   UNL A   1      44.414  31.656  26.255  1.00  0.00    -0.237 OA
ATOM     89  O   UNL A   1      45.598  30.816  28.255  1.00  0.00    -0.237 OA
ATOM     90  O   UNL A   1      43.243  30.223  27.873  1.00  0.00    -0.744 OA
ENDBRANCH  83  87
ENDBRANCH  57  80
ENDBRANCH  31  32
ENDBRANCH  24  26
ENDBRANCH  23  24
ENDBRANCH  22  23
ENDBRANCH   1  22
TORSDOF 17
ENDMDL
MODEL 2
REMARK VINA RESULT:     -11.8      4.495     10.452
REMARK SMILES Cc1ccc(C)c(N2C(=O)C[C@@H](SCC(=O)OCCOC(=O)c3ccc(-c4c5nc(c(-c6cc(S(=O)(=O)[O-])ccc6F)c6ccc([nH]6)c(-c6cc(S(=O)(=O)[O-])ccc6F)c6nc(c(-c7cc(S(=O)(=O)[O-])ccc7F)c7ccc4[nH]7)C=C6)C=C5)cc3)C2=O)c1
REMARK SMILES IDX 18 1 17 2 15 3 16 4 14 5 13 6 12 7 8 8 9 9 86 10 10 11 11 12
REMARK SMILES IDX 87 13 7 14 1 15 2 16 3 17 88 18 4 19 5 20 6 21 19 22 20 23
REMARK SMILES IDX 21 24 22 25 23 26 24 27 85 28 25 29 84 30 26 31 27 32 28 33
REMARK SMILES IDX 78 34 29 35 83 36 77 37 79 38 30 39 82 40 76 41 75 42 31 44
REMARK SMILES IDX 63 45 43 46 62 47 44 48 47 49 61 50 80 51 45 52 46 53 60 55
REMARK SMILES IDX 81 56 48 57 32 58 33 59 41 60 34 61 40 62 42 63 39 64 35 65
REMARK SMILES IDX 36 66 37 67 38 68 64 69 65 70 73 71 66 72 72 73 74 74 71 75
REMARK SMILES IDX 67 76 68 77 69 78 70 79 49 80 50 81 58 82 51 83 57 84 59 85
REMARK SMILES IDX 56 86 52 87 53 88 54 89 55 90
REMARK H PARENT 79 43 47 54
REMARK Flexibility Score: inf
ROOT
ATOM      1  C   UNL A   1      33.902  30.476  26.774  1.00  0.00     0.274 C 
ENDROOT
BRANCH   1   2
ATOM      2  O   UNL A   1      32.777  29.631  27.021  1.00  0.00    -0.461 OA
BRANCH   2   3
ATOM      3  C   UNL A   1      32.095  29.174  25.944  1.00  0.00     0.316 C 
ATOM      4  O   UNL A   1      31.494  29.893  25.159  1.00  0.00    -0.251 OA
BRANCH   3   5
ATOM      5  C   UNL A   1      32.312  27.697  25.707  1.00  0.00     0.192 C 
BRANCH   5   6
ATOM      6  S   UNL A   1      32.812  27.249  24.020  1.00  0.00    -0.136 SA
BRANCH   6   7
ATOM      7  C   UNL A   1      32.218  25.504  23.901  1.00  0.00     0.146 C 
ATOM      8  N   UNL A   1      33.749  24.052  24.872  1.00  0.00    -0.249 N 
ATOM      9  C   UNL A   1      32.723  24.118  25.777  1.00  0.00     0.235 C 
ATOM     10  C   UNL A   1      33.445  24.656  23.681  1.00  0.00     0.247 C 
ATOM     11  O   UNL A   1      32.654  23.586  26.876  1.00  0.00    -0.274 OA
ATOM     12  C   UNL A   1      31.621  24.948  25.183  1.00  0.00     0.125 C 
ATOM     13  O   UNL A   1      34.036  24.552  22.613  1.00  0.00    -0.273 OA
BRANCH   8  14
ATOM     14  C   UNL A   1      34.974  23.407  25.105  1.00  0.00     0.055 A 
ATOM     15  C   UNL A   1      38.412  24.302  26.477  1.00  0.00     0.044 C 
ATOM     16  C   UNL A   1      37.268  23.527  25.899  1.00  0.00    -0.049 A 
ATOM     17  C   UNL A   1      37.403  22.154  25.673  1.00  0.00     0.004 A 
ATOM     18  C   UNL A   1      36.055  24.155  25.592  1.00  0.00     0.030 A 
ATOM     19  C   UNL A   1      36.339  21.413  25.159  1.00  0.00     0.006 A 
ATOM     20  C   UNL A   1      35.115  22.026  24.864  1.00  0.00    -0.027 A 
ATOM     21  C   UNL A   1      34.032  21.172  24.266  1.00  0.00     0.046 C 
ENDBRANCH   8  14
ENDBRANCH   6   7
ENDBRANCH   5   6
ENDBRANCH   3   5
ENDBRANCH   2   3
ENDBRANCH   1   2
BRANCH   1  22
ATOM     22  C   UNL A   1      34.488  30.898  28.127  1.00  0.00     0.275 C 
BRANCH  22  23
ATOM     23  O   UNL A   1      35.405  29.957  28.783  1.00  0.00    -0.458 OA
BRANCH  23  24
ATOM     24  C   UNL A   1      36.650  30.133  29.308  1.00  0.00     0.338 C 
ATOM     25  O   UNL A   1      36.835  30.937  30.200  1.00  0.00    -0.246 OA
BRANCH  24  26
ATOM     26  C   UNL A   1      37.749  29.265  28.839  1.00  0.00     0.060 A 
ATOM     27  C   UNL A   1      38.441  29.592  27.660  1.00  0.00     0.016 A 
ATOM     28  C   UNL A   1      38.160  28.200  29.621  1.00  0.00     0.016 A 
ATOM     29  C   UNL A   1      39.658  28.965  27.383  1.00  0.00     0.010 A 
ATOM     30  C   UNL A   1      39.418  27.687  29.423  1.00  0.00     0.010 A 
ATOM     31  C   UNL A   1      40.179  28.058  28.311  1.00  0.00    -0.014 A 
BRANCH  31  32
ATOM     32  C   UNL A   1      41.580  27.626  28.274  1.00  0.00     0.031 A 
ATOM     33  C   UNL A   1      41.863  26.407  27.461  1.00  0.00     0.074 A 
ATOM     34  C   UNL A   1      42.587  28.438  28.663  1.00  0.00     0.049 A 
ATOM     35  N   UNL A   1      42.188  25.232  27.890  1.00  0.00    -0.248 NA
ATOM     36  C   UNL A   1      41.646  26.450  26.008  1.00  0.00     0.031 C 
ATOM     37  C   UNL A   1      42.480  29.774  29.267  1.00  0.00     0.029 A 
ATOM     38  N   UNL A   1      43.931  28.300  28.487  1.00  0.00    -0.354 N 
ATOM     39  C   UNL A   1      42.485  24.467  26.761  1.00  0.00     0.074 A 
ATOM     40  C   UNL A   1      41.915  25.189  25.657  1.00  0.00     0.031 C 
ATOM     41  C   UNL A   1      43.667  30.414  29.185  1.00  0.00     0.029 A 
ATOM     42  C   UNL A   1      44.661  29.461  28.729  1.00  0.00     0.049 A 
ATOM     43  H   UNL A   1      44.349  27.452  28.211  1.00  0.00     0.167 HD
ATOM     44  C   UNL A   1      43.401  23.455  26.820  1.00  0.00     0.034 A 
ATOM     45  C   UNL A   1      46.006  29.628  28.665  1.00  0.00     0.034 A 
ATOM     46  C   UNL A   1      43.769  23.207  28.201  1.00  0.00     0.049 A 
ATOM     47  C   UNL A   1      46.592  28.293  28.900  1.00  0.00     0.074 A 
ATOM     48  C   UNL A   1      43.119  22.774  29.337  1.00  0.00     0.029 A 
ATOM     49  N   UNL A   1      44.923  23.823  28.631  1.00  0.00    -0.354 N 
ATOM     50  N   UNL A   1      46.434  27.649  30.024  1.00  0.00    -0.248 NA
ATOM     51  C   UNL A   1      46.962  27.465  27.765  1.00  0.00     0.031 C 
ATOM     52  C   UNL A   1      43.681  23.549  30.397  1.00  0.00     0.029 A 
ATOM     53  C   UNL A   1      44.709  24.343  29.880  1.00  0.00     0.049 A 
ATOM     54  H   UNL A   1      45.765  23.880  28.122  1.00  0.00     0.167 HD
ATOM     55  C   UNL A   1      46.207  26.336  29.647  1.00  0.00     0.074 A 
ATOM     56  C   UNL A   1      46.713  26.255  28.279  1.00  0.00     0.031 C 
ATOM     57  C   UNL A   1      45.377  25.533  30.381  1.00  0.00     0.034 A 
BRANCH  44  58
ATOM     58  C   UNL A   1      44.311  22.969  25.696  1.00  0.00     0.023 A 
ATOM     59  C   UNL A   1      44.390  21.570  25.502  1.00  0.00     0.031 A 
ATOM     60  C   UNL A   1      45.295  23.722  25.024  1.00  0.00     0.131 A 
ATOM     61  C   UNL A   1      45.468  20.981  24.820  1.00  0.00     0.055 A 
ATOM     62  C   UNL A   1      46.337  23.134  24.294  1.00  0.00     0.041 A 
ATOM     63  F   UNL A   1      45.357  25.055  25.086  1.00  0.00    -0.206 F 
ATOM     64  C   UNL A   1      46.452  21.756  24.222  1.00  0.00     0.022 A 
BRANCH  61  65
ATOM     65  S   UNL A   1      45.657  19.179  24.895  1.00  0.00     0.124 S 
ATOM     66  O   UNL A   1      46.935  19.047  25.586  1.00  0.00    -0.237 OA
ATOM     67  O   UNL A   1      44.471  18.781  25.646  1.00  0.00    -0.237 OA
ATOM     68  O   UNL A   1      45.667  18.781  23.489  1.00  0.00    -0.744 OA
ENDBRANCH  61  65
ENDBRANCH  44  58
BRANCH  45  69
ATOM     69  C   UNL A   1      46.763  30.803  28.168  1.00  0.00     0.023 A 
ATOM     70  C   UNL A   1      46.229  31.746  27.267  1.00  0.00     0.031 A 
ATOM     71  C   UNL A   1      47.976  31.142  28.807  1.00  0.00     0.131 A 
ATOM     72  C   UNL A   1      46.894  32.976  27.050  1.00  0.00     0.055 A 
ATOM     73  C   UNL A   1      48.623  32.362  28.598  1.00  0.00     0.041 A 
ATOM     74  F   UNL A   1      48.521  30.329  29.728  1.00  0.00    -0.206 F 
ATOM     75  C   UNL A   1      48.078  33.291  27.724  1.00  0.00     0.022 A 
BRANCH  72  76
ATOM     76  S   UNL A   1      46.181  34.229  25.934  1.00  0.00     0.124 S 
ATOM     77  O   UNL A   1      45.187  33.461  25.193  1.00  0.00    -0.237 OA
ATOM     78  O   UNL A   1      45.669  35.224  26.870  1.00  0.00    -0.237 OA
ATOM     79  O   UNL A   1      47.328  34.673  25.139  1.00  0.00    -0.744 OA
ENDBRANCH  72  76
ENDBRANCH  45  69
BRANCH  57  80
ATOM     80  C   UNL A   1      44.991  26.008  31.772  1.00  0.00     0.023 A 
ATOM     81  C   UNL A   1      43.816  26.726  32.094  1.00  0.00     0.031 A 
ATOM     82  C   UNL A   1      45.828  25.626  32.834  1.00  0.00     0.131 A 
ATOM     83  C   UNL A   1      43.524  27.046  33.435  1.00  0.00     0.055 A 
ATOM     84  C   UNL A   1      45.527  25.924  34.161  1.00  0.00     0.041 A 
ATOM     85  F   UNL A   1      46.947  24.921  32.598  1.00  0.00    -0.206 F 
ATOM     86  C   UNL A   1      44.376  26.643  34.467  1.00  0.00     0.022 A 
BRANCH  83  87
ATOM     87  S   UNL A   1      42.039  28.017  33.861  1.00  0.00     0.124 S 
ATOM     88  O   UNL A   1      41.591  28.547  32.579  1.00  0.00    -0.237 OA
ATOM     89  O   UNL A   1      41.168  27.018  34.474  1.00  0.00    -0.237 OA
ATOM     90  O   UNL A   1      42.549  29.027  34.791  1.00  0.00    -0.744 OA
ENDBRANCH  83  87
ENDBRANCH  57  80
ENDBRANCH  31  32
ENDBRANCH  24  26
ENDBRANCH  23  24
ENDBRANCH  22  23
ENDBRANCH   1  22
TORSDOF 17
ENDMDL
MODEL 3
REMARK VINA RESULT:     -11.6      3.745      8.732
REMARK SMILES Cc1ccc(C)c(N2C(=O)C[C@@H](SCC(=O)OCCOC(=O)c3ccc(-c4c5nc(c(-c6cc(S(=O)(=O)[O-])ccc6F)c6ccc([nH]6)c(-c6cc(S(=O)(=O)[O-])ccc6F)c6nc(c(-c7cc(S(=O)(=O)[O-])ccc7F)c7ccc4[nH]7)C=C6)C=C5)cc3)C2=O)c1
REMARK SMILES IDX 18 1 17 2 15 3 16 4 14 5 13 6 12 7 8 8 9 9 86 10 10 11 11 12
REMARK SMILES IDX 87 13 7 14 1 15 2 16 3 17 88 18 4 19 5 20 6 21 19 22 20 23
REMARK SMILES IDX 21 24 22 25 23 26 24 27 85 28 25 29 84 30 26 31 27 32 28 33
REMARK SMILES IDX 78 34 29 35 83 36 77 37 79 38 30 39 82 40 76 41 75 42 31 44
REMARK SMILES IDX 63 45 43 46 62 47 44 48 47 49 61 50 80 51 45 52 46 53 60 55
REMARK SMILES IDX 81 56 48 57 32 58 33 59 41 60 34 61 40 62 42 63 39 64 35 65
REMARK SMILES IDX 36 66 37 67 38 68 64 69 65 70 73 71 66 72 72 73 74 74 71 75
REMARK SMILES IDX 67 76 68 77 69 78 70 79 49 80 50 81 58 82 51 83 57 84 59 85
REMARK SMILES IDX 56 86 52 87 53 88 54 89 55 90
REMARK H PARENT 79 43 47 54
REMARK Flexibility Score: inf
ROOT
ATOM      1  C   UNL A   1      33.477  30.394  26.922  1.00  0.00     0.274 C 
ENDROOT
BRANCH   1   2
ATOM      2  O   UNL A   1      32.197  30.481  26.293  1.00  0.00    -0.461 OA
BRANCH   2   3
ATOM      3  C   UNL A   1      31.880  29.519  25.394  1.00  0.00     0.316 C 
ATOM      4  O   UNL A   1      31.093  29.677  24.472  1.00  0.00    -0.251 OA
BRANCH   3   5
ATOM      5  C   UNL A   1      32.744  28.287  25.537  1.00  0.00     0.192 C 
BRANCH   5   6
ATOM      6  S   UNL A   1      33.419  27.630  23.985  1.00  0.00    -0.136 SA
BRANCH   6   7
ATOM      7  C   UNL A   1      32.557  26.002  23.858  1.00  0.00     0.146 C 
ATOM      8  N   UNL A   1      33.858  24.314  24.780  1.00  0.00    -0.249 N 
ATOM      9  C   UNL A   1      32.871  24.527  25.707  1.00  0.00     0.235 C 
ATOM     10  C   UNL A   1      33.631  24.976  23.603  1.00  0.00     0.247 C 
ATOM     11  O   UNL A   1      32.740  23.997  26.801  1.00  0.00    -0.274 OA
ATOM     12  C   UNL A   1      31.902  25.528  25.144  1.00  0.00     0.125 C 
ATOM     13  O   UNL A   1      34.180  24.796  22.522  1.00  0.00    -0.273 OA
BRANCH   8  14
ATOM     14  C   UNL A   1      34.971  23.483  24.981  1.00  0.00     0.055 A 
ATOM     15  C   UNL A   1      38.501  23.788  26.378  1.00  0.00     0.044 C 
ATOM     16  C   UNL A   1      37.254  23.220  25.772  1.00  0.00    -0.049 A 
ATOM     17  C   UNL A   1      37.181  21.854  25.488  1.00  0.00     0.004 A 
ATOM     18  C   UNL A   1      36.151  24.036  25.496  1.00  0.00     0.030 A 
ATOM     19  C   UNL A   1      36.018  21.304  24.946  1.00  0.00     0.006 A 
ATOM     20  C   UNL A   1      34.902  22.107  24.683  1.00  0.00    -0.027 A 
ATOM     21  C   UNL A   1      33.704  21.452  24.053  1.00  0.00     0.046 C 
ENDBRANCH   8  14
ENDBRANCH   6   7
ENDBRANCH   5   6
ENDBRANCH   3   5
ENDBRANCH   2   3
ENDBRANCH   1   2
BRANCH   1  22
ATOM     22  C   UNL A   1      33.791  31.755  27.555  1.00  0.00     0.275 C 
BRANCH  22  23
ATOM     23  O   UNL A   1      35.191  32.023  27.905  1.00  0.00    -0.458 OA
BRANCH  23  24
ATOM     24  C   UNL A   1      35.901  31.757  29.038  1.00  0.00     0.338 C 
ATOM     25  O   UNL A   1      35.395  31.905  30.132  1.00  0.00    -0.246 OA
BRANCH  24  26
ATOM     26  C   UNL A   1      37.261  31.197  28.908  1.00  0.00     0.060 A 
ATOM     27  C   UNL A   1      38.341  31.835  29.542  1.00  0.00     0.016 A 
ATOM     28  C   UNL A   1      37.444  29.989  28.259  1.00  0.00     0.016 A 
ATOM     29  C   UNL A   1      39.553  31.156  29.683  1.00  0.00     0.010 A 
ATOM     30  C   UNL A   1      38.585  29.269  28.519  1.00  0.00     0.010 A 
ATOM     31  C   UNL A   1      39.647  29.838  29.227  1.00  0.00    -0.014 A 
BRANCH  31  32
ATOM     32  C   UNL A   1      40.740  28.949  29.636  1.00  0.00     0.031 A 
ATOM     33  C   UNL A   1      40.890  28.735  31.105  1.00  0.00     0.074 A 
ATOM     34  C   UNL A   1      41.357  28.128  28.758  1.00  0.00     0.049 A 
ATOM     35  N   UNL A   1      41.829  29.179  31.874  1.00  0.00    -0.248 NA
ATOM     36  C   UNL A   1      39.815  28.055  31.841  1.00  0.00     0.031 C 
ATOM     37  C   UNL A   1      41.151  28.050  27.305  1.00  0.00     0.029 A 
ATOM     38  N   UNL A   1      42.212  27.093  28.992  1.00  0.00    -0.354 N 
ATOM     39  C   UNL A   1      41.616  28.606  33.129  1.00  0.00     0.074 A 
ATOM     40  C   UNL A   1      40.261  28.128  33.099  1.00  0.00     0.031 C 
ATOM     41  C   UNL A   1      41.661  26.894  26.828  1.00  0.00     0.029 A 
ATOM     42  C   UNL A   1      42.415  26.261  27.893  1.00  0.00     0.049 A 
ATOM     43  H   UNL A   1      42.647  26.946  29.862  1.00  0.00     0.167 HD
ATOM     44  C   UNL A   1      42.663  28.344  33.968  1.00  0.00     0.034 A 
ATOM     45  C   UNL A   1      43.223  25.175  27.809  1.00  0.00     0.034 A 
ATOM     46  C   UNL A   1      43.872  28.950  33.446  1.00  0.00     0.049 A 
ATOM     47  C   UNL A   1      44.280  25.376  28.821  1.00  0.00     0.074 A 
ATOM     48  C   UNL A   1      44.309  30.233  33.194  1.00  0.00     0.029 A 
ATOM     49  N   UNL A   1      44.689  28.117  32.714  1.00  0.00    -0.354 N 
ATOM     50  N   UNL A   1      45.124  26.370  28.762  1.00  0.00    -0.248 NA
ATOM     51  C   UNL A   1      44.137  24.769  30.134  1.00  0.00     0.031 C 
ATOM     52  C   UNL A   1      45.058  30.133  31.981  1.00  0.00     0.029 A 
ATOM     53  C   UNL A   1      45.128  28.788  31.604  1.00  0.00     0.049 A 
ATOM     54  H   UNL A   1      44.920  27.189  32.952  1.00  0.00     0.167 HD
ATOM     55  C   UNL A   1      45.235  26.813  30.069  1.00  0.00     0.074 A 
ATOM     56  C   UNL A   1      44.752  25.695  30.877  1.00  0.00     0.031 C 
ATOM     57  C   UNL A   1      45.440  28.138  30.341  1.00  0.00     0.034 A 
BRANCH  44  58
ATOM     58  C   UNL A   1      42.762  27.220  34.994  1.00  0.00     0.023 A 
ATOM     59  C   UNL A   1      43.551  26.102  34.638  1.00  0.00     0.031 A 
ATOM     60  C   UNL A   1      41.936  27.035  36.122  1.00  0.00     0.131 A 
ATOM     61  C   UNL A   1      43.393  24.857  35.272  1.00  0.00     0.055 A 
ATOM     62  C   UNL A   1      41.825  25.807  36.790  1.00  0.00     0.041 A 
ATOM     63  F   UNL A   1      41.139  27.992  36.604  1.00  0.00    -0.206 F 
ATOM     64  C   UNL A   1      42.524  24.699  36.343  1.00  0.00     0.022 A 
BRANCH  61  65
ATOM     65  S   UNL A   1      44.206  23.408  34.545  1.00  0.00     0.124 S 
ATOM     66  O   UNL A   1      43.168  22.910  33.649  1.00  0.00    -0.237 OA
ATOM     67  O   UNL A   1      45.377  24.005  33.911  1.00  0.00    -0.237 OA
ATOM     68  O   UNL A   1      44.488  22.563  35.702  1.00  0.00    -0.744 OA
ENDBRANCH  61  65
ENDBRANCH  44  58
BRANCH  45  69
ATOM     69  C   UNL A   1      42.977  23.899  27.094  1.00  0.00     0.023 A 
ATOM     70  C   UNL A   1      43.844  23.380  26.111  1.00  0.00     0.031 A 
ATOM     71  C   UNL A   1      41.972  23.035  27.583  1.00  0.00     0.131 A 
ATOM     72  C   UNL A   1      43.698  22.043  25.670  1.00  0.00     0.055 A 
ATOM     73  C   UNL A   1      41.839  21.713  27.152  1.00  0.00     0.041 A 
ATOM     74  F   UNL A   1      41.143  23.428  28.564  1.00  0.00    -0.206 F 
ATOM     75  C   UNL A   1      42.711  21.207  26.199  1.00  0.00     0.022 A 
BRANCH  72  76
ATOM     76  S   UNL A   1      44.853  21.342  24.446  1.00  0.00     0.124 S 
ATOM     77  O   UNL A   1      44.308  20.006  24.231  1.00  0.00    -0.237 OA
ATOM     78  O   UNL A   1      44.734  22.278  23.334  1.00  0.00    -0.237 OA
ATOM     79  O   UNL A   1      46.144  21.372  25.135  1.00  0.00    -0.744 OA
ENDBRANCH  72  76
ENDBRANCH  45  69
BRANCH  57  80
ATOM     80  C   UNL A   1      45.868  29.033  29.191  1.00  0.00     0.023 A 
ATOM     81  C   UNL A   1      45.013  29.892  28.461  1.00  0.00     0.031 A 
ATOM     82  C   UNL A   1      47.239  29.073  28.886  1.00  0.00     0.131 A 
ATOM     83  C   UNL A   1      45.538  30.737  27.463  1.00  0.00     0.055 A 
ATOM     84  C   UNL A   1      47.759  29.925  27.914  1.00  0.00     0.041 A 
ATOM     85  F   UNL A   1      48.108  28.300  29.559  1.00  0.00    -0.206 F 
ATOM     86  C   UNL A   1      46.909  30.755  27.192  1.00  0.00     0.022 A 
BRANCH  83  87
ATOM     87  S   UNL A   1      44.441  31.812  26.478  1.00  0.00     0.124 S 
ATOM     88  O   UNL A   1      44.041  32.853  27.416  1.00  0.00    -0.237 OA
ATOM     89  O   UNL A   1      45.311  32.241  25.386  1.00  0.00    -0.237 OA
ATOM     90  O   UNL A   1      43.359  30.912  26.071  1.00  0.00    -0.744 OA
ENDBRANCH  83  87
ENDBRANCH  57  80
ENDBRANCH  31  32
ENDBRANCH  24  26
ENDBRANCH  23  24
ENDBRANCH  22  23
ENDBRANCH   1  22
TORSDOF 17
ENDMDL
