MODEL 1
REMARK VINA RESULT:     -11.2      0.000      0.000
REMARK SMILES CCOC(=O)[C@H](C)NC(=O)N1CC[C@H](C(=O)OCCOC(=O)c2ccc(-c3c4nc(c(-c5cc(S(=O)(=O)[O-])ccc5F)c5ccc([nH]5)c(-c5cc(S(=O)(=O)[O-])ccc5F)c5nc(c(-c6cc(S(=O)(=O)[O-])ccc6F)c6ccc3[nH]6)C=C5)C=C4)cc2)[C@@H]1C
REMARK SMILES IDX 18 1 17 2 15 3 16 4 14 5 11 6 12 7 86 8 13 9 87 10 9 11 8 12
REMARK SMILES IDX 10 14 6 15 7 16 4 17 5 18 3 19 2 20 1 21 19 22 20 23 21 24
REMARK SMILES IDX 22 25 23 26 24 27 85 28 25 29 84 30 26 31 27 32 28 33 78 34
REMARK SMILES IDX 29 35 83 36 77 37 79 38 30 39 82 40 76 41 75 42 31 44 63 45
REMARK SMILES IDX 43 46 62 47 44 48 47 49 61 50 80 51 45 52 46 53 60 55 81 56
REMARK SMILES IDX 48 57 32 58 33 59 41 60 34 61 40 62 42 63 39 64 35 65 36 66
REMARK SMILES IDX 37 67 38 68 64 69 65 70 73 71 66 72 72 73 74 74 71 75 67 76
REMARK SMILES IDX 68 77 69 78 70 79 49 80 50 81 58 82 51 83 57 84 59 85 56 86
REMARK SMILES IDX 52 87 53 88 54 89 55 90
REMARK H PARENT 8 13 79 43 47 54
REMARK Flexibility Score: inf
ROOT
ATOM      1  C   UNL A   1      35.309  21.296  25.323  1.00  0.00     0.274 C 
ENDROOT
BRANCH   1   2
ATOM      2  O   UNL A   1      35.584  22.705  25.170  1.00  0.00    -0.462 OA
BRANCH   2   3
ATOM      3  C   UNL A   1      35.022  23.299  24.079  1.00  0.00     0.311 C 
ATOM      4  O   UNL A   1      35.601  23.468  23.016  1.00  0.00    -0.252 OA
BRANCH   3   5
ATOM      5  C   UNL A   1      33.615  23.805  24.398  1.00  0.00     0.123 C 
ATOM      6  N   UNL A   1      33.285  25.936  23.368  1.00  0.00    -0.321 N 
ATOM      7  C   UNL A   1      34.021  26.142  24.609  1.00  0.00     0.122 C 
ATOM      8  C   UNL A   1      32.877  24.530  23.244  1.00  0.00     0.098 C 
ATOM      9  C   UNL A   1      33.744  24.905  25.449  1.00  0.00     0.039 C 
ATOM     10  C   UNL A   1      33.104  23.853  21.900  1.00  0.00     0.032 C 
BRANCH   6  11
ATOM     11  C   UNL A   1      33.109  27.027  22.577  1.00  0.00     0.318 C 
ATOM     12  N   UNL A   1      32.035  27.820  22.652  1.00  0.00    -0.325 N 
ATOM     13  H   UNL A   1      31.894  28.332  21.823  1.00  0.00     0.166 HD
ATOM     14  O   UNL A   1      33.965  27.344  21.745  1.00  0.00    -0.249 OA
BRANCH  12  15
ATOM     15  C   UNL A   1      31.016  28.114  23.660  1.00  0.00     0.190 C 
ATOM     16  C   UNL A   1      31.612  28.914  24.811  1.00  0.00     0.043 C 
BRANCH  15  17
ATOM     17  C   UNL A   1      29.929  28.946  22.975  1.00  0.00     0.328 C 
ATOM     18  O   UNL A   1      29.305  28.571  21.990  1.00  0.00    -0.250 OA
BRANCH  17  19
ATOM     19  O   UNL A   1      29.809  30.164  23.572  1.00  0.00    -0.464 OA
BRANCH  19  20
ATOM     20  C   UNL A   1      28.547  30.825  23.371  1.00  0.00     0.229 C 
ATOM     21  C   UNL A   1      28.768  32.298  23.077  1.00  0.00     0.049 C 
ENDBRANCH  19  20
ENDBRANCH  17  19
ENDBRANCH  15  17
ENDBRANCH  12  15
ENDBRANCH   6  11
ENDBRANCH   3   5
ENDBRANCH   2   3
ENDBRANCH   1   2
BRANCH   1  22
ATOM     22  C   UNL A   1      36.525  20.443  24.976  1.00  0.00     0.275 C 
BRANCH  22  23
ATOM     23  O   UNL A   1      37.684  21.279  24.818  1.00  0.00    -0.458 OA
BRANCH  23  24
ATOM     24  C   UNL A   1      38.725  20.984  25.631  1.00  0.00     0.338 C 
ATOM     25  O   UNL A   1      39.270  19.899  25.745  1.00  0.00    -0.246 OA
BRANCH  24  26
ATOM     26  C   UNL A   1      39.174  22.176  26.384  1.00  0.00     0.060 A 
ATOM     27  C   UNL A   1      38.641  23.435  26.116  1.00  0.00     0.016 A 
ATOM     28  C   UNL A   1      40.286  22.060  27.219  1.00  0.00     0.016 A 
ATOM     29  C   UNL A   1      39.341  24.576  26.513  1.00  0.00     0.010 A 
ATOM     30  C   UNL A   1      40.886  23.209  27.747  1.00  0.00     0.010 A 
ATOM     31  C   UNL A   1      40.471  24.490  27.344  1.00  0.00    -0.014 A 
BRANCH  31  32
ATOM     32  C   UNL A   1      41.253  25.708  27.737  1.00  0.00     0.031 A 
ATOM     33  C   UNL A   1      40.613  26.790  28.582  1.00  0.00     0.074 A 
ATOM     34  C   UNL A   1      42.540  25.867  27.360  1.00  0.00     0.049 A 
ATOM     35  N   UNL A   1      41.005  28.021  28.802  1.00  0.00    -0.248 NA
ATOM     36  C   UNL A   1      39.341  26.451  29.240  1.00  0.00     0.031 C 
ATOM     37  C   UNL A   1      43.327  24.901  26.592  1.00  0.00     0.029 A 
ATOM     38  N   UNL A   1      43.423  26.897  27.587  1.00  0.00    -0.354 N 
ATOM     39  C   UNL A   1      39.994  28.626  29.544  1.00  0.00     0.074 A 
ATOM     40  C   UNL A   1      38.967  27.622  29.735  1.00  0.00     0.031 C 
ATOM     41  C   UNL A   1      44.587  25.344  26.482  1.00  0.00     0.029 A 
ATOM     42  C   UNL A   1      44.670  26.684  27.046  1.00  0.00     0.049 A 
ATOM     43  H   UNL A   1      43.184  27.709  28.089  1.00  0.00     0.167 HD
ATOM     44  C   UNL A   1      39.927  29.899  30.014  1.00  0.00     0.034 A 
ATOM     45  C   UNL A   1      45.748  27.488  26.953  1.00  0.00     0.034 A 
ATOM     46  C   UNL A   1      40.997  30.863  29.885  1.00  0.00     0.049 A 
ATOM     47  C   UNL A   1      45.655  28.895  27.481  1.00  0.00     0.074 A 
ATOM     48  C   UNL A   1      41.034  32.178  30.320  1.00  0.00     0.029 A 
ATOM     49  N   UNL A   1      42.234  30.609  29.305  1.00  0.00    -0.354 N 
ATOM     50  N   UNL A   1      44.641  29.496  28.058  1.00  0.00    -0.248 NA
ATOM     51  C   UNL A   1      46.846  29.737  27.321  1.00  0.00     0.031 C 
ATOM     52  C   UNL A   1      42.270  32.731  29.962  1.00  0.00     0.029 A 
ATOM     53  C   UNL A   1      43.033  31.742  29.365  1.00  0.00     0.049 A 
ATOM     54  H   UNL A   1      42.504  29.750  28.908  1.00  0.00     0.167 HD
ATOM     55  C   UNL A   1      45.077  30.787  28.335  1.00  0.00     0.074 A 
ATOM     56  C   UNL A   1      46.453  30.867  27.889  1.00  0.00     0.031 C 
ATOM     57  C   UNL A   1      44.397  31.818  28.899  1.00  0.00     0.034 A 
BRANCH  44  58
ATOM     58  C   UNL A   1      38.631  30.343  30.654  1.00  0.00     0.023 A 
ATOM     59  C   UNL A   1      37.610  30.974  29.926  1.00  0.00     0.031 A 
ATOM     60  C   UNL A   1      38.426  30.148  32.034  1.00  0.00     0.131 A 
ATOM     61  C   UNL A   1      36.469  31.455  30.590  1.00  0.00     0.055 A 
ATOM     62  C   UNL A   1      37.252  30.553  32.673  1.00  0.00     0.041 A 
ATOM     63  F   UNL A   1      39.372  29.567  32.790  1.00  0.00    -0.206 F 
ATOM     64  C   UNL A   1      36.271  31.226  31.954  1.00  0.00     0.022 A 
BRANCH  61  65
ATOM     65  S   UNL A   1      35.318  32.514  29.671  1.00  0.00     0.124 S 
ATOM     66  O   UNL A   1      34.765  31.574  28.698  1.00  0.00    -0.237 OA
ATOM     67  O   UNL A   1      34.401  32.961  30.713  1.00  0.00    -0.237 OA
ATOM     68  O   UNL A   1      36.180  33.551  29.107  1.00  0.00    -0.744 OA
ENDBRANCH  61  65
ENDBRANCH  44  58
BRANCH  45  69
ATOM     69  C   UNL A   1      46.979  27.014  26.255  1.00  0.00     0.023 A 
ATOM     70  C   UNL A   1      48.005  26.358  26.953  1.00  0.00     0.031 A 
ATOM     71  C   UNL A   1      47.156  27.234  24.877  1.00  0.00     0.131 A 
ATOM     72  C   UNL A   1      49.174  25.972  26.277  1.00  0.00     0.055 A 
ATOM     73  C   UNL A   1      48.290  26.790  24.197  1.00  0.00     0.041 A 
ATOM     74  F   UNL A   1      46.212  27.867  24.162  1.00  0.00    -0.206 F 
ATOM     75  C   UNL A   1      49.313  26.163  24.901  1.00  0.00     0.022 A 
BRANCH  72  76
ATOM     76  S   UNL A   1      50.554  25.291  27.238  1.00  0.00     0.124 S 
ATOM     77  O   UNL A   1      50.949  26.441  28.046  1.00  0.00    -0.237 OA
ATOM     78  O   UNL A   1      49.918  24.192  27.955  1.00  0.00    -0.237 OA
ATOM     79  O   UNL A   1      51.518  24.891  26.214  1.00  0.00    -0.744 OA
ENDBRANCH  72  76
ENDBRANCH  45  69
BRANCH  57  80
ATOM     80  C   UNL A   1      45.163  33.102  29.097  1.00  0.00     0.023 A 
ATOM     81  C   UNL A   1      45.178  34.112  28.117  1.00  0.00     0.031 A 
ATOM     82  C   UNL A   1      45.929  33.296  30.260  1.00  0.00     0.131 A 
ATOM     83  C   UNL A   1      45.997  35.238  28.287  1.00  0.00     0.055 A 
ATOM     84  C   UNL A   1      46.699  34.445  30.448  1.00  0.00     0.041 A 
ATOM     85  F   UNL A   1      45.952  32.365  31.226  1.00  0.00    -0.206 F 
ATOM     86  C   UNL A   1      46.749  35.415  29.452  1.00  0.00     0.022 A 
BRANCH  83  87
ATOM     87  S   UNL A   1      46.155  36.416  26.917  1.00  0.00     0.124 S 
ATOM     88  O   UNL A   1      44.858  37.083  26.936  1.00  0.00    -0.237 OA
ATOM     89  O   UNL A   1      47.295  37.226  27.333  1.00  0.00    -0.237 OA
ATOM     90  O   UNL A   1      46.395  35.562  25.755  1.00  0.00    -0.744 OA
ENDBRANCH  83  87
ENDBRANCH  57  80
ENDBRANCH  31  32
ENDBRANCH  24  26
ENDBRANCH  23  24
ENDBRANCH  22  23
ENDBRANCH   1  22
TORSDOF 19
ENDMDL
MODEL 2
REMARK VINA RESULT:     -11.0      4.868     10.320
REMARK SMILES CCOC(=O)[C@H](C)NC(=O)N1CC[C@H](C(=O)OCCOC(=O)c2ccc(-c3c4nc(c(-c5cc(S(=O)(=O)[O-])ccc5F)c5ccc([nH]5)c(-c5cc(S(=O)(=O)[O-])ccc5F)c5nc(c(-c6cc(S(=O)(=O)[O-])ccc6F)c6ccc3[nH]6)C=C5)C=C4)cc2)[C@@H]1C
REMARK SMILES IDX 18 1 17 2 15 3 16 4 14 5 11 6 12 7 86 8 13 9 87 10 9 11 8 12
REMARK SMILES IDX 10 14 6 15 7 16 4 17 5 18 3 19 2 20 1 21 19 22 20 23 21 24
REMARK SMILES IDX 22 25 23 26 24 27 85 28 25 29 84 30 26 31 27 32 28 33 78 34
REMARK SMILES IDX 29 35 83 36 77 37 79 38 30 39 82 40 76 41 75 42 31 44 63 45
REMARK SMILES IDX 43 46 62 47 44 48 47 49 61 50 80 51 45 52 46 53 60 55 81 56
REMARK SMILES IDX 48 57 32 58 33 59 41 60 34 61 40 62 42 63 39 64 35 65 36 66
REMARK SMILES IDX 37 67 38 68 64 69 65 70 73 71 66 72 72 73 74 74 71 75 67 76
REMARK SMILES IDX 68 77 69 78 70 79 49 80 50 81 58 82 51 83 57 84 59 85 56 86
REMARK SMILES IDX 52 87 53 88 54 89 55 90
REMARK H PARENT 8 13 79 43 47 54
REMARK Flexibility Score: inf
ROOT
ATOM      1  C   UNL A   1      31.525  28.333  25.558  1.00  0.00     0.274 C 
ENDROOT
BRANCH   1   2
ATOM      2  O   UNL A   1      32.476  27.326  25.149  1.00  0.00    -0.462 OA
BRANCH   2   3
ATOM      3  C   UNL A   1      32.304  26.094  25.704  1.00  0.00     0.311 C 
ATOM      4  O   UNL A   1      31.820  25.901  26.810  1.00  0.00    -0.252 OA
BRANCH   3   5
ATOM      5  C   UNL A   1      32.883  25.003  24.802  1.00  0.00     0.123 C 
ATOM      6  N   UNL A   1      33.296  23.037  26.095  1.00  0.00    -0.321 N 
ATOM      7  C   UNL A   1      34.410  23.954  26.298  1.00  0.00     0.122 C 
ATOM      8  C   UNL A   1      32.383  23.562  25.072  1.00  0.00     0.098 C 
ATOM      9  C   UNL A   1      34.376  24.895  25.104  1.00  0.00     0.039 C 
ATOM     10  C   UNL A   1      30.891  23.518  25.376  1.00  0.00     0.032 C 
BRANCH   6  11
ATOM     11  C   UNL A   1      33.292  21.908  26.851  1.00  0.00     0.318 C 
ATOM     12  N   UNL A   1      33.367  20.679  26.331  1.00  0.00    -0.325 N 
ATOM     13  H   UNL A   1      33.018  19.994  26.947  1.00  0.00     0.166 HD
ATOM     14  O   UNL A   1      33.232  21.976  28.083  1.00  0.00    -0.249 OA
BRANCH  12  15
ATOM     15  C   UNL A   1      33.839  20.099  25.073  1.00  0.00     0.190 C 
ATOM     16  C   UNL A   1      35.359  20.153  24.991  1.00  0.00     0.043 C 
BRANCH  15  17
ATOM     17  C   UNL A   1      33.383  18.638  25.049  1.00  0.00     0.328 C 
ATOM     18  O   UNL A   1      32.526  18.181  25.795  1.00  0.00    -0.250 OA
BRANCH  17  19
ATOM     19  O   UNL A   1      34.104  17.924  24.141  1.00  0.00    -0.464 OA
BRANCH  19  20
ATOM     20  C   UNL A   1      33.326  17.155  23.206  1.00  0.00     0.229 C 
ATOM     21  C   UNL A   1      32.506  18.077  22.323  1.00  0.00     0.049 C 
ENDBRANCH  19  20
ENDBRANCH  17  19
ENDBRANCH  15  17
ENDBRANCH  12  15
ENDBRANCH   6  11
ENDBRANCH   3   5
ENDBRANCH   2   3
ENDBRANCH   1   2
BRANCH   1  22
ATOM     22  C   UNL A   1      32.170  29.712  25.656  1.00  0.00     0.275 C 
BRANCH  22  23
ATOM     23  O   UNL A   1      32.171  30.158  27.023  1.00  0.00    -0.458 OA
BRANCH  23  24
ATOM     24  C   UNL A   1      32.879  31.286  27.263  1.00  0.00     0.338 C 
ATOM     25  O   UNL A   1      32.450  32.428  27.247  1.00  0.00    -0.246 OA
BRANCH  24  26
ATOM     26  C   UNL A   1      34.289  30.976  27.587  1.00  0.00     0.060 A 
ATOM     27  C   UNL A   1      34.709  29.662  27.775  1.00  0.00     0.016 A 
ATOM     28  C   UNL A   1      35.147  32.028  27.909  1.00  0.00     0.016 A 
ATOM     29  C   UNL A   1      35.893  29.411  28.470  1.00  0.00     0.010 A 
ATOM     30  C   UNL A   1      36.406  31.760  28.459  1.00  0.00     0.010 A 
ATOM     31  C   UNL A   1      36.772  30.451  28.819  1.00  0.00    -0.014 A 
BRANCH  31  32
ATOM     32  C   UNL A   1      38.022  30.193  29.605  1.00  0.00     0.031 A 
ATOM     33  C   UNL A   1      39.121  29.320  29.034  1.00  0.00     0.074 A 
ATOM     34  C   UNL A   1      38.207  30.737  30.828  1.00  0.00     0.049 A 
ATOM     35  N   UNL A   1      40.139  28.756  29.637  1.00  0.00    -0.248 NA
ATOM     36  C   UNL A   1      39.041  29.011  27.598  1.00  0.00     0.031 C 
ATOM     37  C   UNL A   1      37.279  31.644  31.505  1.00  0.00     0.029 A 
ATOM     38  N   UNL A   1      39.250  30.619  31.716  1.00  0.00    -0.354 N 
ATOM     39  C   UNL A   1      40.766  27.961  28.681  1.00  0.00     0.074 A 
ATOM     40  C   UNL A   1      40.009  28.116  27.455  1.00  0.00     0.031 C 
ATOM     41  C   UNL A   1      37.825  32.059  32.655  1.00  0.00     0.029 A 
ATOM     42  C   UNL A   1      39.076  31.347  32.872  1.00  0.00     0.049 A 
ATOM     43  H   UNL A   1      40.045  30.065  31.542  1.00  0.00     0.167 HD
ATOM     44  C   UNL A   1      41.863  27.172  28.817  1.00  0.00     0.034 A 
ATOM     45  C   UNL A   1      39.801  31.399  34.007  1.00  0.00     0.034 A 
ATOM     46  C   UNL A   1      42.656  27.093  30.023  1.00  0.00     0.049 A 
ATOM     47  C   UNL A   1      41.015  30.519  34.138  1.00  0.00     0.074 A 
ATOM     48  C   UNL A   1      43.782  26.326  30.270  1.00  0.00     0.029 A 
ATOM     49  N   UNL A   1      42.425  27.831  31.178  1.00  0.00    -0.354 N 
ATOM     50  N   UNL A   1      41.516  29.668  33.272  1.00  0.00    -0.248 NA
ATOM     51  C   UNL A   1      41.745  30.590  35.408  1.00  0.00     0.031 C 
ATOM     52  C   UNL A   1      44.204  26.563  31.584  1.00  0.00     0.029 A 
ATOM     53  C   UNL A   1      43.382  27.531  32.138  1.00  0.00     0.049 A 
ATOM     54  H   UNL A   1      41.689  28.473  31.299  1.00  0.00     0.167 HD
ATOM     55  C   UNL A   1      42.626  29.107  33.896  1.00  0.00     0.074 A 
ATOM     56  C   UNL A   1      42.736  29.738  35.195  1.00  0.00     0.031 C 
ATOM     57  C   UNL A   1      43.472  28.150  33.439  1.00  0.00     0.034 A 
BRANCH  44  58
ATOM     58  C   UNL A   1      42.236  26.283  27.651  1.00  0.00     0.023 A 
ATOM     59  C   UNL A   1      41.780  24.960  27.539  1.00  0.00     0.031 A 
ATOM     60  C   UNL A   1      43.089  26.770  26.641  1.00  0.00     0.131 A 
ATOM     61  C   UNL A   1      42.237  24.148  26.488  1.00  0.00     0.055 A 
ATOM     62  C   UNL A   1      43.472  25.983  25.553  1.00  0.00     0.041 A 
ATOM     63  F   UNL A   1      43.574  28.021  26.700  1.00  0.00    -0.206 F 
ATOM     64  C   UNL A   1      43.059  24.657  25.480  1.00  0.00     0.022 A 
BRANCH  61  65
ATOM     65  S   UNL A   1      41.860  22.374  26.541  1.00  0.00     0.124 S 
ATOM     66  O   UNL A   1      42.498  21.975  27.794  1.00  0.00    -0.237 OA
ATOM     67  O   UNL A   1      40.402  22.362  26.539  1.00  0.00    -0.237 OA
ATOM     68  O   UNL A   1      42.493  21.851  25.331  1.00  0.00    -0.744 OA
ENDBRANCH  61  65
ENDBRANCH  44  58
BRANCH  45  69
ATOM     69  C   UNL A   1      39.349  32.250  35.147  1.00  0.00     0.023 A 
ATOM     70  C   UNL A   1      39.794  33.574  35.289  1.00  0.00     0.031 A 
ATOM     71  C   UNL A   1      38.479  31.739  36.127  1.00  0.00     0.131 A 
ATOM     72  C   UNL A   1      39.392  34.331  36.401  1.00  0.00     0.055 A 
ATOM     73  C   UNL A   1      38.029  32.516  37.194  1.00  0.00     0.041 A 
ATOM     74  F   UNL A   1      38.030  30.476  36.047  1.00  0.00    -0.206 F 
ATOM     75  C   UNL A   1      38.495  33.818  37.341  1.00  0.00     0.022 A 
BRANCH  72  76
ATOM     76  S   UNL A   1      40.124  35.971  36.652  1.00  0.00     0.124 S 
ATOM     77  O   UNL A   1      39.545  36.361  37.934  1.00  0.00    -0.237 OA
ATOM     78  O   UNL A   1      41.552  35.673  36.659  1.00  0.00    -0.237 OA
ATOM     79  O   UNL A   1      39.654  36.735  35.499  1.00  0.00    -0.744 OA
ENDBRANCH  72  76
ENDBRANCH  45  69
BRANCH  57  80
ATOM     80  C   UNL A   1      44.613  27.768  34.348  1.00  0.00     0.023 A 
ATOM     81  C   UNL A   1      44.490  26.733  35.293  1.00  0.00     0.031 A 
ATOM     82  C   UNL A   1      45.822  28.485  34.304  1.00  0.00     0.131 A 
ATOM     83  C   UNL A   1      45.532  26.488  36.200  1.00  0.00     0.055 A 
ATOM     84  C   UNL A   1      46.876  28.200  35.173  1.00  0.00     0.041 A 
ATOM     85  F   UNL A   1      45.993  29.483  33.423  1.00  0.00    -0.206 F 
ATOM     86  C   UNL A   1      46.728  27.208  36.139  1.00  0.00     0.022 A 
BRANCH  83  87
ATOM     87  S   UNL A   1      45.261  25.292  37.537  1.00  0.00     0.124 S 
ATOM     88  O   UNL A   1      45.962  25.916  38.654  1.00  0.00    -0.237 OA
ATOM     89  O   UNL A   1      43.806  25.260  37.636  1.00  0.00    -0.237 OA
ATOM     90  O   UNL A   1      45.874  24.065  37.029  1.00  0.00    -0.744 OA
ENDBRANCH  83  87
ENDBRANCH  57  80
ENDBRANCH  31  32
ENDBRANCH  24  26
ENDBRANCH  23  24
ENDBRANCH  22  23
ENDBRANCH   1  22
TORSDOF 19
ENDMDL
MODEL 3
REMARK VINA RESULT:     -10.9      5.145     10.255
REMARK SMILES CCOC(=O)[C@H](C)NC(=O)N1CC[C@H](C(=O)OCCOC(=O)c2ccc(-c3c4nc(c(-c5cc(S(=O)(=O)[O-])ccc5F)c5ccc([nH]5)c(-c5cc(S(=O)(=O)[O-])ccc5F)c5nc(c(-c6cc(S(=O)(=O)[O-])ccc6F)c6ccc3[nH]6)C=C5)C=C4)cc2)[C@@H]1C
REMARK SMILES IDX 18 1 17 2 15 3 16 4 14 5 11 6 12 7 86 8 13 9 87 10 9 11 8 12
REMARK SMILES IDX 10 14 6 15 7 16 4 17 5 18 3 19 2 20 1 21 19 22 20 23 21 24
REMARK SMILES IDX 22 25 23 26 24 27 85 28 25 29 84 30 26 31 27 32 28 33 78 34
REMARK SMILES IDX 29 35 83 36 77 37 79 38 30 39 82 40 76 41 75 42 31 44 63 45
REMARK SMILES IDX 43 46 62 47 44 48 47 49 61 50 80 51 45 52 46 53 60 55 81 56
REMARK SMILES IDX 48 57 32 58 33 59 41 60 34 61 40 62 42 63 39 64 35 65 36 66
REMARK SMILES IDX 37 67 38 68 64 69 65 70 73 71 66 72 72 73 74 74 71 75 67 76
REMARK SMILES IDX 68 77 69 78 70 79 49 80 50 81 58 82 51 83 57 84 59 85 56 86
REMARK SMILES IDX 52 87 53 88 54 89 55 90
REMARK H PARENT 8 13 79 43 47 54
REMARK Flexibility Score: inf
ROOT
ATOM      1  C   UNL A   1      31.464  28.143  26.094  1.00  0.00     0.274 C 
ENDROOT
BRANCH   1   2
ATOM      2  O   UNL A   1      31.288  26.941  26.874  1.00  0.00    -0.462 OA
BRANCH   2   3
ATOM      3  C   UNL A   1      31.874  25.819  26.369  1.00  0.00     0.311 C 
ATOM      4  O   UNL A   1      31.768  24.707  26.865  1.00  0.00    -0.252 OA
BRANCH   3   5
ATOM      5  C   UNL A   1      32.751  26.158  25.163  1.00  0.00     0.123 C 
ATOM      6  N   UNL A   1      33.258  24.156  23.962  1.00  0.00    -0.321 N 
ATOM      7  C   UNL A   1      34.169  24.246  25.096  1.00  0.00     0.122 C 
ATOM      8  C   UNL A   1      32.447  25.376  23.860  1.00  0.00     0.098 C 
ATOM      9  C   UNL A   1      34.176  25.716  25.487  1.00  0.00     0.039 C 
ATOM     10  C   UNL A   1      30.951  25.204  23.629  1.00  0.00     0.032 C 
BRANCH   6  11
ATOM     11  C   UNL A   1      33.313  23.014  23.227  1.00  0.00     0.318 C 
ATOM     12  N   UNL A   1      33.214  21.793  23.763  1.00  0.00    -0.325 N 
ATOM     13  H   UNL A   1      33.603  21.100  23.181  1.00  0.00     0.166 HD
ATOM     14  O   UNL A   1      33.447  23.062  22.000  1.00  0.00    -0.249 OA
BRANCH  12  15
ATOM     15  C   UNL A   1      32.670  21.231  25.000  1.00  0.00     0.190 C 
ATOM     16  C   UNL A   1      31.314  21.846  25.321  1.00  0.00     0.043 C 
BRANCH  15  17
ATOM     17  C   UNL A   1      32.504  19.726  24.778  1.00  0.00     0.328 C 
ATOM     18  O   UNL A   1      32.360  18.917  25.687  1.00  0.00    -0.250 OA
BRANCH  17  19
ATOM     19  O   UNL A   1      32.604  19.421  23.455  1.00  0.00    -0.464 OA
BRANCH  19  20
ATOM     20  C   UNL A   1      32.400  18.035  23.126  1.00  0.00     0.229 C 
ATOM     21  C   UNL A   1      33.720  17.286  23.171  1.00  0.00     0.049 C 
ENDBRANCH  19  20
ENDBRANCH  17  19
ENDBRANCH  15  17
ENDBRANCH  12  15
ENDBRANCH   6  11
ENDBRANCH   3   5
ENDBRANCH   2   3
ENDBRANCH   1   2
BRANCH   1  22
ATOM     22  C   UNL A   1      31.770  29.348  26.977  1.00  0.00     0.275 C 
BRANCH  22  23
ATOM     23  O   UNL A   1      32.740  30.194  26.336  1.00  0.00    -0.458 OA
BRANCH  23  24
ATOM     24  C   UNL A   1      33.239  31.189  27.106  1.00  0.00     0.338 C 
ATOM     25  O   UNL A   1      32.641  32.184  27.481  1.00  0.00    -0.246 OA
BRANCH  24  26
ATOM     26  C   UNL A   1      34.643  30.921  27.486  1.00  0.00     0.060 A 
ATOM     27  C   UNL A   1      35.109  29.616  27.633  1.00  0.00     0.016 A 
ATOM     28  C   UNL A   1      35.439  31.989  27.901  1.00  0.00     0.016 A 
ATOM     29  C   UNL A   1      36.268  29.380  28.376  1.00  0.00     0.010 A 
ATOM     30  C   UNL A   1      36.680  31.745  28.501  1.00  0.00     0.010 A 
ATOM     31  C   UNL A   1      37.083  30.436  28.817  1.00  0.00    -0.014 A 
BRANCH  31  32
ATOM     32  C   UNL A   1      38.304  30.190  29.653  1.00  0.00     0.031 A 
ATOM     33  C   UNL A   1      39.446  29.353  29.114  1.00  0.00     0.074 A 
ATOM     34  C   UNL A   1      38.422  30.714  30.892  1.00  0.00     0.049 A 
ATOM     35  N   UNL A   1      40.449  28.800  29.751  1.00  0.00    -0.248 NA
ATOM     36  C   UNL A   1      39.437  29.071  27.670  1.00  0.00     0.031 C 
ATOM     37  C   UNL A   1      37.444  31.586  31.544  1.00  0.00     0.029 A 
ATOM     38  N   UNL A   1      39.428  30.601  31.824  1.00  0.00    -0.354 N 
ATOM     39  C   UNL A   1      41.136  28.038  28.809  1.00  0.00     0.074 A 
ATOM     40  C   UNL A   1      40.430  28.201  27.554  1.00  0.00     0.031 C 
ATOM     41  C   UNL A   1      37.930  31.991  32.726  1.00  0.00     0.029 A 
ATOM     42  C   UNL A   1      39.187  31.302  32.984  1.00  0.00     0.049 A 
ATOM     43  H   UNL A   1      40.242  30.069  31.675  1.00  0.00     0.167 HD
ATOM     44  C   UNL A   1      42.245  27.272  28.978  1.00  0.00     0.034 A 
ATOM     45  C   UNL A   1      39.860  31.348  34.150  1.00  0.00     0.034 A 
ATOM     46  C   UNL A   1      42.985  27.186  30.217  1.00  0.00     0.049 A 
ATOM     47  C   UNL A   1      41.087  30.493  34.318  1.00  0.00     0.074 A 
ATOM     48  C   UNL A   1      44.117  26.439  30.499  1.00  0.00     0.029 A 
ATOM     49  N   UNL A   1      42.687  27.896  31.374  1.00  0.00    -0.354 N 
ATOM     50  N   UNL A   1      41.645  29.671  33.460  1.00  0.00    -0.248 NA
ATOM     51  C   UNL A   1      41.759  30.555  35.621  1.00  0.00     0.031 C 
ATOM     52  C   UNL A   1      44.475  26.660  31.834  1.00  0.00     0.029 A 
ATOM     53  C   UNL A   1      43.607  27.598  32.369  1.00  0.00     0.049 A 
ATOM     54  H   UNL A   1      41.932  28.519  31.474  1.00  0.00     0.167 HD
ATOM     55  C   UNL A   1      42.739  29.122  34.122  1.00  0.00     0.074 A 
ATOM     56  C   UNL A   1      42.778  29.730  35.436  1.00  0.00     0.031 C 
ATOM     57  C   UNL A   1      43.626  28.193  33.684  1.00  0.00     0.034 A 
BRANCH  44  58
ATOM     58  C   UNL A   1      42.688  26.414  27.814  1.00  0.00     0.023 A 
ATOM     59  C   UNL A   1      42.142  25.145  27.562  1.00  0.00     0.031 A 
ATOM     60  C   UNL A   1      43.701  26.873  26.949  1.00  0.00     0.131 A 
ATOM     61  C   UNL A   1      42.661  24.351  26.527  1.00  0.00     0.055 A 
ATOM     62  C   UNL A   1      44.154  26.113  25.869  1.00  0.00     0.041 A 
ATOM     63  F   UNL A   1      44.277  28.071  27.146  1.00  0.00    -0.206 F 
ATOM     64  C   UNL A   1      43.645  24.836  25.662  1.00  0.00     0.022 A 
BRANCH  61  65
ATOM     65  S   UNL A   1      42.133  22.618  26.421  1.00  0.00     0.124 S 
ATOM     66  O   UNL A   1      40.680  22.747  26.517  1.00  0.00    -0.237 OA
ATOM     67  O   UNL A   1      42.649  22.211  25.120  1.00  0.00    -0.237 OA
ATOM     68  O   UNL A   1      42.775  21.992  27.575  1.00  0.00    -0.744 OA
ENDBRANCH  61  65
ENDBRANCH  44  58
BRANCH  45  69
ATOM     69  C   UNL A   1      39.339  32.166  35.285  1.00  0.00     0.023 A 
ATOM     70  C   UNL A   1      38.671  31.569  36.366  1.00  0.00     0.031 A 
ATOM     71  C   UNL A   1      39.481  33.566  35.291  1.00  0.00     0.131 A 
ATOM     72  C   UNL A   1      38.146  32.371  37.392  1.00  0.00     0.055 A 
ATOM     73  C   UNL A   1      39.016  34.352  36.345  1.00  0.00     0.041 A 
ATOM     74  F   UNL A   1      40.102  34.190  34.276  1.00  0.00    -0.206 F 
ATOM     75  C   UNL A   1      38.334  33.755  37.399  1.00  0.00     0.022 A 
BRANCH  72  76
ATOM     76  S   UNL A   1      37.134  31.591  38.680  1.00  0.00     0.124 S 
ATOM     77  O   UNL A   1      35.943  32.435  38.672  1.00  0.00    -0.237 OA
ATOM     78  O   UNL A   1      36.965  30.239  38.161  1.00  0.00    -0.237 OA
ATOM     79  O   UNL A   1      37.965  31.699  39.878  1.00  0.00    -0.744 OA
ENDBRANCH  72  76
ENDBRANCH  45  69
BRANCH  57  80
ATOM     80  C   UNL A   1      44.735  27.819  34.636  1.00  0.00     0.023 A 
ATOM     81  C   UNL A   1      44.513  26.960  35.728  1.00  0.00     0.031 A 
ATOM     82  C   UNL A   1      46.018  28.371  34.478  1.00  0.00     0.131 A 
ATOM     83  C   UNL A   1      45.539  26.732  36.657  1.00  0.00     0.055 A 
ATOM     84  C   UNL A   1      47.051  28.096  35.375  1.00  0.00     0.041 A 
ATOM     85  F   UNL A   1      46.285  29.198  33.454  1.00  0.00    -0.206 F 
ATOM     86  C   UNL A   1      46.810  27.286  36.481  1.00  0.00     0.022 A 
BRANCH  83  87
ATOM     87  S   UNL A   1      45.159  25.791  38.161  1.00  0.00     0.124 S 
ATOM     88  O   UNL A   1      44.257  26.694  38.867  1.00  0.00    -0.237 OA
ATOM     89  O   UNL A   1      44.555  24.576  37.624  1.00  0.00    -0.237 OA
ATOM     90  O   UNL A   1      46.466  25.606  38.789  1.00  0.00    -0.744 OA
ENDBRANCH  83  87
ENDBRANCH  57  80
ENDBRANCH  31  32
ENDBRANCH  24  26
ENDBRANCH  23  24
ENDBRANCH  22  23
ENDBRANCH   1  22
TORSDOF 19
ENDMDL
