MODEL 1
REMARK VINA RESULT:     -10.4      0.000      0.000
REMARK SMILES COc1ccc2c(c1)C=C(C(=O)OCCOC(=O)c1ccc(-c3c4nc(c(-c5cc(S(=O)(=O)[O-])ccc5F)c5ccc([nH]5)c(-c5cc(S(=O)(=O)[O-])ccc5F)c5nc(c(-c6cc(S(=O)(=O)[O-])ccc6F)c6ccc3[nH]6)C=C5)C=C4)cc1)[C@H](C(F)(F)F)O2
REMARK SMILES IDX 15 1 14 2 13 3 11 4 12 5 10 6 3 7 4 8 8 9 5 10 7 11 6 12
REMARK SMILES IDX 9 13 87 14 82 15 2 16 1 17 83 18 84 19 85 20 86 21 16 22
REMARK SMILES IDX 17 23 18 24 19 25 20 26 81 27 21 28 80 29 22 30 23 31 24 32
REMARK SMILES IDX 74 33 25 34 79 35 73 36 75 37 26 38 78 39 72 40 71 41 27 43
REMARK SMILES IDX 59 44 39 45 58 46 40 47 43 48 57 49 76 50 41 51 42 52 56 54
REMARK SMILES IDX 77 55 44 56 28 57 29 58 37 59 30 60 36 61 38 62 35 63 31 64
REMARK SMILES IDX 32 65 33 66 34 67 60 68 61 69 69 70 62 71 68 72 70 73 67 74
REMARK SMILES IDX 63 75 64 76 65 77 66 78 45 79 46 80 54 81 47 82 53 83 55 84
REMARK SMILES IDX 52 85 48 86 49 87 50 88 51 89
REMARK H PARENT 75 42 43 53
REMARK Flexibility Score: inf
ROOT
ATOM      1  C   UNL A   1      40.712  19.860  26.494  1.00  0.00     0.275 C 
ENDROOT
BRANCH   1   2
ATOM      2  C   UNL A   1      42.138  19.871  25.932  1.00  0.00     0.275 C 
BRANCH   2   3
ATOM      3  O   UNL A   1      42.966  20.862  26.573  1.00  0.00    -0.459 OA
BRANCH   3   4
ATOM      4  C   UNL A   1      43.200  21.994  25.854  1.00  0.00     0.338 C 
ATOM      5  O   UNL A   1      42.622  22.299  24.830  1.00  0.00    -0.246 OA
BRANCH   4   6
ATOM      6  C   UNL A   1      44.248  22.839  26.476  1.00  0.00     0.087 C 
ATOM      7  C   UNL A   1      46.165  25.301  30.176  1.00  0.00     0.119 A 
ATOM      8  C   UNL A   1      47.290  25.574  29.395  1.00  0.00     0.050 A 
ATOM      9  C   UNL A   1      45.135  24.507  29.651  1.00  0.00     0.058 A 
ATOM     10  C   UNL A   1      47.399  25.027  28.116  1.00  0.00     0.051 A 
ATOM     11  C   UNL A   1      45.223  23.985  28.357  1.00  0.00     0.021 A 
ATOM     12  C   UNL A   1      46.374  24.232  27.609  1.00  0.00     0.128 A 
ATOM     13  C   UNL A   1      44.169  23.150  27.782  1.00  0.00     0.027 C 
ATOM     14  O   UNL A   1      46.595  23.646  26.397  1.00  0.00    -0.475 OA
ATOM     15  C   UNL A   1      45.403  23.343  25.620  1.00  0.00     0.316 C 
BRANCH   7  16
ATOM     16  O   UNL A   1      45.981  25.704  31.470  1.00  0.00    -0.497 OA
ATOM     17  C   UNL A   1      44.664  25.575  31.997  1.00  0.00     0.278 C 
ENDBRANCH   7  16
BRANCH  15  18
ATOM     18  C   UNL A   1      45.854  22.494  24.414  1.00  0.00     0.430 C 
ATOM     19  F   UNL A   1      44.988  22.579  23.379  1.00  0.00    -0.167 F 
ATOM     20  F   UNL A   1      47.041  22.949  23.937  1.00  0.00    -0.167 F 
ATOM     21  F   UNL A   1      46.028  21.193  24.735  1.00  0.00    -0.167 F 
ENDBRANCH  15  18
ENDBRANCH   4   6
ENDBRANCH   3   4
ENDBRANCH   2   3
ENDBRANCH   1   2
BRANCH   1  22
ATOM     22  O   UNL A   1      40.438  21.037  27.275  1.00  0.00    -0.458 OA
BRANCH  22  23
ATOM     23  C   UNL A   1      39.667  21.962  26.652  1.00  0.00     0.338 C 
ATOM     24  O   UNL A   1      38.708  21.737  25.930  1.00  0.00    -0.246 OA
BRANCH  23  25
ATOM     25  C   UNL A   1      40.009  23.315  27.131  1.00  0.00     0.060 A 
ATOM     26  C   UNL A   1      39.815  24.363  26.229  1.00  0.00     0.016 A 
ATOM     27  C   UNL A   1      40.517  23.576  28.405  1.00  0.00     0.016 A 
ATOM     28  C   UNL A   1      40.041  25.683  26.613  1.00  0.00     0.010 A 
ATOM     29  C   UNL A   1      40.801  24.900  28.775  1.00  0.00     0.010 A 
ATOM     30  C   UNL A   1      40.547  25.962  27.888  1.00  0.00    -0.014 A 
BRANCH  30  31
ATOM     31  C   UNL A   1      40.915  27.361  28.224  1.00  0.00     0.031 A 
ATOM     32  C   UNL A   1      42.350  27.786  28.097  1.00  0.00     0.074 A 
ATOM     33  C   UNL A   1      39.976  28.261  28.568  1.00  0.00     0.049 A 
ATOM     34  N   UNL A   1      42.899  28.947  28.347  1.00  0.00    -0.248 NA
ATOM     35  C   UNL A   1      43.288  26.764  27.608  1.00  0.00     0.031 C 
ATOM     36  C   UNL A   1      38.538  27.998  28.628  1.00  0.00     0.029 A 
ATOM     37  N   UNL A   1      40.090  29.583  28.923  1.00  0.00    -0.354 N 
ATOM     38  C   UNL A   1      44.246  28.803  28.034  1.00  0.00     0.074 A 
ATOM     39  C   UNL A   1      44.432  27.430  27.607  1.00  0.00     0.031 C 
ATOM     40  C   UNL A   1      37.907  29.122  29.012  1.00  0.00     0.029 A 
ATOM     41  C   UNL A   1      38.893  30.171  29.265  1.00  0.00     0.049 A 
ATOM     42  H   UNL A   1      40.948  30.066  28.932  1.00  0.00     0.167 HD
ATOM     43  C   UNL A   1      45.235  29.728  28.097  1.00  0.00     0.034 A 
ATOM     44  C   UNL A   1      38.631  31.402  29.753  1.00  0.00     0.034 A 
ATOM     45  C   UNL A   1      45.044  31.080  28.566  1.00  0.00     0.049 A 
ATOM     46  C   UNL A   1      39.776  32.369  29.961  1.00  0.00     0.074 A 
ATOM     47  C   UNL A   1      45.986  32.086  28.699  1.00  0.00     0.029 A 
ATOM     48  N   UNL A   1      43.836  31.613  29.000  1.00  0.00    -0.354 N 
ATOM     49  N   UNL A   1      41.052  32.217  29.685  1.00  0.00    -0.248 NA
ATOM     50  C   UNL A   1      39.445  33.676  30.546  1.00  0.00     0.031 C 
ATOM     51  C   UNL A   1      45.368  33.193  29.290  1.00  0.00     0.029 A 
ATOM     52  C   UNL A   1      44.018  32.917  29.438  1.00  0.00     0.049 A 
ATOM     53  H   UNL A   1      42.976  31.133  28.997  1.00  0.00     0.167 HD
ATOM     54  C   UNL A   1      41.663  33.423  30.026  1.00  0.00     0.074 A 
ATOM     55  C   UNL A   1      40.616  34.294  30.517  1.00  0.00     0.031 C 
ATOM     56  C   UNL A   1      42.970  33.780  29.935  1.00  0.00     0.034 A 
BRANCH  43  57
ATOM     57  C   UNL A   1      46.623  29.277  27.716  1.00  0.00     0.023 A 
ATOM     58  C   UNL A   1      46.933  28.861  26.409  1.00  0.00     0.031 A 
ATOM     59  C   UNL A   1      47.642  29.223  28.684  1.00  0.00     0.131 A 
ATOM     60  C   UNL A   1      48.205  28.338  26.125  1.00  0.00     0.055 A 
ATOM     61  C   UNL A   1      48.929  28.783  28.374  1.00  0.00     0.041 A 
ATOM     62  F   UNL A   1      47.397  29.582  29.954  1.00  0.00    -0.206 F 
ATOM     63  C   UNL A   1      49.212  28.321  27.093  1.00  0.00     0.022 A 
BRANCH  60  64
ATOM     64  S   UNL A   1      48.473  27.536  24.521  1.00  0.00     0.124 S 
ATOM     65  O   UNL A   1      47.353  28.053  23.741  1.00  0.00    -0.237 OA
ATOM     66  O   UNL A   1      49.795  28.021  24.142  1.00  0.00    -0.237 OA
ATOM     67  O   UNL A   1      48.398  26.111  24.834  1.00  0.00    -0.744 OA
ENDBRANCH  60  64
ENDBRANCH  43  57
BRANCH  44  68
ATOM     68  C   UNL A   1      37.241  31.789  30.145  1.00  0.00     0.023 A 
ATOM     69  C   UNL A   1      36.304  32.218  29.190  1.00  0.00     0.031 A 
ATOM     70  C   UNL A   1      36.862  31.828  31.499  1.00  0.00     0.131 A 
ATOM     71  C   UNL A   1      35.058  32.716  29.606  1.00  0.00     0.055 A 
ATOM     72  C   UNL A   1      35.598  32.263  31.903  1.00  0.00     0.041 A 
ATOM     73  F   UNL A   1      37.723  31.448  32.457  1.00  0.00    -0.206 F 
ATOM     74  C   UNL A   1      34.694  32.726  30.954  1.00  0.00     0.022 A 
BRANCH  71  75
ATOM     75  S   UNL A   1      33.959  33.460  28.367  1.00  0.00     0.124 S 
ATOM     76  O   UNL A   1      34.883  34.312  27.628  1.00  0.00    -0.237 OA
ATOM     77  O   UNL A   1      33.459  32.288  27.658  1.00  0.00    -0.237 OA
ATOM     78  O   UNL A   1      32.967  34.168  29.174  1.00  0.00    -0.744 OA
ENDBRANCH  71  75
ENDBRANCH  44  68
BRANCH  56  79
ATOM     79  C   UNL A   1      43.334  35.197  30.323  1.00  0.00     0.023 A 
ATOM     80  C   UNL A   1      43.338  36.250  29.392  1.00  0.00     0.031 A 
ATOM     81  C   UNL A   1      43.689  35.494  31.653  1.00  0.00     0.131 A 
ATOM     82  C   UNL A   1      43.745  37.535  29.788  1.00  0.00     0.055 A 
ATOM     83  C   UNL A   1      44.026  36.787  32.056  1.00  0.00     0.041 A 
ATOM     84  F   UNL A   1      43.709  34.530  32.587  1.00  0.00    -0.206 F 
ATOM     85  C   UNL A   1      44.068  37.814  31.118  1.00  0.00     0.022 A 
BRANCH  82  86
ATOM     86  S   UNL A   1      43.945  38.818  28.520  1.00  0.00     0.124 S 
ATOM     87  O   UNL A   1      43.311  39.970  29.153  1.00  0.00    -0.237 OA
ATOM     88  O   UNL A   1      45.394  38.889  28.372  1.00  0.00    -0.237 OA
ATOM     89  O   UNL A   1      43.231  38.274  27.366  1.00  0.00    -0.744 OA
ENDBRANCH  82  86
ENDBRANCH  56  79
ENDBRANCH  30  31
ENDBRANCH  23  25
ENDBRANCH  22  23
ENDBRANCH   1  22
TORSDOF 16
ENDMDL
MODEL 2
REMARK VINA RESULT:     -10.3      3.886      9.766
REMARK SMILES COc1ccc2c(c1)C=C(C(=O)OCCOC(=O)c1ccc(-c3c4nc(c(-c5cc(S(=O)(=O)[O-])ccc5F)c5ccc([nH]5)c(-c5cc(S(=O)(=O)[O-])ccc5F)c5nc(c(-c6cc(S(=O)(=O)[O-])ccc6F)c6ccc3[nH]6)C=C5)C=C4)cc1)[C@H](C(F)(F)F)O2
REMARK SMILES IDX 15 1 14 2 13 3 11 4 12 5 10 6 3 7 4 8 8 9 5 10 7 11 6 12
REMARK SMILES IDX 9 13 87 14 82 15 2 16 1 17 83 18 84 19 85 20 86 21 16 22
REMARK SMILES IDX 17 23 18 24 19 25 20 26 81 27 21 28 80 29 22 30 23 31 24 32
REMARK SMILES IDX 74 33 25 34 79 35 73 36 75 37 26 38 78 39 72 40 71 41 27 43
REMARK SMILES IDX 59 44 39 45 58 46 40 47 43 48 57 49 76 50 41 51 42 52 56 54
REMARK SMILES IDX 77 55 44 56 28 57 29 58 37 59 30 60 36 61 38 62 35 63 31 64
REMARK SMILES IDX 32 65 33 66 34 67 60 68 61 69 69 70 62 71 68 72 70 73 67 74
REMARK SMILES IDX 63 75 64 76 65 77 66 78 45 79 46 80 54 81 47 82 53 83 55 84
REMARK SMILES IDX 52 85 48 86 49 87 50 88 51 89
REMARK H PARENT 75 42 43 53
REMARK Flexibility Score: inf
ROOT
ATOM      1  C   UNL A   1      36.482  20.346  25.291  1.00  0.00     0.275 C 
ENDROOT
BRANCH   1   2
ATOM      2  C   UNL A   1      35.045  20.791  24.999  1.00  0.00     0.275 C 
BRANCH   2   3
ATOM      3  O   UNL A   1      34.836  22.185  25.310  1.00  0.00    -0.459 OA
BRANCH   3   4
ATOM      4  C   UNL A   1      33.542  22.607  25.292  1.00  0.00     0.338 C 
ATOM      5  O   UNL A   1      32.584  21.928  25.604  1.00  0.00    -0.246 OA
BRANCH   4   6
ATOM      6  C   UNL A   1      33.426  24.020  24.858  1.00  0.00     0.087 C 
ATOM      7  C   UNL A   1      33.535  28.794  25.645  1.00  0.00     0.119 A 
ATOM      8  C   UNL A   1      33.329  29.011  24.281  1.00  0.00     0.050 A 
ATOM      9  C   UNL A   1      33.655  27.483  26.126  1.00  0.00     0.058 A 
ATOM     10  C   UNL A   1      33.279  27.928  23.403  1.00  0.00     0.051 A 
ATOM     11  C   UNL A   1      33.571  26.391  25.256  1.00  0.00     0.021 A 
ATOM     12  C   UNL A   1      33.409  26.630  23.891  1.00  0.00     0.128 A 
ATOM     13  C   UNL A   1      33.696  25.012  25.725  1.00  0.00     0.027 C 
ATOM     14  O   UNL A   1      33.456  25.629  22.966  1.00  0.00    -0.475 OA
ATOM     15  C   UNL A   1      33.002  24.326  23.426  1.00  0.00     0.316 C 
BRANCH   7  16
ATOM     16  O   UNL A   1      33.689  29.772  26.590  1.00  0.00    -0.497 OA
ATOM     17  C   UNL A   1      32.556  30.595  26.846  1.00  0.00     0.278 C 
ENDBRANCH   7  16
BRANCH  15  18
ATOM     18  C   UNL A   1      33.348  23.310  22.320  1.00  0.00     0.430 C 
ATOM     19  F   UNL A   1      33.175  23.825  21.082  1.00  0.00    -0.167 F 
ATOM     20  F   UNL A   1      34.660  22.965  22.393  1.00  0.00    -0.167 F 
ATOM     21  F   UNL A   1      32.632  22.169  22.425  1.00  0.00    -0.167 F 
ENDBRANCH  15  18
ENDBRANCH   4   6
ENDBRANCH   3   4
ENDBRANCH   2   3
ENDBRANCH   1   2
BRANCH   1  22
ATOM     22  O   UNL A   1      37.312  21.452  25.690  1.00  0.00    -0.458 OA
BRANCH  22  23
ATOM     23  C   UNL A   1      38.605  21.127  25.938  1.00  0.00     0.338 C 
ATOM     24  O   UNL A   1      39.143  20.058  25.693  1.00  0.00    -0.246 OA
BRANCH  23  25
ATOM     25  C   UNL A   1      39.357  22.323  26.363  1.00  0.00     0.060 A 
ATOM     26  C   UNL A   1      38.958  23.540  25.806  1.00  0.00     0.016 A 
ATOM     27  C   UNL A   1      40.428  22.283  27.259  1.00  0.00     0.016 A 
ATOM     28  C   UNL A   1      39.560  24.733  26.200  1.00  0.00     0.010 A 
ATOM     29  C   UNL A   1      41.075  23.477  27.612  1.00  0.00     0.010 A 
ATOM     30  C   UNL A   1      40.633  24.711  27.100  1.00  0.00    -0.014 A 
BRANCH  30  31
ATOM     31  C   UNL A   1      41.350  25.977  27.393  1.00  0.00     0.031 A 
ATOM     32  C   UNL A   1      40.670  27.022  28.230  1.00  0.00     0.074 A 
ATOM     33  C   UNL A   1      42.618  26.167  26.981  1.00  0.00     0.049 A 
ATOM     34  N   UNL A   1      41.099  28.202  28.599  1.00  0.00    -0.248 NA
ATOM     35  C   UNL A   1      39.329  26.681  28.728  1.00  0.00     0.031 C 
ATOM     36  C   UNL A   1      43.421  25.188  26.250  1.00  0.00     0.029 A 
ATOM     37  N   UNL A   1      43.455  27.246  27.128  1.00  0.00    -0.354 N 
ATOM     38  C   UNL A   1      40.087  28.743  29.384  1.00  0.00     0.074 A 
ATOM     39  C   UNL A   1      39.011  27.772  29.409  1.00  0.00     0.031 C 
ATOM     40  C   UNL A   1      44.632  25.719  26.001  1.00  0.00     0.029 A 
ATOM     41  C   UNL A   1      44.678  27.087  26.516  1.00  0.00     0.049 A 
ATOM     42  H   UNL A   1      43.204  28.058  27.626  1.00  0.00     0.167 HD
ATOM     43  C   UNL A   1      40.058  29.937  30.026  1.00  0.00     0.034 A 
ATOM     44  C   UNL A   1      45.700  27.955  26.365  1.00  0.00     0.034 A 
ATOM     45  C   UNL A   1      41.119  30.914  29.958  1.00  0.00     0.049 A 
ATOM     46  C   UNL A   1      45.579  29.342  26.959  1.00  0.00     0.074 A 
ATOM     47  C   UNL A   1      41.174  32.167  30.543  1.00  0.00     0.029 A 
ATOM     48  N   UNL A   1      42.302  30.761  29.245  1.00  0.00    -0.354 N 
ATOM     49  N   UNL A   1      44.609  29.855  27.681  1.00  0.00    -0.248 NA
ATOM     50  C   UNL A   1      46.696  30.267  26.719  1.00  0.00     0.031 C 
ATOM     51  C   UNL A   1      42.346  32.801  30.117  1.00  0.00     0.029 A 
ATOM     52  C   UNL A   1      43.073  31.910  29.343  1.00  0.00     0.049 A 
ATOM     53  H   UNL A   1      42.556  29.952  28.742  1.00  0.00     0.167 HD
ATOM     54  C   UNL A   1      45.019  31.145  28.013  1.00  0.00     0.074 A 
ATOM     55  C   UNL A   1      46.328  31.328  27.421  1.00  0.00     0.031 C 
ATOM     56  C   UNL A   1      44.376  32.091  28.745  1.00  0.00     0.034 A 
BRANCH  43  57
ATOM     57  C   UNL A   1      38.804  30.274  30.793  1.00  0.00     0.023 A 
ATOM     58  C   UNL A   1      37.736  30.969  30.197  1.00  0.00     0.031 A 
ATOM     59  C   UNL A   1      38.690  29.931  32.152  1.00  0.00     0.131 A 
ATOM     60  C   UNL A   1      36.638  31.365  30.977  1.00  0.00     0.055 A 
ATOM     61  C   UNL A   1      37.557  30.254  32.900  1.00  0.00     0.041 A 
ATOM     62  F   UNL A   1      39.688  29.292  32.782  1.00  0.00    -0.206 F 
ATOM     63  C   UNL A   1      36.530  30.989  32.317  1.00  0.00     0.022 A 
BRANCH  60  64
ATOM     64  S   UNL A   1      35.433  32.513  30.256  1.00  0.00     0.124 S 
ATOM     65  O   UNL A   1      36.242  33.714  30.072  1.00  0.00    -0.237 OA
ATOM     66  O   UNL A   1      35.028  31.822  29.037  1.00  0.00    -0.237 OA
ATOM     67  O   UNL A   1      34.402  32.618  31.286  1.00  0.00    -0.744 OA
ENDBRANCH  60  64
ENDBRANCH  43  57
BRANCH  44  68
ATOM     68  C   UNL A   1      46.908  27.583  25.568  1.00  0.00     0.023 A 
ATOM     69  C   UNL A   1      47.046  27.970  24.225  1.00  0.00     0.031 A 
ATOM     70  C   UNL A   1      47.900  26.749  26.115  1.00  0.00     0.131 A 
ATOM     71  C   UNL A   1      48.120  27.480  23.461  1.00  0.00     0.055 A 
ATOM     72  C   UNL A   1      49.000  26.319  25.371  1.00  0.00     0.041 A 
ATOM     73  F   UNL A   1      47.811  26.333  27.389  1.00  0.00    -0.206 F 
ATOM     74  C   UNL A   1      49.105  26.671  24.030  1.00  0.00     0.022 A 
BRANCH  71  75
ATOM     75  S   UNL A   1      48.150  27.823  21.679  1.00  0.00     0.124 S 
ATOM     76  O   UNL A   1      46.860  28.473  21.481  1.00  0.00    -0.237 OA
ATOM     77  O   UNL A   1      49.325  28.677  21.551  1.00  0.00    -0.237 OA
ATOM     78  O   UNL A   1      48.278  26.496  21.079  1.00  0.00    -0.744 OA
ENDBRANCH  71  75
ENDBRANCH  44  68
BRANCH  56  79
ATOM     79  C   UNL A   1      45.105  33.393  28.997  1.00  0.00     0.023 A 
ATOM     80  C   UNL A   1      44.889  34.536  28.209  1.00  0.00     0.031 A 
ATOM     81  C   UNL A   1      46.040  33.485  30.046  1.00  0.00     0.131 A 
ATOM     82  C   UNL A   1      45.637  35.701  28.443  1.00  0.00     0.055 A 
ATOM     83  C   UNL A   1      46.730  34.667  30.318  1.00  0.00     0.041 A 
ATOM     84  F   UNL A   1      46.294  32.425  30.831  1.00  0.00    -0.206 F 
ATOM     85  C   UNL A   1      46.540  35.781  29.505  1.00  0.00     0.022 A 
BRANCH  82  86
ATOM     86  S   UNL A   1      45.490  37.084  27.277  1.00  0.00     0.124 S 
ATOM     87  O   UNL A   1      46.465  36.724  26.254  1.00  0.00    -0.237 OA
ATOM     88  O   UNL A   1      44.089  37.009  26.877  1.00  0.00    -0.237 OA
ATOM     89  O   UNL A   1      45.841  38.252  28.084  1.00  0.00    -0.744 OA
ENDBRANCH  82  86
ENDBRANCH  56  79
ENDBRANCH  30  31
ENDBRANCH  23  25
ENDBRANCH  22  23
ENDBRANCH   1  22
TORSDOF 16
ENDMDL
MODEL 3
REMARK VINA RESULT:     -10.2      4.186     12.074
REMARK SMILES COc1ccc2c(c1)C=C(C(=O)OCCOC(=O)c1ccc(-c3c4nc(c(-c5cc(S(=O)(=O)[O-])ccc5F)c5ccc([nH]5)c(-c5cc(S(=O)(=O)[O-])ccc5F)c5nc(c(-c6cc(S(=O)(=O)[O-])ccc6F)c6ccc3[nH]6)C=C5)C=C4)cc1)[C@H](C(F)(F)F)O2
REMARK SMILES IDX 15 1 14 2 13 3 11 4 12 5 10 6 3 7 4 8 8 9 5 10 7 11 6 12
REMARK SMILES IDX 9 13 87 14 82 15 2 16 1 17 83 18 84 19 85 20 86 21 16 22
REMARK SMILES IDX 17 23 18 24 19 25 20 26 81 27 21 28 80 29 22 30 23 31 24 32
REMARK SMILES IDX 74 33 25 34 79 35 73 36 75 37 26 38 78 39 72 40 71 41 27 43
REMARK SMILES IDX 59 44 39 45 58 46 40 47 43 48 57 49 76 50 41 51 42 52 56 54
REMARK SMILES IDX 77 55 44 56 28 57 29 58 37 59 30 60 36 61 38 62 35 63 31 64
REMARK SMILES IDX 32 65 33 66 34 67 60 68 61 69 69 70 62 71 68 72 70 73 67 74
REMARK SMILES IDX 63 75 64 76 65 77 66 78 45 79 46 80 54 81 47 82 53 83 55 84
REMARK SMILES IDX 52 85 48 86 49 87 50 88 51 89
REMARK H PARENT 75 42 43 53
REMARK Flexibility Score: inf
ROOT
ATOM      1  C   UNL A   1      33.755  33.683  28.157  1.00  0.00     0.275 C 
ENDROOT
BRANCH   1   2
ATOM      2  C   UNL A   1      34.531  34.680  29.024  1.00  0.00     0.275 C 
BRANCH   2   3
ATOM      3  O   UNL A   1      34.241  34.517  30.428  1.00  0.00    -0.459 OA
BRANCH   3   4
ATOM      4  C   UNL A   1      34.745  33.396  31.011  1.00  0.00     0.338 C 
ATOM      5  O   UNL A   1      34.161  32.333  31.095  1.00  0.00    -0.246 OA
BRANCH   4   6
ATOM      6  C   UNL A   1      36.117  33.609  31.530  1.00  0.00     0.087 C 
ATOM      7  C   UNL A   1      40.887  34.218  30.980  1.00  0.00     0.119 A 
ATOM      8  C   UNL A   1      41.008  34.411  32.358  1.00  0.00     0.050 A 
ATOM      9  C   UNL A   1      39.618  34.011  30.420  1.00  0.00     0.058 A 
ATOM     10  C   UNL A   1      39.868  34.433  33.162  1.00  0.00     0.051 A 
ATOM     11  C   UNL A   1      38.475  33.997  31.225  1.00  0.00     0.021 A 
ATOM     12  C   UNL A   1      38.612  34.235  32.593  1.00  0.00     0.128 A 
ATOM     13  C   UNL A   1      37.137  33.787  30.672  1.00  0.00     0.027 C 
ATOM     14  O   UNL A   1      37.536  34.374  33.420  1.00  0.00    -0.475 OA
ATOM     15  C   UNL A   1      36.349  33.625  33.036  1.00  0.00     0.316 C 
BRANCH   7  16
ATOM     16  O   UNL A   1      41.915  34.263  30.079  1.00  0.00    -0.497 OA
ATOM     17  C   UNL A   1      41.884  35.323  29.128  1.00  0.00     0.278 C 
ENDBRANCH   7  16
BRANCH  15  18
ATOM     18  C   UNL A   1      35.203  34.094  33.955  1.00  0.00     0.430 C 
ATOM     19  F   UNL A   1      35.616  34.283  35.229  1.00  0.00    -0.167 F 
ATOM     20  F   UNL A   1      34.732  35.299  33.541  1.00  0.00    -0.167 F 
ATOM     21  F   UNL A   1      34.158  33.239  33.954  1.00  0.00    -0.167 F 
ENDBRANCH  15  18
ENDBRANCH   4   6
ENDBRANCH   3   4
ENDBRANCH   2   3
ENDBRANCH   1   2
BRANCH   1  22
ATOM     22  O   UNL A   1      34.636  32.788  27.455  1.00  0.00    -0.458 OA
BRANCH  22  23
ATOM     23  C   UNL A   1      34.456  31.475  27.743  1.00  0.00     0.338 C 
ATOM     24  O   UNL A   1      33.449  30.818  27.527  1.00  0.00    -0.246 OA
BRANCH  23  25
ATOM     25  C   UNL A   1      35.731  30.870  28.173  1.00  0.00     0.060 A 
ATOM     26  C   UNL A   1      35.653  29.891  29.166  1.00  0.00     0.016 A 
ATOM     27  C   UNL A   1      36.973  31.237  27.651  1.00  0.00     0.016 A 
ATOM     28  C   UNL A   1      36.795  29.211  29.585  1.00  0.00     0.010 A 
ATOM     29  C   UNL A   1      38.132  30.594  28.114  1.00  0.00     0.010 A 
ATOM     30  C   UNL A   1      38.047  29.565  29.069  1.00  0.00    -0.014 A 
BRANCH  30  31
ATOM     31  C   UNL A   1      39.263  28.927  29.636  1.00  0.00     0.031 A 
ATOM     32  C   UNL A   1      39.834  29.460  30.918  1.00  0.00     0.074 A 
ATOM     33  C   UNL A   1      39.810  27.843  29.056  1.00  0.00     0.049 A 
ATOM     34  N   UNL A   1      40.890  29.070  31.584  1.00  0.00    -0.248 NA
ATOM     35  C   UNL A   1      39.104  30.576  31.538  1.00  0.00     0.031 C 
ATOM     36  C   UNL A   1      39.290  27.171  27.865  1.00  0.00     0.029 A 
ATOM     37  N   UNL A   1      40.921  27.111  29.396  1.00  0.00    -0.354 N 
ATOM     38  C   UNL A   1      40.947  29.882  32.711  1.00  0.00     0.074 A 
ATOM     39  C   UNL A   1      39.836  30.808  32.617  1.00  0.00     0.031 C 
ATOM     40  C   UNL A   1      40.091  26.132  27.569  1.00  0.00     0.029 A 
ATOM     41  C   UNL A   1      41.202  26.088  28.518  1.00  0.00     0.049 A 
ATOM     42  H   UNL A   1      41.467  27.299  30.194  1.00  0.00     0.167 HD
ATOM     43  C   UNL A   1      41.843  29.858  33.729  1.00  0.00     0.034 A 
ATOM     44  C   UNL A   1      42.249  25.238  28.471  1.00  0.00     0.034 A 
ATOM     45  C   UNL A   1      42.971  28.960  33.788  1.00  0.00     0.049 A 
ATOM     46  C   UNL A   1      43.321  25.334  29.535  1.00  0.00     0.074 A 
ATOM     47  C   UNL A   1      43.955  28.876  34.759  1.00  0.00     0.029 A 
ATOM     48  N   UNL A   1      43.282  28.003  32.830  1.00  0.00    -0.354 N 
ATOM     49  N   UNL A   1      43.381  26.121  30.585  1.00  0.00    -0.248 NA
ATOM     50  C   UNL A   1      44.467  24.422  29.408  1.00  0.00     0.031 C 
ATOM     51  C   UNL A   1      44.901  27.932  34.346  1.00  0.00     0.029 A 
ATOM     52  C   UNL A   1      44.461  27.354  33.166  1.00  0.00     0.049 A 
ATOM     53  H   UNL A   1      42.742  27.812  32.028  1.00  0.00     0.167 HD
ATOM     54  C   UNL A   1      44.548  25.769  31.261  1.00  0.00     0.074 A 
ATOM     55  C   UNL A   1      45.155  24.693  30.507  1.00  0.00     0.031 C 
ATOM     56  C   UNL A   1      45.068  26.285  32.405  1.00  0.00     0.034 A 
BRANCH  43  57
ATOM     57  C   UNL A   1      41.672  30.888  34.818  1.00  0.00     0.023 A 
ATOM     58  C   UNL A   1      40.529  30.915  35.638  1.00  0.00     0.031 A 
ATOM     59  C   UNL A   1      42.647  31.882  35.013  1.00  0.00     0.131 A 
ATOM     60  C   UNL A   1      40.356  31.959  36.560  1.00  0.00     0.055 A 
ATOM     61  C   UNL A   1      42.507  32.868  35.991  1.00  0.00     0.041 A 
ATOM     62  F   UNL A   1      43.745  31.923  34.243  1.00  0.00    -0.206 F 
ATOM     63  C   UNL A   1      41.349  32.920  36.761  1.00  0.00     0.022 A 
BRANCH  60  64
ATOM     64  S   UNL A   1      38.747  32.133  37.378  1.00  0.00     0.124 S 
ATOM     65  O   UNL A   1      38.218  33.335  36.739  1.00  0.00    -0.237 OA
ATOM     66  O   UNL A   1      38.081  30.881  37.037  1.00  0.00    -0.237 OA
ATOM     67  O   UNL A   1      39.095  32.290  38.789  1.00  0.00    -0.744 OA
ENDBRANCH  60  64
ENDBRANCH  43  57
BRANCH  44  68
ATOM     68  C   UNL A   1      42.389  24.256  27.352  1.00  0.00     0.023 A 
ATOM     69  C   UNL A   1      41.779  22.992  27.408  1.00  0.00     0.031 A 
ATOM     70  C   UNL A   1      43.217  24.537  26.251  1.00  0.00     0.131 A 
ATOM     71  C   UNL A   1      42.051  22.039  26.411  1.00  0.00     0.055 A 
ATOM     72  C   UNL A   1      43.432  23.610  25.230  1.00  0.00     0.041 A 
ATOM     73  F   UNL A   1      43.840  25.723  26.153  1.00  0.00    -0.206 F 
ATOM     74  C   UNL A   1      42.860  22.345  25.316  1.00  0.00     0.022 A 
BRANCH  71  75
ATOM     75  S   UNL A   1      41.422  20.349  26.627  1.00  0.00     0.124 S 
ATOM     76  O   UNL A   1      42.114  19.930  27.840  1.00  0.00    -0.237 OA
ATOM     77  O   UNL A   1      39.986  20.571  26.751  1.00  0.00    -0.237 OA
ATOM     78  O   UNL A   1      41.843  19.671  25.402  1.00  0.00    -0.744 OA
ENDBRANCH  71  75
ENDBRANCH  44  68
BRANCH  56  79
ATOM     79  C   UNL A   1      46.332  25.651  32.944  1.00  0.00     0.023 A 
ATOM     80  C   UNL A   1      46.303  24.587  33.862  1.00  0.00     0.031 A 
ATOM     81  C   UNL A   1      47.591  26.127  32.531  1.00  0.00     0.131 A 
ATOM     82  C   UNL A   1      47.503  24.075  34.381  1.00  0.00     0.055 A 
ATOM     83  C   UNL A   1      48.781  25.568  32.998  1.00  0.00     0.041 A 
ATOM     84  F   UNL A   1      47.685  27.145  31.659  1.00  0.00    -0.206 F 
ATOM     85  C   UNL A   1      48.742  24.544  33.939  1.00  0.00     0.022 A 
BRANCH  82  86
ATOM     86  S   UNL A   1      47.425  22.853  35.721  1.00  0.00     0.124 S 
ATOM     87  O   UNL A   1      48.189  21.742  35.163  1.00  0.00    -0.237 OA
ATOM     88  O   UNL A   1      48.051  23.564  36.830  1.00  0.00    -0.237 OA
ATOM     89  O   UNL A   1      45.992  22.604  35.876  1.00  0.00    -0.744 OA
ENDBRANCH  82  86
ENDBRANCH  56  79
ENDBRANCH  30  31
ENDBRANCH  23  25
ENDBRANCH  22  23
ENDBRANCH   1  22
TORSDOF 16
ENDMDL
