MODEL 1
REMARK VINA RESULT:     -10.2      0.000      0.000
REMARK SMILES C[C@H](NC(=O)CCn1ccccc1=O)C(=O)OCCOC(=O)c1ccc(-c2c3nc(c(-c4cc(S(=O)(=O)[O-])ccc4F)c4ccc([nH]4)c(-c4cc(S(=O)(=O)[O-])ccc4F)c4nc(c(-c5cc(S(=O)(=O)[O-])ccc5F)c5ccc2[nH]5)C=C4)C=C3)cc1
REMARK SMILES IDX 18 1 17 2 15 3 16 4 2 5 1 6 3 7 4 8 5 10 6 11 7 12 8 13 9 14
REMARK SMILES IDX 13 15 10 16 12 17 14 18 11 19 19 20 20 21 21 22 22 23 23 24
REMARK SMILES IDX 24 25 85 26 25 27 84 28 26 29 27 30 28 31 78 32 29 33 83 34
REMARK SMILES IDX 77 35 79 36 30 37 82 38 76 39 75 40 31 42 63 43 43 44 62 45
REMARK SMILES IDX 44 46 47 47 61 48 80 49 45 50 46 51 60 53 81 54 48 55 32 56
REMARK SMILES IDX 33 57 41 58 34 59 40 60 42 61 39 62 35 63 36 64 37 65 38 66
REMARK SMILES IDX 64 67 65 68 73 69 66 70 72 71 74 72 71 73 67 74 68 75 69 76
REMARK SMILES IDX 70 77 49 78 50 79 58 80 51 81 57 82 59 83 56 84 52 85 53 86
REMARK SMILES IDX 54 87 55 88
REMARK H PARENT 3 9 79 41 47 52
REMARK Flexibility Score: inf
ROOT
ATOM      1  C   UNL A   1      33.142  34.723  28.792  1.00  0.00     0.274 C 
ENDROOT
BRANCH   1   2
ATOM      2  O   UNL A   1      32.504  35.061  30.039  1.00  0.00    -0.461 OA
BRANCH   2   3
ATOM      3  C   UNL A   1      32.834  36.285  30.534  1.00  0.00     0.328 C 
ATOM      4  O   UNL A   1      33.233  37.223  29.851  1.00  0.00    -0.250 OA
BRANCH   3   5
ATOM      5  C   UNL A   1      32.752  36.354  32.057  1.00  0.00     0.189 C 
ATOM      6  C   UNL A   1      33.622  37.484  32.601  1.00  0.00     0.043 C 
BRANCH   5   7
ATOM      7  N   UNL A   1      32.962  35.156  32.849  1.00  0.00    -0.343 N 
ATOM      8  C   UNL A   1      34.020  34.295  32.726  1.00  0.00     0.222 C 
ATOM      9  H   UNL A   1      32.286  34.943  33.532  1.00  0.00     0.164 HD
ATOM     10  O   UNL A   1      33.812  33.091  32.891  1.00  0.00    -0.275 OA
BRANCH   8  11
ATOM     11  C   UNL A   1      35.436  34.820  32.518  1.00  0.00     0.122 C 
BRANCH  11  12
ATOM     12  C   UNL A   1      36.515  33.879  31.952  1.00  0.00     0.135 C 
BRANCH  12  13
ATOM     13  N   UNL A   1      37.909  34.231  32.273  1.00  0.00    -0.315 N 
ATOM     14  C   UNL A   1      38.276  34.442  33.598  1.00  0.00     0.089 A 
ATOM     15  C   UNL A   1      38.842  34.362  31.231  1.00  0.00     0.250 A 
ATOM     16  C   UNL A   1      39.559  34.605  33.945  1.00  0.00     0.018 A 
ATOM     17  C   UNL A   1      40.268  34.448  31.646  1.00  0.00     0.072 A 
ATOM     18  O   UNL A   1      38.567  34.338  30.037  1.00  0.00    -0.269 OA
ATOM     19  C   UNL A   1      40.590  34.543  32.942  1.00  0.00     0.007 A 
ENDBRANCH  12  13
ENDBRANCH  11  12
ENDBRANCH   8  11
ENDBRANCH   5   7
ENDBRANCH   3   5
ENDBRANCH   2   3
ENDBRANCH   1   2
BRANCH   1  20
ATOM     20  C   UNL A   1      34.264  33.695  28.957  1.00  0.00     0.275 C 
BRANCH  20  21
ATOM     21  O   UNL A   1      34.582  33.026  27.726  1.00  0.00    -0.458 OA
BRANCH  21  22
ATOM     22  C   UNL A   1      34.378  31.682  27.725  1.00  0.00     0.338 C 
ATOM     23  O   UNL A   1      33.395  31.101  27.307  1.00  0.00    -0.246 OA
BRANCH  22  24
ATOM     24  C   UNL A   1      35.606  31.005  28.197  1.00  0.00     0.060 A 
ATOM     25  C   UNL A   1      36.871  31.433  27.785  1.00  0.00     0.016 A 
ATOM     26  C   UNL A   1      35.476  29.943  29.098  1.00  0.00     0.016 A 
ATOM     27  C   UNL A   1      38.010  30.797  28.286  1.00  0.00     0.010 A 
ATOM     28  C   UNL A   1      36.615  29.308  29.596  1.00  0.00     0.010 A 
ATOM     29  C   UNL A   1      37.890  29.735  29.199  1.00  0.00    -0.014 A 
BRANCH  29  30
ATOM     30  C   UNL A   1      39.103  29.146  29.817  1.00  0.00     0.031 A 
ATOM     31  C   UNL A   1      39.811  27.985  29.192  1.00  0.00     0.074 A 
ATOM     32  C   UNL A   1      39.548  29.661  30.979  1.00  0.00     0.049 A 
ATOM     33  N   UNL A   1      40.947  27.438  29.540  1.00  0.00    -0.248 NA
ATOM     34  C   UNL A   1      39.168  27.353  28.032  1.00  0.00     0.031 C 
ATOM     35  C   UNL A   1      38.901  30.753  31.705  1.00  0.00     0.029 A 
ATOM     36  N   UNL A   1      40.633  29.337  31.754  1.00  0.00    -0.354 N 
ATOM     37  C   UNL A   1      41.165  26.406  28.635  1.00  0.00     0.074 A 
ATOM     38  C   UNL A   1      40.022  26.377  27.749  1.00  0.00     0.031 C 
ATOM     39  C   UNL A   1      39.605  31.017  32.815  1.00  0.00     0.029 A 
ATOM     40  C   UNL A   1      40.744  30.102  32.891  1.00  0.00     0.049 A 
ATOM     41  H   UNL A   1      41.272  28.627  31.518  1.00  0.00     0.167 HD
ATOM     42  C   UNL A   1      42.234  25.578  28.550  1.00  0.00     0.034 A 
ATOM     43  C   UNL A   1      41.658  30.077  33.884  1.00  0.00     0.034 A 
ATOM     44  C   UNL A   1      43.356  25.619  29.453  1.00  0.00     0.049 A 
ATOM     45  C   UNL A   1      42.826  29.131  33.781  1.00  0.00     0.074 A 
ATOM     46  C   UNL A   1      44.536  24.899  29.379  1.00  0.00     0.029 A 
ATOM     47  N   UNL A   1      43.432  26.392  30.604  1.00  0.00    -0.354 N 
ATOM     48  N   UNL A   1      43.112  28.281  32.823  1.00  0.00    -0.248 NA
ATOM     49  C   UNL A   1      43.806  29.147  34.876  1.00  0.00     0.031 C 
ATOM     50  C   UNL A   1      45.288  25.178  30.520  1.00  0.00     0.029 A 
ATOM     51  C   UNL A   1      44.615  26.126  31.275  1.00  0.00     0.049 A 
ATOM     52  H   UNL A   1      42.746  27.033  30.900  1.00  0.00     0.167 HD
ATOM     53  C   UNL A   1      44.312  27.676  33.187  1.00  0.00     0.074 A 
ATOM     54  C   UNL A   1      44.708  28.271  34.447  1.00  0.00     0.031 C 
ATOM     55  C   UNL A   1      45.014  26.719  32.532  1.00  0.00     0.034 A 
BRANCH  42  56
ATOM     56  C   UNL A   1      42.283  24.568  27.431  1.00  0.00     0.023 A 
ATOM     57  C   UNL A   1      41.613  23.337  27.557  1.00  0.00     0.031 A 
ATOM     58  C   UNL A   1      43.112  24.763  26.312  1.00  0.00     0.131 A 
ATOM     59  C   UNL A   1      41.807  22.337  26.596  1.00  0.00     0.055 A 
ATOM     60  C   UNL A   1      43.277  23.776  25.340  1.00  0.00     0.041 A 
ATOM     61  F   UNL A   1      43.780  25.918  26.152  1.00  0.00    -0.206 F 
ATOM     62  C   UNL A   1      42.631  22.552  25.486  1.00  0.00     0.022 A 
BRANCH  59  63
ATOM     63  S   UNL A   1      41.054  20.697  26.775  1.00  0.00     0.124 S 
ATOM     64  O   UNL A   1      42.081  19.833  26.196  1.00  0.00    -0.237 OA
ATOM     65  O   UNL A   1      40.895  20.589  28.223  1.00  0.00    -0.237 OA
ATOM     66  O   UNL A   1      39.817  20.790  26.010  1.00  0.00    -0.744 OA
ENDBRANCH  59  63
ENDBRANCH  42  56
BRANCH  43  67
ATOM     67  C   UNL A   1      41.518  31.053  35.003  1.00  0.00     0.023 A 
ATOM     68  C   UNL A   1      40.384  31.038  35.836  1.00  0.00     0.031 A 
ATOM     69  C   UNL A   1      42.439  32.102  35.154  1.00  0.00     0.131 A 
ATOM     70  C   UNL A   1      40.161  32.097  36.725  1.00  0.00     0.055 A 
ATOM     71  C   UNL A   1      42.246  33.120  36.089  1.00  0.00     0.041 A 
ATOM     72  F   UNL A   1      43.527  32.164  34.372  1.00  0.00    -0.206 F 
ATOM     73  C   UNL A   1      41.092  33.130  36.867  1.00  0.00     0.022 A 
BRANCH  70  74
ATOM     74  S   UNL A   1      38.593  32.242  37.628  1.00  0.00     0.124 S 
ATOM     75  O   UNL A   1      38.077  33.518  37.143  1.00  0.00    -0.237 OA
ATOM     76  O   UNL A   1      37.876  31.055  37.168  1.00  0.00    -0.237 OA
ATOM     77  O   UNL A   1      38.999  32.220  39.030  1.00  0.00    -0.744 OA
ENDBRANCH  70  74
ENDBRANCH  43  67
BRANCH  55  78
ATOM     78  C   UNL A   1      46.298  26.208  33.142  1.00  0.00     0.023 A 
ATOM     79  C   UNL A   1      47.537  26.723  32.713  1.00  0.00     0.031 A 
ATOM     80  C   UNL A   1      46.301  25.095  34.000  1.00  0.00     0.131 A 
ATOM     81  C   UNL A   1      48.726  26.088  33.095  1.00  0.00     0.055 A 
ATOM     82  C   UNL A   1      47.491  24.496  34.417  1.00  0.00     0.041 A 
ATOM     83  F   UNL A   1      45.146  24.563  34.432  1.00  0.00    -0.206 F 
ATOM     84  C   UNL A   1      48.709  24.981  33.950  1.00  0.00     0.022 A 
BRANCH  81  85
ATOM     85  S   UNL A   1      50.327  26.616  32.425  1.00  0.00     0.124 S 
ATOM     86  O   UNL A   1      50.867  25.363  31.903  1.00  0.00    -0.237 OA
ATOM     87  O   UNL A   1      49.932  27.593  31.415  1.00  0.00    -0.237 OA
ATOM     88  O   UNL A   1      51.031  27.158  33.583  1.00  0.00    -0.744 OA
ENDBRANCH  81  85
ENDBRANCH  55  78
ENDBRANCH  29  30
ENDBRANCH  22  24
ENDBRANCH  21  22
ENDBRANCH  20  21
ENDBRANCH   1  20
TORSDOF 18
ENDMDL
MODEL 2
REMARK VINA RESULT:     -10.2      4.380     11.075
REMARK SMILES C[C@H](NC(=O)CCn1ccccc1=O)C(=O)OCCOC(=O)c1ccc(-c2c3nc(c(-c4cc(S(=O)(=O)[O-])ccc4F)c4ccc([nH]4)c(-c4cc(S(=O)(=O)[O-])ccc4F)c4nc(c(-c5cc(S(=O)(=O)[O-])ccc5F)c5ccc2[nH]5)C=C4)C=C3)cc1
REMARK SMILES IDX 18 1 17 2 15 3 16 4 2 5 1 6 3 7 4 8 5 10 6 11 7 12 8 13 9 14
REMARK SMILES IDX 13 15 10 16 12 17 14 18 11 19 19 20 20 21 21 22 22 23 23 24
REMARK SMILES IDX 24 25 85 26 25 27 84 28 26 29 27 30 28 31 78 32 29 33 83 34
REMARK SMILES IDX 77 35 79 36 30 37 82 38 76 39 75 40 31 42 63 43 43 44 62 45
REMARK SMILES IDX 44 46 47 47 61 48 80 49 45 50 46 51 60 53 81 54 48 55 32 56
REMARK SMILES IDX 33 57 41 58 34 59 40 60 42 61 39 62 35 63 36 64 37 65 38 66
REMARK SMILES IDX 64 67 65 68 73 69 66 70 72 71 74 72 71 73 67 74 68 75 69 76
REMARK SMILES IDX 70 77 49 78 50 79 58 80 51 81 57 82 59 83 56 84 52 85 53 86
REMARK SMILES IDX 54 87 55 88
REMARK H PARENT 3 9 79 41 47 52
REMARK Flexibility Score: inf
ROOT
ATOM      1  C   UNL A   1      41.946  20.245  26.156  1.00  0.00     0.274 C 
ENDROOT
BRANCH   1   2
ATOM      2  O   UNL A   1      42.571  19.552  25.058  1.00  0.00    -0.461 OA
BRANCH   2   3
ATOM      3  C   UNL A   1      43.653  18.802  25.401  1.00  0.00     0.328 C 
ATOM      4  O   UNL A   1      43.688  18.031  26.355  1.00  0.00    -0.250 OA
BRANCH   3   5
ATOM      5  C   UNL A   1      44.875  19.085  24.528  1.00  0.00     0.189 C 
ATOM      6  C   UNL A   1      46.164  18.961  25.335  1.00  0.00     0.043 C 
BRANCH   5   7
ATOM      7  N   UNL A   1      44.923  20.290  23.720  1.00  0.00    -0.343 N 
ATOM      8  C   UNL A   1      44.780  21.569  24.186  1.00  0.00     0.222 C 
ATOM      9  H   UNL A   1      45.071  20.177  22.753  1.00  0.00     0.164 HD
ATOM     10  O   UNL A   1      44.190  22.385  23.474  1.00  0.00    -0.275 OA
BRANCH   8  11
ATOM     11  C   UNL A   1      45.440  22.005  25.489  1.00  0.00     0.122 C 
BRANCH  11  12
ATOM     12  C   UNL A   1      45.188  23.427  26.023  1.00  0.00     0.135 C 
BRANCH  12  13
ATOM     13  N   UNL A   1      44.539  23.513  27.344  1.00  0.00    -0.315 N 
ATOM     14  C   UNL A   1      43.206  23.142  27.478  1.00  0.00     0.089 A 
ATOM     15  C   UNL A   1      45.278  23.982  28.443  1.00  0.00     0.250 A 
ATOM     16  C   UNL A   1      42.629  23.053  28.683  1.00  0.00     0.018 A 
ATOM     17  C   UNL A   1      44.648  23.785  29.776  1.00  0.00     0.072 A 
ATOM     18  O   UNL A   1      46.403  24.463  28.378  1.00  0.00    -0.269 OA
ATOM     19  C   UNL A   1      43.395  23.324  29.871  1.00  0.00     0.007 A 
ENDBRANCH  12  13
ENDBRANCH  11  12
ENDBRANCH   8  11
ENDBRANCH   5   7
ENDBRANCH   3   5
ENDBRANCH   2   3
ENDBRANCH   1   2
BRANCH   1  20
ATOM     20  C   UNL A   1      40.492  20.628  25.870  1.00  0.00     0.275 C 
BRANCH  20  21
ATOM     21  O   UNL A   1      39.951  21.511  26.865  1.00  0.00    -0.458 OA
BRANCH  21  22
ATOM     22  C   UNL A   1      39.016  22.390  26.416  1.00  0.00     0.338 C 
ATOM     23  O   UNL A   1      37.989  22.114  25.826  1.00  0.00    -0.246 OA
BRANCH  22  24
ATOM     24  C   UNL A   1      39.374  23.752  26.870  1.00  0.00     0.060 A 
ATOM     25  C   UNL A   1      39.278  24.113  28.217  1.00  0.00     0.016 A 
ATOM     26  C   UNL A   1      39.846  24.667  25.923  1.00  0.00     0.016 A 
ATOM     27  C   UNL A   1      39.666  25.395  28.615  1.00  0.00     0.010 A 
ATOM     28  C   UNL A   1      40.231  25.948  26.323  1.00  0.00     0.010 A 
ATOM     29  C   UNL A   1      40.151  26.318  27.673  1.00  0.00    -0.014 A 
BRANCH  29  30
ATOM     30  C   UNL A   1      40.672  27.633  28.121  1.00  0.00     0.031 A 
ATOM     31  C   UNL A   1      42.130  27.964  28.033  1.00  0.00     0.074 A 
ATOM     32  C   UNL A   1      39.807  28.525  28.640  1.00  0.00     0.049 A 
ATOM     33  N   UNL A   1      42.723  29.107  28.267  1.00  0.00    -0.248 NA
ATOM     34  C   UNL A   1      43.041  26.882  27.636  1.00  0.00     0.031 C 
ATOM     35  C   UNL A   1      38.378  28.284  28.825  1.00  0.00     0.029 A 
ATOM     36  N   UNL A   1      39.999  29.801  29.108  1.00  0.00    -0.354 N 
ATOM     37  C   UNL A   1      44.074  28.888  28.032  1.00  0.00     0.074 A 
ATOM     38  C   UNL A   1      44.218  27.492  27.679  1.00  0.00     0.031 C 
ATOM     39  C   UNL A   1      37.817  29.378  29.361  1.00  0.00     0.029 A 
ATOM     40  C   UNL A   1      38.849  30.393  29.574  1.00  0.00     0.049 A 
ATOM     41  H   UNL A   1      40.875  30.249  29.112  1.00  0.00     0.167 HD
ATOM     42  C   UNL A   1      45.091  29.782  28.091  1.00  0.00     0.034 A 
ATOM     43  C   UNL A   1      38.641  31.614  30.107  1.00  0.00     0.034 A 
ATOM     44  C   UNL A   1      44.923  31.166  28.458  1.00  0.00     0.049 A 
ATOM     45  C   UNL A   1      39.791  32.585  30.186  1.00  0.00     0.074 A 
ATOM     46  C   UNL A   1      45.871  32.174  28.436  1.00  0.00     0.029 A 
ATOM     47  N   UNL A   1      43.750  31.732  28.939  1.00  0.00    -0.354 N 
ATOM     48  N   UNL A   1      41.031  32.421  29.792  1.00  0.00    -0.248 NA
ATOM     49  C   UNL A   1      39.517  33.910  30.759  1.00  0.00     0.031 C 
ATOM     50  C   UNL A   1      45.296  33.325  28.973  1.00  0.00     0.029 A 
ATOM     51  C   UNL A   1      43.966  33.061  29.267  1.00  0.00     0.049 A 
ATOM     52  H   UNL A   1      42.893  31.259  29.035  1.00  0.00     0.167 HD
ATOM     53  C   UNL A   1      41.682  33.625  30.051  1.00  0.00     0.074 A 
ATOM     54  C   UNL A   1      40.691  34.515  30.620  1.00  0.00     0.031 C 
ATOM     55  C   UNL A   1      42.980  33.953  29.833  1.00  0.00     0.034 A 
BRANCH  42  56
ATOM     56  C   UNL A   1      46.480  29.327  27.724  1.00  0.00     0.023 A 
ATOM     57  C   UNL A   1      46.739  28.797  26.447  1.00  0.00     0.031 A 
ATOM     58  C   UNL A   1      47.506  29.278  28.686  1.00  0.00     0.131 A 
ATOM     59  C   UNL A   1      47.983  28.215  26.174  1.00  0.00     0.055 A 
ATOM     60  C   UNL A   1      48.755  28.726  28.399  1.00  0.00     0.041 A 
ATOM     61  F   UNL A   1      47.305  29.762  29.922  1.00  0.00    -0.206 F 
ATOM     62  C   UNL A   1      48.993  28.180  27.141  1.00  0.00     0.022 A 
BRANCH  59  63
ATOM     63  S   UNL A   1      48.323  27.419  24.579  1.00  0.00     0.124 S 
ATOM     64  O   UNL A   1      47.065  27.632  23.866  1.00  0.00    -0.237 OA
ATOM     65  O   UNL A   1      49.457  28.196  24.085  1.00  0.00    -0.237 OA
ATOM     66  O   UNL A   1      48.612  26.034  24.930  1.00  0.00    -0.744 OA
ENDBRANCH  59  63
ENDBRANCH  42  56
BRANCH  43  67
ATOM     67  C   UNL A   1      37.256  31.984  30.519  1.00  0.00     0.023 A 
ATOM     68  C   UNL A   1      36.354  32.544  29.594  1.00  0.00     0.031 A 
ATOM     69  C   UNL A   1      36.872  31.925  31.868  1.00  0.00     0.131 A 
ATOM     70  C   UNL A   1      35.148  33.095  30.046  1.00  0.00     0.055 A 
ATOM     71  C   UNL A   1      35.640  32.415  32.304  1.00  0.00     0.041 A 
ATOM     72  F   UNL A   1      37.705  31.412  32.786  1.00  0.00    -0.206 F 
ATOM     73  C   UNL A   1      34.779  33.021  31.393  1.00  0.00     0.022 A 
BRANCH  70  74
ATOM     74  S   UNL A   1      34.080  34.046  28.929  1.00  0.00     0.124 S 
ATOM     75  O   UNL A   1      35.011  35.026  28.375  1.00  0.00    -0.237 OA
ATOM     76  O   UNL A   1      33.628  33.011  28.002  1.00  0.00    -0.237 OA
ATOM     77  O   UNL A   1      33.050  34.585  29.811  1.00  0.00    -0.744 OA
ENDBRANCH  70  74
ENDBRANCH  43  67
BRANCH  55  78
ATOM     78  C   UNL A   1      43.458  35.335  30.213  1.00  0.00     0.023 A 
ATOM     79  C   UNL A   1      43.679  35.657  31.566  1.00  0.00     0.031 A 
ATOM     80  C   UNL A   1      43.512  36.370  29.265  1.00  0.00     0.131 A 
ATOM     81  C   UNL A   1      43.884  36.991  31.941  1.00  0.00     0.055 A 
ATOM     82  C   UNL A   1      43.766  37.691  29.638  1.00  0.00     0.041 A 
ATOM     83  F   UNL A   1      43.303  36.115  27.963  1.00  0.00    -0.206 F 
ATOM     84  C   UNL A   1      43.935  38.009  30.982  1.00  0.00     0.022 A 
BRANCH  81  85
ATOM     85  S   UNL A   1      44.000  37.467  33.688  1.00  0.00     0.124 S 
ATOM     86  O   UNL A   1      44.400  36.213  34.319  1.00  0.00    -0.237 OA
ATOM     87  O   UNL A   1      45.026  38.505  33.657  1.00  0.00    -0.237 OA
ATOM     88  O   UNL A   1      42.653  37.925  34.017  1.00  0.00    -0.744 OA
ENDBRANCH  81  85
ENDBRANCH  55  78
ENDBRANCH  29  30
ENDBRANCH  22  24
ENDBRANCH  21  22
ENDBRANCH  20  21
ENDBRANCH   1  20
TORSDOF 18
ENDMDL
MODEL 3
REMARK VINA RESULT:     -10.1      2.308      8.034
REMARK SMILES C[C@H](NC(=O)CCn1ccccc1=O)C(=O)OCCOC(=O)c1ccc(-c2c3nc(c(-c4cc(S(=O)(=O)[O-])ccc4F)c4ccc([nH]4)c(-c4cc(S(=O)(=O)[O-])ccc4F)c4nc(c(-c5cc(S(=O)(=O)[O-])ccc5F)c5ccc2[nH]5)C=C4)C=C3)cc1
REMARK SMILES IDX 18 1 17 2 15 3 16 4 2 5 1 6 3 7 4 8 5 10 6 11 7 12 8 13 9 14
REMARK SMILES IDX 13 15 10 16 12 17 14 18 11 19 19 20 20 21 21 22 22 23 23 24
REMARK SMILES IDX 24 25 85 26 25 27 84 28 26 29 27 30 28 31 78 32 29 33 83 34
REMARK SMILES IDX 77 35 79 36 30 37 82 38 76 39 75 40 31 42 63 43 43 44 62 45
REMARK SMILES IDX 44 46 47 47 61 48 80 49 45 50 46 51 60 53 81 54 48 55 32 56
REMARK SMILES IDX 33 57 41 58 34 59 40 60 42 61 39 62 35 63 36 64 37 65 38 66
REMARK SMILES IDX 64 67 65 68 73 69 66 70 72 71 74 72 71 73 67 74 68 75 69 76
REMARK SMILES IDX 70 77 49 78 50 79 58 80 51 81 57 82 59 83 56 84 52 85 53 86
REMARK SMILES IDX 54 87 55 88
REMARK H PARENT 3 9 79 41 47 52
REMARK Flexibility Score: inf
ROOT
ATOM      1  C   UNL A   1      33.520  34.282  28.714  1.00  0.00     0.274 C 
ENDROOT
BRANCH   1   2
ATOM      2  O   UNL A   1      32.859  34.689  29.928  1.00  0.00    -0.461 OA
BRANCH   2   3
ATOM      3  C   UNL A   1      32.872  36.030  30.160  1.00  0.00     0.328 C 
ATOM      4  O   UNL A   1      33.159  36.876  29.319  1.00  0.00    -0.250 OA
BRANCH   3   5
ATOM      5  C   UNL A   1      32.583  36.385  31.618  1.00  0.00     0.189 C 
ATOM      6  C   UNL A   1      33.411  37.588  32.062  1.00  0.00     0.043 C 
BRANCH   5   7
ATOM      7  N   UNL A   1      32.638  35.355  32.639  1.00  0.00    -0.343 N 
ATOM      8  C   UNL A   1      33.675  34.481  32.834  1.00  0.00     0.222 C 
ATOM      9  H   UNL A   1      31.864  35.277  33.242  1.00  0.00     0.164 HD
ATOM     10  O   UNL A   1      33.406  33.330  33.186  1.00  0.00    -0.275 OA
BRANCH   8  11
ATOM     11  C   UNL A   1      35.122  34.952  32.745  1.00  0.00     0.122 C 
BRANCH  11  12
ATOM     12  C   UNL A   1      36.191  34.001  32.176  1.00  0.00     0.135 C 
BRANCH  12  13
ATOM     13  N   UNL A   1      37.115  33.409  33.160  1.00  0.00    -0.315 N 
ATOM     14  C   UNL A   1      38.082  34.208  33.759  1.00  0.00     0.089 A 
ATOM     15  C   UNL A   1      37.010  32.042  33.465  1.00  0.00     0.250 A 
ATOM     16  C   UNL A   1      38.831  33.750  34.770  1.00  0.00     0.018 A 
ATOM     17  C   UNL A   1      37.783  31.582  34.650  1.00  0.00     0.072 A 
ATOM     18  O   UNL A   1      36.288  31.245  32.876  1.00  0.00    -0.269 OA
ATOM     19  C   UNL A   1      38.629  32.415  35.269  1.00  0.00     0.007 A 
ENDBRANCH  12  13
ENDBRANCH  11  12
ENDBRANCH   8  11
ENDBRANCH   5   7
ENDBRANCH   3   5
ENDBRANCH   2   3
ENDBRANCH   1   2
BRANCH   1  20
ATOM     20  C   UNL A   1      34.470  33.100  28.921  1.00  0.00     0.275 C 
BRANCH  20  21
ATOM     21  O   UNL A   1      34.843  32.472  27.684  1.00  0.00    -0.458 OA
BRANCH  21  22
ATOM     22  C   UNL A   1      34.651  31.127  27.633  1.00  0.00     0.338 C 
ATOM     23  O   UNL A   1      33.673  30.554  27.192  1.00  0.00    -0.246 OA
BRANCH  22  24
ATOM     24  C   UNL A   1      35.883  30.444  28.082  1.00  0.00     0.060 A 
ATOM     25  C   UNL A   1      37.050  30.478  27.314  1.00  0.00     0.016 A 
ATOM     26  C   UNL A   1      35.867  29.786  29.317  1.00  0.00     0.016 A 
ATOM     27  C   UNL A   1      38.207  29.857  27.791  1.00  0.00     0.010 A 
ATOM     28  C   UNL A   1      37.024  29.165  29.792  1.00  0.00     0.010 A 
ATOM     29  C   UNL A   1      38.204  29.203  29.035  1.00  0.00    -0.014 A 
BRANCH  29  30
ATOM     30  C   UNL A   1      39.465  28.652  29.588  1.00  0.00     0.031 A 
ATOM     31  C   UNL A   1      40.110  29.247  30.801  1.00  0.00     0.074 A 
ATOM     32  C   UNL A   1      40.044  27.611  28.959  1.00  0.00     0.049 A 
ATOM     33  N   UNL A   1      41.141  28.808  31.476  1.00  0.00    -0.248 NA
ATOM     34  C   UNL A   1      39.532  30.493  31.325  1.00  0.00     0.031 C 
ATOM     35  C   UNL A   1      39.532  26.993  27.737  1.00  0.00     0.029 A 
ATOM     36  N   UNL A   1      41.180  26.899  29.249  1.00  0.00    -0.354 N 
ATOM     37  C   UNL A   1      41.329  29.712  32.514  1.00  0.00     0.074 A 
ATOM     38  C   UNL A   1      40.331  30.748  32.354  1.00  0.00     0.031 C 
ATOM     39  C   UNL A   1      40.346  25.987  27.385  1.00  0.00     0.029 A 
ATOM     40  C   UNL A   1      41.447  25.899  28.344  1.00  0.00     0.049 A 
ATOM     41  H   UNL A   1      41.749  27.085  30.029  1.00  0.00     0.167 HD
ATOM     42  C   UNL A   1      42.242  29.663  33.514  1.00  0.00     0.034 A 
ATOM     43  C   UNL A   1      42.457  25.007  28.290  1.00  0.00     0.034 A 
ATOM     44  C   UNL A   1      43.234  28.626  33.646  1.00  0.00     0.049 A 
ATOM     45  C   UNL A   1      43.476  24.985  29.400  1.00  0.00     0.074 A 
ATOM     46  C   UNL A   1      44.126  28.428  34.685  1.00  0.00     0.029 A 
ATOM     47  N   UNL A   1      43.490  27.637  32.706  1.00  0.00    -0.354 N 
ATOM     48  N   UNL A   1      43.536  25.737  30.473  1.00  0.00    -0.248 NA
ATOM     49  C   UNL A   1      44.551  23.987  29.310  1.00  0.00     0.031 C 
ATOM     50  C   UNL A   1      44.968  27.370  34.340  1.00  0.00     0.029 A 
ATOM     51  C   UNL A   1      44.560  26.859  33.117  1.00  0.00     0.049 A 
ATOM     52  H   UNL A   1      42.986  27.508  31.870  1.00  0.00     0.167 HD
ATOM     53  C   UNL A   1      44.641  25.294  31.195  1.00  0.00     0.074 A 
ATOM     54  C   UNL A   1      45.210  24.194  30.444  1.00  0.00     0.031 C 
ATOM     55  C   UNL A   1      45.130  25.759  32.372  1.00  0.00     0.034 A 
BRANCH  42  56
ATOM     56  C   UNL A   1      42.211  30.731  34.578  1.00  0.00     0.023 A 
ATOM     57  C   UNL A   1      42.928  31.929  34.401  1.00  0.00     0.031 A 
ATOM     58  C   UNL A   1      41.600  30.499  35.823  1.00  0.00     0.131 A 
ATOM     59  C   UNL A   1      43.040  32.836  35.462  1.00  0.00     0.055 A 
ATOM     60  C   UNL A   1      41.688  31.420  36.867  1.00  0.00     0.041 A 
ATOM     61  F   UNL A   1      40.913  29.366  36.045  1.00  0.00    -0.206 F 
ATOM     62  C   UNL A   1      42.420  32.591  36.692  1.00  0.00     0.022 A 
BRANCH  59  63
ATOM     63  S   UNL A   1      44.046  34.339  35.316  1.00  0.00     0.124 S 
ATOM     64  O   UNL A   1      45.302  33.806  34.792  1.00  0.00    -0.237 OA
ATOM     65  O   UNL A   1      43.268  35.138  34.373  1.00  0.00    -0.237 OA
ATOM     66  O   UNL A   1      44.110  34.855  36.678  1.00  0.00    -0.744 OA
ENDBRANCH  59  63
ENDBRANCH  42  56
BRANCH  43  67
ATOM     67  C   UNL A   1      42.474  24.019  27.173  1.00  0.00     0.023 A 
ATOM     68  C   UNL A   1      41.852  22.763  27.310  1.00  0.00     0.031 A 
ATOM     69  C   UNL A   1      43.240  24.257  26.021  1.00  0.00     0.131 A 
ATOM     70  C   UNL A   1      42.075  21.769  26.350  1.00  0.00     0.055 A 
ATOM     71  C   UNL A   1      43.404  23.284  25.032  1.00  0.00     0.041 A 
ATOM     72  F   UNL A   1      43.863  25.433  25.853  1.00  0.00    -0.206 F 
ATOM     73  C   UNL A   1      42.835  22.026  25.204  1.00  0.00     0.022 A 
BRANCH  70  74
ATOM     74  S   UNL A   1      41.500  20.068  26.618  1.00  0.00     0.124 S 
ATOM     75  O   UNL A   1      40.062  20.254  26.787  1.00  0.00    -0.237 OA
ATOM     76  O   UNL A   1      41.910  19.419  25.374  1.00  0.00    -0.237 OA
ATOM     77  O   UNL A   1      42.225  19.643  27.811  1.00  0.00    -0.744 OA
ENDBRANCH  70  74
ENDBRANCH  43  67
BRANCH  55  78
ATOM     78  C   UNL A   1      46.363  25.113  32.958  1.00  0.00     0.023 A 
ATOM     79  C   UNL A   1      46.234  24.093  33.921  1.00  0.00     0.031 A 
ATOM     80  C   UNL A   1      47.644  25.630  32.703  1.00  0.00     0.131 A 
ATOM     81  C   UNL A   1      47.359  23.665  34.638  1.00  0.00     0.055 A 
ATOM     82  C   UNL A   1      48.770  25.165  33.386  1.00  0.00     0.041 A 
ATOM     83  F   UNL A   1      47.818  26.606  31.798  1.00  0.00    -0.206 F 
ATOM     84  C   UNL A   1      48.627  24.191  34.370  1.00  0.00     0.022 A 
BRANCH  81  85
ATOM     85  S   UNL A   1      47.206  22.480  36.004  1.00  0.00     0.124 S 
ATOM     86  O   UNL A   1      48.349  22.832  36.841  1.00  0.00    -0.237 OA
ATOM     87  O   UNL A   1      45.898  22.817  36.559  1.00  0.00    -0.237 OA
ATOM     88  O   UNL A   1      47.294  21.177  35.351  1.00  0.00    -0.744 OA
ENDBRANCH  81  85
ENDBRANCH  55  78
ENDBRANCH  29  30
ENDBRANCH  22  24
ENDBRANCH  21  22
ENDBRANCH  20  21
ENDBRANCH   1  20
TORSDOF 18
ENDMDL
