MODEL 1
REMARK VINA RESULT:     -11.2      0.000      0.000
REMARK SMILES CCC[NH2+][C@]1(C(=O)OCCOC(=O)c2ccc(-c3c4nc(c(-c5cc(S(=O)(=O)[O-])ccc5F)c5ccc([nH]5)c(-c5cc(S(=O)(=O)[O-])ccc5F)c5nc(c(-c6cc(S(=O)(=O)[O-])ccc6F)c6ccc3[nH]6)C=C5)C=C4)cc2)CCC[C@H]([N@@H+]2CCOC(C)(C)C2)C1
REMARK SMILES IDX 9 1 8 2 6 3 7 4 5 5 77 6 89 7 78 8 80 9 79 10 4 11 3 14 2 15
REMARK SMILES IDX 1 16 81 17 82 18 88 19 83 21 85 22 84 23 86 24 87 25 10 26
REMARK SMILES IDX 11 27 12 28 13 29 14 30 15 31 76 32 16 33 75 34 17 35 18 36
REMARK SMILES IDX 19 37 69 38 20 39 74 40 68 41 70 42 21 43 73 44 67 45 66 46
REMARK SMILES IDX 22 48 54 49 34 50 53 51 35 52 38 53 52 54 71 55 36 56 37 57
REMARK SMILES IDX 51 59 72 60 39 61 23 62 24 63 32 64 25 65 31 66 33 67 30 68
REMARK SMILES IDX 26 69 27 70 28 71 29 72 55 73 56 74 64 75 57 76 63 77 65 78
REMARK SMILES IDX 62 79 58 80 59 81 60 82 61 83 40 84 41 85 49 86 42 87 48 88
REMARK SMILES IDX 50 89 47 90 43 91 44 92 45 93 46 94
REMARK H PARENT 4 12 4 13 81 20 70 47 38 58
REMARK Flexibility Score: inf
ROOT
ATOM      1  C   UNL A   1      32.969  28.116  24.049  1.00  0.00     0.274 C 
ENDROOT
BRANCH   1   2
ATOM      2  O   UNL A   1      32.839  26.795  24.614  1.00  0.00    -0.457 OA
BRANCH   2   3
ATOM      3  C   UNL A   1      32.715  25.728  23.767  1.00  0.00     0.368 C 
ATOM      4  O   UNL A   1      32.398  25.819  22.587  1.00  0.00    -0.245 OA
BRANCH   3   5
ATOM      5  C   UNL A   1      33.141  24.400  24.478  1.00  0.00     0.200 C 
ATOM      6  C   UNL A   1      33.844  24.716  25.818  1.00  0.00     0.081 C 
ATOM      7  C   UNL A   1      31.903  23.509  24.759  1.00  0.00     0.146 C 
ATOM      8  C   UNL A   1      34.102  23.522  26.726  1.00  0.00     0.013 C 
ATOM      9  C   UNL A   1      32.168  22.227  25.617  1.00  0.00     0.191 C 
ATOM     10  C   UNL A   1      32.865  22.650  26.924  1.00  0.00     0.065 C 
BRANCH   5  11
ATOM     11  N   UNL A   1      33.903  23.598  23.527  1.00  0.00    -0.332 N 
ATOM     12  H   UNL A   1      33.683  22.622  23.725  1.00  0.00     0.347 HD
ATOM     13  H   UNL A   1      33.615  23.979  22.626  1.00  0.00     0.347 HD
BRANCH  11  14
ATOM     14  C   UNL A   1      35.339  23.694  23.472  1.00  0.00     0.261 C 
BRANCH  14  15
ATOM     15  C   UNL A   1      35.918  22.300  23.754  1.00  0.00     0.058 C 
ATOM     16  C   UNL A   1      37.146  22.301  24.669  1.00  0.00     0.010 C 
ENDBRANCH  14  15
ENDBRANCH  11  14
ENDBRANCH   5  11
BRANCH   9  17
ATOM     17  N   UNL A   1      32.722  21.031  24.896  1.00  0.00    -0.328 N 
ATOM     18  C   UNL A   1      32.023  20.839  23.598  1.00  0.00     0.291 C 
ATOM     19  C   UNL A   1      32.631  19.731  25.615  1.00  0.00     0.297 C 
ATOM     20  H   UNL A   1      33.712  21.256  24.796  1.00  0.00     0.348 HD
ATOM     21  C   UNL A   1      32.459  19.582  22.822  1.00  0.00     0.222 C 
ATOM     22  C   UNL A   1      33.110  18.478  24.817  1.00  0.00     0.112 C 
ATOM     23  O   UNL A   1      32.332  18.390  23.606  1.00  0.00    -0.364 OA
ATOM     24  C   UNL A   1      34.604  18.458  24.469  1.00  0.00     0.048 C 
ATOM     25  C   UNL A   1      32.805  17.221  25.650  1.00  0.00     0.048 C 
ENDBRANCH   9  17
ENDBRANCH   3   5
ENDBRANCH   2   3
ENDBRANCH   1   2
BRANCH   1  26
ATOM     26  C   UNL A   1      32.074  29.070  24.849  1.00  0.00     0.275 C 
BRANCH  26  27
ATOM     27  O   UNL A   1      32.522  29.066  26.217  1.00  0.00    -0.458 OA
BRANCH  27  28
ATOM     28  C   UNL A   1      32.815  30.268  26.783  1.00  0.00     0.338 C 
ATOM     29  O   UNL A   1      32.016  31.153  27.029  1.00  0.00    -0.246 OA
BRANCH  28  30
ATOM     30  C   UNL A   1      34.268  30.309  27.135  1.00  0.00     0.060 A 
ATOM     31  C   UNL A   1      35.042  29.157  27.086  1.00  0.00     0.016 A 
ATOM     32  C   UNL A   1      34.864  31.474  27.627  1.00  0.00     0.016 A 
ATOM     33  C   UNL A   1      36.312  29.139  27.669  1.00  0.00     0.010 A 
ATOM     34  C   UNL A   1      36.187  31.455  28.132  1.00  0.00     0.010 A 
ATOM     35  C   UNL A   1      36.924  30.260  28.251  1.00  0.00    -0.014 A 
BRANCH  35  36
ATOM     36  C   UNL A   1      38.211  30.158  29.071  1.00  0.00     0.031 A 
ATOM     37  C   UNL A   1      39.402  29.356  28.550  1.00  0.00     0.074 A 
ATOM     38  C   UNL A   1      38.453  30.839  30.221  1.00  0.00     0.049 A 
ATOM     39  N   UNL A   1      40.385  28.795  29.217  1.00  0.00    -0.248 NA
ATOM     40  C   UNL A   1      39.493  29.150  27.096  1.00  0.00     0.031 C 
ATOM     41  C   UNL A   1      37.565  31.797  30.877  1.00  0.00     0.029 A 
ATOM     42  N   UNL A   1      39.571  30.853  31.040  1.00  0.00    -0.354 N 
ATOM     43  C   UNL A   1      41.123  28.063  28.287  1.00  0.00     0.074 A 
ATOM     44  C   UNL A   1      40.497  28.287  27.000  1.00  0.00     0.031 C 
ATOM     45  C   UNL A   1      38.211  32.404  31.881  1.00  0.00     0.029 A 
ATOM     46  C   UNL A   1      39.463  31.704  32.120  1.00  0.00     0.049 A 
ATOM     47  H   UNL A   1      40.370  30.304  30.867  1.00  0.00     0.167 HD
ATOM     48  C   UNL A   1      42.204  27.265  28.493  1.00  0.00     0.034 A 
ATOM     49  C   UNL A   1      40.187  31.845  33.251  1.00  0.00     0.034 A 
ATOM     50  C   UNL A   1      42.922  27.174  29.746  1.00  0.00     0.049 A 
ATOM     51  C   UNL A   1      41.328  30.901  33.519  1.00  0.00     0.074 A 
ATOM     52  C   UNL A   1      44.009  26.373  30.067  1.00  0.00     0.029 A 
ATOM     53  N   UNL A   1      42.668  27.950  30.866  1.00  0.00    -0.354 N 
ATOM     54  N   UNL A   1      41.828  29.970  32.743  1.00  0.00    -0.248 NA
ATOM     55  C   UNL A   1      41.958  30.986  34.845  1.00  0.00     0.031 C 
ATOM     56  C   UNL A   1      44.381  26.634  31.392  1.00  0.00     0.029 A 
ATOM     57  C   UNL A   1      43.569  27.642  31.878  1.00  0.00     0.049 A 
ATOM     58  H   UNL A   1      41.953  28.622  30.935  1.00  0.00     0.167 HD
ATOM     59  C   UNL A   1      42.821  29.349  33.496  1.00  0.00     0.074 A 
ATOM     60  C   UNL A   1      42.874  30.033  34.771  1.00  0.00     0.031 C 
ATOM     61  C   UNL A   1      43.607  28.296  33.161  1.00  0.00     0.034 A 
BRANCH  48  62
ATOM     62  C   UNL A   1      42.630  26.341  27.372  1.00  0.00     0.023 A 
ATOM     63  C   UNL A   1      42.151  25.030  27.225  1.00  0.00     0.031 A 
ATOM     64  C   UNL A   1      43.544  26.819  26.409  1.00  0.00     0.131 A 
ATOM     65  C   UNL A   1      42.628  24.228  26.172  1.00  0.00     0.055 A 
ATOM     66  C   UNL A   1      43.954  26.044  25.325  1.00  0.00     0.041 A 
ATOM     67  F   UNL A   1      44.051  28.058  26.506  1.00  0.00    -0.206 F 
ATOM     68  C   UNL A   1      43.503  24.734  25.208  1.00  0.00     0.022 A 
BRANCH  65  69
ATOM     69  S   UNL A   1      42.186  22.468  26.145  1.00  0.00     0.124 S 
ATOM     70  O   UNL A   1      42.666  22.062  24.826  1.00  0.00    -0.237 OA
ATOM     71  O   UNL A   1      42.925  21.941  27.286  1.00  0.00    -0.237 OA
ATOM     72  O   UNL A   1      40.731  22.477  26.293  1.00  0.00    -0.744 OA
ENDBRANCH  65  69
ENDBRANCH  48  62
BRANCH  49  73
ATOM     73  C   UNL A   1      39.741  32.794  34.320  1.00  0.00     0.023 A 
ATOM     74  C   UNL A   1      38.981  32.361  35.418  1.00  0.00     0.031 A 
ATOM     75  C   UNL A   1      40.037  34.169  34.228  1.00  0.00     0.131 A 
ATOM     76  C   UNL A   1      38.538  33.296  36.371  1.00  0.00     0.055 A 
ATOM     77  C   UNL A   1      39.660  35.078  35.214  1.00  0.00     0.041 A 
ATOM     78  F   UNL A   1      40.732  34.646  33.182  1.00  0.00    -0.206 F 
ATOM     79  C   UNL A   1      38.897  34.643  36.290  1.00  0.00     0.022 A 
BRANCH  76  80
ATOM     80  S   UNL A   1      37.409  32.745  37.681  1.00  0.00     0.124 S 
ATOM     81  O   UNL A   1      36.144  33.324  37.242  1.00  0.00    -0.237 OA
ATOM     82  O   UNL A   1      37.519  31.294  37.589  1.00  0.00    -0.237 OA
ATOM     83  O   UNL A   1      37.979  33.336  38.890  1.00  0.00    -0.744 OA
ENDBRANCH  76  80
ENDBRANCH  49  73
BRANCH  61  84
ATOM     84  C   UNL A   1      44.613  27.843  34.189  1.00  0.00     0.023 A 
ATOM     85  C   UNL A   1      44.292  26.863  35.146  1.00  0.00     0.031 A 
ATOM     86  C   UNL A   1      45.887  28.432  34.245  1.00  0.00     0.131 A 
ATOM     87  C   UNL A   1      45.217  26.540  36.152  1.00  0.00     0.055 A 
ATOM     88  C   UNL A   1      46.821  28.071  35.217  1.00  0.00     0.041 A 
ATOM     89  F   UNL A   1      46.241  29.376  33.359  1.00  0.00    -0.206 F 
ATOM     90  C   UNL A   1      46.483  27.130  36.186  1.00  0.00     0.022 A 
BRANCH  87  91
ATOM     91  S   UNL A   1      44.711  25.403  37.472  1.00  0.00     0.124 S 
ATOM     92  O   UNL A   1      45.535  25.849  38.591  1.00  0.00    -0.237 OA
ATOM     93  O   UNL A   1      43.282  25.672  37.586  1.00  0.00    -0.237 OA
ATOM     94  O   UNL A   1      45.052  24.084  36.939  1.00  0.00    -0.744 OA
ENDBRANCH  87  91
ENDBRANCH  61  84
ENDBRANCH  35  36
ENDBRANCH  28  30
ENDBRANCH  27  28
ENDBRANCH  26  27
ENDBRANCH   1  26
TORSDOF 18
ENDMDL
MODEL 2
REMARK VINA RESULT:     -11.2      1.346      2.190
REMARK SMILES CCC[NH2+][C@]1(C(=O)OCCOC(=O)c2ccc(-c3c4nc(c(-c5cc(S(=O)(=O)[O-])ccc5F)c5ccc([nH]5)c(-c5cc(S(=O)(=O)[O-])ccc5F)c5nc(c(-c6cc(S(=O)(=O)[O-])ccc6F)c6ccc3[nH]6)C=C5)C=C4)cc2)CCC[C@H]([N@@H+]2CCOC(C)(C)C2)C1
REMARK SMILES IDX 9 1 8 2 6 3 7 4 5 5 77 6 89 7 78 8 80 9 79 10 4 11 3 14 2 15
REMARK SMILES IDX 1 16 81 17 82 18 88 19 83 21 85 22 84 23 86 24 87 25 10 26
REMARK SMILES IDX 11 27 12 28 13 29 14 30 15 31 76 32 16 33 75 34 17 35 18 36
REMARK SMILES IDX 19 37 69 38 20 39 74 40 68 41 70 42 21 43 73 44 67 45 66 46
REMARK SMILES IDX 22 48 54 49 34 50 53 51 35 52 38 53 52 54 71 55 36 56 37 57
REMARK SMILES IDX 51 59 72 60 39 61 23 62 24 63 32 64 25 65 31 66 33 67 30 68
REMARK SMILES IDX 26 69 27 70 28 71 29 72 55 73 56 74 64 75 57 76 63 77 65 78
REMARK SMILES IDX 62 79 58 80 59 81 60 82 61 83 40 84 41 85 49 86 42 87 48 88
REMARK SMILES IDX 50 89 47 90 43 91 44 92 45 93 46 94
REMARK H PARENT 4 12 4 13 81 20 70 47 38 58
REMARK Flexibility Score: inf
ROOT
ATOM      1  C   UNL A   1      31.593  29.277  23.992  1.00  0.00     0.274 C 
ENDROOT
BRANCH   1   2
ATOM      2  O   UNL A   1      31.947  27.880  24.072  1.00  0.00    -0.457 OA
BRANCH   2   3
ATOM      3  C   UNL A   1      31.252  26.982  23.309  1.00  0.00     0.368 C 
ATOM      4  O   UNL A   1      30.416  27.294  22.471  1.00  0.00    -0.245 OA
BRANCH   3   5
ATOM      5  C   UNL A   1      31.752  25.523  23.574  1.00  0.00     0.200 C 
ATOM      6  C   UNL A   1      30.666  24.505  23.159  1.00  0.00     0.081 C 
ATOM      7  C   UNL A   1      33.045  25.233  22.766  1.00  0.00     0.146 C 
ATOM      8  C   UNL A   1      31.100  23.046  23.140  1.00  0.00     0.013 C 
ATOM      9  C   UNL A   1      33.557  23.755  22.810  1.00  0.00     0.191 C 
ATOM     10  C   UNL A   1      32.406  22.827  22.378  1.00  0.00     0.065 C 
BRANCH   5  11
ATOM     11  N   UNL A   1      32.214  25.442  24.956  1.00  0.00    -0.332 N 
ATOM     12  H   UNL A   1      32.873  24.666  24.999  1.00  0.00     0.347 HD
ATOM     13  H   UNL A   1      32.569  26.382  25.132  1.00  0.00     0.347 HD
BRANCH  11  14
ATOM     14  C   UNL A   1      31.276  25.247  26.032  1.00  0.00     0.261 C 
BRANCH  14  15
ATOM     15  C   UNL A   1      31.761  24.057  26.871  1.00  0.00     0.058 C 
ATOM     16  C   UNL A   1      31.034  22.741  26.578  1.00  0.00     0.010 C 
ENDBRANCH  14  15
ENDBRANCH  11  14
ENDBRANCH   5  11
BRANCH   9  17
ATOM     17  N   UNL A   1      34.357  23.348  24.014  1.00  0.00    -0.328 N 
ATOM     18  C   UNL A   1      35.629  24.114  24.074  1.00  0.00     0.291 C 
ATOM     19  C   UNL A   1      34.730  21.911  24.100  1.00  0.00     0.297 C 
ATOM     20  H   UNL A   1      33.725  23.547  24.791  1.00  0.00     0.348 HD
ATOM     21  C   UNL A   1      36.563  23.705  25.229  1.00  0.00     0.222 C 
ATOM     22  C   UNL A   1      35.650  21.518  25.298  1.00  0.00     0.112 C 
ATOM     23  O   UNL A   1      36.857  22.303  25.217  1.00  0.00    -0.364 OA
ATOM     24  C   UNL A   1      35.021  21.687  26.686  1.00  0.00     0.048 C 
ATOM     25  C   UNL A   1      36.054  20.041  25.142  1.00  0.00     0.048 C 
ENDBRANCH   9  17
ENDBRANCH   3   5
ENDBRANCH   2   3
ENDBRANCH   1   2
BRANCH   1  26
ATOM     26  C   UNL A   1      31.386  29.801  25.418  1.00  0.00     0.275 C 
BRANCH  26  27
ATOM     27  O   UNL A   1      32.644  29.720  26.114  1.00  0.00    -0.458 OA
BRANCH  27  28
ATOM     28  C   UNL A   1      32.962  30.743  26.952  1.00  0.00     0.338 C 
ATOM     29  O   UNL A   1      32.183  31.561  27.407  1.00  0.00    -0.246 OA
BRANCH  28  30
ATOM     30  C   UNL A   1      34.415  30.665  27.301  1.00  0.00     0.060 A 
ATOM     31  C   UNL A   1      35.061  29.438  27.373  1.00  0.00     0.016 A 
ATOM     32  C   UNL A   1      35.136  31.805  27.669  1.00  0.00     0.016 A 
ATOM     33  C   UNL A   1      36.328  29.346  27.957  1.00  0.00     0.010 A 
ATOM     34  C   UNL A   1      36.455  31.696  28.175  1.00  0.00     0.010 A 
ATOM     35  C   UNL A   1      37.061  30.449  28.420  1.00  0.00    -0.014 A 
BRANCH  35  36
ATOM     36  C   UNL A   1      38.338  30.295  29.247  1.00  0.00     0.031 A 
ATOM     37  C   UNL A   1      39.505  29.458  28.728  1.00  0.00     0.074 A 
ATOM     38  C   UNL A   1      38.594  30.957  30.406  1.00  0.00     0.049 A 
ATOM     39  N   UNL A   1      40.463  28.858  29.396  1.00  0.00    -0.248 NA
ATOM     40  C   UNL A   1      39.600  29.263  27.273  1.00  0.00     0.031 C 
ATOM     41  C   UNL A   1      37.734  31.939  31.064  1.00  0.00     0.029 A 
ATOM     42  N   UNL A   1      39.706  30.926  31.233  1.00  0.00    -0.354 N 
ATOM     43  C   UNL A   1      41.183  28.110  28.464  1.00  0.00     0.074 A 
ATOM     44  C   UNL A   1      40.575  28.368  27.175  1.00  0.00     0.031 C 
ATOM     45  C   UNL A   1      38.393  32.514  32.078  1.00  0.00     0.029 A 
ATOM     46  C   UNL A   1      39.618  31.770  32.320  1.00  0.00     0.049 A 
ATOM     47  H   UNL A   1      40.488  30.352  31.060  1.00  0.00     0.167 HD
ATOM     48  C   UNL A   1      42.235  27.274  28.670  1.00  0.00     0.034 A 
ATOM     49  C   UNL A   1      40.339  31.875  33.458  1.00  0.00     0.034 A 
ATOM     50  C   UNL A   1      42.940  27.147  29.928  1.00  0.00     0.049 A 
ATOM     51  C   UNL A   1      41.445  30.891  33.725  1.00  0.00     0.074 A 
ATOM     52  C   UNL A   1      43.997  26.307  30.248  1.00  0.00     0.029 A 
ATOM     53  N   UNL A   1      42.704  27.921  31.053  1.00  0.00    -0.354 N 
ATOM     54  N   UNL A   1      41.919  29.951  32.944  1.00  0.00    -0.248 NA
ATOM     55  C   UNL A   1      42.067  30.942  35.055  1.00  0.00     0.031 C 
ATOM     56  C   UNL A   1      44.367  26.542  31.578  1.00  0.00     0.029 A 
ATOM     57  C   UNL A   1      43.586  27.573  32.068  1.00  0.00     0.049 A 
ATOM     58  H   UNL A   1      42.011  28.616  31.123  1.00  0.00     0.167 HD
ATOM     59  C   UNL A   1      42.885  29.290  33.698  1.00  0.00     0.074 A 
ATOM     60  C   UNL A   1      42.951  29.959  34.979  1.00  0.00     0.031 C 
ATOM     61  C   UNL A   1      43.637  28.214  33.358  1.00  0.00     0.034 A 
BRANCH  48  62
ATOM     62  C   UNL A   1      42.637  26.347  27.544  1.00  0.00     0.023 A 
ATOM     63  C   UNL A   1      42.127  25.049  27.390  1.00  0.00     0.031 A 
ATOM     64  C   UNL A   1      43.561  26.808  26.583  1.00  0.00     0.131 A 
ATOM     65  C   UNL A   1      42.583  24.241  26.332  1.00  0.00     0.055 A 
ATOM     66  C   UNL A   1      43.952  26.029  25.494  1.00  0.00     0.041 A 
ATOM     67  F   UNL A   1      44.098  28.034  26.686  1.00  0.00    -0.206 F 
ATOM     68  C   UNL A   1      43.470  24.731  25.369  1.00  0.00     0.022 A 
BRANCH  65  69
ATOM     69  S   UNL A   1      42.099  22.492  26.295  1.00  0.00     0.124 S 
ATOM     70  O   UNL A   1      42.783  21.971  27.477  1.00  0.00    -0.237 OA
ATOM     71  O   UNL A   1      40.645  22.567  26.378  1.00  0.00    -0.237 OA
ATOM     72  O   UNL A   1      42.628  22.016  25.019  1.00  0.00    -0.744 OA
ENDBRANCH  65  69
ENDBRANCH  48  62
BRANCH  49  73
ATOM     73  C   UNL A   1      39.917  32.829  34.532  1.00  0.00     0.023 A 
ATOM     74  C   UNL A   1      39.099  32.422  35.598  1.00  0.00     0.031 A 
ATOM     75  C   UNL A   1      40.297  34.185  34.477  1.00  0.00     0.131 A 
ATOM     76  C   UNL A   1      38.684  33.363  36.556  1.00  0.00     0.055 A 
ATOM     77  C   UNL A   1      39.944  35.097  35.470  1.00  0.00     0.041 A 
ATOM     78  F   UNL A   1      41.051  34.640  33.462  1.00  0.00    -0.206 F 
ATOM     79  C   UNL A   1      39.124  34.688  36.514  1.00  0.00     0.022 A 
BRANCH  76  80
ATOM     80  S   UNL A   1      37.485  32.857  37.821  1.00  0.00     0.124 S 
ATOM     81  O   UNL A   1      37.993  33.548  39.001  1.00  0.00    -0.237 OA
ATOM     82  O   UNL A   1      36.230  33.359  37.272  1.00  0.00    -0.237 OA
ATOM     83  O   UNL A   1      37.612  31.401  37.847  1.00  0.00    -0.744 OA
ENDBRANCH  76  80
ENDBRANCH  49  73
BRANCH  61  84
ATOM     84  C   UNL A   1      44.619  27.717  34.389  1.00  0.00     0.023 A 
ATOM     85  C   UNL A   1      44.211  26.890  35.452  1.00  0.00     0.031 A 
ATOM     86  C   UNL A   1      45.966  28.114  34.337  1.00  0.00     0.131 A 
ATOM     87  C   UNL A   1      45.132  26.532  36.450  1.00  0.00     0.055 A 
ATOM     88  C   UNL A   1      46.887  27.714  35.306  1.00  0.00     0.041 A 
ATOM     89  F   UNL A   1      46.405  28.908  33.348  1.00  0.00    -0.206 F 
ATOM     90  C   UNL A   1      46.469  26.929  36.377  1.00  0.00     0.022 A 
BRANCH  87  91
ATOM     91  S   UNL A   1      44.536  25.611  37.896  1.00  0.00     0.124 S 
ATOM     92  O   UNL A   1      44.188  26.687  38.819  1.00  0.00    -0.237 OA
ATOM     93  O   UNL A   1      43.416  24.855  37.347  1.00  0.00    -0.237 OA
ATOM     94  O   UNL A   1      45.692  24.807  38.291  1.00  0.00    -0.744 OA
ENDBRANCH  87  91
ENDBRANCH  61  84
ENDBRANCH  35  36
ENDBRANCH  28  30
ENDBRANCH  27  28
ENDBRANCH  26  27
ENDBRANCH   1  26
TORSDOF 18
ENDMDL
MODEL 3
REMARK VINA RESULT:     -11.0      4.759      7.154
REMARK SMILES CCC[NH2+][C@]1(C(=O)OCCOC(=O)c2ccc(-c3c4nc(c(-c5cc(S(=O)(=O)[O-])ccc5F)c5ccc([nH]5)c(-c5cc(S(=O)(=O)[O-])ccc5F)c5nc(c(-c6cc(S(=O)(=O)[O-])ccc6F)c6ccc3[nH]6)C=C5)C=C4)cc2)CCC[C@H]([N@@H+]2CCOC(C)(C)C2)C1
REMARK SMILES IDX 9 1 8 2 6 3 7 4 5 5 77 6 89 7 78 8 80 9 79 10 4 11 3 14 2 15
REMARK SMILES IDX 1 16 81 17 82 18 88 19 83 21 85 22 84 23 86 24 87 25 10 26
REMARK SMILES IDX 11 27 12 28 13 29 14 30 15 31 76 32 16 33 75 34 17 35 18 36
REMARK SMILES IDX 19 37 69 38 20 39 74 40 68 41 70 42 21 43 73 44 67 45 66 46
REMARK SMILES IDX 22 48 54 49 34 50 53 51 35 52 38 53 52 54 71 55 36 56 37 57
REMARK SMILES IDX 51 59 72 60 39 61 23 62 24 63 32 64 25 65 31 66 33 67 30 68
REMARK SMILES IDX 26 69 27 70 28 71 29 72 55 73 56 74 64 75 57 76 63 77 65 78
REMARK SMILES IDX 62 79 58 80 59 81 60 82 61 83 40 84 41 85 49 86 42 87 48 88
REMARK SMILES IDX 50 89 47 90 43 91 44 92 45 93 46 94
REMARK H PARENT 4 12 4 13 81 20 70 47 38 58
REMARK Flexibility Score: inf
ROOT
ATOM      1  C   UNL A   1      35.196  21.411  25.922  1.00  0.00     0.274 C 
ENDROOT
BRANCH   1   2
ATOM      2  O   UNL A   1      34.609  22.469  25.137  1.00  0.00    -0.457 OA
BRANCH   2   3
ATOM      3  C   UNL A   1      33.593  23.205  25.682  1.00  0.00     0.368 C 
ATOM      4  O   UNL A   1      33.132  23.019  26.802  1.00  0.00    -0.245 OA
BRANCH   3   5
ATOM      5  C   UNL A   1      33.183  24.379  24.731  1.00  0.00     0.200 C 
ATOM      6  C   UNL A   1      34.295  24.630  23.687  1.00  0.00     0.081 C 
ATOM      7  C   UNL A   1      31.862  24.045  23.988  1.00  0.00     0.146 C 
ATOM      8  C   UNL A   1      33.934  25.582  22.555  1.00  0.00     0.013 C 
ATOM      9  C   UNL A   1      31.429  25.062  22.880  1.00  0.00     0.191 C 
ATOM     10  C   UNL A   1      32.600  25.239  21.895  1.00  0.00     0.065 C 
BRANCH   5  11
ATOM     11  N   UNL A   1      32.805  25.522  25.555  1.00  0.00    -0.332 N 
ATOM     12  H   UNL A   1      32.154  26.079  25.002  1.00  0.00     0.347 HD
ATOM     13  H   UNL A   1      32.455  25.083  26.407  1.00  0.00     0.347 HD
BRANCH  11  14
ATOM     14  C   UNL A   1      33.806  26.432  26.051  1.00  0.00     0.261 C 
BRANCH  14  15
ATOM     15  C   UNL A   1      33.497  27.827  25.491  1.00  0.00     0.058 C 
ATOM     16  C   UNL A   1      34.087  28.980  26.308  1.00  0.00     0.010 C 
ENDBRANCH  14  15
ENDBRANCH  11  14
ENDBRANCH   5  11
BRANCH   9  17
ATOM     17  N   UNL A   1      30.721  26.305  23.340  1.00  0.00    -0.328 N 
ATOM     18  C   UNL A   1      29.281  26.023  23.575  1.00  0.00     0.291 C 
ATOM     19  C   UNL A   1      30.772  27.469  22.415  1.00  0.00     0.297 C 
ATOM     20  H   UNL A   1      31.229  26.563  24.186  1.00  0.00     0.348 HD
ATOM     21  C   UNL A   1      28.447  27.257  23.965  1.00  0.00     0.222 C 
ATOM     22  C   UNL A   1      29.945  28.719  22.851  1.00  0.00     0.112 C 
ATOM     23  O   UNL A   1      28.569  28.317  23.009  1.00  0.00    -0.364 OA
ATOM     24  C   UNL A   1      30.429  29.407  24.134  1.00  0.00     0.048 C 
ATOM     25  C   UNL A   1      29.991  29.757  21.715  1.00  0.00     0.048 C 
ENDBRANCH   9  17
ENDBRANCH   3   5
ENDBRANCH   2   3
ENDBRANCH   1   2
BRANCH   1  26
ATOM     26  C   UNL A   1      36.151  20.618  25.022  1.00  0.00     0.275 C 
BRANCH  26  27
ATOM     27  O   UNL A   1      37.319  21.425  24.785  1.00  0.00    -0.458 OA
BRANCH  27  28
ATOM     28  C   UNL A   1      38.439  21.128  25.497  1.00  0.00     0.338 C 
ATOM     29  O   UNL A   1      39.019  20.057  25.500  1.00  0.00    -0.246 OA
BRANCH  28  30
ATOM     30  C   UNL A   1      38.905  22.351  26.222  1.00  0.00     0.060 A 
ATOM     31  C   UNL A   1      38.170  23.527  26.172  1.00  0.00     0.016 A 
ATOM     32  C   UNL A   1      40.140  22.380  26.877  1.00  0.00     0.016 A 
ATOM     33  C   UNL A   1      38.735  24.727  26.615  1.00  0.00     0.010 A 
ATOM     34  C   UNL A   1      40.655  23.593  27.398  1.00  0.00     0.010 A 
ATOM     35  C   UNL A   1      40.004  24.826  27.203  1.00  0.00    -0.014 A 
BRANCH  35  36
ATOM     36  C   UNL A   1      40.679  26.172  27.473  1.00  0.00     0.031 A 
ATOM     37  C   UNL A   1      42.010  26.521  26.809  1.00  0.00     0.074 A 
ATOM     38  C   UNL A   1      40.128  27.185  28.191  1.00  0.00     0.049 A 
ATOM     39  N   UNL A   1      42.938  27.367  27.195  1.00  0.00    -0.248 NA
ATOM     40  C   UNL A   1      42.345  25.821  25.559  1.00  0.00     0.031 C 
ATOM     41  C   UNL A   1      38.805  27.201  28.813  1.00  0.00     0.029 A 
ATOM     42  N   UNL A   1      40.618  28.447  28.489  1.00  0.00    -0.354 N 
ATOM     43  C   UNL A   1      44.011  27.199  26.320  1.00  0.00     0.074 A 
ATOM     44  C   UNL A   1      43.601  26.199  25.357  1.00  0.00     0.031 C 
ATOM     45  C   UNL A   1      38.533  28.429  29.273  1.00  0.00     0.029 A 
ATOM     46  C   UNL A   1      39.749  29.225  29.225  1.00  0.00     0.049 A 
ATOM     47  H   UNL A   1      41.507  28.759  28.201  1.00  0.00     0.167 HD
ATOM     48  C   UNL A   1      45.227  27.806  26.336  1.00  0.00     0.034 A 
ATOM     49  C   UNL A   1      39.907  30.380  29.907  1.00  0.00     0.034 A 
ATOM     50  C   UNL A   1      45.573  28.917  27.196  1.00  0.00     0.049 A 
ATOM     51  C   UNL A   1      41.274  31.002  29.997  1.00  0.00     0.074 A 
ATOM     52  C   UNL A   1      46.786  29.582  27.310  1.00  0.00     0.029 A 
ATOM     53  N   UNL A   1      44.691  29.569  28.044  1.00  0.00    -0.354 N 
ATOM     54  N   UNL A   1      42.386  30.639  29.406  1.00  0.00    -0.248 NA
ATOM     55  C   UNL A   1      41.418  32.152  30.902  1.00  0.00     0.031 C 
ATOM     56  C   UNL A   1      46.648  30.603  28.258  1.00  0.00     0.029 A 
ATOM     57  C   UNL A   1      45.334  30.619  28.689  1.00  0.00     0.049 A 
ATOM     58  H   UNL A   1      43.747  29.324  28.172  1.00  0.00     0.167 HD
ATOM     59  C   UNL A   1      43.364  31.509  29.882  1.00  0.00     0.074 A 
ATOM     60  C   UNL A   1      42.706  32.434  30.779  1.00  0.00     0.031 C 
ATOM     61  C   UNL A   1      44.692  31.526  29.608  1.00  0.00     0.034 A 
BRANCH  48  62
ATOM     62  C   UNL A   1      46.322  27.226  25.467  1.00  0.00     0.023 A 
ATOM     63  C   UNL A   1      46.806  27.853  24.308  1.00  0.00     0.031 A 
ATOM     64  C   UNL A   1      46.907  25.998  25.841  1.00  0.00     0.131 A 
ATOM     65  C   UNL A   1      47.803  27.225  23.540  1.00  0.00     0.055 A 
ATOM     66  C   UNL A   1      47.948  25.418  25.117  1.00  0.00     0.041 A 
ATOM     67  F   UNL A   1      46.475  25.341  26.930  1.00  0.00    -0.206 F 
ATOM     68  C   UNL A   1      48.395  26.028  23.950  1.00  0.00     0.022 A 
BRANCH  65  69
ATOM     69  S   UNL A   1      48.236  27.930  21.924  1.00  0.00     0.124 S 
ATOM     70  O   UNL A   1      48.215  26.745  21.069  1.00  0.00    -0.237 OA
ATOM     71  O   UNL A   1      47.165  28.895  21.706  1.00  0.00    -0.237 OA
ATOM     72  O   UNL A   1      49.561  28.507  22.145  1.00  0.00    -0.744 OA
ENDBRANCH  65  69
ENDBRANCH  48  62
BRANCH  49  73
ATOM     73  C   UNL A   1      38.784  30.931  30.730  1.00  0.00     0.023 A 
ATOM     74  C   UNL A   1      37.825  31.797  30.181  1.00  0.00     0.031 A 
ATOM     75  C   UNL A   1      38.685  30.627  32.102  1.00  0.00     0.131 A 
ATOM     76  C   UNL A   1      36.819  32.333  31.003  1.00  0.00     0.055 A 
ATOM     77  C   UNL A   1      37.641  31.100  32.895  1.00  0.00     0.041 A 
ATOM     78  F   UNL A   1      39.593  29.830  32.690  1.00  0.00    -0.206 F 
ATOM     79  C   UNL A   1      36.705  31.967  32.347  1.00  0.00     0.022 A 
BRANCH  76  80
ATOM     80  S   UNL A   1      35.701  33.587  30.318  1.00  0.00     0.124 S 
ATOM     81  O   UNL A   1      34.551  32.776  29.931  1.00  0.00    -0.237 OA
ATOM     82  O   UNL A   1      35.506  34.479  31.455  1.00  0.00    -0.237 OA
ATOM     83  O   UNL A   1      36.465  34.154  29.209  1.00  0.00    -0.744 OA
ENDBRANCH  76  80
ENDBRANCH  49  73
BRANCH  61  84
ATOM     84  C   UNL A   1      45.511  32.604  30.271  1.00  0.00     0.023 A 
ATOM     85  C   UNL A   1      45.716  33.852  29.655  1.00  0.00     0.031 A 
ATOM     86  C   UNL A   1      46.134  32.364  31.507  1.00  0.00     0.131 A 
ATOM     87  C   UNL A   1      46.569  34.793  30.253  1.00  0.00     0.055 A 
ATOM     88  C   UNL A   1      46.942  33.322  32.121  1.00  0.00     0.041 A 
ATOM     89  F   UNL A   1      45.976  31.187  32.134  1.00  0.00    -0.206 F 
ATOM     90  C   UNL A   1      47.173  34.540  31.487  1.00  0.00     0.022 A 
BRANCH  87  91
ATOM     91  S   UNL A   1      46.952  36.321  29.352  1.00  0.00     0.124 S 
ATOM     92  O   UNL A   1      47.435  35.808  28.074  1.00  0.00    -0.237 OA
ATOM     93  O   UNL A   1      45.659  36.998  29.320  1.00  0.00    -0.237 OA
ATOM     94  O   UNL A   1      47.967  36.966  30.184  1.00  0.00    -0.744 OA
ENDBRANCH  87  91
ENDBRANCH  61  84
ENDBRANCH  35  36
ENDBRANCH  28  30
ENDBRANCH  27  28
ENDBRANCH  26  27
ENDBRANCH   1  26
TORSDOF 18
ENDMDL
