MODEL 1
REMARK VINA RESULT:     -12.0      0.000      0.000
REMARK SMILES COc1ccc(C(=O)Nc2cc(C(=O)OCCOC(=O)c3ccc(-c4c5nc(c(-c6cc(S(=O)(=O)[O-])ccc6F)c6ccc([nH]6)c(-c6cc(S(=O)(=O)[O-])ccc6F)c6nc(c(-c7cc(S(=O)(=O)[O-])ccc7F)c7ccc4[nH]7)C=C6)C=C5)cc3)c(Cl)cc2Cl)cc1Cl
REMARK SMILES IDX 16 1 15 2 13 3 14 4 12 5 10 6 11 7 87 8 86 9 88 10 84 11
REMARK SMILES IDX 85 12 9 13 7 14 8 15 6 17 3 18 4 19 90 20 5 21 89 22 91 23
REMARK SMILES IDX 2 24 1 25 17 26 18 27 19 28 20 29 21 30 22 31 83 32 23 33
REMARK SMILES IDX 82 34 24 35 25 36 26 37 76 38 27 39 81 40 75 41 77 42 28 43
REMARK SMILES IDX 80 44 74 45 73 46 29 48 61 49 41 50 60 51 42 52 45 53 59 54
REMARK SMILES IDX 78 55 43 56 44 57 58 59 79 60 46 61 30 62 31 63 39 64 32 65
REMARK SMILES IDX 38 66 40 67 37 68 33 69 34 70 35 71 36 72 62 73 63 74 71 75
REMARK SMILES IDX 64 76 70 77 72 78 69 79 65 80 66 81 67 82 68 83 47 84 48 85
REMARK SMILES IDX 56 86 49 87 55 88 57 89 54 90 50 91 51 92 52 93 53 94
REMARK H PARENT 9 16 77 47 45 58
REMARK Flexibility Score: inf
ROOT
ATOM      1  C   UNL A   1      35.350  21.313  25.019  1.00  0.00     0.275 C 
ENDROOT
BRANCH   1   2
ATOM      2  O   UNL A   1      35.567  22.702  24.689  1.00  0.00    -0.458 OA
BRANCH   2   3
ATOM      3  C   UNL A   1      34.774  23.219  23.724  1.00  0.00     0.339 C 
ATOM      4  O   UNL A   1      35.023  23.276  22.529  1.00  0.00    -0.246 OA
BRANCH   3   5
ATOM      5  C   UNL A   1      33.467  23.648  24.266  1.00  0.00     0.080 A 
ATOM      6  C   UNL A   1      32.297  25.207  25.736  1.00  0.00     0.061 A 
ATOM      7  C   UNL A   1      33.467  24.760  25.122  1.00  0.00     0.045 A 
ATOM      8  C   UNL A   1      31.127  24.461  25.585  1.00  0.00     0.066 A 
ATOM      9  C   UNL A   1      31.108  23.362  24.719  1.00  0.00     0.044 A 
ATOM     10  Cl  UNL A   1      29.659  24.927  26.366  1.00  0.00    -0.082 Cl
ATOM     11  C   UNL A   1      32.272  22.959  24.050  1.00  0.00     0.057 A 
ATOM     12  Cl  UNL A   1      32.161  21.567  23.036  1.00  0.00    -0.083 Cl
BRANCH   6  13
ATOM     13  N   UNL A   1      32.304  26.389  26.493  1.00  0.00    -0.321 N 
ATOM     14  C   UNL A   1      32.227  27.707  26.080  1.00  0.00     0.255 C 
ATOM     15  O   UNL A   1      32.655  28.577  26.834  1.00  0.00    -0.269 OA
ATOM     16  H   UNL A   1      32.374  26.262  27.466  1.00  0.00     0.170 HD
BRANCH  14  17
ATOM     17  C   UNL A   1      31.505  28.111  24.825  1.00  0.00     0.041 A 
ATOM     18  C   UNL A   1      30.195  29.037  22.479  1.00  0.00     0.137 A 
ATOM     19  C   UNL A   1      31.506  29.417  22.774  1.00  0.00     0.049 A 
ATOM     20  C   UNL A   1      29.503  28.274  23.419  1.00  0.00     0.083 A 
ATOM     21  C   UNL A   1      32.168  28.940  23.915  1.00  0.00     0.018 A 
ATOM     22  C   UNL A   1      30.151  27.840  24.586  1.00  0.00     0.038 A 
ATOM     23  Cl  UNL A   1      27.818  27.896  23.304  1.00  0.00    -0.080 Cl
BRANCH  18  24
ATOM     24  O   UNL A   1      29.712  29.565  21.313  1.00  0.00    -0.495 OA
ATOM     25  C   UNL A   1      28.980  30.780  21.422  1.00  0.00     0.278 C 
ENDBRANCH  18  24
ENDBRANCH  14  17
ENDBRANCH   6  13
ENDBRANCH   3   5
ENDBRANCH   2   3
ENDBRANCH   1   2
BRANCH   1  26
ATOM     26  C   UNL A   1      36.650  20.502  24.991  1.00  0.00     0.275 C 
BRANCH  26  27
ATOM     27  O   UNL A   1      37.813  21.347  24.892  1.00  0.00    -0.458 OA
BRANCH  27  28
ATOM     28  C   UNL A   1      38.811  21.011  25.737  1.00  0.00     0.338 C 
ATOM     29  O   UNL A   1      39.284  19.898  25.897  1.00  0.00    -0.246 OA
BRANCH  28  30
ATOM     30  C   UNL A   1      39.378  22.195  26.393  1.00  0.00     0.060 A 
ATOM     31  C   UNL A   1      38.800  23.419  26.080  1.00  0.00     0.016 A 
ATOM     32  C   UNL A   1      40.561  22.148  27.125  1.00  0.00     0.016 A 
ATOM     33  C   UNL A   1      39.469  24.605  26.360  1.00  0.00     0.010 A 
ATOM     34  C   UNL A   1      41.169  23.350  27.522  1.00  0.00     0.010 A 
ATOM     35  C   UNL A   1      40.660  24.594  27.100  1.00  0.00    -0.014 A 
BRANCH  35  36
ATOM     36  C   UNL A   1      41.341  25.887  27.415  1.00  0.00     0.031 A 
ATOM     37  C   UNL A   1      40.646  26.965  28.212  1.00  0.00     0.074 A 
ATOM     38  C   UNL A   1      42.625  26.069  27.041  1.00  0.00     0.049 A 
ATOM     39  N   UNL A   1      41.109  28.114  28.640  1.00  0.00    -0.248 NA
ATOM     40  C   UNL A   1      39.255  26.710  28.602  1.00  0.00     0.031 C 
ATOM     41  C   UNL A   1      43.442  25.095  26.315  1.00  0.00     0.029 A 
ATOM     42  N   UNL A   1      43.472  27.135  27.225  1.00  0.00    -0.354 N 
ATOM     43  C   UNL A   1      40.085  28.686  29.390  1.00  0.00     0.074 A 
ATOM     44  C   UNL A   1      38.963  27.777  29.331  1.00  0.00     0.031 C 
ATOM     45  C   UNL A   1      44.673  25.595  26.137  1.00  0.00     0.029 A 
ATOM     46  C   UNL A   1      44.708  26.960  26.646  1.00  0.00     0.049 A 
ATOM     47  H   UNL A   1      43.219  27.946  27.722  1.00  0.00     0.167 HD
ATOM     48  C   UNL A   1      40.068  29.869  30.056  1.00  0.00     0.034 A 
ATOM     49  C   UNL A   1      45.735  27.817  26.486  1.00  0.00     0.034 A 
ATOM     50  C   UNL A   1      41.136  30.834  29.999  1.00  0.00     0.049 A 
ATOM     51  C   UNL A   1      45.607  29.211  27.033  1.00  0.00     0.074 A 
ATOM     52  C   UNL A   1      41.195  32.096  30.567  1.00  0.00     0.029 A 
ATOM     53  N   UNL A   1      42.318  30.667  29.287  1.00  0.00    -0.354 N 
ATOM     54  N   UNL A   1      44.633  29.733  27.742  1.00  0.00    -0.248 NA
ATOM     55  C   UNL A   1      46.709  30.137  26.746  1.00  0.00     0.031 C 
ATOM     56  C   UNL A   1      42.363  32.724  30.118  1.00  0.00     0.029 A 
ATOM     57  C   UNL A   1      43.077  31.825  29.342  1.00  0.00     0.049 A 
ATOM     58  H   UNL A   1      42.578  29.843  28.814  1.00  0.00     0.167 HD
ATOM     59  C   UNL A   1      45.015  31.045  28.002  1.00  0.00     0.074 A 
ATOM     60  C   UNL A   1      46.312  31.229  27.383  1.00  0.00     0.031 C 
ATOM     61  C   UNL A   1      44.355  32.007  28.696  1.00  0.00     0.034 A 
BRANCH  48  62
ATOM     62  C   UNL A   1      38.807  30.216  30.810  1.00  0.00     0.023 A 
ATOM     63  C   UNL A   1      37.759  30.938  30.211  1.00  0.00     0.031 A 
ATOM     64  C   UNL A   1      38.666  29.845  32.159  1.00  0.00     0.131 A 
ATOM     65  C   UNL A   1      36.634  31.301  30.971  1.00  0.00     0.055 A 
ATOM     66  C   UNL A   1      37.523  30.162  32.894  1.00  0.00     0.041 A 
ATOM     67  F   UNL A   1      39.647  29.182  32.790  1.00  0.00    -0.206 F 
ATOM     68  C   UNL A   1      36.503  30.902  32.305  1.00  0.00     0.022 A 
BRANCH  65  69
ATOM     69  S   UNL A   1      35.392  32.402  30.236  1.00  0.00     0.124 S 
ATOM     70  O   UNL A   1      36.178  33.607  29.980  1.00  0.00    -0.237 OA
ATOM     71  O   UNL A   1      34.965  31.652  29.060  1.00  0.00    -0.237 OA
ATOM     72  O   UNL A   1      34.387  32.536  31.288  1.00  0.00    -0.744 OA
ENDBRANCH  65  69
ENDBRANCH  48  62
BRANCH  49  73
ATOM     73  C   UNL A   1      46.926  27.406  25.685  1.00  0.00     0.023 A 
ATOM     74  C   UNL A   1      47.080  27.792  24.346  1.00  0.00     0.031 A 
ATOM     75  C   UNL A   1      47.923  26.591  26.257  1.00  0.00     0.131 A 
ATOM     76  C   UNL A   1      48.196  27.347  23.617  1.00  0.00     0.055 A 
ATOM     77  C   UNL A   1      49.056  26.198  25.546  1.00  0.00     0.041 A 
ATOM     78  F   UNL A   1      47.819  26.185  27.533  1.00  0.00    -0.206 F 
ATOM     79  C   UNL A   1      49.193  26.569  24.214  1.00  0.00     0.022 A 
BRANCH  76  80
ATOM     80  S   UNL A   1      48.296  27.738  21.849  1.00  0.00     0.124 S 
ATOM     81  O   UNL A   1      46.995  28.347  21.604  1.00  0.00    -0.237 OA
ATOM     82  O   UNL A   1      49.447  28.635  21.801  1.00  0.00    -0.237 OA
ATOM     83  O   UNL A   1      48.502  26.433  21.224  1.00  0.00    -0.744 OA
ENDBRANCH  76  80
ENDBRANCH  49  73
BRANCH  61  84
ATOM     84  C   UNL A   1      45.047  33.337  28.841  1.00  0.00     0.023 A 
ATOM     85  C   UNL A   1      45.927  33.598  29.905  1.00  0.00     0.031 A 
ATOM     86  C   UNL A   1      44.810  34.363  27.908  1.00  0.00     0.131 A 
ATOM     87  C   UNL A   1      46.499  34.873  30.041  1.00  0.00     0.055 A 
ATOM     88  C   UNL A   1      45.425  35.610  28.017  1.00  0.00     0.041 A 
ATOM     89  F   UNL A   1      43.977  34.167  26.874  1.00  0.00    -0.206 F 
ATOM     90  C   UNL A   1      46.265  35.874  29.095  1.00  0.00     0.022 A 
BRANCH  87  91
ATOM     91  S   UNL A   1      47.488  35.231  31.517  1.00  0.00     0.124 S 
ATOM     92  O   UNL A   1      48.845  34.970  31.047  1.00  0.00    -0.237 OA
ATOM     93  O   UNL A   1      47.163  36.630  31.780  1.00  0.00    -0.237 OA
ATOM     94  O   UNL A   1      46.983  34.283  32.508  1.00  0.00    -0.744 OA
ENDBRANCH  87  91
ENDBRANCH  61  84
ENDBRANCH  35  36
ENDBRANCH  28  30
ENDBRANCH  27  28
ENDBRANCH  26  27
ENDBRANCH   1  26
TORSDOF 17
ENDMDL
MODEL 2
REMARK VINA RESULT:     -12.0      4.926     10.434
REMARK SMILES COc1ccc(C(=O)Nc2cc(C(=O)OCCOC(=O)c3ccc(-c4c5nc(c(-c6cc(S(=O)(=O)[O-])ccc6F)c6ccc([nH]6)c(-c6cc(S(=O)(=O)[O-])ccc6F)c6nc(c(-c7cc(S(=O)(=O)[O-])ccc7F)c7ccc4[nH]7)C=C6)C=C5)cc3)c(Cl)cc2Cl)cc1Cl
REMARK SMILES IDX 16 1 15 2 13 3 14 4 12 5 10 6 11 7 87 8 86 9 88 10 84 11
REMARK SMILES IDX 85 12 9 13 7 14 8 15 6 17 3 18 4 19 90 20 5 21 89 22 91 23
REMARK SMILES IDX 2 24 1 25 17 26 18 27 19 28 20 29 21 30 22 31 83 32 23 33
REMARK SMILES IDX 82 34 24 35 25 36 26 37 76 38 27 39 81 40 75 41 77 42 28 43
REMARK SMILES IDX 80 44 74 45 73 46 29 48 61 49 41 50 60 51 42 52 45 53 59 54
REMARK SMILES IDX 78 55 43 56 44 57 58 59 79 60 46 61 30 62 31 63 39 64 32 65
REMARK SMILES IDX 38 66 40 67 37 68 33 69 34 70 35 71 36 72 62 73 63 74 71 75
REMARK SMILES IDX 64 76 70 77 72 78 69 79 65 80 66 81 67 82 68 83 47 84 48 85
REMARK SMILES IDX 56 86 49 87 55 88 57 89 54 90 50 91 51 92 52 93 53 94
REMARK H PARENT 9 16 77 47 45 58
REMARK Flexibility Score: inf
ROOT
ATOM      1  C   UNL A   1      31.755  30.988  26.779  1.00  0.00     0.275 C 
ENDROOT
BRANCH   1   2
ATOM      2  O   UNL A   1      32.604  30.536  25.704  1.00  0.00    -0.458 OA
BRANCH   2   3
ATOM      3  C   UNL A   1      33.282  29.385  25.919  1.00  0.00     0.339 C 
ATOM      4  O   UNL A   1      34.368  29.271  26.466  1.00  0.00    -0.246 OA
BRANCH   3   5
ATOM      5  C   UNL A   1      32.500  28.207  25.489  1.00  0.00     0.080 A 
ATOM      6  C   UNL A   1      31.866  26.767  23.622  1.00  0.00     0.061 A 
ATOM      7  C   UNL A   1      32.610  27.825  24.143  1.00  0.00     0.045 A 
ATOM      8  C   UNL A   1      30.910  26.150  24.431  1.00  0.00     0.066 A 
ATOM      9  C   UNL A   1      30.804  26.505  25.780  1.00  0.00     0.044 A 
ATOM     10  Cl  UNL A   1      29.917  24.872  23.829  1.00  0.00    -0.082 Cl
ATOM     11  C   UNL A   1      31.604  27.525  26.315  1.00  0.00     0.057 A 
ATOM     12  Cl  UNL A   1      31.372  27.922  27.979  1.00  0.00    -0.083 Cl
BRANCH   6  13
ATOM     13  N   UNL A   1      32.082  26.333  22.305  1.00  0.00    -0.321 N 
ATOM     14  C   UNL A   1      32.982  25.406  21.812  1.00  0.00     0.255 C 
ATOM     15  O   UNL A   1      33.291  25.472  20.624  1.00  0.00    -0.269 OA
ATOM     16  H   UNL A   1      31.504  26.753  21.628  1.00  0.00     0.170 HD
BRANCH  14  17
ATOM     17  C   UNL A   1      33.465  24.244  22.635  1.00  0.00     0.041 A 
ATOM     18  C   UNL A   1      34.212  22.021  24.241  1.00  0.00     0.137 A 
ATOM     19  C   UNL A   1      33.114  21.958  23.381  1.00  0.00     0.049 A 
ATOM     20  C   UNL A   1      34.874  23.242  24.374  1.00  0.00     0.083 A 
ATOM     21  C   UNL A   1      32.757  23.041  22.564  1.00  0.00     0.018 A 
ATOM     22  C   UNL A   1      34.483  24.341  23.593  1.00  0.00     0.038 A 
ATOM     23  Cl  UNL A   1      36.113  23.546  25.542  1.00  0.00    -0.080 Cl
BRANCH  18  24
ATOM     24  O   UNL A   1      34.440  20.868  24.940  1.00  0.00    -0.495 OA
ATOM     25  C   UNL A   1      33.722  19.716  24.514  1.00  0.00     0.278 C 
ENDBRANCH  18  24
ENDBRANCH  14  17
ENDBRANCH   6  13
ENDBRANCH   3   5
ENDBRANCH   2   3
ENDBRANCH   1   2
BRANCH   1  26
ATOM     26  C   UNL A   1      31.642  32.516  26.824  1.00  0.00     0.275 C 
BRANCH  26  27
ATOM     27  O   UNL A   1      32.928  33.156  26.718  1.00  0.00    -0.458 OA
BRANCH  27  28
ATOM     28  C   UNL A   1      33.404  33.631  27.889  1.00  0.00     0.338 C 
ATOM     29  O   UNL A   1      32.849  34.425  28.631  1.00  0.00    -0.246 OA
BRANCH  28  30
ATOM     30  C   UNL A   1      34.665  32.977  28.258  1.00  0.00     0.060 A 
ATOM     31  C   UNL A   1      34.567  31.753  28.907  1.00  0.00     0.016 A 
ATOM     32  C   UNL A   1      35.896  33.622  28.163  1.00  0.00     0.016 A 
ATOM     33  C   UNL A   1      35.656  31.235  29.598  1.00  0.00     0.010 A 
ATOM     34  C   UNL A   1      37.025  33.029  28.751  1.00  0.00     0.010 A 
ATOM     35  C   UNL A   1      36.911  31.856  29.520  1.00  0.00    -0.014 A 
BRANCH  35  36
ATOM     36  C   UNL A   1      38.072  31.257  30.247  1.00  0.00     0.031 A 
ATOM     37  C   UNL A   1      38.988  30.261  29.576  1.00  0.00     0.074 A 
ATOM     38  C   UNL A   1      38.351  31.664  31.503  1.00  0.00     0.049 A 
ATOM     39  N   UNL A   1      40.082  29.699  30.028  1.00  0.00    -0.248 NA
ATOM     40  C   UNL A   1      38.645  29.861  28.206  1.00  0.00     0.031 C 
ATOM     41  C   UNL A   1      37.589  32.661  32.259  1.00  0.00     0.029 A 
ATOM     42  N   UNL A   1      39.354  31.297  32.365  1.00  0.00    -0.354 N 
ATOM     43  C   UNL A   1      40.580  28.928  28.981  1.00  0.00     0.074 A 
ATOM     44  C   UNL A   1      39.651  29.064  27.882  1.00  0.00     0.031 C 
ATOM     45  C   UNL A   1      38.163  32.841  33.457  1.00  0.00     0.029 A 
ATOM     46  C   UNL A   1      39.273  31.907  33.595  1.00  0.00     0.049 A 
ATOM     47  H   UNL A   1      40.064  30.657  32.127  1.00  0.00     0.167 HD
ATOM     48  C   UNL A   1      41.698  28.160  28.938  1.00  0.00     0.034 A 
ATOM     49  C   UNL A   1      39.969  31.701  34.730  1.00  0.00     0.034 A 
ATOM     50  C   UNL A   1      42.545  27.917  30.078  1.00  0.00     0.049 A 
ATOM     51  C   UNL A   1      41.065  30.671  34.730  1.00  0.00     0.074 A 
ATOM     52  C   UNL A   1      43.657  27.096  30.172  1.00  0.00     0.029 A 
ATOM     53  N   UNL A   1      42.345  28.455  31.343  1.00  0.00    -0.354 N 
ATOM     54  N   UNL A   1      41.523  29.954  33.730  1.00  0.00    -0.248 NA
ATOM     55  C   UNL A   1      41.727  30.410  36.014  1.00  0.00     0.031 C 
ATOM     56  C   UNL A   1      44.065  27.062  31.511  1.00  0.00     0.029 A 
ATOM     57  C   UNL A   1      43.264  27.930  32.237  1.00  0.00     0.049 A 
ATOM     58  H   UNL A   1      41.650  29.115  31.570  1.00  0.00     0.167 HD
ATOM     59  C   UNL A   1      42.541  29.169  34.262  1.00  0.00     0.074 A 
ATOM     60  C   UNL A   1      42.636  29.511  35.667  1.00  0.00     0.031 C 
ATOM     61  C   UNL A   1      43.330  28.255  33.642  1.00  0.00     0.034 A 
BRANCH  48  62
ATOM     62  C   UNL A   1      41.995  27.448  27.640  1.00  0.00     0.023 A 
ATOM     63  C   UNL A   1      41.852  26.055  27.508  1.00  0.00     0.031 A 
ATOM     64  C   UNL A   1      42.457  28.172  26.527  1.00  0.00     0.131 A 
ATOM     65  C   UNL A   1      42.209  25.425  26.303  1.00  0.00     0.055 A 
ATOM     66  C   UNL A   1      42.758  27.548  25.316  1.00  0.00     0.041 A 
ATOM     67  F   UNL A   1      42.641  29.499  26.605  1.00  0.00    -0.206 F 
ATOM     68  C   UNL A   1      42.644  26.166  25.201  1.00  0.00     0.022 A 
BRANCH  65  69
ATOM     69  S   UNL A   1      42.209  23.612  26.224  1.00  0.00     0.124 S 
ATOM     70  O   UNL A   1      42.787  23.372  24.904  1.00  0.00    -0.237 OA
ATOM     71  O   UNL A   1      43.042  23.248  27.365  1.00  0.00    -0.237 OA
ATOM     72  O   UNL A   1      40.795  23.263  26.349  1.00  0.00    -0.744 OA
ENDBRANCH  65  69
ENDBRANCH  48  62
BRANCH  49  73
ATOM     73  C   UNL A   1      39.578  32.414  35.982  1.00  0.00     0.023 A 
ATOM     74  C   UNL A   1      38.632  31.879  36.867  1.00  0.00     0.031 A 
ATOM     75  C   UNL A   1      40.140  33.668  36.293  1.00  0.00     0.131 A 
ATOM     76  C   UNL A   1      38.261  32.604  38.012  1.00  0.00     0.055 A 
ATOM     77  C   UNL A   1      39.810  34.358  37.458  1.00  0.00     0.041 A 
ATOM     78  F   UNL A   1      41.043  34.231  35.473  1.00  0.00    -0.206 F 
ATOM     79  C   UNL A   1      38.858  33.830  38.322  1.00  0.00     0.022 A 
BRANCH  76  80
ATOM     80  S   UNL A   1      36.931  31.960  39.062  1.00  0.00     0.124 S 
ATOM     81  O   UNL A   1      35.794  32.764  38.629  1.00  0.00    -0.237 OA
ATOM     82  O   UNL A   1      36.902  30.550  38.685  1.00  0.00    -0.237 OA
ATOM     83  O   UNL A   1      37.406  32.229  40.417  1.00  0.00    -0.744 OA
ENDBRANCH  76  80
ENDBRANCH  49  73
BRANCH  61  84
ATOM     84  C   UNL A   1      44.383  27.583  34.484  1.00  0.00     0.023 A 
ATOM     85  C   UNL A   1      44.218  26.273  34.965  1.00  0.00     0.031 A 
ATOM     86  C   UNL A   1      45.562  28.271  34.823  1.00  0.00     0.131 A 
ATOM     87  C   UNL A   1      45.193  25.709  35.802  1.00  0.00     0.055 A 
ATOM     88  C   UNL A   1      46.553  27.685  35.610  1.00  0.00     0.041 A 
ATOM     89  F   UNL A   1      45.769  29.526  34.392  1.00  0.00    -0.206 F 
ATOM     90  C   UNL A   1      46.366  26.401  36.113  1.00  0.00     0.022 A 
BRANCH  87  91
ATOM     91  S   UNL A   1      44.870  24.088  36.547  1.00  0.00     0.124 S 
ATOM     92  O   UNL A   1      44.777  24.417  37.965  1.00  0.00    -0.237 OA
ATOM     93  O   UNL A   1      43.623  23.689  35.901  1.00  0.00    -0.237 OA
ATOM     94  O   UNL A   1      46.041  23.297  36.170  1.00  0.00    -0.744 OA
ENDBRANCH  87  91
ENDBRANCH  61  84
ENDBRANCH  35  36
ENDBRANCH  28  30
ENDBRANCH  27  28
ENDBRANCH  26  27
ENDBRANCH   1  26
TORSDOF 17
ENDMDL
MODEL 3
REMARK VINA RESULT:     -11.9      4.748      8.033
REMARK SMILES COc1ccc(C(=O)Nc2cc(C(=O)OCCOC(=O)c3ccc(-c4c5nc(c(-c6cc(S(=O)(=O)[O-])ccc6F)c6ccc([nH]6)c(-c6cc(S(=O)(=O)[O-])ccc6F)c6nc(c(-c7cc(S(=O)(=O)[O-])ccc7F)c7ccc4[nH]7)C=C6)C=C5)cc3)c(Cl)cc2Cl)cc1Cl
REMARK SMILES IDX 16 1 15 2 13 3 14 4 12 5 10 6 11 7 87 8 86 9 88 10 84 11
REMARK SMILES IDX 85 12 9 13 7 14 8 15 6 17 3 18 4 19 90 20 5 21 89 22 91 23
REMARK SMILES IDX 2 24 1 25 17 26 18 27 19 28 20 29 21 30 22 31 83 32 23 33
REMARK SMILES IDX 82 34 24 35 25 36 26 37 76 38 27 39 81 40 75 41 77 42 28 43
REMARK SMILES IDX 80 44 74 45 73 46 29 48 61 49 41 50 60 51 42 52 45 53 59 54
REMARK SMILES IDX 78 55 43 56 44 57 58 59 79 60 46 61 30 62 31 63 39 64 32 65
REMARK SMILES IDX 38 66 40 67 37 68 33 69 34 70 35 71 36 72 62 73 63 74 71 75
REMARK SMILES IDX 64 76 70 77 72 78 69 79 65 80 66 81 67 82 68 83 47 84 48 85
REMARK SMILES IDX 56 86 49 87 55 88 57 89 54 90 50 91 51 92 52 93 53 94
REMARK H PARENT 9 16 77 47 45 58
REMARK Flexibility Score: inf
ROOT
ATOM      1  C   UNL A   1      31.638  30.565  26.627  1.00  0.00     0.275 C 
ENDROOT
BRANCH   1   2
ATOM      2  O   UNL A   1      32.640  30.257  25.635  1.00  0.00    -0.458 OA
BRANCH   2   3
ATOM      3  C   UNL A   1      33.258  29.061  25.758  1.00  0.00     0.339 C 
ATOM      4  O   UNL A   1      34.308  28.840  26.343  1.00  0.00    -0.246 OA
BRANCH   3   5
ATOM      5  C   UNL A   1      32.454  27.971  25.165  1.00  0.00     0.080 A 
ATOM      6  C   UNL A   1      31.197  25.921  25.589  1.00  0.00     0.061 A 
ATOM      7  C   UNL A   1      31.917  27.023  26.050  1.00  0.00     0.045 A 
ATOM      8  C   UNL A   1      31.109  25.699  24.213  1.00  0.00     0.066 A 
ATOM      9  C   UNL A   1      31.622  26.645  23.320  1.00  0.00     0.044 A 
ATOM     10  Cl  UNL A   1      30.281  24.323  23.579  1.00  0.00    -0.082 Cl
ATOM     11  C   UNL A   1      32.285  27.787  23.792  1.00  0.00     0.057 A 
ATOM     12  Cl  UNL A   1      32.920  28.877  22.614  1.00  0.00    -0.083 Cl
BRANCH   6  13
ATOM     13  N   UNL A   1      30.573  25.054  26.499  1.00  0.00    -0.321 N 
ATOM     14  C   UNL A   1      30.764  23.700  26.710  1.00  0.00     0.255 C 
ATOM     15  O   UNL A   1      29.857  23.063  27.241  1.00  0.00    -0.269 OA
ATOM     16  H   UNL A   1      29.895  25.473  27.076  1.00  0.00     0.170 HD
BRANCH  14  17
ATOM     17  C   UNL A   1      32.085  23.030  26.455  1.00  0.00     0.041 A 
ATOM     18  C   UNL A   1      34.644  21.917  25.915  1.00  0.00     0.137 A 
ATOM     19  C   UNL A   1      34.510  23.136  26.582  1.00  0.00     0.049 A 
ATOM     20  C   UNL A   1      33.490  21.306  25.424  1.00  0.00     0.083 A 
ATOM     21  C   UNL A   1      33.250  23.677  26.877  1.00  0.00     0.018 A 
ATOM     22  C   UNL A   1      32.232  21.876  25.675  1.00  0.00     0.038 A 
ATOM     23  Cl  UNL A   1      33.498  19.909  24.402  1.00  0.00    -0.080 Cl
BRANCH  18  24
ATOM     24  O   UNL A   1      35.940  21.518  25.738  1.00  0.00    -0.495 OA
ATOM     25  C   UNL A   1      36.558  21.898  24.515  1.00  0.00     0.278 C 
ENDBRANCH  18  24
ENDBRANCH  14  17
ENDBRANCH   6  13
ENDBRANCH   3   5
ENDBRANCH   2   3
ENDBRANCH   1   2
BRANCH   1  26
ATOM     26  C   UNL A   1      31.457  32.074  26.818  1.00  0.00     0.275 C 
BRANCH  26  27
ATOM     27  O   UNL A   1      32.668  32.803  26.541  1.00  0.00    -0.458 OA
BRANCH  27  28
ATOM     28  C   UNL A   1      33.203  33.411  27.622  1.00  0.00     0.338 C 
ATOM     29  O   UNL A   1      32.693  34.299  28.284  1.00  0.00    -0.246 OA
BRANCH  28  30
ATOM     30  C   UNL A   1      34.472  32.785  28.013  1.00  0.00     0.060 A 
ATOM     31  C   UNL A   1      34.401  31.496  28.525  1.00  0.00     0.016 A 
ATOM     32  C   UNL A   1      35.667  33.497  28.075  1.00  0.00     0.016 A 
ATOM     33  C   UNL A   1      35.469  30.962  29.236  1.00  0.00     0.010 A 
ATOM     34  C   UNL A   1      36.787  32.903  28.680  1.00  0.00     0.010 A 
ATOM     35  C   UNL A   1      36.689  31.650  29.315  1.00  0.00    -0.014 A 
BRANCH  35  36
ATOM     36  C   UNL A   1      37.831  31.037  30.059  1.00  0.00     0.031 A 
ATOM     37  C   UNL A   1      38.172  31.466  31.466  1.00  0.00     0.074 A 
ATOM     38  C   UNL A   1      38.528  30.030  29.492  1.00  0.00     0.049 A 
ATOM     39  N   UNL A   1      39.078  30.993  32.286  1.00  0.00    -0.248 NA
ATOM     40  C   UNL A   1      37.374  32.557  32.039  1.00  0.00     0.031 C 
ATOM     41  C   UNL A   1      38.278  29.471  28.161  1.00  0.00     0.029 A 
ATOM     42  N   UNL A   1      39.587  29.293  29.962  1.00  0.00    -0.354 N 
ATOM     43  C   UNL A   1      38.918  31.690  33.481  1.00  0.00     0.074 A 
ATOM     44  C   UNL A   1      37.854  32.644  33.270  1.00  0.00     0.031 C 
ATOM     45  C   UNL A   1      39.139  28.469  27.934  1.00  0.00     0.029 A 
ATOM     46  C   UNL A   1      40.064  28.375  29.056  1.00  0.00     0.049 A 
ATOM     47  H   UNL A   1      39.969  29.410  30.862  1.00  0.00     0.167 HD
ATOM     48  C   UNL A   1      39.604  31.563  34.645  1.00  0.00     0.034 A 
ATOM     49  C   UNL A   1      41.157  27.588  29.089  1.00  0.00     0.034 A 
ATOM     50  C   UNL A   1      40.753  30.708  34.807  1.00  0.00     0.049 A 
ATOM     51  C   UNL A   1      42.043  27.631  30.304  1.00  0.00     0.074 A 
ATOM     52  C   UNL A   1      41.572  30.560  35.914  1.00  0.00     0.029 A 
ATOM     53  N   UNL A   1      41.281  29.894  33.814  1.00  0.00    -0.354 N 
ATOM     54  N   UNL A   1      41.874  28.294  31.424  1.00  0.00    -0.248 NA
ATOM     55  C   UNL A   1      43.274  26.833  30.252  1.00  0.00     0.031 C 
ATOM     56  C   UNL A   1      42.646  29.735  35.557  1.00  0.00     0.029 A 
ATOM     57  C   UNL A   1      42.451  29.297  34.256  1.00  0.00     0.049 A 
ATOM     58  H   UNL A   1      40.880  29.759  32.924  1.00  0.00     0.167 HD
ATOM     59  C   UNL A   1      42.971  27.976  32.220  1.00  0.00     0.074 A 
ATOM     60  C   UNL A   1      43.786  27.055  31.454  1.00  0.00     0.031 C 
ATOM     61  C   UNL A   1      43.271  28.404  33.473  1.00  0.00     0.034 A 
BRANCH  48  62
ATOM     62  C   UNL A   1      39.185  32.452  35.791  1.00  0.00     0.023 A 
ATOM     63  C   UNL A   1      39.670  33.766  35.927  1.00  0.00     0.031 A 
ATOM     64  C   UNL A   1      38.310  31.966  36.779  1.00  0.00     0.131 A 
ATOM     65  C   UNL A   1      39.309  34.533  37.048  1.00  0.00     0.055 A 
ATOM     66  C   UNL A   1      37.913  32.752  37.861  1.00  0.00     0.041 A 
ATOM     67  F   UNL A   1      37.840  30.711  36.716  1.00  0.00    -0.206 F 
ATOM     68  C   UNL A   1      38.419  34.039  38.006  1.00  0.00     0.022 A 
BRANCH  65  69
ATOM     69  S   UNL A   1      40.105  36.144  37.305  1.00  0.00     0.124 S 
ATOM     70  O   UNL A   1      39.997  36.744  35.977  1.00  0.00    -0.237 OA
ATOM     71  O   UNL A   1      39.278  36.740  38.347  1.00  0.00    -0.237 OA
ATOM     72  O   UNL A   1      41.464  35.793  37.712  1.00  0.00    -0.744 OA
ENDBRANCH  65  69
ENDBRANCH  48  62
BRANCH  49  73
ATOM     73  C   UNL A   1      41.524  26.775  27.893  1.00  0.00     0.023 A 
ATOM     74  C   UNL A   1      41.378  25.380  27.879  1.00  0.00     0.031 A 
ATOM     75  C   UNL A   1      42.056  27.396  26.745  1.00  0.00     0.131 A 
ATOM     76  C   UNL A   1      41.777  24.650  26.747  1.00  0.00     0.055 A 
ATOM     77  C   UNL A   1      42.398  26.672  25.604  1.00  0.00     0.041 A 
ATOM     78  F   UNL A   1      42.226  28.727  26.710  1.00  0.00    -0.206 F 
ATOM     79  C   UNL A   1      42.268  25.288  25.603  1.00  0.00     0.022 A 
BRANCH  76  80
ATOM     80  S   UNL A   1      41.715  22.839  26.809  1.00  0.00     0.124 S 
ATOM     81  O   UNL A   1      40.396  22.605  27.385  1.00  0.00    -0.237 OA
ATOM     82  O   UNL A   1      41.876  22.481  25.403  1.00  0.00    -0.237 OA
ATOM     83  O   UNL A   1      42.843  22.489  27.670  1.00  0.00    -0.744 OA
ENDBRANCH  76  80
ENDBRANCH  49  73
BRANCH  61  84
ATOM     84  C   UNL A   1      44.525  27.850  34.098  1.00  0.00     0.023 A 
ATOM     85  C   UNL A   1      44.512  26.662  34.850  1.00  0.00     0.031 A 
ATOM     86  C   UNL A   1      45.748  28.530  33.951  1.00  0.00     0.131 A 
ATOM     87  C   UNL A   1      45.689  26.217  35.471  1.00  0.00     0.055 A 
ATOM     88  C   UNL A   1      46.926  28.052  34.525  1.00  0.00     0.041 A 
ATOM     89  F   UNL A   1      45.815  29.669  33.245  1.00  0.00    -0.206 F 
ATOM     90  C   UNL A   1      46.898  26.897  35.300  1.00  0.00     0.022 A 
BRANCH  87  91
ATOM     91  S   UNL A   1      45.602  24.782  36.576  1.00  0.00     0.124 S 
ATOM     92  O   UNL A   1      44.802  25.298  37.683  1.00  0.00    -0.237 OA
ATOM     93  O   UNL A   1      44.957  23.779  35.736  1.00  0.00    -0.237 OA
ATOM     94  O   UNL A   1      47.002  24.511  36.897  1.00  0.00    -0.744 OA
ENDBRANCH  87  91
ENDBRANCH  61  84
ENDBRANCH  35  36
ENDBRANCH  28  30
ENDBRANCH  27  28
ENDBRANCH  26  27
ENDBRANCH   1  26
TORSDOF 17
ENDMDL
