MODEL 1
REMARK VINA RESULT:     -11.9      0.000      0.000
REMARK SMILES Cc1cccc([C@@H](CC(F)(F)F)C(=O)OCCOC(=O)c2ccc(-c3c4nc(c(-c5cc(S(=O)(=O)[O-])ccc5F)c5ccc([nH]5)c(-c5cc(S(=O)(=O)[O-])ccc5F)c5nc(c(-c6cc(S(=O)(=O)[O-])ccc6F)c6ccc3[nH]6)C=C5)C=C4)cc2)c1
REMARK SMILES IDX 17 1 16 2 15 3 13 4 14 5 7 6 6 7 1 8 2 9 3 10 84 11 4 12
REMARK SMILES IDX 5 13 8 14 9 15 10 16 11 17 12 18 18 19 19 20 20 21 21 22
REMARK SMILES IDX 22 23 83 24 23 25 82 26 24 27 25 28 26 29 76 30 27 31 81 32
REMARK SMILES IDX 75 33 77 34 28 35 80 36 74 37 73 38 29 40 61 41 41 42 60 43
REMARK SMILES IDX 42 44 45 45 59 46 78 47 43 48 44 49 58 51 79 52 46 53 30 54
REMARK SMILES IDX 31 55 39 56 32 57 38 58 40 59 37 60 33 61 34 62 35 63 36 64
REMARK SMILES IDX 62 65 63 66 71 67 64 68 70 69 72 70 69 71 65 72 66 73 67 74
REMARK SMILES IDX 68 75 47 76 48 77 56 78 49 79 55 80 57 81 54 82 50 83 51 84
REMARK SMILES IDX 52 85 53 86
REMARK H PARENT 77 39 45 50
REMARK Flexibility Score: inf
ROOT
ATOM      1  C   UNL A   1      33.856  29.665  26.870  1.00  0.00     0.275 C 
ENDROOT
BRANCH   1   2
ATOM      2  C   UNL A   1      33.560  28.540  25.864  1.00  0.00     0.274 C 
BRANCH   2   3
ATOM      3  O   UNL A   1      32.705  29.044  24.842  1.00  0.00    -0.462 OA
BRANCH   3   4
ATOM      4  C   UNL A   1      32.989  28.715  23.556  1.00  0.00     0.313 C 
ATOM      5  O   UNL A   1      33.794  29.323  22.857  1.00  0.00    -0.252 OA
BRANCH   4   6
ATOM      6  C   UNL A   1      32.145  27.499  23.153  1.00  0.00     0.138 C 
BRANCH   6   7
ATOM      7  C   UNL A   1      30.671  27.837  23.257  1.00  0.00    -0.033 A 
ATOM      8  C   UNL A   1      28.226  30.285  21.681  1.00  0.00     0.044 C 
ATOM      9  C   UNL A   1      28.779  29.123  22.447  1.00  0.00    -0.051 A 
ATOM     10  C   UNL A   1      27.916  28.204  23.055  1.00  0.00     0.003 A 
ATOM     11  C   UNL A   1      30.159  28.938  22.557  1.00  0.00     0.008 A 
ATOM     12  C   UNL A   1      28.420  27.123  23.777  1.00  0.00     0.001 A 
ATOM     13  C   UNL A   1      29.791  26.951  23.895  1.00  0.00     0.004 A 
ENDBRANCH   6   7
BRANCH   6  14
ATOM     14  C   UNL A   1      32.529  26.714  21.899  1.00  0.00     0.135 C 
BRANCH  14  15
ATOM     15  C   UNL A   1      32.768  25.235  22.068  1.00  0.00     0.390 C 
ATOM     16  F   UNL A   1      31.741  24.589  22.642  1.00  0.00    -0.171 F 
ATOM     17  F   UNL A   1      32.965  24.669  20.853  1.00  0.00    -0.171 F 
ATOM     18  F   UNL A   1      33.874  24.986  22.799  1.00  0.00    -0.171 F 
ENDBRANCH  14  15
ENDBRANCH   6  14
ENDBRANCH   4   6
ENDBRANCH   3   4
ENDBRANCH   2   3
ENDBRANCH   1   2
BRANCH   1  19
ATOM     19  O   UNL A   1      35.070  29.538  27.692  1.00  0.00    -0.458 OA
BRANCH  19  20
ATOM     20  C   UNL A   1      36.209  30.296  27.748  1.00  0.00     0.338 C 
ATOM     21  O   UNL A   1      36.169  31.518  27.642  1.00  0.00    -0.246 OA
BRANCH  20  22
ATOM     22  C   UNL A   1      37.472  29.642  28.147  1.00  0.00     0.060 A 
ATOM     23  C   UNL A   1      37.572  28.888  29.333  1.00  0.00     0.016 A 
ATOM     24  C   UNL A   1      38.509  29.631  27.245  1.00  0.00     0.016 A 
ATOM     25  C   UNL A   1      38.634  27.987  29.500  1.00  0.00     0.010 A 
ATOM     26  C   UNL A   1      39.382  28.584  27.280  1.00  0.00     0.010 A 
ATOM     27  C   UNL A   1      39.506  27.796  28.430  1.00  0.00    -0.014 A 
BRANCH  27  28
ATOM     28  C   UNL A   1      40.726  26.991  28.431  1.00  0.00     0.031 A 
ATOM     29  C   UNL A   1      40.736  25.524  28.379  1.00  0.00     0.074 A 
ATOM     30  C   UNL A   1      41.855  27.736  28.368  1.00  0.00     0.049 A 
ATOM     31  N   UNL A   1      41.689  24.779  28.807  1.00  0.00    -0.248 NA
ATOM     32  C   UNL A   1      39.647  24.742  27.826  1.00  0.00     0.031 C 
ATOM     33  C   UNL A   1      43.252  27.394  28.213  1.00  0.00     0.029 A 
ATOM     34  N   UNL A   1      41.893  29.101  28.664  1.00  0.00    -0.354 N 
ATOM     35  C   UNL A   1      41.504  23.511  28.279  1.00  0.00     0.074 A 
ATOM     36  C   UNL A   1      40.154  23.508  27.789  1.00  0.00     0.031 C 
ATOM     37  C   UNL A   1      43.983  28.390  28.762  1.00  0.00     0.029 A 
ATOM     38  C   UNL A   1      43.055  29.336  29.382  1.00  0.00     0.049 A 
ATOM     39  H   UNL A   1      41.219  29.772  28.409  1.00  0.00     0.167 HD
ATOM     40  C   UNL A   1      42.587  22.688  28.170  1.00  0.00     0.034 A 
ATOM     41  C   UNL A   1      42.857  29.580  30.713  1.00  0.00     0.034 A 
ATOM     42  C   UNL A   1      43.748  23.338  28.786  1.00  0.00     0.049 A 
ATOM     43  C   UNL A   1      43.335  28.403  31.554  1.00  0.00     0.074 A 
ATOM     44  C   UNL A   1      44.812  24.071  28.287  1.00  0.00     0.029 A 
ATOM     45  N   UNL A   1      43.673  23.647  30.134  1.00  0.00    -0.354 N 
ATOM     46  N   UNL A   1      43.679  27.234  31.077  1.00  0.00    -0.248 NA
ATOM     47  C   UNL A   1      43.431  28.451  33.005  1.00  0.00     0.031 C 
ATOM     48  C   UNL A   1      45.300  24.905  29.345  1.00  0.00     0.029 A 
ATOM     49  C   UNL A   1      44.566  24.641  30.489  1.00  0.00     0.049 A 
ATOM     50  H   UNL A   1      43.057  23.210  30.765  1.00  0.00     0.167 HD
ATOM     51  C   UNL A   1      44.063  26.394  32.089  1.00  0.00     0.074 A 
ATOM     52  C   UNL A   1      43.827  27.197  33.285  1.00  0.00     0.031 C 
ATOM     53  C   UNL A   1      44.541  25.123  31.868  1.00  0.00     0.034 A 
BRANCH  40  54
ATOM     54  C   UNL A   1      42.686  21.457  27.289  1.00  0.00     0.023 A 
ATOM     55  C   UNL A   1      43.771  21.361  26.389  1.00  0.00     0.031 A 
ATOM     56  C   UNL A   1      41.775  20.382  27.236  1.00  0.00     0.131 A 
ATOM     57  C   UNL A   1      43.875  20.311  25.456  1.00  0.00     0.055 A 
ATOM     58  C   UNL A   1      41.856  19.352  26.282  1.00  0.00     0.041 A 
ATOM     59  F   UNL A   1      40.791  20.241  28.132  1.00  0.00    -0.206 F 
ATOM     60  C   UNL A   1      42.906  19.317  25.377  1.00  0.00     0.022 A 
BRANCH  57  61
ATOM     61  S   UNL A   1      45.306  20.267  24.341  1.00  0.00     0.124 S 
ATOM     62  O   UNL A   1      44.813  20.993  23.175  1.00  0.00    -0.237 OA
ATOM     63  O   UNL A   1      46.334  20.935  25.131  1.00  0.00    -0.237 OA
ATOM     64  O   UNL A   1      45.528  18.837  24.127  1.00  0.00    -0.744 OA
ENDBRANCH  57  61
ENDBRANCH  40  54
BRANCH  41  65
ATOM     65  C   UNL A   1      41.628  30.453  30.976  1.00  0.00     0.023 A 
ATOM     66  C   UNL A   1      40.575  29.892  31.754  1.00  0.00     0.031 A 
ATOM     67  C   UNL A   1      41.586  31.843  30.798  1.00  0.00     0.131 A 
ATOM     68  C   UNL A   1      39.669  30.704  32.463  1.00  0.00     0.055 A 
ATOM     69  C   UNL A   1      40.606  32.644  31.419  1.00  0.00     0.041 A 
ATOM     70  F   UNL A   1      42.538  32.479  30.100  1.00  0.00    -0.206 F 
ATOM     71  C   UNL A   1      39.669  32.084  32.290  1.00  0.00     0.022 A 
BRANCH  68  72
ATOM     72  S   UNL A   1      38.744  29.960  33.851  1.00  0.00     0.124 S 
ATOM     73  O   UNL A   1      39.806  29.641  34.798  1.00  0.00    -0.237 OA
ATOM     74  O   UNL A   1      37.838  31.040  34.243  1.00  0.00    -0.237 OA
ATOM     75  O   UNL A   1      38.072  28.814  33.245  1.00  0.00    -0.744 OA
ENDBRANCH  68  72
ENDBRANCH  41  65
BRANCH  53  76
ATOM     76  C   UNL A   1      45.002  24.176  32.961  1.00  0.00     0.023 A 
ATOM     77  C   UNL A   1      46.263  24.285  33.550  1.00  0.00     0.031 A 
ATOM     78  C   UNL A   1      44.215  23.091  33.430  1.00  0.00     0.131 A 
ATOM     79  C   UNL A   1      46.628  23.496  34.650  1.00  0.00     0.055 A 
ATOM     80  C   UNL A   1      44.607  22.254  34.478  1.00  0.00     0.041 A 
ATOM     81  F   UNL A   1      43.025  22.774  32.905  1.00  0.00    -0.206 F 
ATOM     82  C   UNL A   1      45.809  22.477  35.122  1.00  0.00     0.022 A 
BRANCH  79  83
ATOM     83  S   UNL A   1      48.187  23.880  35.475  1.00  0.00     0.124 S 
ATOM     84  O   UNL A   1      48.430  22.677  36.264  1.00  0.00    -0.237 OA
ATOM     85  O   UNL A   1      49.081  24.079  34.337  1.00  0.00    -0.237 OA
ATOM     86  O   UNL A   1      47.880  25.081  36.246  1.00  0.00    -0.744 OA
ENDBRANCH  79  83
ENDBRANCH  53  76
ENDBRANCH  27  28
ENDBRANCH  20  22
ENDBRANCH  19  20
ENDBRANCH   1  19
TORSDOF 17
ENDMDL
MODEL 2
REMARK VINA RESULT:     -11.9      1.503      2.598
REMARK SMILES Cc1cccc([C@@H](CC(F)(F)F)C(=O)OCCOC(=O)c2ccc(-c3c4nc(c(-c5cc(S(=O)(=O)[O-])ccc5F)c5ccc([nH]5)c(-c5cc(S(=O)(=O)[O-])ccc5F)c5nc(c(-c6cc(S(=O)(=O)[O-])ccc6F)c6ccc3[nH]6)C=C5)C=C4)cc2)c1
REMARK SMILES IDX 17 1 16 2 15 3 13 4 14 5 7 6 6 7 1 8 2 9 3 10 84 11 4 12
REMARK SMILES IDX 5 13 8 14 9 15 10 16 11 17 12 18 18 19 19 20 20 21 21 22
REMARK SMILES IDX 22 23 83 24 23 25 82 26 24 27 25 28 26 29 76 30 27 31 81 32
REMARK SMILES IDX 75 33 77 34 28 35 80 36 74 37 73 38 29 40 61 41 41 42 60 43
REMARK SMILES IDX 42 44 45 45 59 46 78 47 43 48 44 49 58 51 79 52 46 53 30 54
REMARK SMILES IDX 31 55 39 56 32 57 38 58 40 59 37 60 33 61 34 62 35 63 36 64
REMARK SMILES IDX 62 65 63 66 71 67 64 68 70 69 72 70 69 71 65 72 66 73 67 74
REMARK SMILES IDX 68 75 47 76 48 77 56 78 49 79 55 80 57 81 54 82 50 83 51 84
REMARK SMILES IDX 52 85 53 86
REMARK H PARENT 77 39 45 50
REMARK Flexibility Score: inf
ROOT
ATOM      1  C   UNL A   1      34.870  29.859  27.325  1.00  0.00     0.275 C 
ENDROOT
BRANCH   1   2
ATOM      2  C   UNL A   1      33.336  29.930  27.254  1.00  0.00     0.274 C 
BRANCH   2   3
ATOM      3  O   UNL A   1      32.838  28.702  26.731  1.00  0.00    -0.462 OA
BRANCH   3   4
ATOM      4  C   UNL A   1      32.582  28.634  25.400  1.00  0.00     0.313 C 
ATOM      5  O   UNL A   1      32.831  29.540  24.609  1.00  0.00    -0.252 OA
BRANCH   4   6
ATOM      6  C   UNL A   1      31.941  27.278  25.082  1.00  0.00     0.138 C 
BRANCH   6   7
ATOM      7  C   UNL A   1      32.976  26.344  24.488  1.00  0.00    -0.033 A 
ATOM      8  C   UNL A   1      35.742  24.052  25.732  1.00  0.00     0.044 C 
ATOM      9  C   UNL A   1      34.735  24.710  24.840  1.00  0.00    -0.051 A 
ATOM     10  C   UNL A   1      34.582  24.285  23.516  1.00  0.00     0.003 A 
ATOM     11  C   UNL A   1      33.932  25.747  25.320  1.00  0.00     0.008 A 
ATOM     12  C   UNL A   1      33.653  24.895  22.675  1.00  0.00     0.001 A 
ATOM     13  C   UNL A   1      32.868  25.934  23.152  1.00  0.00     0.004 A 
ENDBRANCH   6   7
BRANCH   6  14
ATOM     14  C   UNL A   1      31.023  26.630  26.119  1.00  0.00     0.135 C 
BRANCH  14  15
ATOM     15  C   UNL A   1      30.002  25.648  25.605  1.00  0.00     0.390 C 
ATOM     16  F   UNL A   1      30.541  24.511  25.137  1.00  0.00    -0.171 F 
ATOM     17  F   UNL A   1      29.162  25.304  26.611  1.00  0.00    -0.171 F 
ATOM     18  F   UNL A   1      29.241  26.179  24.626  1.00  0.00    -0.171 F 
ENDBRANCH  14  15
ENDBRANCH   6  14
ENDBRANCH   4   6
ENDBRANCH   3   4
ENDBRANCH   2   3
ENDBRANCH   1   2
BRANCH   1  19
ATOM     19  O   UNL A   1      35.544  30.718  28.313  1.00  0.00    -0.458 OA
BRANCH  19  20
ATOM     20  C   UNL A   1      36.558  30.460  29.196  1.00  0.00     0.338 C 
ATOM     21  O   UNL A   1      36.535  30.900  30.341  1.00  0.00    -0.246 OA
BRANCH  20  22
ATOM     22  C   UNL A   1      37.586  29.468  28.818  1.00  0.00     0.060 A 
ATOM     23  C   UNL A   1      38.349  29.605  27.643  1.00  0.00     0.016 A 
ATOM     24  C   UNL A   1      37.911  28.494  29.731  1.00  0.00     0.016 A 
ATOM     25  C   UNL A   1      39.543  28.884  27.497  1.00  0.00     0.010 A 
ATOM     26  C   UNL A   1      39.183  27.999  29.718  1.00  0.00     0.010 A 
ATOM     27  C   UNL A   1      39.986  28.125  28.579  1.00  0.00    -0.014 A 
BRANCH  27  28
ATOM     28  C   UNL A   1      41.137  27.223  28.600  1.00  0.00     0.031 A 
ATOM     29  C   UNL A   1      41.030  25.762  28.505  1.00  0.00     0.074 A 
ATOM     30  C   UNL A   1      42.323  27.875  28.601  1.00  0.00     0.049 A 
ATOM     31  N   UNL A   1      41.903  24.930  28.944  1.00  0.00    -0.248 NA
ATOM     32  C   UNL A   1      39.904  25.087  27.890  1.00  0.00     0.031 C 
ATOM     33  C   UNL A   1      43.693  27.425  28.486  1.00  0.00     0.029 A 
ATOM     34  N   UNL A   1      42.459  29.224  28.938  1.00  0.00    -0.354 N 
ATOM     35  C   UNL A   1      41.637  23.696  28.372  1.00  0.00     0.074 A 
ATOM     36  C   UNL A   1      40.311  23.817  27.833  1.00  0.00     0.031 C 
ATOM     37  C   UNL A   1      44.480  28.343  29.090  1.00  0.00     0.029 A 
ATOM     38  C   UNL A   1      43.608  29.344  29.704  1.00  0.00     0.049 A 
ATOM     39  H   UNL A   1      41.852  29.955  28.680  1.00  0.00     0.167 HD
ATOM     40  C   UNL A   1      42.654  22.792  28.277  1.00  0.00     0.034 A 
ATOM     41  C   UNL A   1      43.379  29.567  31.035  1.00  0.00     0.034 A 
ATOM     42  C   UNL A   1      43.839  23.328  28.954  1.00  0.00     0.049 A 
ATOM     43  C   UNL A   1      43.729  28.333  31.856  1.00  0.00     0.074 A 
ATOM     44  C   UNL A   1      44.976  23.985  28.516  1.00  0.00     0.029 A 
ATOM     45  N   UNL A   1      43.738  23.605  30.307  1.00  0.00    -0.354 N 
ATOM     46  N   UNL A   1      43.996  27.153  31.358  1.00  0.00    -0.248 NA
ATOM     47  C   UNL A   1      43.773  28.333  33.311  1.00  0.00     0.031 C 
ATOM     48  C   UNL A   1      45.489  24.747  29.615  1.00  0.00     0.029 A 
ATOM     49  C   UNL A   1      44.693  24.513  30.724  1.00  0.00     0.049 A 
ATOM     50  H   UNL A   1      43.065  23.203  30.902  1.00  0.00     0.167 HD
ATOM     51  C   UNL A   1      44.271  26.258  32.356  1.00  0.00     0.074 A 
ATOM     52  C   UNL A   1      44.055  27.045  33.567  1.00  0.00     0.031 C 
ATOM     53  C   UNL A   1      44.654  24.958  32.115  1.00  0.00     0.034 A 
BRANCH  40  54
ATOM     54  C   UNL A   1      42.687  21.581  27.364  1.00  0.00     0.023 A 
ATOM     55  C   UNL A   1      43.733  21.481  26.419  1.00  0.00     0.031 A 
ATOM     56  C   UNL A   1      41.748  20.530  27.322  1.00  0.00     0.131 A 
ATOM     57  C   UNL A   1      43.774  20.453  25.458  1.00  0.00     0.055 A 
ATOM     58  C   UNL A   1      41.766  19.522  26.341  1.00  0.00     0.041 A 
ATOM     59  F   UNL A   1      40.796  20.391  28.252  1.00  0.00    -0.206 F 
ATOM     60  C   UNL A   1      42.778  19.485  25.394  1.00  0.00     0.022 A 
BRANCH  57  61
ATOM     61  S   UNL A   1      45.158  20.402  24.286  1.00  0.00     0.124 S 
ATOM     62  O   UNL A   1      45.082  19.037  23.776  1.00  0.00    -0.237 OA
ATOM     63  O   UNL A   1      44.807  21.463  23.347  1.00  0.00    -0.237 OA
ATOM     64  O   UNL A   1      46.324  20.683  25.123  1.00  0.00    -0.744 OA
ENDBRANCH  57  61
ENDBRANCH  40  54
BRANCH  41  65
ATOM     65  C   UNL A   1      42.216  30.530  31.279  1.00  0.00     0.023 A 
ATOM     66  C   UNL A   1      41.018  29.990  31.830  1.00  0.00     0.031 A 
ATOM     67  C   UNL A   1      42.332  31.927  31.312  1.00  0.00     0.131 A 
ATOM     68  C   UNL A   1      40.107  30.794  32.542  1.00  0.00     0.055 A 
ATOM     69  C   UNL A   1      41.358  32.740  31.927  1.00  0.00     0.041 A 
ATOM     70  F   UNL A   1      43.425  32.540  30.839  1.00  0.00    -0.206 F 
ATOM     71  C   UNL A   1      40.262  32.176  32.583  1.00  0.00     0.022 A 
BRANCH  68  72
ATOM     72  S   UNL A   1      38.936  29.975  33.679  1.00  0.00     0.124 S 
ATOM     73  O   UNL A   1      37.728  30.775  33.512  1.00  0.00    -0.237 OA
ATOM     74  O   UNL A   1      38.880  28.612  33.150  1.00  0.00    -0.237 OA
ATOM     75  O   UNL A   1      39.588  30.078  34.981  1.00  0.00    -0.744 OA
ENDBRANCH  68  72
ENDBRANCH  41  65
BRANCH  53  76
ATOM     76  C   UNL A   1      44.994  23.947  33.195  1.00  0.00     0.023 A 
ATOM     77  C   UNL A   1      46.265  23.880  33.769  1.00  0.00     0.031 A 
ATOM     78  C   UNL A   1      44.073  22.974  33.666  1.00  0.00     0.131 A 
ATOM     79  C   UNL A   1      46.533  23.038  34.859  1.00  0.00     0.055 A 
ATOM     80  C   UNL A   1      44.360  22.083  34.702  1.00  0.00     0.041 A 
ATOM     81  F   UNL A   1      42.845  22.827  33.153  1.00  0.00    -0.206 F 
ATOM     82  C   UNL A   1      45.589  22.135  35.332  1.00  0.00     0.022 A 
BRANCH  79  83
ATOM     83  S   UNL A   1      48.139  23.200  35.666  1.00  0.00     0.124 S 
ATOM     84  O   UNL A   1      49.009  23.589  34.561  1.00  0.00    -0.237 OA
ATOM     85  O   UNL A   1      47.869  24.241  36.653  1.00  0.00    -0.237 OA
ATOM     86  O   UNL A   1      48.382  21.868  36.213  1.00  0.00    -0.744 OA
ENDBRANCH  79  83
ENDBRANCH  53  76
ENDBRANCH  27  28
ENDBRANCH  20  22
ENDBRANCH  19  20
ENDBRANCH   1  19
TORSDOF 17
ENDMDL
MODEL 3
REMARK VINA RESULT:     -11.9      2.495      3.486
REMARK SMILES Cc1cccc([C@@H](CC(F)(F)F)C(=O)OCCOC(=O)c2ccc(-c3c4nc(c(-c5cc(S(=O)(=O)[O-])ccc5F)c5ccc([nH]5)c(-c5cc(S(=O)(=O)[O-])ccc5F)c5nc(c(-c6cc(S(=O)(=O)[O-])ccc6F)c6ccc3[nH]6)C=C5)C=C4)cc2)c1
REMARK SMILES IDX 17 1 16 2 15 3 13 4 14 5 7 6 6 7 1 8 2 9 3 10 84 11 4 12
REMARK SMILES IDX 5 13 8 14 9 15 10 16 11 17 12 18 18 19 19 20 20 21 21 22
REMARK SMILES IDX 22 23 83 24 23 25 82 26 24 27 25 28 26 29 76 30 27 31 81 32
REMARK SMILES IDX 75 33 77 34 28 35 80 36 74 37 73 38 29 40 61 41 41 42 60 43
REMARK SMILES IDX 42 44 45 45 59 46 78 47 43 48 44 49 58 51 79 52 46 53 30 54
REMARK SMILES IDX 31 55 39 56 32 57 38 58 40 59 37 60 33 61 34 62 35 63 36 64
REMARK SMILES IDX 62 65 63 66 71 67 64 68 70 69 72 70 69 71 65 72 66 73 67 74
REMARK SMILES IDX 68 75 47 76 48 77 56 78 49 79 55 80 57 81 54 82 50 83 51 84
REMARK SMILES IDX 52 85 53 86
REMARK H PARENT 77 39 45 50
REMARK Flexibility Score: inf
ROOT
ATOM      1  C   UNL A   1      33.504  29.959  27.160  1.00  0.00     0.275 C 
ENDROOT
BRANCH   1   2
ATOM      2  C   UNL A   1      33.292  29.441  25.728  1.00  0.00     0.274 C 
BRANCH   2   3
ATOM      3  O   UNL A   1      33.084  28.033  25.768  1.00  0.00    -0.462 OA
BRANCH   3   4
ATOM      4  C   UNL A   1      33.419  27.308  24.670  1.00  0.00     0.313 C 
ATOM      5  O   UNL A   1      33.995  27.776  23.692  1.00  0.00    -0.252 OA
BRANCH   4   6
ATOM      6  C   UNL A   1      32.955  25.860  24.866  1.00  0.00     0.138 C 
BRANCH   6   7
ATOM      7  C   UNL A   1      34.055  24.904  24.449  1.00  0.00    -0.033 A 
ATOM      8  C   UNL A   1      37.240  23.457  25.939  1.00  0.00     0.044 C 
ATOM      9  C   UNL A   1      36.064  23.676  25.037  1.00  0.00    -0.051 A 
ATOM     10  C   UNL A   1      35.848  22.832  23.942  1.00  0.00     0.003 A 
ATOM     11  C   UNL A   1      35.166  24.717  25.283  1.00  0.00     0.008 A 
ATOM     12  C   UNL A   1      34.761  23.031  23.093  1.00  0.00     0.001 A 
ATOM     13  C   UNL A   1      33.879  24.075  23.332  1.00  0.00     0.004 A 
ENDBRANCH   6   7
BRANCH   6  14
ATOM     14  C   UNL A   1      32.242  25.478  26.163  1.00  0.00     0.135 C 
BRANCH  14  15
ATOM     15  C   UNL A   1      30.959  24.699  26.031  1.00  0.00     0.390 C 
ATOM     16  F   UNL A   1      30.873  23.999  24.889  1.00  0.00    -0.171 F 
ATOM     17  F   UNL A   1      30.865  23.809  27.050  1.00  0.00    -0.171 F 
ATOM     18  F   UNL A   1      29.875  25.498  26.110  1.00  0.00    -0.171 F 
ENDBRANCH  14  15
ENDBRANCH   6  14
ENDBRANCH   4   6
ENDBRANCH   3   4
ENDBRANCH   2   3
ENDBRANCH   1   2
BRANCH   1  19
ATOM     19  O   UNL A   1      34.792  29.659  27.806  1.00  0.00    -0.458 OA
BRANCH  19  20
ATOM     20  C   UNL A   1      35.671  30.458  28.487  1.00  0.00     0.338 C 
ATOM     21  O   UNL A   1      35.324  31.539  28.952  1.00  0.00    -0.246 OA
BRANCH  20  22
ATOM     22  C   UNL A   1      36.996  29.907  28.839  1.00  0.00     0.060 A 
ATOM     23  C   UNL A   1      37.152  28.951  29.862  1.00  0.00     0.016 A 
ATOM     24  C   UNL A   1      38.061  30.214  28.027  1.00  0.00     0.016 A 
ATOM     25  C   UNL A   1      38.322  28.181  29.926  1.00  0.00     0.010 A 
ATOM     26  C   UNL A   1      39.071  29.303  27.919  1.00  0.00     0.010 A 
ATOM     27  C   UNL A   1      39.257  28.324  28.901  1.00  0.00    -0.014 A 
BRANCH  27  28
ATOM     28  C   UNL A   1      40.578  27.701  28.832  1.00  0.00     0.031 A 
ATOM     29  C   UNL A   1      40.798  26.290  28.492  1.00  0.00     0.074 A 
ATOM     30  C   UNL A   1      41.591  28.583  29.001  1.00  0.00     0.049 A 
ATOM     31  N   UNL A   1      41.827  25.603  28.831  1.00  0.00    -0.248 NA
ATOM     32  C   UNL A   1      39.857  25.505  27.717  1.00  0.00     0.031 C 
ATOM     33  C   UNL A   1      43.028  28.465  28.883  1.00  0.00     0.029 A 
ATOM     34  N   UNL A   1      41.421  29.851  29.563  1.00  0.00    -0.354 N 
ATOM     35  C   UNL A   1      41.847  24.458  28.051  1.00  0.00     0.074 A 
ATOM     36  C   UNL A   1      40.535  24.381  27.472  1.00  0.00     0.031 C 
ATOM     37  C   UNL A   1      43.585  29.413  29.671  1.00  0.00     0.029 A 
ATOM     38  C   UNL A   1      42.505  30.081  30.396  1.00  0.00     0.049 A 
ATOM     39  H   UNL A   1      40.671  30.467  29.398  1.00  0.00     0.167 HD
ATOM     40  C   UNL A   1      43.040  23.824  27.860  1.00  0.00     0.034 A 
ATOM     41  C   UNL A   1      42.214  30.018  31.732  1.00  0.00     0.034 A 
ATOM     42  C   UNL A   1      44.068  24.478  28.676  1.00  0.00     0.049 A 
ATOM     43  C   UNL A   1      42.816  28.765  32.355  1.00  0.00     0.074 A 
ATOM     44  C   UNL A   1      45.039  25.429  28.411  1.00  0.00     0.029 A 
ATOM     45  N   UNL A   1      43.890  24.489  30.049  1.00  0.00    -0.354 N 
ATOM     46  N   UNL A   1      43.344  27.773  31.682  1.00  0.00    -0.248 NA
ATOM     47  C   UNL A   1      42.840  28.524  33.790  1.00  0.00     0.031 C 
ATOM     48  C   UNL A   1      45.355  26.083  29.645  1.00  0.00     0.029 A 
ATOM     49  C   UNL A   1      44.616  25.496  30.658  1.00  0.00     0.049 A 
ATOM     50  H   UNL A   1      43.314  23.855  30.534  1.00  0.00     0.167 HD
ATOM     51  C   UNL A   1      43.797  26.801  32.533  1.00  0.00     0.074 A 
ATOM     52  C   UNL A   1      43.396  27.302  33.844  1.00  0.00     0.031 C 
ATOM     53  C   UNL A   1      44.460  25.675  32.099  1.00  0.00     0.034 A 
BRANCH  40  54
ATOM     54  C   UNL A   1      43.352  22.824  26.762  1.00  0.00     0.023 A 
ATOM     55  C   UNL A   1      42.821  21.519  26.872  1.00  0.00     0.031 A 
ATOM     56  C   UNL A   1      44.164  23.040  25.630  1.00  0.00     0.131 A 
ATOM     57  C   UNL A   1      43.155  20.499  25.960  1.00  0.00     0.055 A 
ATOM     58  C   UNL A   1      44.529  22.015  24.739  1.00  0.00     0.041 A 
ATOM     59  F   UNL A   1      44.605  24.258  25.295  1.00  0.00    -0.206 F 
ATOM     60  C   UNL A   1      44.031  20.731  24.907  1.00  0.00     0.022 A 
BRANCH  57  61
ATOM     61  S   UNL A   1      42.422  18.853  26.178  1.00  0.00     0.124 S 
ATOM     62  O   UNL A   1      41.073  19.044  25.655  1.00  0.00    -0.237 OA
ATOM     63  O   UNL A   1      43.311  18.012  25.383  1.00  0.00    -0.237 OA
ATOM     64  O   UNL A   1      42.498  18.634  27.622  1.00  0.00    -0.744 OA
ENDBRANCH  57  61
ENDBRANCH  40  54
BRANCH  41  65
ATOM     65  C   UNL A   1      40.864  30.650  32.072  1.00  0.00     0.023 A 
ATOM     66  C   UNL A   1      40.636  31.990  31.644  1.00  0.00     0.031 A 
ATOM     67  C   UNL A   1      39.728  29.933  32.474  1.00  0.00     0.131 A 
ATOM     68  C   UNL A   1      39.335  32.490  31.448  1.00  0.00     0.055 A 
ATOM     69  C   UNL A   1      38.431  30.480  32.383  1.00  0.00     0.041 A 
ATOM     70  F   UNL A   1      39.822  28.658  32.876  1.00  0.00    -0.206 F 
ATOM     71  C   UNL A   1      38.224  31.745  31.829  1.00  0.00     0.022 A 
BRANCH  68  72
ATOM     72  S   UNL A   1      39.124  33.959  30.384  1.00  0.00     0.124 S 
ATOM     73  O   UNL A   1      40.491  34.235  29.959  1.00  0.00    -0.237 OA
ATOM     74  O   UNL A   1      38.216  33.472  29.346  1.00  0.00    -0.237 OA
ATOM     75  O   UNL A   1      38.527  34.950  31.275  1.00  0.00    -0.744 OA
ENDBRANCH  68  72
ENDBRANCH  41  65
BRANCH  53  76
ATOM     76  C   UNL A   1      45.001  24.591  33.014  1.00  0.00     0.023 A 
ATOM     77  C   UNL A   1      46.227  24.721  33.669  1.00  0.00     0.031 A 
ATOM     78  C   UNL A   1      44.333  23.357  33.234  1.00  0.00     0.131 A 
ATOM     79  C   UNL A   1      46.654  23.778  34.616  1.00  0.00     0.055 A 
ATOM     80  C   UNL A   1      44.794  22.382  34.122  1.00  0.00     0.041 A 
ATOM     81  F   UNL A   1      43.200  23.021  32.605  1.00  0.00    -0.206 F 
ATOM     82  C   UNL A   1      45.948  22.605  34.849  1.00  0.00     0.022 A 
BRANCH  79  83
ATOM     83  S   UNL A   1      48.139  24.163  35.567  1.00  0.00     0.124 S 
ATOM     84  O   UNL A   1      47.638  24.187  36.938  1.00  0.00    -0.237 OA
ATOM     85  O   UNL A   1      49.005  23.036  35.232  1.00  0.00    -0.237 OA
ATOM     86  O   UNL A   1      48.562  25.455  35.034  1.00  0.00    -0.744 OA
ENDBRANCH  79  83
ENDBRANCH  53  76
ENDBRANCH  27  28
ENDBRANCH  20  22
ENDBRANCH  19  20
ENDBRANCH   1  19
TORSDOF 17
ENDMDL
