MODEL 1
REMARK VINA RESULT:     -11.4      0.000      0.000
REMARK SMILES COc1ccc(OC)c(/C=N/[NH+]=C2/NC(=O)[C@@H](CC(=O)OCCOC(=O)c3ccc(-c4c5nc(c(-c6cc(S(=O)(=O)[O-])ccc6F)c6ccc([nH]6)c(-c6cc(S(=O)(=O)[O-])ccc6F)c6nc(c(-c7cc(S(=O)(=O)[O-])ccc7F)c7ccc4[nH]7)C=C6)C=C5)cc3)S2)c1
REMARK SMILES IDX 22 1 21 2 19 3 20 4 18 5 17 6 12 7 13 8 14 10 90 11 15 12
REMARK SMILES IDX 16 14 11 15 10 16 9 17 3 18 4 19 91 20 5 21 6 22 2 23 1 24
REMARK SMILES IDX 7 25 8 26 23 27 24 28 25 29 26 30 27 31 28 32 89 33 29 34
REMARK SMILES IDX 88 35 30 36 31 37 32 38 82 39 33 40 87 41 81 42 83 43 34 44
REMARK SMILES IDX 86 45 80 46 79 47 35 49 67 50 47 51 66 52 48 53 51 54 65 55
REMARK SMILES IDX 84 56 49 57 50 58 64 60 85 61 52 62 36 63 37 64 45 65 38 66
REMARK SMILES IDX 44 67 46 68 43 69 39 70 40 71 41 72 42 73 68 74 69 75 77 76
REMARK SMILES IDX 70 77 76 78 78 79 75 80 71 81 72 82 73 83 74 84 53 85 54 86
REMARK SMILES IDX 62 87 55 88 61 89 63 90 60 91 56 92 57 93 58 94 59 95
REMARK H PARENT 12 9 14 13 83 48 51 59
REMARK Flexibility Score: inf
ROOT
ATOM      1  C   UNL A   1      36.770  22.208  23.614  1.00  0.00     0.274 C 
ENDROOT
BRANCH   1   2
ATOM      2  O   UNL A   1      35.856  23.185  24.153  1.00  0.00    -0.462 OA
BRANCH   2   3
ATOM      3  C   UNL A   1      34.666  23.307  23.517  1.00  0.00     0.307 C 
ATOM      4  O   UNL A   1      34.399  24.200  22.721  1.00  0.00    -0.252 OA
BRANCH   3   5
ATOM      5  C   UNL A   1      33.657  22.239  23.882  1.00  0.00     0.150 C 
BRANCH   5   6
ATOM      6  C   UNL A   1      33.179  22.117  25.325  1.00  0.00     0.184 C 
ATOM      7  N   UNL A   1      30.062  24.025  26.481  1.00  0.00    -0.142 N 
ATOM      8  C   UNL A   1      31.096  23.288  26.261  1.00  0.00     0.337 C 
ATOM      9  H   UNL A   1      29.192  23.612  26.684  1.00  0.00     0.343 HD
ATOM     10  N   UNL A   1      30.904  21.970  26.011  1.00  0.00    -0.202 N 
ATOM     11  S   UNL A   1      32.783  23.682  26.171  1.00  0.00    -0.020 SA
ATOM     12  C   UNL A   1      31.923  21.279  25.430  1.00  0.00     0.322 C 
ATOM     13  H   UNL A   1      30.056  21.527  26.240  1.00  0.00     0.316 HD
ATOM     14  O   UNL A   1      31.802  20.140  24.997  1.00  0.00    -0.246 OA
BRANCH   7  15
ATOM     15  N   UNL A   1      30.187  25.414  26.428  1.00  0.00    -0.093 NA
ATOM     16  C   UNL A   1      30.208  25.913  25.235  1.00  0.00     0.170 C 
BRANCH  16  17
ATOM     17  C   UNL A   1      30.697  27.280  24.985  1.00  0.00     0.042 A 
ATOM     18  C   UNL A   1      32.136  29.137  25.610  1.00  0.00     0.119 A 
ATOM     19  C   UNL A   1      31.490  29.928  24.663  1.00  0.00     0.050 A 
ATOM     20  C   UNL A   1      31.755  27.803  25.746  1.00  0.00     0.060 A 
ATOM     21  C   UNL A   1      30.494  29.387  23.845  1.00  0.00     0.051 A 
ATOM     22  C   UNL A   1      30.096  28.055  23.987  1.00  0.00     0.128 A 
BRANCH  18  23
ATOM     23  O   UNL A   1      33.077  29.790  26.357  1.00  0.00    -0.497 OA
ATOM     24  C   UNL A   1      33.829  29.010  27.278  1.00  0.00     0.278 C 
ENDBRANCH  18  23
BRANCH  22  25
ATOM     25  O   UNL A   1      29.121  27.660  23.110  1.00  0.00    -0.496 OA
ATOM     26  C   UNL A   1      27.876  28.356  23.178  1.00  0.00     0.278 C 
ENDBRANCH  22  25
ENDBRANCH  16  17
ENDBRANCH   7  15
ENDBRANCH   5   6
ENDBRANCH   3   5
ENDBRANCH   2   3
ENDBRANCH   1   2
BRANCH   1  27
ATOM     27  C   UNL A   1      37.034  21.072  24.603  1.00  0.00     0.275 C 
BRANCH  27  28
ATOM     28  O   UNL A   1      37.471  21.587  25.873  1.00  0.00    -0.458 OA
BRANCH  28  29
ATOM     29  C   UNL A   1      38.793  21.484  26.123  1.00  0.00     0.338 C 
ATOM     30  O   UNL A   1      39.493  20.484  26.060  1.00  0.00    -0.246 OA
BRANCH  29  31
ATOM     31  C   UNL A   1      39.367  22.753  26.553  1.00  0.00     0.060 A 
ATOM     32  C   UNL A   1      38.911  23.949  26.006  1.00  0.00     0.016 A 
ATOM     33  C   UNL A   1      40.472  22.721  27.408  1.00  0.00     0.016 A 
ATOM     34  C   UNL A   1      39.590  25.126  26.292  1.00  0.00     0.010 A 
ATOM     35  C   UNL A   1      41.103  23.910  27.754  1.00  0.00     0.010 A 
ATOM     36  C   UNL A   1      40.673  25.118  27.187  1.00  0.00    -0.014 A 
BRANCH  36  37
ATOM     37  C   UNL A   1      41.310  26.396  27.575  1.00  0.00     0.031 A 
ATOM     38  C   UNL A   1      42.731  26.694  27.200  1.00  0.00     0.074 A 
ATOM     39  C   UNL A   1      40.582  27.271  28.290  1.00  0.00     0.049 A 
ATOM     40  N   UNL A   1      43.459  27.740  27.496  1.00  0.00    -0.248 NA
ATOM     41  C   UNL A   1      43.430  25.677  26.403  1.00  0.00     0.031 C 
ATOM     42  C   UNL A   1      39.199  27.056  28.726  1.00  0.00     0.029 A 
ATOM     43  N   UNL A   1      40.895  28.512  28.774  1.00  0.00    -0.354 N 
ATOM     44  C   UNL A   1      44.709  27.504  26.936  1.00  0.00     0.074 A 
ATOM     45  C   UNL A   1      44.646  26.195  26.315  1.00  0.00     0.031 C 
ATOM     46  C   UNL A   1      38.774  28.139  29.390  1.00  0.00     0.029 A 
ATOM     47  C   UNL A   1      39.869  29.097  29.476  1.00  0.00     0.049 A 
ATOM     48  H   UNL A   1      41.770  28.943  28.635  1.00  0.00     0.167 HD
ATOM     49  C   UNL A   1      45.800  28.312  26.936  1.00  0.00     0.034 A 
ATOM     50  C   UNL A   1      39.823  30.267  30.136  1.00  0.00     0.034 A 
ATOM     51  C   UNL A   1      45.835  29.606  27.580  1.00  0.00     0.049 A 
ATOM     52  C   UNL A   1      41.040  31.145  30.122  1.00  0.00     0.074 A 
ATOM     53  C   UNL A   1      46.878  30.514  27.649  1.00  0.00     0.029 A 
ATOM     54  N   UNL A   1      44.773  30.176  28.277  1.00  0.00    -0.354 N 
ATOM     55  N   UNL A   1      42.216  30.913  29.585  1.00  0.00    -0.248 NA
ATOM     56  C   UNL A   1      40.917  32.443  30.789  1.00  0.00     0.031 C 
ATOM     57  C   UNL A   1      46.466  31.603  28.430  1.00  0.00     0.029 A 
ATOM     58  C   UNL A   1      45.142  31.411  28.793  1.00  0.00     0.049 A 
ATOM     59  H   UNL A   1      43.886  29.762  28.388  1.00  0.00     0.167 HD
ATOM     60  C   UNL A   1      42.979  32.044  29.850  1.00  0.00     0.074 A 
ATOM     61  C   UNL A   1      42.114  32.966  30.563  1.00  0.00     0.031 C 
ATOM     62  C   UNL A   1      44.277  32.297  29.539  1.00  0.00     0.034 A 
BRANCH  49  63
ATOM     63  C   UNL A   1      47.047  27.782  26.264  1.00  0.00     0.023 A 
ATOM     64  C   UNL A   1      47.346  28.075  24.922  1.00  0.00     0.031 A 
ATOM     65  C   UNL A   1      47.919  26.922  26.955  1.00  0.00     0.131 A 
ATOM     66  C   UNL A   1      48.433  27.449  24.289  1.00  0.00     0.055 A 
ATOM     67  C   UNL A   1      49.046  26.365  26.344  1.00  0.00     0.041 A 
ATOM     68  F   UNL A   1      47.678  26.586  28.232  1.00  0.00    -0.206 F 
ATOM     69  C   UNL A   1      49.298  26.614  24.998  1.00  0.00     0.022 A 
BRANCH  66  70
ATOM     70  S   UNL A   1      48.603  27.613  22.490  1.00  0.00     0.124 S 
ATOM     71  O   UNL A   1      49.947  28.174  22.367  1.00  0.00    -0.237 OA
ATOM     72  O   UNL A   1      48.440  26.239  22.031  1.00  0.00    -0.237 OA
ATOM     73  O   UNL A   1      47.522  28.527  22.124  1.00  0.00    -0.744 OA
ENDBRANCH  66  70
ENDBRANCH  49  63
BRANCH  50  74
ATOM     74  C   UNL A   1      38.590  30.644  30.875  1.00  0.00     0.023 A 
ATOM     75  C   UNL A   1      37.573  31.389  30.262  1.00  0.00     0.031 A 
ATOM     76  C   UNL A   1      38.402  30.229  32.206  1.00  0.00     0.131 A 
ATOM     77  C   UNL A   1      36.418  31.718  30.988  1.00  0.00     0.055 A 
ATOM     78  C   UNL A   1      37.234  30.524  32.910  1.00  0.00     0.041 A 
ATOM     79  F   UNL A   1      39.341  29.498  32.829  1.00  0.00    -0.206 F 
ATOM     80  C   UNL A   1      36.237  31.279  32.302  1.00  0.00     0.022 A 
BRANCH  77  81
ATOM     81  S   UNL A   1      35.163  32.760  30.196  1.00  0.00     0.124 S 
ATOM     82  O   UNL A   1      34.665  31.882  29.145  1.00  0.00    -0.237 OA
ATOM     83  O   UNL A   1      34.247  33.023  31.301  1.00  0.00    -0.237 OA
ATOM     84  O   UNL A   1      35.926  33.918  29.734  1.00  0.00    -0.744 OA
ENDBRANCH  77  81
ENDBRANCH  50  74
BRANCH  62  85
ATOM     85  C   UNL A   1      44.812  33.639  29.971  1.00  0.00     0.023 A 
ATOM     86  C   UNL A   1      44.894  34.718  29.073  1.00  0.00     0.031 A 
ATOM     87  C   UNL A   1      45.301  33.822  31.275  1.00  0.00     0.131 A 
ATOM     88  C   UNL A   1      45.524  35.907  29.468  1.00  0.00     0.055 A 
ATOM     89  C   UNL A   1      45.871  35.029  31.681  1.00  0.00     0.041 A 
ATOM     90  F   UNL A   1      45.249  32.824  32.171  1.00  0.00    -0.206 F 
ATOM     91  C   UNL A   1      46.001  36.074  30.770  1.00  0.00     0.022 A 
BRANCH  88  92
ATOM     92  S   UNL A   1      45.825  37.188  28.218  1.00  0.00     0.124 S 
ATOM     93  O   UNL A   1      44.768  36.922  27.248  1.00  0.00    -0.237 OA
ATOM     94  O   UNL A   1      45.686  38.417  28.992  1.00  0.00    -0.237 OA
ATOM     95  O   UNL A   1      47.179  36.899  27.752  1.00  0.00    -0.744 OA
ENDBRANCH  88  92
ENDBRANCH  62  85
ENDBRANCH  36  37
ENDBRANCH  29  31
ENDBRANCH  28  29
ENDBRANCH  27  28
ENDBRANCH   1  27
TORSDOF 19
ENDMDL
MODEL 2
REMARK VINA RESULT:     -11.1      0.857      7.484
REMARK SMILES COc1ccc(OC)c(/C=N/[NH+]=C2/NC(=O)[C@@H](CC(=O)OCCOC(=O)c3ccc(-c4c5nc(c(-c6cc(S(=O)(=O)[O-])ccc6F)c6ccc([nH]6)c(-c6cc(S(=O)(=O)[O-])ccc6F)c6nc(c(-c7cc(S(=O)(=O)[O-])ccc7F)c7ccc4[nH]7)C=C6)C=C5)cc3)S2)c1
REMARK SMILES IDX 22 1 21 2 19 3 20 4 18 5 17 6 12 7 13 8 14 10 90 11 15 12
REMARK SMILES IDX 16 14 11 15 10 16 9 17 3 18 4 19 91 20 5 21 6 22 2 23 1 24
REMARK SMILES IDX 7 25 8 26 23 27 24 28 25 29 26 30 27 31 28 32 89 33 29 34
REMARK SMILES IDX 88 35 30 36 31 37 32 38 82 39 33 40 87 41 81 42 83 43 34 44
REMARK SMILES IDX 86 45 80 46 79 47 35 49 67 50 47 51 66 52 48 53 51 54 65 55
REMARK SMILES IDX 84 56 49 57 50 58 64 60 85 61 52 62 36 63 37 64 45 65 38 66
REMARK SMILES IDX 44 67 46 68 43 69 39 70 40 71 41 72 42 73 68 74 69 75 77 76
REMARK SMILES IDX 70 77 76 78 78 79 75 80 71 81 72 82 73 83 74 84 53 85 54 86
REMARK SMILES IDX 62 87 55 88 61 89 63 90 60 91 56 92 57 93 58 94 59 95
REMARK H PARENT 12 9 14 13 83 48 51 59
REMARK Flexibility Score: inf
ROOT
ATOM      1  C   UNL A   1      36.787  19.732  24.826  1.00  0.00     0.274 C 
ENDROOT
BRANCH   1   2
ATOM      2  O   UNL A   1      36.203  20.954  25.321  1.00  0.00    -0.462 OA
BRANCH   2   3
ATOM      3  C   UNL A   1      35.743  21.820  24.387  1.00  0.00     0.307 C 
ATOM      4  O   UNL A   1      36.459  22.443  23.611  1.00  0.00    -0.252 OA
BRANCH   3   5
ATOM      5  C   UNL A   1      34.237  21.977  24.378  1.00  0.00     0.150 C 
BRANCH   5   6
ATOM      6  C   UNL A   1      33.446  21.730  25.658  1.00  0.00     0.184 C 
ATOM      7  N   UNL A   1      30.251  23.730  26.356  1.00  0.00    -0.142 N 
ATOM      8  C   UNL A   1      31.270  22.944  26.269  1.00  0.00     0.337 C 
ATOM      9  H   UNL A   1      29.338  23.364  26.315  1.00  0.00     0.343 HD
ATOM     10  N   UNL A   1      31.072  21.682  25.819  1.00  0.00    -0.202 N 
ATOM     11  S   UNL A   1      32.953  23.215  26.592  1.00  0.00    -0.020 SA
ATOM     12  C   UNL A   1      32.158  20.985  25.386  1.00  0.00     0.322 C 
ATOM     13  H   UNL A   1      30.173  21.282  25.805  1.00  0.00     0.316 HD
ATOM     14  O   UNL A   1      32.078  19.914  24.797  1.00  0.00    -0.246 OA
BRANCH   7  15
ATOM     15  N   UNL A   1      30.454  25.102  26.507  1.00  0.00    -0.093 NA
ATOM     16  C   UNL A   1      30.393  25.784  25.410  1.00  0.00     0.170 C 
BRANCH  16  17
ATOM     17  C   UNL A   1      30.937  27.150  25.326  1.00  0.00     0.042 A 
ATOM     18  C   UNL A   1      32.270  28.937  26.298  1.00  0.00     0.119 A 
ATOM     19  C   UNL A   1      31.813  29.792  25.298  1.00  0.00     0.050 A 
ATOM     20  C   UNL A   1      31.852  27.608  26.290  1.00  0.00     0.060 A 
ATOM     21  C   UNL A   1      30.969  29.320  24.289  1.00  0.00     0.051 A 
ATOM     22  C   UNL A   1      30.533  27.991  24.284  1.00  0.00     0.128 A 
BRANCH  18  23
ATOM     23  O   UNL A   1      33.074  29.527  27.233  1.00  0.00    -0.497 OA
ATOM     24  C   UNL A   1      34.474  29.305  27.117  1.00  0.00     0.278 C 
ENDBRANCH  18  23
BRANCH  22  25
ATOM     25  O   UNL A   1      29.723  27.666  23.228  1.00  0.00    -0.496 OA
ATOM     26  C   UNL A   1      28.665  28.578  22.927  1.00  0.00     0.278 C 
ENDBRANCH  22  25
ENDBRANCH  16  17
ENDBRANCH   7  15
ENDBRANCH   5   6
ENDBRANCH   3   5
ENDBRANCH   2   3
ENDBRANCH   1   2
BRANCH   1  27
ATOM     27  C   UNL A   1      38.273  19.632  25.173  1.00  0.00     0.275 C 
BRANCH  27  28
ATOM     28  O   UNL A   1      38.715  20.803  25.882  1.00  0.00    -0.458 OA
BRANCH  28  29
ATOM     29  C   UNL A   1      39.918  20.703  26.484  1.00  0.00     0.338 C 
ATOM     30  O   UNL A   1      40.499  19.688  26.837  1.00  0.00    -0.246 OA
BRANCH  29  31
ATOM     31  C   UNL A   1      40.507  22.011  26.744  1.00  0.00     0.060 A 
ATOM     32  C   UNL A   1      41.524  22.147  27.686  1.00  0.00     0.016 A 
ATOM     33  C   UNL A   1      39.926  23.129  26.137  1.00  0.00     0.016 A 
ATOM     34  C   UNL A   1      41.943  23.420  28.049  1.00  0.00     0.010 A 
ATOM     35  C   UNL A   1      40.401  24.398  26.447  1.00  0.00     0.010 A 
ATOM     36  C   UNL A   1      41.403  24.551  27.414  1.00  0.00    -0.014 A 
BRANCH  36  37
ATOM     37  C   UNL A   1      41.944  25.892  27.726  1.00  0.00     0.031 A 
ATOM     38  C   UNL A   1      41.141  26.885  28.510  1.00  0.00     0.074 A 
ATOM     39  C   UNL A   1      43.170  26.199  27.267  1.00  0.00     0.049 A 
ATOM     40  N   UNL A   1      41.440  28.117  28.833  1.00  0.00    -0.248 NA
ATOM     41  C   UNL A   1      39.821  26.442  28.979  1.00  0.00     0.031 C 
ATOM     42  C   UNL A   1      44.017  25.306  26.469  1.00  0.00     0.029 A 
ATOM     43  N   UNL A   1      43.919  27.336  27.401  1.00  0.00    -0.354 N 
ATOM     44  C   UNL A   1      40.342  28.606  29.531  1.00  0.00     0.074 A 
ATOM     45  C   UNL A   1      39.355  27.544  29.548  1.00  0.00     0.031 C 
ATOM     46  C   UNL A   1      45.179  25.920  26.209  1.00  0.00     0.029 A 
ATOM     47  C   UNL A   1      45.137  27.265  26.769  1.00  0.00     0.049 A 
ATOM     48  H   UNL A   1      43.615  28.128  27.901  1.00  0.00     0.167 HD
ATOM     49  C   UNL A   1      40.182  29.824  30.107  1.00  0.00     0.034 A 
ATOM     50  C   UNL A   1      46.103  28.189  26.636  1.00  0.00     0.034 A 
ATOM     51  C   UNL A   1      41.181  30.869  30.055  1.00  0.00     0.049 A 
ATOM     52  C   UNL A   1      45.906  29.528  27.282  1.00  0.00     0.074 A 
ATOM     53  C   UNL A   1      41.135  32.142  30.599  1.00  0.00     0.029 A 
ATOM     54  N   UNL A   1      42.410  30.761  29.413  1.00  0.00    -0.354 N 
ATOM     55  N   UNL A   1      44.864  29.978  27.943  1.00  0.00    -0.248 NA
ATOM     56  C   UNL A   1      47.019  30.476  27.174  1.00  0.00     0.031 C 
ATOM     57  C   UNL A   1      42.309  32.818  30.240  1.00  0.00     0.029 A 
ATOM     58  C   UNL A   1      43.122  31.949  29.530  1.00  0.00     0.049 A 
ATOM     59  H   UNL A   1      42.731  29.958  28.942  1.00  0.00     0.167 HD
ATOM     60  C   UNL A   1      45.197  31.269  28.334  1.00  0.00     0.074 A 
ATOM     61  C   UNL A   1      46.550  31.507  27.863  1.00  0.00     0.031 C 
ATOM     62  C   UNL A   1      44.453  32.179  29.016  1.00  0.00     0.034 A 
BRANCH  49  63
ATOM     63  C   UNL A   1      38.858  30.094  30.786  1.00  0.00     0.023 A 
ATOM     64  C   UNL A   1      37.869  30.896  30.187  1.00  0.00     0.031 A 
ATOM     65  C   UNL A   1      38.602  29.595  32.075  1.00  0.00     0.131 A 
ATOM     66  C   UNL A   1      36.714  31.244  30.907  1.00  0.00     0.055 A 
ATOM     67  C   UNL A   1      37.414  29.879  32.755  1.00  0.00     0.041 A 
ATOM     68  F   UNL A   1      39.514  28.842  32.710  1.00  0.00    -0.206 F 
ATOM     69  C   UNL A   1      36.470  30.722  32.179  1.00  0.00     0.022 A 
BRANCH  66  70
ATOM     70  S   UNL A   1      35.616  32.518  30.224  1.00  0.00     0.124 S 
ATOM     71  O   UNL A   1      36.426  33.725  30.382  1.00  0.00    -0.237 OA
ATOM     72  O   UNL A   1      35.415  32.059  28.854  1.00  0.00    -0.237 OA
ATOM     73  O   UNL A   1      34.437  32.453  31.084  1.00  0.00    -0.744 OA
ENDBRANCH  66  70
ENDBRANCH  49  63
BRANCH  50  74
ATOM     74  C   UNL A   1      47.317  27.871  25.839  1.00  0.00     0.023 A 
ATOM     75  C   UNL A   1      47.319  27.985  24.442  1.00  0.00     0.031 A 
ATOM     76  C   UNL A   1      48.507  27.479  26.478  1.00  0.00     0.131 A 
ATOM     77  C   UNL A   1      48.486  27.686  23.722  1.00  0.00     0.055 A 
ATOM     78  C   UNL A   1      49.676  27.223  25.761  1.00  0.00     0.041 A 
ATOM     79  F   UNL A   1      48.558  27.375  27.815  1.00  0.00    -0.206 F 
ATOM     80  C   UNL A   1      49.667  27.319  24.373  1.00  0.00     0.022 A 
BRANCH  77  81
ATOM     81  S   UNL A   1      48.431  27.753  21.911  1.00  0.00     0.124 S 
ATOM     82  O   UNL A   1      48.645  26.356  21.553  1.00  0.00    -0.237 OA
ATOM     83  O   UNL A   1      47.091  28.280  21.668  1.00  0.00    -0.237 OA
ATOM     84  O   UNL A   1      49.524  28.661  21.571  1.00  0.00    -0.744 OA
ENDBRANCH  77  81
ENDBRANCH  50  74
BRANCH  62  85
ATOM     85  C   UNL A   1      45.116  33.505  29.290  1.00  0.00     0.023 A 
ATOM     86  C   UNL A   1      44.911  34.614  28.450  1.00  0.00     0.031 A 
ATOM     87  C   UNL A   1      46.010  33.644  30.364  1.00  0.00     0.131 A 
ATOM     88  C   UNL A   1      45.649  35.789  28.652  1.00  0.00     0.055 A 
ATOM     89  C   UNL A   1      46.697  34.837  30.598  1.00  0.00     0.041 A 
ATOM     90  F   UNL A   1      46.246  32.616  31.195  1.00  0.00    -0.206 F 
ATOM     91  C   UNL A   1      46.531  35.912  29.728  1.00  0.00     0.022 A 
BRANCH  88  92
ATOM     92  S   UNL A   1      45.536  37.111  27.414  1.00  0.00     0.124 S 
ATOM     93  O   UNL A   1      46.672  36.814  26.547  1.00  0.00    -0.237 OA
ATOM     94  O   UNL A   1      44.216  36.882  26.836  1.00  0.00    -0.237 OA
ATOM     95  O   UNL A   1      45.663  38.333  28.205  1.00  0.00    -0.744 OA
ENDBRANCH  88  92
ENDBRANCH  62  85
ENDBRANCH  36  37
ENDBRANCH  29  31
ENDBRANCH  28  29
ENDBRANCH  27  28
ENDBRANCH   1  27
TORSDOF 19
ENDMDL
MODEL 3
REMARK VINA RESULT:     -11.0      2.031      7.725
REMARK SMILES COc1ccc(OC)c(/C=N/[NH+]=C2/NC(=O)[C@@H](CC(=O)OCCOC(=O)c3ccc(-c4c5nc(c(-c6cc(S(=O)(=O)[O-])ccc6F)c6ccc([nH]6)c(-c6cc(S(=O)(=O)[O-])ccc6F)c6nc(c(-c7cc(S(=O)(=O)[O-])ccc7F)c7ccc4[nH]7)C=C6)C=C5)cc3)S2)c1
REMARK SMILES IDX 22 1 21 2 19 3 20 4 18 5 17 6 12 7 13 8 14 10 90 11 15 12
REMARK SMILES IDX 16 14 11 15 10 16 9 17 3 18 4 19 91 20 5 21 6 22 2 23 1 24
REMARK SMILES IDX 7 25 8 26 23 27 24 28 25 29 26 30 27 31 28 32 89 33 29 34
REMARK SMILES IDX 88 35 30 36 31 37 32 38 82 39 33 40 87 41 81 42 83 43 34 44
REMARK SMILES IDX 86 45 80 46 79 47 35 49 67 50 47 51 66 52 48 53 51 54 65 55
REMARK SMILES IDX 84 56 49 57 50 58 64 60 85 61 52 62 36 63 37 64 45 65 38 66
REMARK SMILES IDX 44 67 46 68 43 69 39 70 40 71 41 72 42 73 68 74 69 75 77 76
REMARK SMILES IDX 70 77 76 78 78 79 75 80 71 81 72 82 73 83 74 84 53 85 54 86
REMARK SMILES IDX 62 87 55 88 61 89 63 90 60 91 56 92 57 93 58 94 59 95
REMARK H PARENT 12 9 14 13 83 48 51 59
REMARK Flexibility Score: inf
ROOT
ATOM      1  C   UNL A   1      36.879  22.517  23.561  1.00  0.00     0.274 C 
ENDROOT
BRANCH   1   2
ATOM      2  O   UNL A   1      35.789  23.301  24.086  1.00  0.00    -0.462 OA
BRANCH   2   3
ATOM      3  C   UNL A   1      34.634  23.270  23.380  1.00  0.00     0.307 C 
ATOM      4  O   UNL A   1      34.366  24.036  22.461  1.00  0.00    -0.252 OA
BRANCH   3   5
ATOM      5  C   UNL A   1      33.663  22.198  23.829  1.00  0.00     0.150 C 
BRANCH   5   6
ATOM      6  C   UNL A   1      33.247  22.124  25.293  1.00  0.00     0.184 C 
ATOM      7  N   UNL A   1      30.140  24.016  26.502  1.00  0.00    -0.142 N 
ATOM      8  C   UNL A   1      31.180  23.291  26.268  1.00  0.00     0.337 C 
ATOM      9  H   UNL A   1      29.288  23.594  26.758  1.00  0.00     0.343 HD
ATOM     10  N   UNL A   1      31.006  21.961  26.079  1.00  0.00    -0.202 N 
ATOM     11  S   UNL A   1      32.853  23.714  26.093  1.00  0.00    -0.020 SA
ATOM     12  C   UNL A   1      32.015  21.267  25.484  1.00  0.00     0.322 C 
ATOM     13  H   UNL A   1      30.178  21.511  26.361  1.00  0.00     0.316 HD
ATOM     14  O   UNL A   1      31.901  20.109  25.102  1.00  0.00    -0.246 OA
BRANCH   7  15
ATOM     15  N   UNL A   1      30.233  25.404  26.389  1.00  0.00    -0.093 NA
ATOM     16  C   UNL A   1      30.309  25.846  25.176  1.00  0.00     0.170 C 
BRANCH  16  17
ATOM     17  C   UNL A   1      30.776  27.213  24.887  1.00  0.00     0.042 A 
ATOM     18  C   UNL A   1      32.335  29.029  25.319  1.00  0.00     0.119 A 
ATOM     19  C   UNL A   1      31.558  29.858  24.514  1.00  0.00     0.050 A 
ATOM     20  C   UNL A   1      31.955  27.698  25.478  1.00  0.00     0.060 A 
ATOM     21  C   UNL A   1      30.430  29.358  23.856  1.00  0.00     0.051 A 
ATOM     22  C   UNL A   1      30.036  28.027  24.024  1.00  0.00     0.128 A 
BRANCH  18  23
ATOM     23  O   UNL A   1      33.399  29.645  25.918  1.00  0.00    -0.497 OA
ATOM     24  C   UNL A   1      33.749  29.206  27.225  1.00  0.00     0.278 C 
ENDBRANCH  18  23
BRANCH  22  25
ATOM     25  O   UNL A   1      28.922  27.674  23.308  1.00  0.00    -0.496 OA
ATOM     26  C   UNL A   1      28.115  28.741  22.809  1.00  0.00     0.278 C 
ENDBRANCH  22  25
ENDBRANCH  16  17
ENDBRANCH   7  15
ENDBRANCH   5   6
ENDBRANCH   3   5
ENDBRANCH   2   3
ENDBRANCH   1   2
BRANCH   1  27
ATOM     27  C   UNL A   1      37.171  21.294  24.432  1.00  0.00     0.275 C 
BRANCH  27  28
ATOM     28  O   UNL A   1      37.544  21.689  25.764  1.00  0.00    -0.458 OA
BRANCH  28  29
ATOM     29  C   UNL A   1      38.845  21.525  26.081  1.00  0.00     0.338 C 
ATOM     30  O   UNL A   1      39.508  20.500  26.017  1.00  0.00    -0.246 OA
BRANCH  29  31
ATOM     31  C   UNL A   1      39.441  22.753  26.590  1.00  0.00     0.060 A 
ATOM     32  C   UNL A   1      39.116  23.980  26.016  1.00  0.00     0.016 A 
ATOM     33  C   UNL A   1      40.445  22.648  27.557  1.00  0.00     0.016 A 
ATOM     34  C   UNL A   1      39.827  25.111  26.392  1.00  0.00     0.010 A 
ATOM     35  C   UNL A   1      41.103  23.795  27.986  1.00  0.00     0.010 A 
ATOM     36  C   UNL A   1      40.806  25.031  27.397  1.00  0.00    -0.014 A 
BRANCH  36  37
ATOM     37  C   UNL A   1      41.471  26.265  27.870  1.00  0.00     0.031 A 
ATOM     38  C   UNL A   1      40.709  27.308  28.630  1.00  0.00     0.074 A 
ATOM     39  C   UNL A   1      42.774  26.430  27.581  1.00  0.00     0.049 A 
ATOM     40  N   UNL A   1      41.121  28.467  29.078  1.00  0.00    -0.248 NA
ATOM     41  C   UNL A   1      39.295  27.021  28.908  1.00  0.00     0.031 C 
ATOM     42  C   UNL A   1      43.592  25.480  26.821  1.00  0.00     0.029 A 
ATOM     43  N   UNL A   1      43.638  27.444  27.887  1.00  0.00    -0.354 N 
ATOM     44  C   UNL A   1      40.015  29.057  29.679  1.00  0.00     0.074 A 
ATOM     45  C   UNL A   1      38.906  28.139  29.502  1.00  0.00     0.031 C 
ATOM     46  C   UNL A   1      44.846  25.945  26.744  1.00  0.00     0.029 A 
ATOM     47  C   UNL A   1      44.906  27.246  27.396  1.00  0.00     0.049 A 
ATOM     48  H   UNL A   1      43.378  28.239  28.408  1.00  0.00     0.167 HD
ATOM     49  C   UNL A   1      39.941  30.249  30.324  1.00  0.00     0.034 A 
ATOM     50  C   UNL A   1      45.992  28.037  27.447  1.00  0.00     0.034 A 
ATOM     51  C   UNL A   1      41.063  31.150  30.468  1.00  0.00     0.049 A 
ATOM     52  C   UNL A   1      45.888  29.350  28.165  1.00  0.00     0.074 A 
ATOM     53  C   UNL A   1      41.113  32.382  31.098  1.00  0.00     0.029 A 
ATOM     54  N   UNL A   1      42.340  30.915  29.966  1.00  0.00    -0.354 N 
ATOM     55  N   UNL A   1      44.838  29.896  28.734  1.00  0.00    -0.248 NA
ATOM     56  C   UNL A   1      47.117  30.143  28.260  1.00  0.00     0.031 C 
ATOM     57  C   UNL A   1      42.399  32.913  30.930  1.00  0.00     0.029 A 
ATOM     58  C   UNL A   1      43.176  31.986  30.255  1.00  0.00     0.049 A 
ATOM     59  H   UNL A   1      42.612  30.105  29.476  1.00  0.00     0.167 HD
ATOM     60  C   UNL A   1      45.281  31.104  29.259  1.00  0.00     0.074 A 
ATOM     61  C   UNL A   1      46.700  31.184  28.966  1.00  0.00     0.031 C 
ATOM     62  C   UNL A   1      44.580  32.064  29.917  1.00  0.00     0.034 A 
BRANCH  49  63
ATOM     63  C   UNL A   1      38.588  30.655  30.864  1.00  0.00     0.023 A 
ATOM     64  C   UNL A   1      37.634  31.304  30.060  1.00  0.00     0.031 A 
ATOM     65  C   UNL A   1      38.267  30.446  32.218  1.00  0.00     0.131 A 
ATOM     66  C   UNL A   1      36.448  31.795  30.631  1.00  0.00     0.055 A 
ATOM     67  C   UNL A   1      37.050  30.865  32.762  1.00  0.00     0.041 A 
ATOM     68  F   UNL A   1      39.143  29.851  33.044  1.00  0.00    -0.206 F 
ATOM     69  C   UNL A   1      36.141  31.560  31.972  1.00  0.00     0.022 A 
BRANCH  66  70
ATOM     70  S   UNL A   1      35.393  32.886  29.636  1.00  0.00     0.124 S 
ATOM     71  O   UNL A   1      34.177  32.942  30.444  1.00  0.00    -0.237 OA
ATOM     72  O   UNL A   1      36.177  34.115  29.577  1.00  0.00    -0.237 OA
ATOM     73  O   UNL A   1      35.256  32.171  28.369  1.00  0.00    -0.744 OA
ENDBRANCH  66  70
ENDBRANCH  49  63
BRANCH  50  74
ATOM     74  C   UNL A   1      47.245  27.607  26.773  1.00  0.00     0.023 A 
ATOM     75  C   UNL A   1      48.220  26.867  27.457  1.00  0.00     0.031 A 
ATOM     76  C   UNL A   1      47.465  27.906  25.416  1.00  0.00     0.131 A 
ATOM     77  C   UNL A   1      49.386  26.468  26.786  1.00  0.00     0.055 A 
ATOM     78  C   UNL A   1      48.607  27.473  24.744  1.00  0.00     0.041 A 
ATOM     79  F   UNL A   1      46.550  28.596  24.717  1.00  0.00    -0.206 F 
ATOM     80  C   UNL A   1      49.579  26.755  25.432  1.00  0.00     0.022 A 
BRANCH  77  81
ATOM     81  S   UNL A   1      50.669  25.593  27.722  1.00  0.00     0.124 S 
ATOM     82  O   UNL A   1      50.150  24.231  27.740  1.00  0.00    -0.237 OA
ATOM     83  O   UNL A   1      51.853  25.817  26.897  1.00  0.00    -0.237 OA
ATOM     84  O   UNL A   1      50.675  26.277  29.013  1.00  0.00    -0.744 OA
ENDBRANCH  77  81
ENDBRANCH  50  74
BRANCH  62  85
ATOM     85  C   UNL A   1      45.367  33.269  30.366  1.00  0.00     0.023 A 
ATOM     86  C   UNL A   1      45.960  33.324  31.639  1.00  0.00     0.031 A 
ATOM     87  C   UNL A   1      45.473  34.398  29.536  1.00  0.00     0.131 A 
ATOM     88  C   UNL A   1      46.566  34.511  32.077  1.00  0.00     0.055 A 
ATOM     89  C   UNL A   1      46.131  35.555  29.953  1.00  0.00     0.041 A 
ATOM     90  F   UNL A   1      44.922  34.400  28.311  1.00  0.00    -0.206 F 
ATOM     91  C   UNL A   1      46.666  35.622  31.237  1.00  0.00     0.022 A 
BRANCH  88  92
ATOM     92  S   UNL A   1      47.108  34.624  33.805  1.00  0.00     0.124 S 
ATOM     93  O   UNL A   1      45.849  34.481  34.529  1.00  0.00    -0.237 OA
ATOM     94  O   UNL A   1      48.037  33.504  33.913  1.00  0.00    -0.237 OA
ATOM     95  O   UNL A   1      47.721  35.948  33.885  1.00  0.00    -0.744 OA
ENDBRANCH  88  92
ENDBRANCH  62  85
ENDBRANCH  36  37
ENDBRANCH  29  31
ENDBRANCH  28  29
ENDBRANCH  27  28
ENDBRANCH   1  27
TORSDOF 19
ENDMDL
