MODEL 1
REMARK VINA RESULT:     -11.7      0.000      0.000
REMARK SMILES CC1(C)S[C@H](c2ccc(Cl)cc2Cl)[NH2+][C@H]1C(=O)OCCOC(=O)c1ccc(-c2c3nc(c(-c4cc(S(=O)(=O)[O-])ccc4F)c4ccc([nH]4)c(-c4cc(S(=O)(=O)[O-])ccc4F)c4nc(c(-c5cc(S(=O)(=O)[O-])ccc5F)c5ccc2[nH]5)C=C4)C=C3)cc1
REMARK SMILES IDX 20 1 19 2 18 3 16 4 17 5 15 6 1 7 2 8 3 9 4 10 5 11 14 12
REMARK SMILES IDX 6 15 7 16 12 17 8 18 11 19 13 20 9 21 10 22 21 23 22 24
REMARK SMILES IDX 23 25 24 26 25 27 86 28 26 29 85 30 27 31 28 32 29 33 79 34
REMARK SMILES IDX 30 35 84 36 78 37 80 38 31 39 83 40 77 41 76 42 32 44 64 45
REMARK SMILES IDX 44 46 63 47 45 48 48 49 62 50 81 51 46 52 47 53 61 55 82 56
REMARK SMILES IDX 49 57 33 58 34 59 42 60 35 61 41 62 43 63 40 64 36 65 37 66
REMARK SMILES IDX 38 67 39 68 65 69 66 70 74 71 67 72 73 73 75 74 72 75 68 76
REMARK SMILES IDX 69 77 70 78 71 79 50 80 51 81 59 82 52 83 58 84 60 85 57 86
REMARK SMILES IDX 53 87 54 88 55 89 56 90
REMARK H PARENT 14 13 14 14 80 43 48 54
REMARK Flexibility Score: inf
ROOT
ATOM      1  C   UNL A   1      36.968  21.394  24.302  1.00  0.00     0.275 C 
ENDROOT
BRANCH   1   2
ATOM      2  C   UNL A   1      36.865  22.625  23.394  1.00  0.00     0.274 C 
BRANCH   2   3
ATOM      3  O   UNL A   1      36.141  23.714  24.006  1.00  0.00    -0.458 OA
BRANCH   3   4
ATOM      4  C   UNL A   1      34.842  23.827  23.630  1.00  0.00     0.366 C 
ATOM      5  O   UNL A   1      34.461  24.610  22.762  1.00  0.00    -0.245 OA
BRANCH   4   6
ATOM      6  C   UNL A   1      33.860  22.960  24.436  1.00  0.00     0.310 C 
ATOM      7  C   UNL A   1      33.056  24.829  26.094  1.00  0.00     0.030 C 
ATOM      8  C   UNL A   1      33.419  23.362  25.861  1.00  0.00     0.079 C 
ATOM      9  C   UNL A   1      34.402  22.875  26.929  1.00  0.00     0.030 C 
ATOM     10  S   UNL A   1      31.851  22.401  26.061  1.00  0.00    -0.081 SA
ATOM     11  C   UNL A   1      31.839  21.737  24.345  1.00  0.00     0.276 C 
ATOM     12  N   UNL A   1      32.642  22.714  23.613  1.00  0.00    -0.319 N 
ATOM     13  H   UNL A   1      32.117  23.581  23.490  1.00  0.00     0.348 HD
ATOM     14  H   UNL A   1      32.887  22.370  22.685  1.00  0.00     0.348 HD
BRANCH  11  15
ATOM     15  C   UNL A   1      32.247  20.258  24.274  1.00  0.00     0.039 A 
ATOM     16  C   UNL A   1      32.533  19.605  25.500  1.00  0.00     0.014 A 
ATOM     17  C   UNL A   1      32.277  19.447  23.117  1.00  0.00     0.052 A 
ATOM     18  C   UNL A   1      32.903  18.258  25.566  1.00  0.00     0.021 A 
ATOM     19  C   UNL A   1      32.674  18.100  23.181  1.00  0.00     0.041 A 
ATOM     20  Cl  UNL A   1      31.779  19.969  21.544  1.00  0.00    -0.084 Cl
ATOM     21  C   UNL A   1      32.987  17.514  24.400  1.00  0.00     0.042 A 
ATOM     22  Cl  UNL A   1      33.432  15.856  24.474  1.00  0.00    -0.084 Cl
ENDBRANCH  11  15
ENDBRANCH   4   6
ENDBRANCH   3   4
ENDBRANCH   2   3
ENDBRANCH   1   2
BRANCH   1  23
ATOM     23  O   UNL A   1      37.367  21.736  25.642  1.00  0.00    -0.458 OA
BRANCH  23  24
ATOM     24  C   UNL A   1      38.647  21.423  25.954  1.00  0.00     0.338 C 
ATOM     25  O   UNL A   1      39.209  20.362  25.750  1.00  0.00    -0.246 OA
BRANCH  24  26
ATOM     26  C   UNL A   1      39.335  22.604  26.500  1.00  0.00     0.060 A 
ATOM     27  C   UNL A   1      38.905  23.874  26.109  1.00  0.00     0.016 A 
ATOM     28  C   UNL A   1      40.462  22.459  27.307  1.00  0.00     0.016 A 
ATOM     29  C   UNL A   1      39.601  25.010  26.512  1.00  0.00     0.010 A 
ATOM     30  C   UNL A   1      41.154  23.602  27.726  1.00  0.00     0.010 A 
ATOM     31  C   UNL A   1      40.734  24.883  27.324  1.00  0.00    -0.014 A 
BRANCH  31  32
ATOM     32  C   UNL A   1      41.501  26.089  27.720  1.00  0.00     0.031 A 
ATOM     33  C   UNL A   1      40.837  27.159  28.539  1.00  0.00     0.074 A 
ATOM     34  C   UNL A   1      42.787  26.219  27.348  1.00  0.00     0.049 A 
ATOM     35  N   UNL A   1      41.278  28.345  28.867  1.00  0.00    -0.248 NA
ATOM     36  C   UNL A   1      39.495  26.848  29.052  1.00  0.00     0.031 C 
ATOM     37  C   UNL A   1      43.556  25.218  26.605  1.00  0.00     0.029 A 
ATOM     38  N   UNL A   1      43.673  27.250  27.533  1.00  0.00    -0.354 N 
ATOM     39  C   UNL A   1      40.259  28.937  29.606  1.00  0.00     0.074 A 
ATOM     40  C   UNL A   1      39.172  27.980  29.660  1.00  0.00     0.031 C 
ATOM     41  C   UNL A   1      44.795  25.691  26.388  1.00  0.00     0.029 A 
ATOM     42  C   UNL A   1      44.888  27.047  26.922  1.00  0.00     0.049 A 
ATOM     43  H   UNL A   1      43.458  28.059  28.052  1.00  0.00     0.167 HD
ATOM     44  C   UNL A   1      40.236  30.164  30.182  1.00  0.00     0.034 A 
ATOM     45  C   UNL A   1      45.940  27.876  26.771  1.00  0.00     0.034 A 
ATOM     46  C   UNL A   1      41.332  31.102  30.117  1.00  0.00     0.049 A 
ATOM     47  C   UNL A   1      45.861  29.265  27.347  1.00  0.00     0.074 A 
ATOM     48  C   UNL A   1      41.418  32.370  30.667  1.00  0.00     0.029 A 
ATOM     49  N   UNL A   1      42.533  30.876  29.455  1.00  0.00    -0.354 N 
ATOM     50  N   UNL A   1      44.879  29.830  28.011  1.00  0.00    -0.248 NA
ATOM     51  C   UNL A   1      47.030  30.131  27.149  1.00  0.00     0.031 C 
ATOM     52  C   UNL A   1      42.644  32.932  30.289  1.00  0.00     0.029 A 
ATOM     53  C   UNL A   1      43.353  31.990  29.559  1.00  0.00     0.049 A 
ATOM     54  H   UNL A   1      42.768  30.046  28.982  1.00  0.00     0.167 HD
ATOM     55  C   UNL A   1      45.322  31.111  28.327  1.00  0.00     0.074 A 
ATOM     56  C   UNL A   1      46.663  31.230  27.792  1.00  0.00     0.031 C 
ATOM     57  C   UNL A   1      44.681  32.099  29.003  1.00  0.00     0.034 A 
BRANCH  44  58
ATOM     58  C   UNL A   1      38.961  30.579  30.873  1.00  0.00     0.023 A 
ATOM     59  C   UNL A   1      37.943  31.278  30.201  1.00  0.00     0.031 A 
ATOM     60  C   UNL A   1      38.778  30.302  32.240  1.00  0.00     0.131 A 
ATOM     61  C   UNL A   1      36.822  31.735  30.912  1.00  0.00     0.055 A 
ATOM     62  C   UNL A   1      37.626  30.697  32.925  1.00  0.00     0.041 A 
ATOM     63  F   UNL A   1      39.727  29.658  32.939  1.00  0.00    -0.206 F 
ATOM     64  C   UNL A   1      36.646  31.429  32.263  1.00  0.00     0.022 A 
BRANCH  61  65
ATOM     65  S   UNL A   1      35.660  32.852  30.078  1.00  0.00     0.124 S 
ATOM     66  O   UNL A   1      34.401  32.521  30.743  1.00  0.00    -0.237 OA
ATOM     67  O   UNL A   1      36.214  34.166  30.379  1.00  0.00    -0.237 OA
ATOM     68  O   UNL A   1      35.740  32.446  28.677  1.00  0.00    -0.744 OA
ENDBRANCH  61  65
ENDBRANCH  44  58
BRANCH  45  69
ATOM     69  C   UNL A   1      47.129  27.443  25.984  1.00  0.00     0.023 A 
ATOM     70  C   UNL A   1      47.276  27.795  24.633  1.00  0.00     0.031 A 
ATOM     71  C   UNL A   1      48.121  26.634  26.568  1.00  0.00     0.131 A 
ATOM     72  C   UNL A   1      48.370  27.309  23.901  1.00  0.00     0.055 A 
ATOM     73  C   UNL A   1      49.232  26.195  25.849  1.00  0.00     0.041 A 
ATOM     74  F   UNL A   1      48.026  26.268  27.857  1.00  0.00    -0.206 F 
ATOM     75  C   UNL A   1      49.355  26.523  24.503  1.00  0.00     0.022 A 
BRANCH  72  76
ATOM     76  S   UNL A   1      48.451  27.659  22.124  1.00  0.00     0.124 S 
ATOM     77  O   UNL A   1      48.644  26.325  21.566  1.00  0.00    -0.237 OA
ATOM     78  O   UNL A   1      47.152  28.276  21.877  1.00  0.00    -0.237 OA
ATOM     79  O   UNL A   1      49.598  28.556  22.005  1.00  0.00    -0.744 OA
ENDBRANCH  72  76
ENDBRANCH  45  69
BRANCH  57  80
ATOM     80  C   UNL A   1      45.450  33.374  29.232  1.00  0.00     0.023 A 
ATOM     81  C   UNL A   1      45.522  34.380  28.251  1.00  0.00     0.031 A 
ATOM     82  C   UNL A   1      46.136  33.577  30.442  1.00  0.00     0.131 A 
ATOM     83  C   UNL A   1      46.304  35.522  28.480  1.00  0.00     0.055 A 
ATOM     84  C   UNL A   1      46.872  34.737  30.684  1.00  0.00     0.041 A 
ATOM     85  F   UNL A   1      46.101  32.647  31.410  1.00  0.00    -0.206 F 
ATOM     86  C   UNL A   1      46.968  35.713  29.695  1.00  0.00     0.022 A 
BRANCH  83  87
ATOM     87  S   UNL A   1      46.507  36.724  27.137  1.00  0.00     0.124 S 
ATOM     88  O   UNL A   1      45.951  36.003  25.997  1.00  0.00    -0.237 OA
ATOM     89  O   UNL A   1      45.727  37.862  27.615  1.00  0.00    -0.237 OA
ATOM     90  O   UNL A   1      47.953  36.944  27.087  1.00  0.00    -0.744 OA
ENDBRANCH  83  87
ENDBRANCH  57  80
ENDBRANCH  31  32
ENDBRANCH  24  26
ENDBRANCH  23  24
ENDBRANCH   1  23
TORSDOF 15
ENDMDL
MODEL 2
REMARK VINA RESULT:     -11.6      5.319     10.058
REMARK SMILES CC1(C)S[C@H](c2ccc(Cl)cc2Cl)[NH2+][C@H]1C(=O)OCCOC(=O)c1ccc(-c2c3nc(c(-c4cc(S(=O)(=O)[O-])ccc4F)c4ccc([nH]4)c(-c4cc(S(=O)(=O)[O-])ccc4F)c4nc(c(-c5cc(S(=O)(=O)[O-])ccc5F)c5ccc2[nH]5)C=C4)C=C3)cc1
REMARK SMILES IDX 20 1 19 2 18 3 16 4 17 5 15 6 1 7 2 8 3 9 4 10 5 11 14 12
REMARK SMILES IDX 6 15 7 16 12 17 8 18 11 19 13 20 9 21 10 22 21 23 22 24
REMARK SMILES IDX 23 25 24 26 25 27 86 28 26 29 85 30 27 31 28 32 29 33 79 34
REMARK SMILES IDX 30 35 84 36 78 37 80 38 31 39 83 40 77 41 76 42 32 44 64 45
REMARK SMILES IDX 44 46 63 47 45 48 48 49 62 50 81 51 46 52 47 53 61 55 82 56
REMARK SMILES IDX 49 57 33 58 34 59 42 60 35 61 41 62 43 63 40 64 36 65 37 66
REMARK SMILES IDX 38 67 39 68 65 69 66 70 74 71 67 72 73 73 75 74 72 75 68 76
REMARK SMILES IDX 69 77 70 78 71 79 50 80 51 81 59 82 52 83 58 84 60 85 57 86
REMARK SMILES IDX 53 87 54 88 55 89 56 90
REMARK H PARENT 14 13 14 14 80 43 48 54
REMARK Flexibility Score: inf
ROOT
ATOM      1  C   UNL A   1      31.724  30.064  26.296  1.00  0.00     0.275 C 
ENDROOT
BRANCH   1   2
ATOM      2  C   UNL A   1      31.724  28.748  27.082  1.00  0.00     0.274 C 
BRANCH   2   3
ATOM      3  O   UNL A   1      32.422  27.686  26.399  1.00  0.00    -0.458 OA
BRANCH   3   4
ATOM      4  C   UNL A   1      31.682  26.575  26.149  1.00  0.00     0.366 C 
ATOM      5  O   UNL A   1      30.758  26.209  26.870  1.00  0.00    -0.245 OA
BRANCH   4   6
ATOM      6  C   UNL A   1      32.145  25.754  24.933  1.00  0.00     0.310 C 
ATOM      7  C   UNL A   1      31.341  27.429  23.079  1.00  0.00     0.030 C 
ATOM      8  C   UNL A   1      31.535  25.981  23.532  1.00  0.00     0.079 C 
ATOM      9  C   UNL A   1      30.248  25.177  23.324  1.00  0.00     0.030 C 
ATOM     10  S   UNL A   1      32.831  25.260  22.428  1.00  0.00    -0.081 SA
ATOM     11  C   UNL A   1      34.023  24.897  23.782  1.00  0.00     0.276 C 
ATOM     12  N   UNL A   1      33.629  25.841  24.824  1.00  0.00    -0.319 N 
ATOM     13  H   UNL A   1      33.909  26.788  24.568  1.00  0.00     0.348 HD
ATOM     14  H   UNL A   1      34.078  25.620  25.713  1.00  0.00     0.348 HD
BRANCH  11  15
ATOM     15  C   UNL A   1      34.088  23.404  24.137  1.00  0.00     0.039 A 
ATOM     16  C   UNL A   1      33.074  22.567  23.604  1.00  0.00     0.014 A 
ATOM     17  C   UNL A   1      35.110  22.755  24.866  1.00  0.00     0.052 A 
ATOM     18  C   UNL A   1      33.032  21.191  23.846  1.00  0.00     0.021 A 
ATOM     19  C   UNL A   1      35.052  21.375  25.131  1.00  0.00     0.041 A 
ATOM     20  Cl  UNL A   1      36.543  23.532  25.444  1.00  0.00    -0.084 Cl
ATOM     21  C   UNL A   1      34.016  20.602  24.624  1.00  0.00     0.042 A 
ATOM     22  Cl  UNL A   1      33.976  18.909  24.917  1.00  0.00    -0.084 Cl
ENDBRANCH  11  15
ENDBRANCH   4   6
ENDBRANCH   3   4
ENDBRANCH   2   3
ENDBRANCH   1   2
BRANCH   1  23
ATOM     23  O   UNL A   1      33.048  30.606  26.141  1.00  0.00    -0.458 OA
BRANCH  23  24
ATOM     24  C   UNL A   1      33.390  31.546  27.054  1.00  0.00     0.338 C 
ATOM     25  O   UNL A   1      32.708  32.484  27.426  1.00  0.00    -0.246 OA
BRANCH  24  26
ATOM     26  C   UNL A   1      34.701  31.225  27.641  1.00  0.00     0.060 A 
ATOM     27  C   UNL A   1      34.951  29.913  28.053  1.00  0.00     0.016 A 
ATOM     28  C   UNL A   1      35.637  32.229  27.883  1.00  0.00     0.016 A 
ATOM     29  C   UNL A   1      36.132  29.595  28.716  1.00  0.00     0.010 A 
ATOM     30  C   UNL A   1      36.832  31.907  28.536  1.00  0.00     0.010 A 
ATOM     31  C   UNL A   1      37.083  30.591  28.965  1.00  0.00    -0.014 A 
BRANCH  31  32
ATOM     32  C   UNL A   1      38.323  30.261  29.709  1.00  0.00     0.031 A 
ATOM     33  C   UNL A   1      39.308  29.290  29.123  1.00  0.00     0.074 A 
ATOM     34  C   UNL A   1      38.563  30.835  30.902  1.00  0.00     0.049 A 
ATOM     35  N   UNL A   1      40.373  28.760  29.665  1.00  0.00    -0.248 NA
ATOM     36  C   UNL A   1      39.053  28.857  27.741  1.00  0.00     0.031 C 
ATOM     37  C   UNL A   1      37.711  31.839  31.542  1.00  0.00     0.029 A 
ATOM     38  N   UNL A   1      39.588  30.649  31.795  1.00  0.00    -0.354 N 
ATOM     39  C   UNL A   1      40.906  27.910  28.702  1.00  0.00     0.074 A 
ATOM     40  C   UNL A   1      40.032  27.987  27.549  1.00  0.00     0.031 C 
ATOM     41  C   UNL A   1      38.244  32.171  32.730  1.00  0.00     0.029 A 
ATOM     42  C   UNL A   1      39.437  31.363  32.960  1.00  0.00     0.049 A 
ATOM     43  H   UNL A   1      40.357  30.060  31.618  1.00  0.00     0.167 HD
ATOM     44  C   UNL A   1      42.019  27.140  28.778  1.00  0.00     0.034 A 
ATOM     45  C   UNL A   1      40.153  31.334  34.102  1.00  0.00     0.034 A 
ATOM     46  C   UNL A   1      42.877  27.080  29.939  1.00  0.00     0.049 A 
ATOM     47  C   UNL A   1      41.338  30.408  34.195  1.00  0.00     0.074 A 
ATOM     48  C   UNL A   1      44.031  26.338  30.123  1.00  0.00     0.029 A 
ATOM     49  N   UNL A   1      42.670  27.788  31.117  1.00  0.00    -0.354 N 
ATOM     50  N   UNL A   1      41.813  29.580  33.293  1.00  0.00    -0.248 NA
ATOM     51  C   UNL A   1      42.081  30.410  35.462  1.00  0.00     0.031 C 
ATOM     52  C   UNL A   1      44.487  26.551  31.430  1.00  0.00     0.029 A 
ATOM     53  C   UNL A   1      43.657  27.478  32.040  1.00  0.00     0.049 A 
ATOM     54  H   UNL A   1      41.931  28.418  31.273  1.00  0.00     0.167 HD
ATOM     55  C   UNL A   1      42.922  28.977  33.879  1.00  0.00     0.074 A 
ATOM     56  C   UNL A   1      43.053  29.546  35.204  1.00  0.00     0.031 C 
ATOM     57  C   UNL A   1      43.761  28.041  33.366  1.00  0.00     0.034 A 
BRANCH  44  58
ATOM     58  C   UNL A   1      42.328  26.254  27.597  1.00  0.00     0.023 A 
ATOM     59  C   UNL A   1      41.848  24.936  27.508  1.00  0.00     0.031 A 
ATOM     60  C   UNL A   1      43.150  26.727  26.558  1.00  0.00     0.131 A 
ATOM     61  C   UNL A   1      42.249  24.116  26.441  1.00  0.00     0.055 A 
ATOM     62  C   UNL A   1      43.486  25.929  25.462  1.00  0.00     0.041 A 
ATOM     63  F   UNL A   1      43.657  27.970  26.600  1.00  0.00    -0.206 F 
ATOM     64  C   UNL A   1      43.045  24.611  25.406  1.00  0.00     0.022 A 
BRANCH  61  65
ATOM     65  S   UNL A   1      41.826  22.352  26.494  1.00  0.00     0.124 S 
ATOM     66  O   UNL A   1      42.283  21.977  27.830  1.00  0.00    -0.237 OA
ATOM     67  O   UNL A   1      40.382  22.368  26.294  1.00  0.00    -0.237 OA
ATOM     68  O   UNL A   1      42.602  21.781  25.396  1.00  0.00    -0.744 OA
ENDBRANCH  61  65
ENDBRANCH  44  58
BRANCH  45  69
ATOM     69  C   UNL A   1      39.733  32.154  35.273  1.00  0.00     0.023 A 
ATOM     70  C   UNL A   1      38.927  31.615  36.287  1.00  0.00     0.031 A 
ATOM     71  C   UNL A   1      40.103  33.507  35.371  1.00  0.00     0.131 A 
ATOM     72  C   UNL A   1      38.486  32.435  37.338  1.00  0.00     0.055 A 
ATOM     73  C   UNL A   1      39.704  34.305  36.443  1.00  0.00     0.041 A 
ATOM     74  F   UNL A   1      40.872  34.071  34.426  1.00  0.00    -0.206 F 
ATOM     75  C   UNL A   1      38.880  33.772  37.429  1.00  0.00     0.022 A 
BRANCH  72  76
ATOM     76  S   UNL A   1      37.326  31.747  38.549  1.00  0.00     0.124 S 
ATOM     77  O   UNL A   1      38.120  31.780  39.773  1.00  0.00    -0.237 OA
ATOM     78  O   UNL A   1      36.217  32.693  38.478  1.00  0.00    -0.237 OA
ATOM     79  O   UNL A   1      37.039  30.413  38.028  1.00  0.00    -0.744 OA
ENDBRANCH  72  76
ENDBRANCH  45  69
BRANCH  57  80
ATOM     80  C   UNL A   1      44.916  27.615  34.236  1.00  0.00     0.023 A 
ATOM     81  C   UNL A   1      44.809  26.531  35.126  1.00  0.00     0.031 A 
ATOM     82  C   UNL A   1      46.133  28.315  34.185  1.00  0.00     0.131 A 
ATOM     83  C   UNL A   1      45.886  26.210  35.966  1.00  0.00     0.055 A 
ATOM     84  C   UNL A   1      47.219  27.960  34.986  1.00  0.00     0.041 A 
ATOM     85  F   UNL A   1      46.287  29.358  33.353  1.00  0.00    -0.206 F 
ATOM     86  C   UNL A   1      47.095  26.909  35.891  1.00  0.00     0.022 A 
BRANCH  83  87
ATOM     87  S   UNL A   1      45.664  24.914  37.214  1.00  0.00     0.124 S 
ATOM     88  O   UNL A   1      44.355  24.374  36.862  1.00  0.00    -0.237 OA
ATOM     89  O   UNL A   1      46.804  24.038  36.962  1.00  0.00    -0.237 OA
ATOM     90  O   UNL A   1      45.714  25.643  38.481  1.00  0.00    -0.744 OA
ENDBRANCH  83  87
ENDBRANCH  57  80
ENDBRANCH  31  32
ENDBRANCH  24  26
ENDBRANCH  23  24
ENDBRANCH   1  23
TORSDOF 15
ENDMDL
MODEL 3
REMARK VINA RESULT:     -11.6      5.236      9.982
REMARK SMILES CC1(C)S[C@H](c2ccc(Cl)cc2Cl)[NH2+][C@H]1C(=O)OCCOC(=O)c1ccc(-c2c3nc(c(-c4cc(S(=O)(=O)[O-])ccc4F)c4ccc([nH]4)c(-c4cc(S(=O)(=O)[O-])ccc4F)c4nc(c(-c5cc(S(=O)(=O)[O-])ccc5F)c5ccc2[nH]5)C=C4)C=C3)cc1
REMARK SMILES IDX 20 1 19 2 18 3 16 4 17 5 15 6 1 7 2 8 3 9 4 10 5 11 14 12
REMARK SMILES IDX 6 15 7 16 12 17 8 18 11 19 13 20 9 21 10 22 21 23 22 24
REMARK SMILES IDX 23 25 24 26 25 27 86 28 26 29 85 30 27 31 28 32 29 33 79 34
REMARK SMILES IDX 30 35 84 36 78 37 80 38 31 39 83 40 77 41 76 42 32 44 64 45
REMARK SMILES IDX 44 46 63 47 45 48 48 49 62 50 81 51 46 52 47 53 61 55 82 56
REMARK SMILES IDX 49 57 33 58 34 59 42 60 35 61 41 62 43 63 40 64 36 65 37 66
REMARK SMILES IDX 38 67 39 68 65 69 66 70 74 71 67 72 73 73 75 74 72 75 68 76
REMARK SMILES IDX 69 77 70 78 71 79 50 80 51 81 59 82 52 83 58 84 60 85 57 86
REMARK SMILES IDX 53 87 54 88 55 89 56 90
REMARK H PARENT 14 13 14 14 80 43 48 54
REMARK Flexibility Score: inf
ROOT
ATOM      1  C   UNL A   1      31.684  29.818  26.375  1.00  0.00     0.275 C 
ENDROOT
BRANCH   1   2
ATOM      2  C   UNL A   1      31.784  28.558  27.242  1.00  0.00     0.274 C 
BRANCH   2   3
ATOM      3  O   UNL A   1      32.407  27.452  26.555  1.00  0.00    -0.458 OA
BRANCH   3   4
ATOM      4  C   UNL A   1      31.556  26.486  26.123  1.00  0.00     0.366 C 
ATOM      5  O   UNL A   1      30.492  26.232  26.682  1.00  0.00    -0.245 OA
BRANCH   4   6
ATOM      6  C   UNL A   1      32.065  25.668  24.924  1.00  0.00     0.310 C 
ATOM      7  C   UNL A   1      31.442  27.399  23.054  1.00  0.00     0.030 C 
ATOM      8  C   UNL A   1      31.554  25.938  23.493  1.00  0.00     0.079 C 
ATOM      9  C   UNL A   1      30.256  25.185  23.190  1.00  0.00     0.030 C 
ATOM     10  S   UNL A   1      32.892  25.188  22.460  1.00  0.00    -0.081 SA
ATOM     11  C   UNL A   1      33.982  24.761  23.879  1.00  0.00     0.276 C 
ATOM     12  N   UNL A   1      33.556  25.702  24.911  1.00  0.00    -0.319 N 
ATOM     13  H   UNL A   1      33.885  26.642  24.690  1.00  0.00     0.348 HD
ATOM     14  H   UNL A   1      33.939  25.451  25.822  1.00  0.00     0.348 HD
BRANCH  11  15
ATOM     15  C   UNL A   1      33.971  23.261  24.211  1.00  0.00     0.039 A 
ATOM     16  C   UNL A   1      32.971  22.468  23.592  1.00  0.00     0.014 A 
ATOM     17  C   UNL A   1      34.915  22.565  24.999  1.00  0.00     0.052 A 
ATOM     18  C   UNL A   1      32.865  21.090  23.806  1.00  0.00     0.021 A 
ATOM     19  C   UNL A   1      34.792  21.184  25.234  1.00  0.00     0.041 A 
ATOM     20  Cl  UNL A   1      36.329  23.283  25.692  1.00  0.00    -0.084 Cl
ATOM     21  C   UNL A   1      33.771  20.456  24.641  1.00  0.00     0.042 A 
ATOM     22  Cl  UNL A   1      33.652  18.761  24.900  1.00  0.00    -0.084 Cl
ENDBRANCH  11  15
ENDBRANCH   4   6
ENDBRANCH   3   4
ENDBRANCH   2   3
ENDBRANCH   1   2
BRANCH   1  23
ATOM     23  O   UNL A   1      32.967  30.429  26.149  1.00  0.00    -0.458 OA
BRANCH  23  24
ATOM     24  C   UNL A   1      33.292  31.411  27.024  1.00  0.00     0.338 C 
ATOM     25  O   UNL A   1      32.602  32.363  27.342  1.00  0.00    -0.246 OA
BRANCH  24  26
ATOM     26  C   UNL A   1      34.595  31.121  27.644  1.00  0.00     0.060 A 
ATOM     27  C   UNL A   1      34.905  29.799  27.973  1.00  0.00     0.016 A 
ATOM     28  C   UNL A   1      35.459  32.156  27.998  1.00  0.00     0.016 A 
ATOM     29  C   UNL A   1      36.075  29.500  28.664  1.00  0.00     0.010 A 
ATOM     30  C   UNL A   1      36.644  31.854  28.680  1.00  0.00     0.010 A 
ATOM     31  C   UNL A   1      36.955  30.526  29.025  1.00  0.00    -0.014 A 
BRANCH  31  32
ATOM     32  C   UNL A   1      38.181  30.213  29.799  1.00  0.00     0.031 A 
ATOM     33  C   UNL A   1      39.201  29.271  29.228  1.00  0.00     0.074 A 
ATOM     34  C   UNL A   1      38.377  30.776  31.005  1.00  0.00     0.049 A 
ATOM     35  N   UNL A   1      40.263  28.756  29.793  1.00  0.00    -0.248 NA
ATOM     36  C   UNL A   1      38.993  28.850  27.834  1.00  0.00     0.031 C 
ATOM     37  C   UNL A   1      37.486  31.754  31.634  1.00  0.00     0.029 A 
ATOM     38  N   UNL A   1      39.381  30.600  31.923  1.00  0.00    -0.354 N 
ATOM     39  C   UNL A   1      40.840  27.930  28.834  1.00  0.00     0.074 A 
ATOM     40  C   UNL A   1      39.996  28.003  27.658  1.00  0.00     0.031 C 
ATOM     41  C   UNL A   1      37.980  32.082  32.840  1.00  0.00     0.029 A 
ATOM     42  C   UNL A   1      39.183  31.296  33.093  1.00  0.00     0.049 A 
ATOM     43  H   UNL A   1      40.167  30.030  31.760  1.00  0.00     0.167 HD
ATOM     44  C   UNL A   1      41.966  27.182  28.931  1.00  0.00     0.034 A 
ATOM     45  C   UNL A   1      39.869  31.267  34.253  1.00  0.00     0.034 A 
ATOM     46  C   UNL A   1      42.793  27.126  30.113  1.00  0.00     0.049 A 
ATOM     47  C   UNL A   1      41.070  30.365  34.367  1.00  0.00     0.074 A 
ATOM     48  C   UNL A   1      43.958  26.405  30.320  1.00  0.00     0.029 A 
ATOM     49  N   UNL A   1      42.540  27.813  31.294  1.00  0.00    -0.354 N 
ATOM     50  N   UNL A   1      41.586  29.559  33.468  1.00  0.00    -0.248 NA
ATOM     51  C   UNL A   1      41.778  30.366  35.653  1.00  0.00     0.031 C 
ATOM     52  C   UNL A   1      44.374  26.610  31.641  1.00  0.00     0.029 A 
ATOM     53  C   UNL A   1      43.508  27.512  32.240  1.00  0.00     0.049 A 
ATOM     54  H   UNL A   1      41.783  28.426  31.438  1.00  0.00     0.167 HD
ATOM     55  C   UNL A   1      42.692  28.971  34.076  1.00  0.00     0.074 A 
ATOM     56  C   UNL A   1      42.775  29.526  35.412  1.00  0.00     0.031 C 
ATOM     57  C   UNL A   1      43.565  28.060  33.575  1.00  0.00     0.034 A 
BRANCH  44  58
ATOM     58  C   UNL A   1      42.326  26.318  27.747  1.00  0.00     0.023 A 
ATOM     59  C   UNL A   1      41.839  25.007  27.606  1.00  0.00     0.031 A 
ATOM     60  C   UNL A   1      43.204  26.805  26.761  1.00  0.00     0.131 A 
ATOM     61  C   UNL A   1      42.285  24.206  26.543  1.00  0.00     0.055 A 
ATOM     62  C   UNL A   1      43.586  26.027  25.666  1.00  0.00     0.041 A 
ATOM     63  F   UNL A   1      43.719  28.041  26.855  1.00  0.00    -0.206 F 
ATOM     64  C   UNL A   1      43.137  24.715  25.560  1.00  0.00     0.022 A 
BRANCH  61  65
ATOM     65  S   UNL A   1      41.843  22.446  26.536  1.00  0.00     0.124 S 
ATOM     66  O   UNL A   1      40.390  22.506  26.394  1.00  0.00    -0.237 OA
ATOM     67  O   UNL A   1      42.577  21.941  25.382  1.00  0.00    -0.237 OA
ATOM     68  O   UNL A   1      42.315  21.969  27.834  1.00  0.00    -0.744 OA
ENDBRANCH  61  65
ENDBRANCH  44  58
BRANCH  45  69
ATOM     69  C   UNL A   1      39.399  32.063  35.422  1.00  0.00     0.023 A 
ATOM     70  C   UNL A   1      39.800  33.394  35.605  1.00  0.00     0.031 A 
ATOM     71  C   UNL A   1      38.568  31.482  36.397  1.00  0.00     0.131 A 
ATOM     72  C   UNL A   1      39.400  34.092  36.756  1.00  0.00     0.055 A 
ATOM     73  C   UNL A   1      38.133  32.195  37.514  1.00  0.00     0.041 A 
ATOM     74  F   UNL A   1      38.157  30.210  36.269  1.00  0.00    -0.206 F 
ATOM     75  C   UNL A   1      38.559  33.505  37.704  1.00  0.00     0.022 A 
BRANCH  72  76
ATOM     76  S   UNL A   1      40.057  35.758  37.035  1.00  0.00     0.124 S 
ATOM     77  O   UNL A   1      41.484  35.495  37.181  1.00  0.00    -0.237 OA
ATOM     78  O   UNL A   1      39.653  36.452  35.816  1.00  0.00    -0.237 OA
ATOM     79  O   UNL A   1      39.375  36.194  38.252  1.00  0.00    -0.744 OA
ENDBRANCH  72  76
ENDBRANCH  45  69
BRANCH  57  80
ATOM     80  C   UNL A   1      44.704  27.647  34.470  1.00  0.00     0.023 A 
ATOM     81  C   UNL A   1      44.612  26.523  35.312  1.00  0.00     0.031 A 
ATOM     82  C   UNL A   1      45.891  28.399  34.495  1.00  0.00     0.131 A 
ATOM     83  C   UNL A   1      45.670  26.213  36.179  1.00  0.00     0.055 A 
ATOM     84  C   UNL A   1      46.960  28.057  35.322  1.00  0.00     0.041 A 
ATOM     85  F   UNL A   1      46.029  29.482  33.712  1.00  0.00    -0.206 F 
ATOM     86  C   UNL A   1      46.850  26.965  36.179  1.00  0.00     0.022 A 
BRANCH  83  87
ATOM     87  S   UNL A   1      45.460  24.858  37.364  1.00  0.00     0.124 S 
ATOM     88  O   UNL A   1      44.405  25.372  38.231  1.00  0.00    -0.237 OA
ATOM     89  O   UNL A   1      45.089  23.741  36.501  1.00  0.00    -0.237 OA
ATOM     90  O   UNL A   1      46.776  24.742  37.992  1.00  0.00    -0.744 OA
ENDBRANCH  83  87
ENDBRANCH  57  80
ENDBRANCH  31  32
ENDBRANCH  24  26
ENDBRANCH  23  24
ENDBRANCH   1  23
TORSDOF 15
ENDMDL
