MODEL 1
REMARK VINA RESULT:     -11.8      0.000      0.000
REMARK SMILES COc1cc2c(c(OC)c1)[C@H](C)C[C@H](CC(=O)OCCOC(=O)c1ccc(-c3c4nc(c(-c5cc(S(=O)(=O)[O-])ccc5F)c5ccc([nH]5)c(-c5cc(S(=O)(=O)[O-])ccc5F)c5nc(c(-c6cc(S(=O)(=O)[O-])ccc6F)c6ccc3[nH]6)C=C5)C=C4)cc1)C2
REMARK SMILES IDX 20 1 19 2 18 3 16 4 17 5 15 6 14 7 3 8 4 9 10 10 5 11 7 12
REMARK SMILES IDX 6 13 87 14 11 15 12 16 13 17 2 18 1 19 8 20 9 21 21 22 22 23
REMARK SMILES IDX 23 24 24 25 25 26 86 27 26 28 85 29 27 30 28 31 29 32 79 33
REMARK SMILES IDX 30 34 84 35 78 36 80 37 31 38 83 39 77 40 76 41 32 43 64 44
REMARK SMILES IDX 44 45 63 46 45 47 48 48 62 49 81 50 46 51 47 52 61 54 82 55
REMARK SMILES IDX 49 56 33 57 34 58 42 59 35 60 41 61 43 62 40 63 36 64 37 65
REMARK SMILES IDX 38 66 39 67 65 68 66 69 74 70 67 71 73 72 75 73 72 74 68 75
REMARK SMILES IDX 69 76 70 77 71 78 50 79 51 80 59 81 52 82 58 83 60 84 57 85
REMARK SMILES IDX 53 86 54 87 55 88 56 89
REMARK H PARENT 80 42 48 53
REMARK Flexibility Score: inf
ROOT
ATOM      1  C   UNL A   1      36.462  20.515  25.002  1.00  0.00     0.275 C 
ENDROOT
BRANCH   1   2
ATOM      2  C   UNL A   1      35.004  20.947  24.837  1.00  0.00     0.274 C 
BRANCH   2   3
ATOM      3  O   UNL A   1      34.896  22.379  24.748  1.00  0.00    -0.462 OA
BRANCH   3   4
ATOM      4  C   UNL A   1      34.799  22.910  23.504  1.00  0.00     0.306 C 
ATOM      5  O   UNL A   1      35.754  23.232  22.808  1.00  0.00    -0.252 OA
BRANCH   4   6
ATOM      6  C   UNL A   1      33.367  23.147  23.068  1.00  0.00     0.126 C 
BRANCH   6   7
ATOM      7  C   UNL A   1      32.658  24.370  23.674  1.00  0.00     0.005 C 
ATOM      8  C   UNL A   1      30.377  28.638  22.564  1.00  0.00     0.122 A 
ATOM      9  C   UNL A   1      30.878  27.399  22.181  1.00  0.00     0.050 A 
ATOM     10  C   UNL A   1      30.570  29.082  23.866  1.00  0.00     0.093 A 
ATOM     11  C   UNL A   1      31.662  26.631  23.062  1.00  0.00    -0.037 A 
ATOM     12  C   UNL A   1      31.328  28.317  24.758  1.00  0.00     0.126 A 
ATOM     13  C   UNL A   1      31.963  27.123  24.351  1.00  0.00     0.000 A 
ATOM     14  C   UNL A   1      32.197  25.313  22.554  1.00  0.00     0.040 C 
ATOM     15  C   UNL A   1      32.906  26.354  25.265  1.00  0.00     0.020 C 
ATOM     16  C   UNL A   1      34.030  27.229  25.846  1.00  0.00     0.013 C 
ATOM     17  C   UNL A   1      33.597  25.155  24.588  1.00  0.00     0.012 C 
BRANCH   8  18
ATOM     18  O   UNL A   1      29.662  29.331  21.627  1.00  0.00    -0.497 OA
ATOM     19  C   UNL A   1      28.372  29.722  22.088  1.00  0.00     0.278 C 
ENDBRANCH   8  18
BRANCH  12  20
ATOM     20  O   UNL A   1      31.451  28.851  26.016  1.00  0.00    -0.496 OA
ATOM     21  C   UNL A   1      31.783  30.240  25.987  1.00  0.00     0.278 C 
ENDBRANCH  12  20
ENDBRANCH   6   7
ENDBRANCH   4   6
ENDBRANCH   3   4
ENDBRANCH   2   3
ENDBRANCH   1   2
BRANCH   1  22
ATOM     22  O   UNL A   1      37.203  21.485  25.760  1.00  0.00    -0.458 OA
BRANCH  22  23
ATOM     23  C   UNL A   1      38.516  21.209  25.922  1.00  0.00     0.338 C 
ATOM     24  O   UNL A   1      39.093  20.170  25.626  1.00  0.00    -0.246 OA
BRANCH  23  25
ATOM     25  C   UNL A   1      39.210  22.416  26.389  1.00  0.00     0.060 A 
ATOM     26  C   UNL A   1      38.663  23.661  26.065  1.00  0.00     0.016 A 
ATOM     27  C   UNL A   1      40.411  22.325  27.093  1.00  0.00     0.016 A 
ATOM     28  C   UNL A   1      39.318  24.829  26.447  1.00  0.00     0.010 A 
ATOM     29  C   UNL A   1      41.069  23.498  27.473  1.00  0.00     0.010 A 
ATOM     30  C   UNL A   1      40.532  24.756  27.143  1.00  0.00    -0.014 A 
BRANCH  30  31
ATOM     31  C   UNL A   1      41.273  26.000  27.463  1.00  0.00     0.031 A 
ATOM     32  C   UNL A   1      40.613  27.058  28.301  1.00  0.00     0.074 A 
ATOM     33  C   UNL A   1      42.532  26.168  27.019  1.00  0.00     0.049 A 
ATOM     34  N   UNL A   1      41.048  28.244  28.635  1.00  0.00    -0.248 NA
ATOM     35  C   UNL A   1      39.278  26.733  28.825  1.00  0.00     0.031 C 
ATOM     36  C   UNL A   1      43.286  25.189  26.235  1.00  0.00     0.029 A 
ATOM     37  N   UNL A   1      43.396  27.224  27.159  1.00  0.00    -0.354 N 
ATOM     38  C   UNL A   1      40.037  28.818  29.398  1.00  0.00     0.074 A 
ATOM     39  C   UNL A   1      38.955  27.856  29.451  1.00  0.00     0.031 C 
ATOM     40  C   UNL A   1      44.500  25.694  25.960  1.00  0.00     0.029 A 
ATOM     41  C   UNL A   1      44.593  27.044  26.507  1.00  0.00     0.049 A 
ATOM     42  H   UNL A   1      43.180  28.033  27.676  1.00  0.00     0.167 HD
ATOM     43  C   UNL A   1      40.018  30.032  30.003  1.00  0.00     0.034 A 
ATOM     44  C   UNL A   1      45.634  27.886  26.346  1.00  0.00     0.034 A 
ATOM     45  C   UNL A   1      41.107  30.979  29.933  1.00  0.00     0.049 A 
ATOM     46  C   UNL A   1      45.564  29.258  26.969  1.00  0.00     0.074 A 
ATOM     47  C   UNL A   1      41.200  32.233  30.512  1.00  0.00     0.029 A 
ATOM     48  N   UNL A   1      42.292  30.777  29.235  1.00  0.00    -0.354 N 
ATOM     49  N   UNL A   1      44.598  29.795  27.680  1.00  0.00    -0.248 NA
ATOM     50  C   UNL A   1      46.725  30.134  26.773  1.00  0.00     0.031 C 
ATOM     51  C   UNL A   1      42.409  32.814  30.113  1.00  0.00     0.029 A 
ATOM     52  C   UNL A   1      43.107  31.895  29.345  1.00  0.00     0.049 A 
ATOM     53  H   UNL A   1      42.521  29.960  28.736  1.00  0.00     0.167 HD
ATOM     54  C   UNL A   1      45.047  31.064  28.035  1.00  0.00     0.074 A 
ATOM     55  C   UNL A   1      46.376  31.204  27.472  1.00  0.00     0.031 C 
ATOM     56  C   UNL A   1      44.423  32.024  28.762  1.00  0.00     0.034 A 
BRANCH  43  57
ATOM     57  C   UNL A   1      38.756  30.419  30.734  1.00  0.00     0.023 A 
ATOM     58  C   UNL A   1      37.687  31.060  30.084  1.00  0.00     0.031 A 
ATOM     59  C   UNL A   1      38.639  30.181  32.116  1.00  0.00     0.131 A 
ATOM     60  C   UNL A   1      36.582  31.506  30.827  1.00  0.00     0.055 A 
ATOM     61  C   UNL A   1      37.502  30.558  32.834  1.00  0.00     0.041 A 
ATOM     62  F   UNL A   1      39.636  29.593  32.795  1.00  0.00    -0.206 F 
ATOM     63  C   UNL A   1      36.472  31.239  32.193  1.00  0.00     0.022 A 
BRANCH  60  64
ATOM     64  S   UNL A   1      35.358  32.567  30.010  1.00  0.00     0.124 S 
ATOM     65  O   UNL A   1      36.151  33.760  29.717  1.00  0.00    -0.237 OA
ATOM     66  O   UNL A   1      34.960  31.764  28.860  1.00  0.00    -0.237 OA
ATOM     67  O   UNL A   1      34.327  32.751  31.031  1.00  0.00    -0.744 OA
ENDBRANCH  60  64
ENDBRANCH  43  57
BRANCH  44  68
ATOM     68  C   UNL A   1      46.810  27.481  25.525  1.00  0.00     0.023 A 
ATOM     69  C   UNL A   1      46.949  27.904  24.194  1.00  0.00     0.031 A 
ATOM     70  C   UNL A   1      47.795  26.627  26.054  1.00  0.00     0.131 A 
ATOM     71  C   UNL A   1      48.027  27.441  23.423  1.00  0.00     0.055 A 
ATOM     72  C   UNL A   1      48.891  26.209  25.299  1.00  0.00     0.041 A 
ATOM     73  F   UNL A   1      47.709  26.194  27.321  1.00  0.00    -0.206 F 
ATOM     74  C   UNL A   1      49.005  26.607  23.971  1.00  0.00     0.022 A 
BRANCH  71  75
ATOM     75  S   UNL A   1      48.094  27.885  21.665  1.00  0.00     0.124 S 
ATOM     76  O   UNL A   1      46.791  28.509  21.466  1.00  0.00    -0.237 OA
ATOM     77  O   UNL A   1      49.247  28.777  21.622  1.00  0.00    -0.237 OA
ATOM     78  O   UNL A   1      48.279  26.599  20.997  1.00  0.00    -0.744 OA
ENDBRANCH  71  75
ENDBRANCH  44  68
BRANCH  56  79
ATOM     79  C   UNL A   1      45.198  33.293  29.022  1.00  0.00     0.023 A 
ATOM     80  C   UNL A   1      45.162  34.378  28.129  1.00  0.00     0.031 A 
ATOM     81  C   UNL A   1      45.999  33.407  30.172  1.00  0.00     0.131 A 
ATOM     82  C   UNL A   1      45.957  35.509  28.372  1.00  0.00     0.055 A 
ATOM     83  C   UNL A   1      46.744  34.558  30.437  1.00  0.00     0.041 A 
ATOM     84  F   UNL A   1      46.070  32.401  31.058  1.00  0.00    -0.206 F 
ATOM     85  C   UNL A   1      46.736  35.611  29.528  1.00  0.00     0.022 A 
BRANCH  82  86
ATOM     86  S   UNL A   1      46.031  36.810  27.110  1.00  0.00     0.124 S 
ATOM     87  O   UNL A   1      47.006  37.733  27.680  1.00  0.00    -0.237 OA
ATOM     88  O   UNL A   1      46.464  36.074  25.927  1.00  0.00    -0.237 OA
ATOM     89  O   UNL A   1      44.659  37.315  27.057  1.00  0.00    -0.744 OA
ENDBRANCH  82  86
ENDBRANCH  56  79
ENDBRANCH  30  31
ENDBRANCH  23  25
ENDBRANCH  22  23
ENDBRANCH   1  22
TORSDOF 17
ENDMDL
MODEL 2
REMARK VINA RESULT:     -11.6      5.095      9.289
REMARK SMILES COc1cc2c(c(OC)c1)[C@H](C)C[C@H](CC(=O)OCCOC(=O)c1ccc(-c3c4nc(c(-c5cc(S(=O)(=O)[O-])ccc5F)c5ccc([nH]5)c(-c5cc(S(=O)(=O)[O-])ccc5F)c5nc(c(-c6cc(S(=O)(=O)[O-])ccc6F)c6ccc3[nH]6)C=C5)C=C4)cc1)C2
REMARK SMILES IDX 20 1 19 2 18 3 16 4 17 5 15 6 14 7 3 8 4 9 10 10 5 11 7 12
REMARK SMILES IDX 6 13 87 14 11 15 12 16 13 17 2 18 1 19 8 20 9 21 21 22 22 23
REMARK SMILES IDX 23 24 24 25 25 26 86 27 26 28 85 29 27 30 28 31 29 32 79 33
REMARK SMILES IDX 30 34 84 35 78 36 80 37 31 38 83 39 77 40 76 41 32 43 64 44
REMARK SMILES IDX 44 45 63 46 45 47 48 48 62 49 81 50 46 51 47 52 61 54 82 55
REMARK SMILES IDX 49 56 33 57 34 58 42 59 35 60 41 61 43 62 40 63 36 64 37 65
REMARK SMILES IDX 38 66 39 67 65 68 66 69 74 70 67 71 73 72 75 73 72 74 68 75
REMARK SMILES IDX 69 76 70 77 71 78 50 79 51 80 59 81 52 82 58 83 60 84 57 85
REMARK SMILES IDX 53 86 54 87 55 88 56 89
REMARK H PARENT 80 42 48 53
REMARK Flexibility Score: inf
ROOT
ATOM      1  C   UNL A   1      43.448  21.481  25.721  1.00  0.00     0.275 C 
ENDROOT
BRANCH   1   2
ATOM      2  C   UNL A   1      42.485  20.349  26.080  1.00  0.00     0.274 C 
BRANCH   2   3
ATOM      3  O   UNL A   1      41.279  20.863  26.673  1.00  0.00    -0.462 OA
BRANCH   3   4
ATOM      4  C   UNL A   1      40.116  20.589  26.031  1.00  0.00     0.306 C 
ATOM      5  O   UNL A   1      39.747  19.466  25.710  1.00  0.00    -0.252 OA
BRANCH   4   6
ATOM      6  C   UNL A   1      39.328  21.832  25.670  1.00  0.00     0.126 C 
BRANCH   6   7
ATOM      7  C   UNL A   1      37.821  21.803  25.980  1.00  0.00     0.005 C 
ATOM      8  C   UNL A   1      33.512  19.682  24.723  1.00  0.00     0.122 A 
ATOM      9  C   UNL A   1      34.901  19.706  24.694  1.00  0.00     0.050 A 
ATOM     10  C   UNL A   1      32.820  20.728  25.319  1.00  0.00     0.093 A 
ATOM     11  C   UNL A   1      35.616  20.820  25.173  1.00  0.00    -0.037 A 
ATOM     12  C   UNL A   1      33.521  21.831  25.819  1.00  0.00     0.126 A 
ATOM     13  C   UNL A   1      34.921  21.941  25.677  1.00  0.00     0.000 A 
ATOM     14  C   UNL A   1      37.122  20.780  25.073  1.00  0.00     0.040 C 
ATOM     15  C   UNL A   1      35.681  23.195  26.086  1.00  0.00     0.020 C 
ATOM     16  C   UNL A   1      35.112  24.478  25.457  1.00  0.00     0.013 C 
ATOM     17  C   UNL A   1      37.179  23.166  25.727  1.00  0.00     0.012 C 
BRANCH   8  18
ATOM     18  O   UNL A   1      32.903  18.576  24.197  1.00  0.00    -0.497 OA
ATOM     19  C   UNL A   1      33.783  17.462  24.074  1.00  0.00     0.278 C 
ENDBRANCH   8  18
BRANCH  12  20
ATOM     20  O   UNL A   1      32.737  22.803  26.388  1.00  0.00    -0.496 OA
ATOM     21  C   UNL A   1      31.371  22.708  25.979  1.00  0.00     0.278 C 
ENDBRANCH  12  20
ENDBRANCH   6   7
ENDBRANCH   4   6
ENDBRANCH   3   4
ENDBRANCH   2   3
ENDBRANCH   1   2
BRANCH   1  22
ATOM     22  O   UNL A   1      42.739  22.601  25.163  1.00  0.00    -0.458 OA
BRANCH  22  23
ATOM     23  C   UNL A   1      43.439  23.755  25.105  1.00  0.00     0.338 C 
ATOM     24  O   UNL A   1      44.302  24.054  24.289  1.00  0.00    -0.246 OA
BRANCH  23  25
ATOM     25  C   UNL A   1      42.910  24.692  26.104  1.00  0.00     0.060 A 
ATOM     26  C   UNL A   1      43.492  25.960  26.196  1.00  0.00     0.016 A 
ATOM     27  C   UNL A   1      41.888  24.311  26.975  1.00  0.00     0.016 A 
ATOM     28  C   UNL A   1      43.051  26.859  27.164  1.00  0.00     0.010 A 
ATOM     29  C   UNL A   1      41.448  25.213  27.947  1.00  0.00     0.010 A 
ATOM     30  C   UNL A   1      42.035  26.488  28.054  1.00  0.00    -0.014 A 
BRANCH  30  31
ATOM     31  C   UNL A   1      41.636  27.412  29.143  1.00  0.00     0.031 A 
ATOM     32  C   UNL A   1      42.397  27.399  30.438  1.00  0.00     0.074 A 
ATOM     33  C   UNL A   1      40.610  28.263  28.963  1.00  0.00     0.049 A 
ATOM     34  N   UNL A   1      42.172  28.065  31.540  1.00  0.00    -0.248 NA
ATOM     35  C   UNL A   1      43.565  26.508  30.497  1.00  0.00     0.031 C 
ATOM     36  C   UNL A   1      39.829  28.391  27.732  1.00  0.00     0.029 A 
ATOM     37  N   UNL A   1      40.046  29.178  29.815  1.00  0.00    -0.354 N 
ATOM     38  C   UNL A   1      43.161  27.667  32.433  1.00  0.00     0.074 A 
ATOM     39  C   UNL A   1      43.969  26.678  31.748  1.00  0.00     0.031 C 
ATOM     40  C   UNL A   1      38.883  29.329  27.912  1.00  0.00     0.029 A 
ATOM     41  C   UNL A   1      38.963  29.834  29.279  1.00  0.00     0.049 A 
ATOM     42  H   UNL A   1      40.385  29.349  30.723  1.00  0.00     0.167 HD
ATOM     43  C   UNL A   1      43.376  28.092  33.703  1.00  0.00     0.034 A 
ATOM     44  C   UNL A   1      38.114  30.719  29.840  1.00  0.00     0.034 A 
ATOM     45  C   UNL A   1      42.555  29.076  34.368  1.00  0.00     0.049 A 
ATOM     46  C   UNL A   1      38.331  31.127  31.276  1.00  0.00     0.074 A 
ATOM     47  C   UNL A   1      42.684  29.587  35.649  1.00  0.00     0.029 A 
ATOM     48  N   UNL A   1      41.444  29.695  33.807  1.00  0.00    -0.354 N 
ATOM     49  N   UNL A   1      39.263  30.735  32.114  1.00  0.00    -0.248 NA
ATOM     50  C   UNL A   1      37.385  32.098  31.838  1.00  0.00     0.031 C 
ATOM     51  C   UNL A   1      41.618  30.463  35.883  1.00  0.00     0.029 A 
ATOM     52  C   UNL A   1      40.863  30.558  34.725  1.00  0.00     0.049 A 
ATOM     53  H   UNL A   1      41.117  29.544  32.891  1.00  0.00     0.167 HD
ATOM     54  C   UNL A   1      39.028  31.432  33.296  1.00  0.00     0.074 A 
ATOM     55  C   UNL A   1      37.876  32.279  33.054  1.00  0.00     0.031 C 
ATOM     56  C   UNL A   1      39.704  31.382  34.472  1.00  0.00     0.034 A 
BRANCH  43  57
ATOM     57  C   UNL A   1      44.507  27.445  34.465  1.00  0.00     0.023 A 
ATOM     58  C   UNL A   1      44.374  26.176  35.056  1.00  0.00     0.031 A 
ATOM     59  C   UNL A   1      45.724  28.128  34.639  1.00  0.00     0.131 A 
ATOM     60  C   UNL A   1      45.410  25.664  35.853  1.00  0.00     0.055 A 
ATOM     61  C   UNL A   1      46.779  27.578  35.369  1.00  0.00     0.041 A 
ATOM     62  F   UNL A   1      45.901  29.352  34.118  1.00  0.00    -0.206 F 
ATOM     63  C   UNL A   1      46.620  26.346  35.995  1.00  0.00     0.022 A 
BRANCH  60  64
ATOM     64  S   UNL A   1      45.099  24.161  36.820  1.00  0.00     0.124 S 
ATOM     65  O   UNL A   1      44.107  23.477  35.993  1.00  0.00    -0.237 OA
ATOM     66  O   UNL A   1      46.419  23.543  36.877  1.00  0.00    -0.237 OA
ATOM     67  O   UNL A   1      44.593  24.670  38.093  1.00  0.00    -0.744 OA
ENDBRANCH  60  64
ENDBRANCH  43  57
BRANCH  44  68
ATOM     68  C   UNL A   1      36.955  31.245  29.065  1.00  0.00     0.023 A 
ATOM     69  C   UNL A   1      35.932  30.393  28.616  1.00  0.00     0.031 A 
ATOM     70  C   UNL A   1      36.876  32.608  28.726  1.00  0.00     0.131 A 
ATOM     71  C   UNL A   1      34.896  30.906  27.821  1.00  0.00     0.055 A 
ATOM     72  C   UNL A   1      35.817  33.122  27.978  1.00  0.00     0.041 A 
ATOM     73  F   UNL A   1      37.827  33.463  29.131  1.00  0.00    -0.206 F 
ATOM     74  C   UNL A   1      34.825  32.267  27.510  1.00  0.00     0.022 A 
BRANCH  71  75
ATOM     75  S   UNL A   1      33.675  29.754  27.133  1.00  0.00     0.124 S 
ATOM     76  O   UNL A   1      33.918  28.555  27.927  1.00  0.00    -0.237 OA
ATOM     77  O   UNL A   1      32.420  30.452  27.391  1.00  0.00    -0.237 OA
ATOM     78  O   UNL A   1      34.054  29.658  25.725  1.00  0.00    -0.744 OA
ENDBRANCH  71  75
ENDBRANCH  44  68
BRANCH  56  79
ATOM     79  C   UNL A   1      39.231  32.306  35.568  1.00  0.00     0.023 A 
ATOM     80  C   UNL A   1      39.697  33.629  35.674  1.00  0.00     0.031 A 
ATOM     81  C   UNL A   1      38.316  31.847  36.533  1.00  0.00     0.131 A 
ATOM     82  C   UNL A   1      39.289  34.429  36.752  1.00  0.00     0.055 A 
ATOM     83  C   UNL A   1      37.870  32.667  37.571  1.00  0.00     0.041 A 
ATOM     84  F   UNL A   1      37.840  30.594  36.480  1.00  0.00    -0.206 F 
ATOM     85  C   UNL A   1      38.368  33.961  37.693  1.00  0.00     0.022 A 
BRANCH  82  86
ATOM     86  S   UNL A   1      40.049  36.063  36.962  1.00  0.00     0.124 S 
ATOM     87  O   UNL A   1      39.822  36.675  35.658  1.00  0.00    -0.237 OA
ATOM     88  O   UNL A   1      39.285  36.623  38.072  1.00  0.00    -0.237 OA
ATOM     89  O   UNL A   1      41.446  35.755  37.266  1.00  0.00    -0.744 OA
ENDBRANCH  82  86
ENDBRANCH  56  79
ENDBRANCH  30  31
ENDBRANCH  23  25
ENDBRANCH  22  23
ENDBRANCH   1  22
TORSDOF 17
ENDMDL
MODEL 3
REMARK VINA RESULT:     -11.6      5.145     10.530
REMARK SMILES COc1cc2c(c(OC)c1)[C@H](C)C[C@H](CC(=O)OCCOC(=O)c1ccc(-c3c4nc(c(-c5cc(S(=O)(=O)[O-])ccc5F)c5ccc([nH]5)c(-c5cc(S(=O)(=O)[O-])ccc5F)c5nc(c(-c6cc(S(=O)(=O)[O-])ccc6F)c6ccc3[nH]6)C=C5)C=C4)cc1)C2
REMARK SMILES IDX 20 1 19 2 18 3 16 4 17 5 15 6 14 7 3 8 4 9 10 10 5 11 7 12
REMARK SMILES IDX 6 13 87 14 11 15 12 16 13 17 2 18 1 19 8 20 9 21 21 22 22 23
REMARK SMILES IDX 23 24 24 25 25 26 86 27 26 28 85 29 27 30 28 31 29 32 79 33
REMARK SMILES IDX 30 34 84 35 78 36 80 37 31 38 83 39 77 40 76 41 32 43 64 44
REMARK SMILES IDX 44 45 63 46 45 47 48 48 62 49 81 50 46 51 47 52 61 54 82 55
REMARK SMILES IDX 49 56 33 57 34 58 42 59 35 60 41 61 43 62 40 63 36 64 37 65
REMARK SMILES IDX 38 66 39 67 65 68 66 69 74 70 67 71 73 72 75 73 72 74 68 75
REMARK SMILES IDX 69 76 70 77 71 78 50 79 51 80 59 81 52 82 58 83 60 84 57 85
REMARK SMILES IDX 53 86 54 87 55 88 56 89
REMARK H PARENT 80 42 48 53
REMARK Flexibility Score: inf
ROOT
ATOM      1  C   UNL A   1      31.720  30.048  25.881  1.00  0.00     0.275 C 
ENDROOT
BRANCH   1   2
ATOM      2  C   UNL A   1      31.594  28.530  25.747  1.00  0.00     0.274 C 
BRANCH   2   3
ATOM      3  O   UNL A   1      31.201  28.159  24.413  1.00  0.00    -0.462 OA
BRANCH   3   4
ATOM      4  C   UNL A   1      30.365  27.098  24.294  1.00  0.00     0.306 C 
ATOM      5  O   UNL A   1      29.428  27.035  23.507  1.00  0.00    -0.252 OA
BRANCH   4   6
ATOM      6  C   UNL A   1      30.652  25.999  25.297  1.00  0.00     0.126 C 
BRANCH   6   7
ATOM      7  C   UNL A   1      31.640  24.906  24.854  1.00  0.00     0.005 C 
ATOM      8  C   UNL A   1      32.661  20.058  25.174  1.00  0.00     0.122 A 
ATOM      9  C   UNL A   1      31.780  21.121  25.333  1.00  0.00     0.050 A 
ATOM     10  C   UNL A   1      33.970  20.306  24.783  1.00  0.00     0.093 A 
ATOM     11  C   UNL A   1      32.219  22.451  25.200  1.00  0.00    -0.037 A 
ATOM     12  C   UNL A   1      34.413  21.623  24.625  1.00  0.00     0.126 A 
ATOM     13  C   UNL A   1      33.575  22.722  24.915  1.00  0.00     0.000 A 
ATOM     14  C   UNL A   1      31.205  23.548  25.424  1.00  0.00     0.040 C 
ATOM     15  C   UNL A   1      34.083  24.157  24.887  1.00  0.00     0.020 C 
ATOM     16  C   UNL A   1      35.339  24.370  25.748  1.00  0.00     0.013 C 
ATOM     17  C   UNL A   1      33.050  25.196  25.363  1.00  0.00     0.012 C 
BRANCH   8  18
ATOM     18  O   UNL A   1      32.153  18.802  25.364  1.00  0.00    -0.497 OA
ATOM     19  C   UNL A   1      33.059  17.771  24.983  1.00  0.00     0.278 C 
ENDBRANCH   8  18
BRANCH  12  20
ATOM     20  O   UNL A   1      35.722  21.749  24.234  1.00  0.00    -0.496 OA
ATOM     21  C   UNL A   1      36.600  20.925  25.003  1.00  0.00     0.278 C 
ENDBRANCH  12  20
ENDBRANCH   6   7
ENDBRANCH   4   6
ENDBRANCH   3   4
ENDBRANCH   2   3
ENDBRANCH   1   2
BRANCH   1  22
ATOM     22  O   UNL A   1      33.097  30.440  26.014  1.00  0.00    -0.458 OA
BRANCH  22  23
ATOM     23  C   UNL A   1      33.337  31.391  26.943  1.00  0.00     0.338 C 
ATOM     24  O   UNL A   1      32.596  32.310  27.268  1.00  0.00    -0.246 OA
BRANCH  23  25
ATOM     25  C   UNL A   1      34.595  31.083  27.636  1.00  0.00     0.060 A 
ATOM     26  C   UNL A   1      34.844  29.755  27.997  1.00  0.00     0.016 A 
ATOM     27  C   UNL A   1      35.496  32.095  27.971  1.00  0.00     0.016 A 
ATOM     28  C   UNL A   1      36.002  29.431  28.699  1.00  0.00     0.010 A 
ATOM     29  C   UNL A   1      36.657  31.768  28.678  1.00  0.00     0.010 A 
ATOM     30  C   UNL A   1      36.911  30.436  29.055  1.00  0.00    -0.014 A 
BRANCH  30  31
ATOM     31  C   UNL A   1      38.093  30.101  29.884  1.00  0.00     0.031 A 
ATOM     32  C   UNL A   1      39.127  29.153  29.345  1.00  0.00     0.074 A 
ATOM     33  C   UNL A   1      38.243  30.654  31.101  1.00  0.00     0.049 A 
ATOM     34  N   UNL A   1      40.193  28.668  29.927  1.00  0.00    -0.248 NA
ATOM     35  C   UNL A   1      38.926  28.686  27.966  1.00  0.00     0.031 C 
ATOM     36  C   UNL A   1      37.324  31.619  31.705  1.00  0.00     0.029 A 
ATOM     37  N   UNL A   1      39.220  30.481  32.048  1.00  0.00    -0.354 N 
ATOM     38  C   UNL A   1      40.785  27.826  28.993  1.00  0.00     0.074 A 
ATOM     39  C   UNL A   1      39.941  27.847  27.816  1.00  0.00     0.031 C 
ATOM     40  C   UNL A   1      37.780  31.950  32.925  1.00  0.00     0.029 A 
ATOM     41  C   UNL A   1      38.995  31.189  33.205  1.00  0.00     0.049 A 
ATOM     42  H   UNL A   1      40.007  29.906  31.913  1.00  0.00     0.167 HD
ATOM     43  C   UNL A   1      41.931  27.108  29.106  1.00  0.00     0.034 A 
ATOM     44  C   UNL A   1      39.676  31.198  34.369  1.00  0.00     0.034 A 
ATOM     45  C   UNL A   1      42.756  27.098  30.292  1.00  0.00     0.049 A 
ATOM     46  C   UNL A   1      40.909  30.340  34.498  1.00  0.00     0.074 A 
ATOM     47  C   UNL A   1      43.939  26.415  30.515  1.00  0.00     0.029 A 
ATOM     48  N   UNL A   1      42.479  27.800  31.459  1.00  0.00    -0.354 N 
ATOM     49  N   UNL A   1      41.455  29.538  33.611  1.00  0.00    -0.248 NA
ATOM     50  C   UNL A   1      41.620  30.391  35.781  1.00  0.00     0.031 C 
ATOM     51  C   UNL A   1      44.342  26.653  31.834  1.00  0.00     0.029 A 
ATOM     52  C   UNL A   1      43.452  27.543  32.413  1.00  0.00     0.049 A 
ATOM     53  H   UNL A   1      41.705  28.395  31.589  1.00  0.00     0.167 HD
ATOM     54  C   UNL A   1      42.587  29.008  34.223  1.00  0.00     0.074 A 
ATOM     55  C   UNL A   1      42.652  29.594  35.548  1.00  0.00     0.031 C 
ATOM     56  C   UNL A   1      43.493  28.123  33.736  1.00  0.00     0.034 A 
BRANCH  43  57
ATOM     57  C   UNL A   1      42.314  26.233  27.939  1.00  0.00     0.023 A 
ATOM     58  C   UNL A   1      41.803  24.931  27.786  1.00  0.00     0.031 A 
ATOM     59  C   UNL A   1      43.241  26.692  26.985  1.00  0.00     0.131 A 
ATOM     60  C   UNL A   1      42.277  24.111  26.749  1.00  0.00     0.055 A 
ATOM     61  C   UNL A   1      43.649  25.897  25.912  1.00  0.00     0.041 A 
ATOM     62  F   UNL A   1      43.781  27.916  27.091  1.00  0.00    -0.206 F 
ATOM     63  C   UNL A   1      43.179  24.592  25.798  1.00  0.00     0.022 A 
BRANCH  60  64
ATOM     64  S   UNL A   1      41.808  22.358  26.746  1.00  0.00     0.124 S 
ATOM     65  O   UNL A   1      42.161  21.961  25.385  1.00  0.00    -0.237 OA
ATOM     66  O   UNL A   1      42.639  21.807  27.810  1.00  0.00    -0.237 OA
ATOM     67  O   UNL A   1      40.373  22.386  27.026  1.00  0.00    -0.744 OA
ENDBRANCH  60  64
ENDBRANCH  43  57
BRANCH  44  68
ATOM     68  C   UNL A   1      39.187  32.008  35.521  1.00  0.00     0.023 A 
ATOM     69  C   UNL A   1      38.493  31.412  36.586  1.00  0.00     0.031 A 
ATOM     70  C   UNL A   1      39.373  33.401  35.550  1.00  0.00     0.131 A 
ATOM     71  C   UNL A   1      37.976  32.213  37.617  1.00  0.00     0.055 A 
ATOM     72  C   UNL A   1      38.901  34.187  36.602  1.00  0.00     0.041 A 
ATOM     73  F   UNL A   1      40.030  34.019  34.556  1.00  0.00    -0.206 F 
ATOM     74  C   UNL A   1      38.187  33.595  37.638  1.00  0.00     0.022 A 
BRANCH  71  75
ATOM     75  S   UNL A   1      36.956  31.432  38.898  1.00  0.00     0.124 S 
ATOM     76  O   UNL A   1      36.817  30.076  38.381  1.00  0.00    -0.237 OA
ATOM     77  O   UNL A   1      37.790  31.585  40.085  1.00  0.00    -0.237 OA
ATOM     78  O   UNL A   1      35.733  32.231  38.892  1.00  0.00    -0.744 OA
ENDBRANCH  71  75
ENDBRANCH  44  68
BRANCH  56  79
ATOM     79  C   UNL A   1      44.654  27.774  34.634  1.00  0.00     0.023 A 
ATOM     80  C   UNL A   1      44.576  26.729  35.572  1.00  0.00     0.031 A 
ATOM     81  C   UNL A   1      45.849  28.512  34.562  1.00  0.00     0.131 A 
ATOM     82  C   UNL A   1      45.654  26.488  36.439  1.00  0.00     0.055 A 
ATOM     83  C   UNL A   1      46.938  28.230  35.389  1.00  0.00     0.041 A 
ATOM     84  F   UNL A   1      45.977  29.520  33.686  1.00  0.00    -0.206 F 
ATOM     85  C   UNL A   1      46.839  27.222  36.343  1.00  0.00     0.022 A 
BRANCH  82  86
ATOM     86  S   UNL A   1      45.452  25.258  37.758  1.00  0.00     0.124 S 
ATOM     87  O   UNL A   1      44.202  25.680  38.381  1.00  0.00    -0.237 OA
ATOM     88  O   UNL A   1      45.402  24.005  37.012  1.00  0.00    -0.237 OA
ATOM     89  O   UNL A   1      46.647  25.440  38.582  1.00  0.00    -0.744 OA
ENDBRANCH  82  86
ENDBRANCH  56  79
ENDBRANCH  30  31
ENDBRANCH  23  25
ENDBRANCH  22  23
ENDBRANCH   1  22
TORSDOF 17
ENDMDL
