MODEL 1
REMARK VINA RESULT:     -10.9      0.000      0.000
REMARK SMILES CCc1nc(COC)cc(N2CCCC[C@H]2C(=O)OCCOC(=O)c2ccc(-c3c4nc(c(-c5cc(S(=O)(=O)[O-])ccc5F)c5ccc([nH]5)c(-c5cc(S(=O)(=O)[O-])ccc5F)c5nc(c(-c6cc(S(=O)(=O)[O-])ccc6F)c6ccc3[nH]6)C=C5)C=C4)cc2)n1
REMARK SMILES IDX 20 1 19 2 17 3 18 4 16 5 11 6 12 7 13 8 15 9 14 10 10 11
REMARK SMILES IDX 3 12 4 13 88 14 5 15 9 16 2 17 1 18 6 19 7 20 8 21 21 22
REMARK SMILES IDX 22 23 23 24 24 25 25 26 26 27 87 28 27 29 86 30 28 31 29 32
REMARK SMILES IDX 30 33 80 34 31 35 85 36 79 37 81 38 32 39 84 40 78 41 77 42
REMARK SMILES IDX 33 44 65 45 45 46 64 47 46 48 49 49 63 50 82 51 47 52 48 53
REMARK SMILES IDX 62 55 83 56 50 57 34 58 35 59 43 60 36 61 42 62 44 63 41 64
REMARK SMILES IDX 37 65 38 66 39 67 40 68 66 69 67 70 75 71 68 72 74 73 76 74
REMARK SMILES IDX 73 75 69 76 70 77 71 78 72 79 51 80 52 81 60 82 53 83 59 84
REMARK SMILES IDX 61 85 58 86 54 87 55 88 56 89 57 90
REMARK H PARENT 81 43 49 54
REMARK Flexibility Score: inf
ROOT
ATOM      1  C   UNL A   1      31.610  28.461  27.082  1.00  0.00     0.274 C 
ENDROOT
BRANCH   1   2
ATOM      2  O   UNL A   1      32.649  27.587  26.602  1.00  0.00    -0.461 OA
BRANCH   2   3
ATOM      3  C   UNL A   1      32.256  26.618  25.727  1.00  0.00     0.328 C 
ATOM      4  O   UNL A   1      31.143  26.101  25.748  1.00  0.00    -0.250 OA
BRANCH   3   5
ATOM      5  C   UNL A   1      33.329  26.250  24.681  1.00  0.00     0.193 C 
ATOM      6  N   UNL A   1      33.019  25.086  23.844  1.00  0.00    -0.343 N 
ATOM      7  C   UNL A   1      32.038  25.165  22.782  1.00  0.00     0.119 C 
ATOM      8  C   UNL A   1      32.250  26.423  21.937  1.00  0.00     0.022 C 
ATOM      9  C   UNL A   1      33.589  27.464  23.778  1.00  0.00     0.037 C 
ATOM     10  C   UNL A   1      32.444  27.673  22.790  1.00  0.00     0.005 C 
BRANCH   6  11
ATOM     11  C   UNL A   1      33.622  23.879  24.131  1.00  0.00     0.133 A 
ATOM     12  C   UNL A   1      33.436  21.656  24.694  1.00  0.00     0.130 A 
ATOM     13  N   UNL A   1      34.761  21.446  24.623  1.00  0.00    -0.235 NA
ATOM     14  N   UNL A   1      32.838  22.846  24.474  1.00  0.00    -0.216 NA
ATOM     15  C   UNL A   1      35.533  22.497  24.297  1.00  0.00     0.072 A 
ATOM     16  C   UNL A   1      34.991  23.741  24.040  1.00  0.00     0.073 A 
BRANCH  12  17
ATOM     17  C   UNL A   1      32.547  20.472  24.971  1.00  0.00     0.074 C 
ATOM     18  C   UNL A   1      32.514  19.445  23.845  1.00  0.00     0.012 C 
ENDBRANCH  12  17
BRANCH  15  19
ATOM     19  C   UNL A   1      37.031  22.292  24.256  1.00  0.00     0.216 C 
BRANCH  19  20
ATOM     20  O   UNL A   1      37.530  21.507  25.348  1.00  0.00    -0.378 OA
ATOM     21  C   UNL A   1      37.893  20.188  24.968  1.00  0.00     0.195 C 
ENDBRANCH  19  20
ENDBRANCH  15  19
ENDBRANCH   6  11
ENDBRANCH   3   5
ENDBRANCH   2   3
ENDBRANCH   1   2
BRANCH   1  22
ATOM     22  C   UNL A   1      31.610  29.796  26.335  1.00  0.00     0.275 C 
BRANCH  22  23
ATOM     23  O   UNL A   1      32.948  30.291  26.157  1.00  0.00    -0.458 OA
BRANCH  23  24
ATOM     24  C   UNL A   1      33.305  31.303  26.983  1.00  0.00     0.338 C 
ATOM     25  O   UNL A   1      32.651  32.291  27.260  1.00  0.00    -0.246 OA
BRANCH  24  26
ATOM     26  C   UNL A   1      34.617  31.018  27.576  1.00  0.00     0.060 A 
ATOM     27  C   UNL A   1      34.963  29.692  27.841  1.00  0.00     0.016 A 
ATOM     28  C   UNL A   1      35.446  32.063  27.983  1.00  0.00     0.016 A 
ATOM     29  C   UNL A   1      36.130  29.401  28.539  1.00  0.00     0.010 A 
ATOM     30  C   UNL A   1      36.634  31.768  28.660  1.00  0.00     0.010 A 
ATOM     31  C   UNL A   1      36.973  30.437  28.958  1.00  0.00    -0.014 A 
BRANCH  31  32
ATOM     32  C   UNL A   1      38.183  30.127  29.756  1.00  0.00     0.031 A 
ATOM     33  C   UNL A   1      39.228  29.203  29.197  1.00  0.00     0.074 A 
ATOM     34  C   UNL A   1      38.344  30.687  30.969  1.00  0.00     0.049 A 
ATOM     35  N   UNL A   1      40.289  28.705  29.776  1.00  0.00    -0.248 NA
ATOM     36  C   UNL A   1      39.044  28.780  27.802  1.00  0.00     0.031 C 
ATOM     37  C   UNL A   1      37.421  31.642  31.585  1.00  0.00     0.029 A 
ATOM     38  N   UNL A   1      39.338  30.534  31.901  1.00  0.00    -0.354 N 
ATOM     39  C   UNL A   1      40.891  27.888  28.824  1.00  0.00     0.074 A 
ATOM     40  C   UNL A   1      40.062  27.947  27.638  1.00  0.00     0.031 C 
ATOM     41  C   UNL A   1      37.894  31.990  32.794  1.00  0.00     0.029 A 
ATOM     42  C   UNL A   1      39.118  31.241  33.059  1.00  0.00     0.049 A 
ATOM     43  H   UNL A   1      40.133  29.972  31.755  1.00  0.00     0.167 HD
ATOM     44  C   UNL A   1      42.028  27.157  28.936  1.00  0.00     0.034 A 
ATOM     45  C   UNL A   1      39.806  31.253  34.218  1.00  0.00     0.034 A 
ATOM     46  C   UNL A   1      42.839  27.117  30.129  1.00  0.00     0.049 A 
ATOM     47  C   UNL A   1      41.034  30.390  34.338  1.00  0.00     0.074 A 
ATOM     48  C   UNL A   1      44.004  26.405  30.362  1.00  0.00     0.029 A 
ATOM     49  N   UNL A   1      42.570  27.824  31.296  1.00  0.00    -0.354 N 
ATOM     50  N   UNL A   1      41.565  29.581  33.451  1.00  0.00    -0.248 NA
ATOM     51  C   UNL A   1      41.752  30.439  35.618  1.00  0.00     0.031 C 
ATOM     52  C   UNL A   1      44.408  26.641  31.683  1.00  0.00     0.029 A 
ATOM     53  C   UNL A   1      43.532  27.548  32.257  1.00  0.00     0.049 A 
ATOM     54  H   UNL A   1      41.807  28.432  31.422  1.00  0.00     0.167 HD
ATOM     55  C   UNL A   1      42.689  29.034  34.062  1.00  0.00     0.074 A 
ATOM     56  C   UNL A   1      42.767  29.622  35.385  1.00  0.00     0.031 C 
ATOM     57  C   UNL A   1      43.577  28.129  33.577  1.00  0.00     0.034 A 
BRANCH  44  58
ATOM     58  C   UNL A   1      42.412  26.296  27.758  1.00  0.00     0.023 A 
ATOM     59  C   UNL A   1      41.927  24.986  27.604  1.00  0.00     0.031 A 
ATOM     60  C   UNL A   1      43.317  26.781  26.796  1.00  0.00     0.131 A 
ATOM     61  C   UNL A   1      42.400  24.183  26.553  1.00  0.00     0.055 A 
ATOM     62  C   UNL A   1      43.728  26.002  25.712  1.00  0.00     0.041 A 
ATOM     63  F   UNL A   1      43.830  28.017  26.903  1.00  0.00    -0.206 F 
ATOM     64  C   UNL A   1      43.281  24.690  25.595  1.00  0.00     0.022 A 
BRANCH  61  65
ATOM     65  S   UNL A   1      41.953  22.425  26.532  1.00  0.00     0.124 S 
ATOM     66  O   UNL A   1      42.483  21.971  27.815  1.00  0.00    -0.237 OA
ATOM     67  O   UNL A   1      40.500  22.470  26.420  1.00  0.00    -0.237 OA
ATOM     68  O   UNL A   1      42.654  21.908  25.358  1.00  0.00    -0.744 OA
ENDBRANCH  61  65
ENDBRANCH  44  58
BRANCH  45  69
ATOM     69  C   UNL A   1      39.321  32.061  35.370  1.00  0.00     0.023 A 
ATOM     70  C   UNL A   1      39.752  33.382  35.564  1.00  0.00     0.031 A 
ATOM     71  C   UNL A   1      38.434  31.509  36.313  1.00  0.00     0.131 A 
ATOM     72  C   UNL A   1      39.321  34.098  36.692  1.00  0.00     0.055 A 
ATOM     73  C   UNL A   1      37.973  32.240  37.408  1.00  0.00     0.041 A 
ATOM     74  F   UNL A   1      37.990  30.249  36.170  1.00  0.00    -0.206 F 
ATOM     75  C   UNL A   1      38.426  33.540  37.608  1.00  0.00     0.022 A 
BRANCH  72  76
ATOM     76  S   UNL A   1      39.998  35.756  36.981  1.00  0.00     0.124 S 
ATOM     77  O   UNL A   1      41.413  35.469  37.184  1.00  0.00    -0.237 OA
ATOM     78  O   UNL A   1      39.653  36.443  35.741  1.00  0.00    -0.237 OA
ATOM     79  O   UNL A   1      39.276  36.216  38.166  1.00  0.00    -0.744 OA
ENDBRANCH  72  76
ENDBRANCH  45  69
BRANCH  57  80
ATOM     80  C   UNL A   1      44.721  27.757  34.485  1.00  0.00     0.023 A 
ATOM     81  C   UNL A   1      44.638  26.658  35.358  1.00  0.00     0.031 A 
ATOM     82  C   UNL A   1      45.892  28.534  34.501  1.00  0.00     0.131 A 
ATOM     83  C   UNL A   1      45.686  26.400  36.254  1.00  0.00     0.055 A 
ATOM     84  C   UNL A   1      46.952  28.241  35.359  1.00  0.00     0.041 A 
ATOM     85  F   UNL A   1      46.019  29.594  33.689  1.00  0.00    -0.206 F 
ATOM     86  C   UNL A   1      46.847  27.177  36.251  1.00  0.00     0.022 A 
BRANCH  83  87
ATOM     87  S   UNL A   1      45.473  25.089  37.489  1.00  0.00     0.124 S 
ATOM     88  O   UNL A   1      46.119  25.669  38.662  1.00  0.00    -0.237 OA
ATOM     89  O   UNL A   1      44.021  24.960  37.560  1.00  0.00    -0.237 OA
ATOM     90  O   UNL A   1      46.168  23.945  36.900  1.00  0.00    -0.744 OA
ENDBRANCH  83  87
ENDBRANCH  57  80
ENDBRANCH  31  32
ENDBRANCH  24  26
ENDBRANCH  23  24
ENDBRANCH  22  23
ENDBRANCH   1  22
TORSDOF 18
ENDMDL
MODEL 2
REMARK VINA RESULT:     -10.7      1.958      2.210
REMARK SMILES CCc1nc(COC)cc(N2CCCC[C@H]2C(=O)OCCOC(=O)c2ccc(-c3c4nc(c(-c5cc(S(=O)(=O)[O-])ccc5F)c5ccc([nH]5)c(-c5cc(S(=O)(=O)[O-])ccc5F)c5nc(c(-c6cc(S(=O)(=O)[O-])ccc6F)c6ccc3[nH]6)C=C5)C=C4)cc2)n1
REMARK SMILES IDX 20 1 19 2 17 3 18 4 16 5 11 6 12 7 13 8 15 9 14 10 10 11
REMARK SMILES IDX 3 12 4 13 88 14 5 15 9 16 2 17 1 18 6 19 7 20 8 21 21 22
REMARK SMILES IDX 22 23 23 24 24 25 25 26 26 27 87 28 27 29 86 30 28 31 29 32
REMARK SMILES IDX 30 33 80 34 31 35 85 36 79 37 81 38 32 39 84 40 78 41 77 42
REMARK SMILES IDX 33 44 65 45 45 46 64 47 46 48 49 49 63 50 82 51 47 52 48 53
REMARK SMILES IDX 62 55 83 56 50 57 34 58 35 59 43 60 36 61 42 62 44 63 41 64
REMARK SMILES IDX 37 65 38 66 39 67 40 68 66 69 67 70 75 71 68 72 74 73 76 74
REMARK SMILES IDX 73 75 69 76 70 77 71 78 72 79 51 80 52 81 60 82 53 83 59 84
REMARK SMILES IDX 61 85 58 86 54 87 55 88 56 89 57 90
REMARK H PARENT 81 43 49 54
REMARK Flexibility Score: inf
ROOT
ATOM      1  C   UNL A   1      31.441  29.170  27.080  1.00  0.00     0.274 C 
ENDROOT
BRANCH   1   2
ATOM      2  O   UNL A   1      32.492  28.221  26.819  1.00  0.00    -0.461 OA
BRANCH   2   3
ATOM      3  C   UNL A   1      32.232  27.294  25.854  1.00  0.00     0.328 C 
ATOM      4  O   UNL A   1      31.110  26.852  25.628  1.00  0.00    -0.250 OA
BRANCH   3   5
ATOM      5  C   UNL A   1      33.475  26.871  25.045  1.00  0.00     0.193 C 
ATOM      6  N   UNL A   1      33.235  25.872  23.997  1.00  0.00    -0.343 N 
ATOM      7  C   UNL A   1      32.574  26.229  22.759  1.00  0.00     0.119 C 
ATOM      8  C   UNL A   1      33.158  27.519  22.181  1.00  0.00     0.022 C 
ATOM      9  C   UNL A   1      34.115  28.117  24.416  1.00  0.00     0.037 C 
ATOM     10  C   UNL A   1      33.295  28.619  23.230  1.00  0.00     0.005 C 
BRANCH   6  11
ATOM     11  C   UNL A   1      33.580  24.559  24.237  1.00  0.00     0.133 A 
ATOM     12  C   UNL A   1      33.168  22.315  23.934  1.00  0.00     0.130 A 
ATOM     13  N   UNL A   1      34.267  21.941  24.608  1.00  0.00    -0.235 NA
ATOM     14  N   UNL A   1      32.787  23.596  23.743  1.00  0.00    -0.216 NA
ATOM     15  C   UNL A   1      35.041  22.919  25.113  1.00  0.00     0.072 A 
ATOM     16  C   UNL A   1      34.724  24.252  24.942  1.00  0.00     0.073 A 
BRANCH  12  17
ATOM     17  C   UNL A   1      32.337  21.240  23.286  1.00  0.00     0.074 C 
ATOM     18  C   UNL A   1      32.629  19.835  23.801  1.00  0.00     0.012 C 
ENDBRANCH  12  17
BRANCH  15  19
ATOM     19  C   UNL A   1      36.259  22.518  25.915  1.00  0.00     0.216 C 
BRANCH  19  20
ATOM     20  O   UNL A   1      36.608  21.134  25.771  1.00  0.00    -0.378 OA
ATOM     21  C   UNL A   1      37.506  20.893  24.698  1.00  0.00     0.195 C 
ENDBRANCH  19  20
ENDBRANCH  15  19
ENDBRANCH   6  11
ENDBRANCH   3   5
ENDBRANCH   2   3
ENDBRANCH   1   2
BRANCH   1  22
ATOM     22  C   UNL A   1      31.765  30.544  26.489  1.00  0.00     0.275 C 
BRANCH  22  23
ATOM     23  O   UNL A   1      33.185  30.766  26.440  1.00  0.00    -0.458 OA
BRANCH  23  24
ATOM     24  C   UNL A   1      33.650  31.718  27.281  1.00  0.00     0.338 C 
ATOM     25  O   UNL A   1      33.081  32.737  27.627  1.00  0.00    -0.246 OA
BRANCH  24  26
ATOM     26  C   UNL A   1      34.967  31.323  27.796  1.00  0.00     0.060 A 
ATOM     27  C   UNL A   1      35.164  30.002  28.200  1.00  0.00     0.016 A 
ATOM     28  C   UNL A   1      35.960  32.282  27.995  1.00  0.00     0.016 A 
ATOM     29  C   UNL A   1      36.346  29.632  28.831  1.00  0.00     0.010 A 
ATOM     30  C   UNL A   1      37.161  31.903  28.604  1.00  0.00     0.010 A 
ATOM     31  C   UNL A   1      37.354  30.581  29.042  1.00  0.00    -0.014 A 
BRANCH  31  32
ATOM     32  C   UNL A   1      38.586  30.200  29.770  1.00  0.00     0.031 A 
ATOM     33  C   UNL A   1      39.542  29.218  29.154  1.00  0.00     0.074 A 
ATOM     34  C   UNL A   1      38.849  30.747  30.972  1.00  0.00     0.049 A 
ATOM     35  N   UNL A   1      40.604  28.657  29.672  1.00  0.00    -0.248 NA
ATOM     36  C   UNL A   1      39.256  28.810  27.772  1.00  0.00     0.031 C 
ATOM     37  C   UNL A   1      38.019  31.752  31.638  1.00  0.00     0.029 A 
ATOM     38  N   UNL A   1      39.883  30.534  31.846  1.00  0.00    -0.354 N 
ATOM     39  C   UNL A   1      41.102  27.809  28.689  1.00  0.00     0.074 A 
ATOM     40  C   UNL A   1      40.212  27.919  27.551  1.00  0.00     0.031 C 
ATOM     41  C   UNL A   1      38.579  32.069  32.818  1.00  0.00     0.029 A 
ATOM     42  C   UNL A   1      39.771  31.249  33.014  1.00  0.00     0.049 A 
ATOM     43  H   UNL A   1      40.634  29.927  31.655  1.00  0.00     0.167 HD
ATOM     44  C   UNL A   1      42.199  27.013  28.736  1.00  0.00     0.034 A 
ATOM     45  C   UNL A   1      40.523  31.219  34.132  1.00  0.00     0.034 A 
ATOM     46  C   UNL A   1      43.073  26.923  29.882  1.00  0.00     0.049 A 
ATOM     47  C   UNL A   1      41.703  30.285  34.184  1.00  0.00     0.074 A 
ATOM     48  C   UNL A   1      44.206  26.144  30.049  1.00  0.00     0.029 A 
ATOM     49  N   UNL A   1      42.912  27.641  31.061  1.00  0.00    -0.354 N 
ATOM     50  N   UNL A   1      42.135  29.449  33.268  1.00  0.00    -0.248 NA
ATOM     51  C   UNL A   1      42.493  30.289  35.421  1.00  0.00     0.031 C 
ATOM     52  C   UNL A   1      44.697  26.352  31.345  1.00  0.00     0.029 A 
ATOM     53  C   UNL A   1      43.909  27.308  31.966  1.00  0.00     0.049 A 
ATOM     54  H   UNL A   1      42.194  28.292  31.230  1.00  0.00     0.167 HD
ATOM     55  C   UNL A   1      43.258  28.835  33.815  1.00  0.00     0.074 A 
ATOM     56  C   UNL A   1      43.445  29.415  35.131  1.00  0.00     0.031 C 
ATOM     57  C   UNL A   1      44.062  27.882  33.281  1.00  0.00     0.034 A 
BRANCH  44  58
ATOM     58  C   UNL A   1      42.466  26.134  27.539  1.00  0.00     0.023 A 
ATOM     59  C   UNL A   1      41.960  24.825  27.450  1.00  0.00     0.031 A 
ATOM     60  C   UNL A   1      43.279  26.599  26.489  1.00  0.00     0.131 A 
ATOM     61  C   UNL A   1      42.327  24.006  26.370  1.00  0.00     0.055 A 
ATOM     62  C   UNL A   1      43.581  25.803  25.383  1.00  0.00     0.041 A 
ATOM     63  F   UNL A   1      43.808  27.833  26.531  1.00  0.00    -0.206 F 
ATOM     64  C   UNL A   1      43.117  24.493  25.326  1.00  0.00     0.022 A 
BRANCH  61  65
ATOM     65  S   UNL A   1      41.869  22.251  26.415  1.00  0.00     0.124 S 
ATOM     66  O   UNL A   1      42.375  21.847  27.724  1.00  0.00    -0.237 OA
ATOM     67  O   UNL A   1      40.418  22.300  26.278  1.00  0.00    -0.237 OA
ATOM     68  O   UNL A   1      42.585  21.681  25.275  1.00  0.00    -0.744 OA
ENDBRANCH  61  65
ENDBRANCH  44  58
BRANCH  45  69
ATOM     69  C   UNL A   1      40.151  32.050  35.309  1.00  0.00     0.023 A 
ATOM     70  C   UNL A   1      39.208  31.603  36.246  1.00  0.00     0.031 A 
ATOM     71  C   UNL A   1      40.720  33.323  35.498  1.00  0.00     0.131 A 
ATOM     72  C   UNL A   1      38.837  32.435  37.315  1.00  0.00     0.055 A 
ATOM     73  C   UNL A   1      40.382  34.128  36.587  1.00  0.00     0.041 A 
ATOM     74  F   UNL A   1      41.631  33.795  34.631  1.00  0.00    -0.206 F 
ATOM     75  C   UNL A   1      39.426  33.689  37.497  1.00  0.00     0.022 A 
BRANCH  72  76
ATOM     76  S   UNL A   1      37.522  31.879  38.433  1.00  0.00     0.124 S 
ATOM     77  O   UNL A   1      36.463  32.842  38.151  1.00  0.00    -0.237 OA
ATOM     78  O   UNL A   1      37.289  30.514  37.972  1.00  0.00    -0.237 OA
ATOM     79  O   UNL A   1      38.131  31.991  39.757  1.00  0.00    -0.744 OA
ENDBRANCH  72  76
ENDBRANCH  45  69
BRANCH  57  80
ATOM     80  C   UNL A   1      45.232  27.441  34.123  1.00  0.00     0.023 A 
ATOM     81  C   UNL A   1      46.483  28.077  34.033  1.00  0.00     0.031 A 
ATOM     82  C   UNL A   1      45.101  26.349  34.998  1.00  0.00     0.131 A 
ATOM     83  C   UNL A   1      47.572  27.578  34.764  1.00  0.00     0.055 A 
ATOM     84  C   UNL A   1      46.176  25.890  35.761  1.00  0.00     0.041 A 
ATOM     85  F   UNL A   1      43.929  25.707  35.119  1.00  0.00    -0.206 F 
ATOM     86  C   UNL A   1      47.422  26.497  35.636  1.00  0.00     0.022 A 
BRANCH  83  87
ATOM     87  S   UNL A   1      49.211  28.304  34.489  1.00  0.00     0.124 S 
ATOM     88  O   UNL A   1      49.237  28.456  33.038  1.00  0.00    -0.237 OA
ATOM     89  O   UNL A   1      49.136  29.542  35.257  1.00  0.00    -0.237 OA
ATOM     90  O   UNL A   1      50.127  27.298  35.024  1.00  0.00    -0.744 OA
ENDBRANCH  83  87
ENDBRANCH  57  80
ENDBRANCH  31  32
ENDBRANCH  24  26
ENDBRANCH  23  24
ENDBRANCH  22  23
ENDBRANCH   1  22
TORSDOF 18
ENDMDL
MODEL 3
REMARK VINA RESULT:     -10.5      1.702      7.876
REMARK SMILES CCc1nc(COC)cc(N2CCCC[C@H]2C(=O)OCCOC(=O)c2ccc(-c3c4nc(c(-c5cc(S(=O)(=O)[O-])ccc5F)c5ccc([nH]5)c(-c5cc(S(=O)(=O)[O-])ccc5F)c5nc(c(-c6cc(S(=O)(=O)[O-])ccc6F)c6ccc3[nH]6)C=C5)C=C4)cc2)n1
REMARK SMILES IDX 20 1 19 2 17 3 18 4 16 5 11 6 12 7 13 8 15 9 14 10 10 11
REMARK SMILES IDX 3 12 4 13 88 14 5 15 9 16 2 17 1 18 6 19 7 20 8 21 21 22
REMARK SMILES IDX 22 23 23 24 24 25 25 26 26 27 87 28 27 29 86 30 28 31 29 32
REMARK SMILES IDX 30 33 80 34 31 35 85 36 79 37 81 38 32 39 84 40 78 41 77 42
REMARK SMILES IDX 33 44 65 45 45 46 64 47 46 48 49 49 63 50 82 51 47 52 48 53
REMARK SMILES IDX 62 55 83 56 50 57 34 58 35 59 43 60 36 61 42 62 44 63 41 64
REMARK SMILES IDX 37 65 38 66 39 67 40 68 66 69 67 70 75 71 68 72 74 73 76 74
REMARK SMILES IDX 73 75 69 76 70 77 71 78 72 79 51 80 52 81 60 82 53 83 59 84
REMARK SMILES IDX 61 85 58 86 54 87 55 88 56 89 57 90
REMARK H PARENT 81 43 49 54
REMARK Flexibility Score: inf
ROOT
ATOM      1  C   UNL A   1      31.909  29.056  25.939  1.00  0.00     0.274 C 
ENDROOT
BRANCH   1   2
ATOM      2  O   UNL A   1      33.090  28.279  25.671  1.00  0.00    -0.461 OA
BRANCH   2   3
ATOM      3  C   UNL A   1      32.896  26.942  25.482  1.00  0.00     0.328 C 
ATOM      4  O   UNL A   1      32.248  26.240  26.251  1.00  0.00    -0.250 OA
BRANCH   3   5
ATOM      5  C   UNL A   1      33.539  26.395  24.191  1.00  0.00     0.193 C 
ATOM      6  N   UNL A   1      32.905  25.196  23.632  1.00  0.00    -0.343 N 
ATOM      7  C   UNL A   1      31.633  25.270  22.944  1.00  0.00     0.119 C 
ATOM      8  C   UNL A   1      31.620  26.429  21.945  1.00  0.00     0.022 C 
ATOM      9  C   UNL A   1      33.550  27.501  23.126  1.00  0.00     0.037 C 
ATOM     10  C   UNL A   1      32.155  27.725  22.547  1.00  0.00     0.005 C 
BRANCH   6  11
ATOM     11  C   UNL A   1      33.503  23.970  23.837  1.00  0.00     0.133 A 
ATOM     12  C   UNL A   1      35.367  22.743  24.397  1.00  0.00     0.130 A 
ATOM     13  N   UNL A   1      34.712  21.572  24.339  1.00  0.00    -0.235 NA
ATOM     14  N   UNL A   1      34.809  23.945  24.141  1.00  0.00    -0.216 NA
ATOM     15  C   UNL A   1      33.408  21.614  24.013  1.00  0.00     0.072 A 
ATOM     16  C   UNL A   1      32.764  22.808  23.755  1.00  0.00     0.073 A 
BRANCH  12  17
ATOM     17  C   UNL A   1      36.805  22.727  24.846  1.00  0.00     0.074 C 
ATOM     18  C   UNL A   1      37.112  23.700  25.979  1.00  0.00     0.012 C 
ENDBRANCH  12  17
BRANCH  15  19
ATOM     19  C   UNL A   1      32.663  20.303  23.897  1.00  0.00     0.216 C 
BRANCH  19  20
ATOM     20  O   UNL A   1      33.388  19.184  24.430  1.00  0.00    -0.378 OA
ATOM     21  C   UNL A   1      32.884  18.735  25.678  1.00  0.00     0.195 C 
ENDBRANCH  19  20
ENDBRANCH  15  19
ENDBRANCH   6  11
ENDBRANCH   3   5
ENDBRANCH   2   3
ENDBRANCH   1   2
BRANCH   1  22
ATOM     22  C   UNL A   1      32.251  30.520  26.220  1.00  0.00     0.275 C 
BRANCH  22  23
ATOM     23  O   UNL A   1      32.855  30.672  27.516  1.00  0.00    -0.458 OA
BRANCH  23  24
ATOM     24  C   UNL A   1      33.752  31.679  27.622  1.00  0.00     0.338 C 
ATOM     25  O   UNL A   1      33.551  32.866  27.442  1.00  0.00    -0.246 OA
BRANCH  24  26
ATOM     26  C   UNL A   1      35.048  31.144  28.058  1.00  0.00     0.060 A 
ATOM     27  C   UNL A   1      35.129  29.805  28.442  1.00  0.00     0.016 A 
ATOM     28  C   UNL A   1      36.145  31.993  28.205  1.00  0.00     0.016 A 
ATOM     29  C   UNL A   1      36.300  29.309  29.003  1.00  0.00     0.010 A 
ATOM     30  C   UNL A   1      37.332  31.485  28.742  1.00  0.00     0.010 A 
ATOM     31  C   UNL A   1      37.411  30.146  29.161  1.00  0.00    -0.014 A 
BRANCH  31  32
ATOM     32  C   UNL A   1      38.637  29.630  29.815  1.00  0.00     0.031 A 
ATOM     33  C   UNL A   1      39.038  30.157  31.164  1.00  0.00     0.074 A 
ATOM     34  C   UNL A   1      39.372  28.683  29.205  1.00  0.00     0.049 A 
ATOM     35  N   UNL A   1      40.130  29.938  31.848  1.00  0.00    -0.248 NA
ATOM     36  C   UNL A   1      38.083  31.059  31.822  1.00  0.00     0.031 C 
ATOM     37  C   UNL A   1      39.045  28.059  27.921  1.00  0.00     0.029 A 
ATOM     38  N   UNL A   1      40.546  28.082  29.578  1.00  0.00    -0.354 N 
ATOM     39  C   UNL A   1      40.007  30.692  33.010  1.00  0.00     0.074 A 
ATOM     40  C   UNL A   1      38.740  31.389  32.924  1.00  0.00     0.031 C 
ATOM     41  C   UNL A   1      39.997  27.162  27.615  1.00  0.00     0.029 A 
ATOM     42  C   UNL A   1      41.027  27.190  28.649  1.00  0.00     0.049 A 
ATOM     43  H   UNL A   1      41.002  28.271  30.431  1.00  0.00     0.167 HD
ATOM     44  C   UNL A   1      40.875  30.793  34.048  1.00  0.00     0.034 A 
ATOM     45  C   UNL A   1      42.185  26.502  28.618  1.00  0.00     0.034 A 
ATOM     46  C   UNL A   1      42.132  30.085  34.112  1.00  0.00     0.049 A 
ATOM     47  C   UNL A   1      43.159  26.673  29.754  1.00  0.00     0.074 A 
ATOM     48  C   UNL A   1      43.096  30.118  35.105  1.00  0.00     0.029 A 
ATOM     49  N   UNL A   1      42.601  29.211  33.137  1.00  0.00    -0.354 N 
ATOM     50  N   UNL A   1      43.056  27.429  30.822  1.00  0.00    -0.248 NA
ATOM     51  C   UNL A   1      44.405  25.901  29.676  1.00  0.00     0.031 C 
ATOM     52  C   UNL A   1      44.166  29.306  34.707  1.00  0.00     0.029 A 
ATOM     53  C   UNL A   1      43.846  28.717  33.495  1.00  0.00     0.049 A 
ATOM     54  H   UNL A   1      42.118  28.977  32.312  1.00  0.00     0.167 HD
ATOM     55  C   UNL A   1      44.221  27.213  31.552  1.00  0.00     0.074 A 
ATOM     56  C   UNL A   1      44.999  26.241  30.810  1.00  0.00     0.031 C 
ATOM     57  C   UNL A   1      44.613  27.766  32.728  1.00  0.00     0.034 A 
BRANCH  44  58
ATOM     58  C   UNL A   1      40.516  31.752  35.156  1.00  0.00     0.023 A 
ATOM     59  C   UNL A   1      39.545  31.440  36.125  1.00  0.00     0.031 A 
ATOM     60  C   UNL A   1      41.124  33.019  35.217  1.00  0.00     0.131 A 
ATOM     61  C   UNL A   1      39.164  32.406  37.069  1.00  0.00     0.055 A 
ATOM     62  C   UNL A   1      40.792  33.949  36.204  1.00  0.00     0.041 A 
ATOM     63  F   UNL A   1      42.042  33.380  34.306  1.00  0.00    -0.206 F 
ATOM     64  C   UNL A   1      39.796  33.651  37.128  1.00  0.00     0.022 A 
BRANCH  61  65
ATOM     65  S   UNL A   1      37.737  32.065  38.136  1.00  0.00     0.124 S 
ATOM     66  O   UNL A   1      38.309  32.260  39.466  1.00  0.00    -0.237 OA
ATOM     67  O   UNL A   1      36.771  33.067  37.701  1.00  0.00    -0.237 OA
ATOM     68  O   UNL A   1      37.390  30.682  37.811  1.00  0.00    -0.744 OA
ENDBRANCH  61  65
ENDBRANCH  44  58
BRANCH  45  69
ATOM     69  C   UNL A   1      42.513  25.639  27.451  1.00  0.00     0.023 A 
ATOM     70  C   UNL A   1      42.094  24.300  27.396  1.00  0.00     0.031 A 
ATOM     71  C   UNL A   1      43.277  26.137  26.379  1.00  0.00     0.131 A 
ATOM     72  C   UNL A   1      42.469  23.496  26.308  1.00  0.00     0.055 A 
ATOM     73  C   UNL A   1      43.608  25.347  25.278  1.00  0.00     0.041 A 
ATOM     74  F   UNL A   1      43.698  27.413  26.383  1.00  0.00    -0.206 F 
ATOM     75  C   UNL A   1      43.213  24.013  25.244  1.00  0.00     0.022 A 
BRANCH  72  76
ATOM     76  S   UNL A   1      42.022  21.738  26.332  1.00  0.00     0.124 S 
ATOM     77  O   UNL A   1      40.608  21.785  25.980  1.00  0.00    -0.237 OA
ATOM     78  O   UNL A   1      42.919  21.185  25.322  1.00  0.00    -0.237 OA
ATOM     79  O   UNL A   1      42.311  21.332  27.706  1.00  0.00    -0.744 OA
ENDBRANCH  72  76
ENDBRANCH  45  69
BRANCH  57  80
ATOM     80  C   UNL A   1      45.933  27.294  33.284  1.00  0.00     0.023 A 
ATOM     81  C   UNL A   1      46.015  26.173  34.130  1.00  0.00     0.031 A 
ATOM     82  C   UNL A   1      47.114  27.998  32.993  1.00  0.00     0.131 A 
ATOM     83  C   UNL A   1      47.246  25.822  34.702  1.00  0.00     0.055 A 
ATOM     84  C   UNL A   1      48.345  27.612  33.525  1.00  0.00     0.041 A 
ATOM     85  F   UNL A   1      47.088  29.075  32.194  1.00  0.00    -0.206 F 
ATOM     86  C   UNL A   1      48.413  26.528  34.395  1.00  0.00     0.022 A 
BRANCH  83  87
ATOM     87  S   UNL A   1      47.288  24.487  35.928  1.00  0.00     0.124 S 
ATOM     88  O   UNL A   1      46.902  25.184  37.150  1.00  0.00    -0.237 OA
ATOM     89  O   UNL A   1      46.309  23.544  35.396  1.00  0.00    -0.237 OA
ATOM     90  O   UNL A   1      48.675  24.026  35.888  1.00  0.00    -0.744 OA
ENDBRANCH  83  87
ENDBRANCH  57  80
ENDBRANCH  31  32
ENDBRANCH  24  26
ENDBRANCH  23  24
ENDBRANCH  22  23
ENDBRANCH   1  22
TORSDOF 18
ENDMDL
