MODEL 1
REMARK VINA RESULT:     -11.9      0.000      0.000
REMARK SMILES CC[NH2+][C@@]1(C(=O)OCCOC(=O)c2ccc(-c3c4nc(c(-c5cc(S(=O)(=O)[O-])ccc5F)c5ccc([nH]5)c(-c5cc(S(=O)(=O)[O-])ccc5F)c5nc(c(-c6cc(S(=O)(=O)[O-])ccc6F)c6ccc3[nH]6)C=C5)C=C4)cc2)CC[C@H](Oc2ccc3c(c2)OCO3)C1
REMARK SMILES IDX 9 1 8 2 7 3 5 4 6 5 4 6 76 7 89 8 77 9 78 10 3 11 2 14 1 15
REMARK SMILES IDX 79 16 80 17 81 18 85 19 82 20 84 21 83 22 86 23 88 24 87 25
REMARK SMILES IDX 10 26 11 27 12 28 13 29 14 30 75 31 15 32 74 33 16 34 17 35
REMARK SMILES IDX 18 36 68 37 19 38 73 39 67 40 69 41 20 42 72 43 66 44 65 45
REMARK SMILES IDX 21 47 53 48 33 49 52 50 34 51 37 52 51 53 70 54 35 55 36 56
REMARK SMILES IDX 50 58 71 59 38 60 22 61 23 62 31 63 24 64 30 65 32 66 29 67
REMARK SMILES IDX 25 68 26 69 27 70 28 71 54 72 55 73 63 74 56 75 62 76 64 77
REMARK SMILES IDX 61 78 57 79 58 80 59 81 60 82 39 83 40 84 48 85 41 86 47 87
REMARK SMILES IDX 49 88 46 89 42 90 43 91 44 92 45 93
REMARK H PARENT 3 12 3 13 69 46 37 57
REMARK Flexibility Score: inf
ROOT
ATOM      1  C   UNL A   1      37.076  21.602  24.359  1.00  0.00     0.275 C 
ENDROOT
BRANCH   1   2
ATOM      2  C   UNL A   1      36.636  22.857  23.615  1.00  0.00     0.274 C 
BRANCH   2   3
ATOM      3  O   UNL A   1      35.555  23.485  24.330  1.00  0.00    -0.457 OA
BRANCH   3   4
ATOM      4  C   UNL A   1      34.289  23.172  23.960  1.00  0.00     0.368 C 
ATOM      5  O   UNL A   1      33.980  22.809  22.829  1.00  0.00    -0.245 OA
BRANCH   4   6
ATOM      6  C   UNL A   1      33.251  23.346  25.130  1.00  0.00     0.198 C 
ATOM      7  C   UNL A   1      34.003  22.993  26.421  1.00  0.00     0.085 C 
ATOM      8  C   UNL A   1      32.117  22.307  25.152  1.00  0.00     0.126 C 
ATOM      9  C   UNL A   1      34.051  21.462  26.394  1.00  0.00     0.052 C 
ATOM     10  C   UNL A   1      32.758  21.016  25.692  1.00  0.00     0.180 C 
BRANCH   6  11
ATOM     11  N   UNL A   1      32.722  24.720  25.010  1.00  0.00    -0.332 N 
ATOM     12  H   UNL A   1      33.093  25.114  24.147  1.00  0.00     0.347 HD
ATOM     13  H   UNL A   1      31.709  24.605  25.048  1.00  0.00     0.347 HD
BRANCH  11  14
ATOM     14  C   UNL A   1      33.018  25.665  26.078  1.00  0.00     0.257 C 
ATOM     15  C   UNL A   1      32.018  26.815  26.015  1.00  0.00     0.071 C 
ENDBRANCH  11  14
ENDBRANCH   6  11
BRANCH  10  16
ATOM     16  O   UNL A   1      33.025  20.205  24.555  1.00  0.00    -0.490 OA
BRANCH  16  17
ATOM     17  C   UNL A   1      33.453  18.924  24.685  1.00  0.00     0.123 A 
ATOM     18  C   UNL A   1      34.746  18.449  24.423  1.00  0.00     0.050 A 
ATOM     19  C   UNL A   1      32.446  18.046  25.101  1.00  0.00     0.097 A 
ATOM     20  C   UNL A   1      35.040  17.087  24.574  1.00  0.00     0.054 A 
ATOM     21  C   UNL A   1      32.764  16.717  25.251  1.00  0.00     0.169 A 
ATOM     22  C   UNL A   1      34.028  16.250  24.994  1.00  0.00     0.166 A 
ATOM     23  O   UNL A   1      31.914  15.737  25.656  1.00  0.00    -0.453 OA
ATOM     24  O   UNL A   1      34.135  14.910  25.207  1.00  0.00    -0.454 OA
ATOM     25  C   UNL A   1      32.811  14.611  25.701  1.00  0.00     0.468 C 
ENDBRANCH  16  17
ENDBRANCH  10  16
ENDBRANCH   4   6
ENDBRANCH   3   4
ENDBRANCH   2   3
ENDBRANCH   1   2
BRANCH   1  26
ATOM     26  O   UNL A   1      37.470  21.959  25.693  1.00  0.00    -0.458 OA
BRANCH  26  27
ATOM     27  C   UNL A   1      38.764  21.701  25.988  1.00  0.00     0.338 C 
ATOM     28  O   UNL A   1      39.410  20.701  25.722  1.00  0.00    -0.246 OA
BRANCH  27  29
ATOM     29  C   UNL A   1      39.341  22.866  26.662  1.00  0.00     0.060 A 
ATOM     30  C   UNL A   1      38.870  24.139  26.341  1.00  0.00     0.016 A 
ATOM     31  C   UNL A   1      40.432  22.702  27.509  1.00  0.00     0.016 A 
ATOM     32  C   UNL A   1      39.557  25.263  26.791  1.00  0.00     0.010 A 
ATOM     33  C   UNL A   1      41.055  23.831  28.039  1.00  0.00     0.010 A 
ATOM     34  C   UNL A   1      40.648  25.125  27.659  1.00  0.00    -0.014 A 
BRANCH  34  35
ATOM     35  C   UNL A   1      41.404  26.308  28.154  1.00  0.00     0.031 A 
ATOM     36  C   UNL A   1      40.684  27.362  28.949  1.00  0.00     0.074 A 
ATOM     37  C   UNL A   1      42.712  26.461  27.869  1.00  0.00     0.049 A 
ATOM     38  N   UNL A   1      41.031  28.596  29.203  1.00  0.00    -0.248 NA
ATOM     39  C   UNL A   1      39.382  26.975  29.515  1.00  0.00     0.031 C 
ATOM     40  C   UNL A   1      43.554  25.478  27.183  1.00  0.00     0.029 A 
ATOM     41  N   UNL A   1      43.561  27.513  28.107  1.00  0.00    -0.354 N 
ATOM     42  C   UNL A   1      39.967  29.154  29.906  1.00  0.00     0.074 A 
ATOM     43  C   UNL A   1      38.962  28.119  30.035  1.00  0.00     0.031 C 
ATOM     44  C   UNL A   1      44.798  25.968  27.068  1.00  0.00     0.029 A 
ATOM     45  C   UNL A   1      44.816  27.336  27.570  1.00  0.00     0.049 A 
ATOM     46  H   UNL A   1      43.298  28.316  28.613  1.00  0.00     0.167 HD
ATOM     47  C   UNL A   1      39.844  30.417  30.385  1.00  0.00     0.034 A 
ATOM     48  C   UNL A   1      45.842  28.198  27.432  1.00  0.00     0.034 A 
ATOM     49  C   UNL A   1      40.879  31.416  30.269  1.00  0.00     0.049 A 
ATOM     50  C   UNL A   1      45.662  29.616  27.904  1.00  0.00     0.074 A 
ATOM     51  C   UNL A   1      40.865  32.734  30.692  1.00  0.00     0.029 A 
ATOM     52  N   UNL A   1      42.126  31.200  29.694  1.00  0.00    -0.354 N 
ATOM     53  N   UNL A   1      44.612  30.172  28.464  1.00  0.00    -0.248 NA
ATOM     54  C   UNL A   1      46.794  30.530  27.706  1.00  0.00     0.031 C 
ATOM     55  C   UNL A   1      42.082  33.325  30.334  1.00  0.00     0.029 A 
ATOM     56  C   UNL A   1      42.882  32.360  29.744  1.00  0.00     0.049 A 
ATOM     57  H   UNL A   1      42.428  30.346  29.310  1.00  0.00     0.167 HD
ATOM     58  C   UNL A   1      44.968  31.494  28.707  1.00  0.00     0.074 A 
ATOM     59  C   UNL A   1      46.329  31.652  28.237  1.00  0.00     0.031 C 
ATOM     60  C   UNL A   1      44.238  32.490  29.269  1.00  0.00     0.034 A 
BRANCH  47  61
ATOM     61  C   UNL A   1      38.525  30.800  31.009  1.00  0.00     0.023 A 
ATOM     62  C   UNL A   1      37.478  31.362  30.259  1.00  0.00     0.031 A 
ATOM     63  C   UNL A   1      38.325  30.631  32.391  1.00  0.00     0.131 A 
ATOM     64  C   UNL A   1      36.308  31.796  30.903  1.00  0.00     0.055 A 
ATOM     65  C   UNL A   1      37.129  30.995  33.016  1.00  0.00     0.041 A 
ATOM     66  F   UNL A   1      39.297  30.122  33.164  1.00  0.00    -0.206 F 
ATOM     67  C   UNL A   1      36.118  31.594  32.272  1.00  0.00     0.022 A 
BRANCH  64  68
ATOM     68  S   UNL A   1      35.093  32.749  29.952  1.00  0.00     0.124 S 
ATOM     69  O   UNL A   1      35.917  33.832  29.420  1.00  0.00    -0.237 OA
ATOM     70  O   UNL A   1      34.617  31.773  28.979  1.00  0.00    -0.237 OA
ATOM     71  O   UNL A   1      34.113  33.158  30.957  1.00  0.00    -0.744 OA
ENDBRANCH  64  68
ENDBRANCH  47  61
BRANCH  48  72
ATOM     72  C   UNL A   1      47.093  27.772  26.742  1.00  0.00     0.023 A 
ATOM     73  C   UNL A   1      47.225  27.883  25.350  1.00  0.00     0.031 A 
ATOM     74  C   UNL A   1      48.168  27.224  27.466  1.00  0.00     0.131 A 
ATOM     75  C   UNL A   1      48.396  27.428  24.721  1.00  0.00     0.055 A 
ATOM     76  C   UNL A   1      49.351  26.824  26.843  1.00  0.00     0.041 A 
ATOM     77  F   UNL A   1      48.092  27.092  28.800  1.00  0.00    -0.206 F 
ATOM     78  C   UNL A   1      49.465  26.914  25.460  1.00  0.00     0.022 A 
BRANCH  75  79
ATOM     79  S   UNL A   1      48.472  27.444  22.909  1.00  0.00     0.124 S 
ATOM     80  O   UNL A   1      47.265  28.188  22.568  1.00  0.00    -0.237 OA
ATOM     81  O   UNL A   1      49.739  28.128  22.666  1.00  0.00    -0.237 OA
ATOM     82  O   UNL A   1      48.453  26.027  22.554  1.00  0.00    -0.744 OA
ENDBRANCH  75  79
ENDBRANCH  48  72
BRANCH  60  83
ATOM     83  C   UNL A   1      44.930  33.812  29.464  1.00  0.00     0.023 A 
ATOM     84  C   UNL A   1      45.032  34.753  28.427  1.00  0.00     0.031 A 
ATOM     85  C   UNL A   1      45.493  34.127  30.713  1.00  0.00     0.131 A 
ATOM     86  C   UNL A   1      45.718  35.957  28.649  1.00  0.00     0.055 A 
ATOM     87  C   UNL A   1      46.136  35.343  30.940  1.00  0.00     0.041 A 
ATOM     88  F   UNL A   1      45.419  33.258  31.734  1.00  0.00    -0.206 F 
ATOM     89  C   UNL A   1      46.258  36.263  29.901  1.00  0.00     0.022 A 
BRANCH  86  90
ATOM     90  S   UNL A   1      45.939  37.105  27.262  1.00  0.00     0.124 S 
ATOM     91  O   UNL A   1      45.940  36.201  26.117  1.00  0.00    -0.237 OA
ATOM     92  O   UNL A   1      44.774  37.976  27.386  1.00  0.00    -0.237 OA
ATOM     93  O   UNL A   1      47.221  37.745  27.548  1.00  0.00    -0.744 OA
ENDBRANCH  86  90
ENDBRANCH  60  83
ENDBRANCH  34  35
ENDBRANCH  27  29
ENDBRANCH  26  27
ENDBRANCH   1  26
TORSDOF 18
ENDMDL
MODEL 2
REMARK VINA RESULT:     -11.9      1.296      1.640
REMARK SMILES CC[NH2+][C@@]1(C(=O)OCCOC(=O)c2ccc(-c3c4nc(c(-c5cc(S(=O)(=O)[O-])ccc5F)c5ccc([nH]5)c(-c5cc(S(=O)(=O)[O-])ccc5F)c5nc(c(-c6cc(S(=O)(=O)[O-])ccc6F)c6ccc3[nH]6)C=C5)C=C4)cc2)CC[C@H](Oc2ccc3c(c2)OCO3)C1
REMARK SMILES IDX 9 1 8 2 7 3 5 4 6 5 4 6 76 7 89 8 77 9 78 10 3 11 2 14 1 15
REMARK SMILES IDX 79 16 80 17 81 18 85 19 82 20 84 21 83 22 86 23 88 24 87 25
REMARK SMILES IDX 10 26 11 27 12 28 13 29 14 30 75 31 15 32 74 33 16 34 17 35
REMARK SMILES IDX 18 36 68 37 19 38 73 39 67 40 69 41 20 42 72 43 66 44 65 45
REMARK SMILES IDX 21 47 53 48 33 49 52 50 34 51 37 52 51 53 70 54 35 55 36 56
REMARK SMILES IDX 50 58 71 59 38 60 22 61 23 62 31 63 24 64 30 65 32 66 29 67
REMARK SMILES IDX 25 68 26 69 27 70 28 71 54 72 55 73 63 74 56 75 62 76 64 77
REMARK SMILES IDX 61 78 57 79 58 80 59 81 60 82 39 83 40 84 48 85 41 86 47 87
REMARK SMILES IDX 49 88 46 89 42 90 43 91 44 92 45 93
REMARK H PARENT 3 12 3 13 69 46 37 57
REMARK Flexibility Score: inf
ROOT
ATOM      1  C   UNL A   1      37.020  21.425  24.342  1.00  0.00     0.275 C 
ENDROOT
BRANCH   1   2
ATOM      2  C   UNL A   1      36.593  22.726  23.672  1.00  0.00     0.274 C 
BRANCH   2   3
ATOM      3  O   UNL A   1      35.514  23.319  24.418  1.00  0.00    -0.457 OA
BRANCH   3   4
ATOM      4  C   UNL A   1      34.250  23.099  23.980  1.00  0.00     0.368 C 
ATOM      5  O   UNL A   1      33.966  22.863  22.809  1.00  0.00    -0.245 OA
BRANCH   4   6
ATOM      6  C   UNL A   1      33.180  23.202  25.129  1.00  0.00     0.198 C 
ATOM      7  C   UNL A   1      33.932  22.915  26.437  1.00  0.00     0.085 C 
ATOM      8  C   UNL A   1      32.127  22.080  25.139  1.00  0.00     0.126 C 
ATOM      9  C   UNL A   1      34.096  21.393  26.423  1.00  0.00     0.052 C 
ATOM     10  C   UNL A   1      32.854  20.845  25.701  1.00  0.00     0.180 C 
BRANCH   6  11
ATOM     11  N   UNL A   1      32.551  24.531  24.989  1.00  0.00    -0.332 N 
ATOM     12  H   UNL A   1      32.858  24.919  24.098  1.00  0.00     0.347 HD
ATOM     13  H   UNL A   1      31.550  24.348  25.074  1.00  0.00     0.347 HD
BRANCH  11  14
ATOM     14  C   UNL A   1      32.822  25.531  26.013  1.00  0.00     0.257 C 
ATOM     15  C   UNL A   1      33.880  26.499  25.494  1.00  0.00     0.071 C 
ENDBRANCH  11  14
ENDBRANCH   6  11
BRANCH  10  16
ATOM     16  O   UNL A   1      33.204  20.049  24.576  1.00  0.00    -0.490 OA
BRANCH  16  17
ATOM     17  C   UNL A   1      33.553  18.745  24.713  1.00  0.00     0.123 A 
ATOM     18  C   UNL A   1      34.808  18.187  24.429  1.00  0.00     0.050 A 
ATOM     19  C   UNL A   1      32.503  17.937  25.163  1.00  0.00     0.097 A 
ATOM     20  C   UNL A   1      35.019  16.811  24.591  1.00  0.00     0.054 A 
ATOM     21  C   UNL A   1      32.741  16.593  25.323  1.00  0.00     0.169 A 
ATOM     22  C   UNL A   1      33.967  16.044  25.044  1.00  0.00     0.166 A 
ATOM     23  O   UNL A   1      31.841  15.673  25.760  1.00  0.00    -0.453 OA
ATOM     24  O   UNL A   1      33.995  14.703  25.272  1.00  0.00    -0.454 OA
ATOM     25  C   UNL A   1      32.667  14.493  25.800  1.00  0.00     0.468 C 
ENDBRANCH  16  17
ENDBRANCH  10  16
ENDBRANCH   4   6
ENDBRANCH   3   4
ENDBRANCH   2   3
ENDBRANCH   1   2
BRANCH   1  26
ATOM     26  O   UNL A   1      37.435  21.704  25.688  1.00  0.00    -0.458 OA
BRANCH  26  27
ATOM     27  C   UNL A   1      38.741  21.455  25.939  1.00  0.00     0.338 C 
ATOM     28  O   UNL A   1      39.381  20.455  25.663  1.00  0.00    -0.246 OA
BRANCH  27  29
ATOM     29  C   UNL A   1      39.336  22.633  26.575  1.00  0.00     0.060 A 
ATOM     30  C   UNL A   1      38.922  23.903  26.177  1.00  0.00     0.016 A 
ATOM     31  C   UNL A   1      40.391  22.473  27.467  1.00  0.00     0.016 A 
ATOM     32  C   UNL A   1      39.633  25.024  26.595  1.00  0.00     0.010 A 
ATOM     33  C   UNL A   1      41.037  23.606  27.963  1.00  0.00     0.010 A 
ATOM     34  C   UNL A   1      40.690  24.892  27.506  1.00  0.00    -0.014 A 
BRANCH  34  35
ATOM     35  C   UNL A   1      41.470  26.072  27.970  1.00  0.00     0.031 A 
ATOM     36  C   UNL A   1      40.790  27.126  28.800  1.00  0.00     0.074 A 
ATOM     37  C   UNL A   1      42.764  26.222  27.625  1.00  0.00     0.049 A 
ATOM     38  N   UNL A   1      41.151  28.358  29.041  1.00  0.00    -0.248 NA
ATOM     39  C   UNL A   1      39.514  26.740  29.424  1.00  0.00     0.031 C 
ATOM     40  C   UNL A   1      43.571  25.239  26.899  1.00  0.00     0.029 A 
ATOM     41  N   UNL A   1      43.626  27.271  27.827  1.00  0.00    -0.354 N 
ATOM     42  C   UNL A   1      40.122  28.917  29.792  1.00  0.00     0.074 A 
ATOM     43  C   UNL A   1      39.121  27.884  29.965  1.00  0.00     0.031 C 
ATOM     44  C   UNL A   1      44.810  25.726  26.730  1.00  0.00     0.029 A 
ATOM     45  C   UNL A   1      44.854  27.092  27.234  1.00  0.00     0.049 A 
ATOM     46  H   UNL A   1      43.389  28.073  28.347  1.00  0.00     0.167 HD
ATOM     47  C   UNL A   1      40.024  30.178  30.280  1.00  0.00     0.034 A 
ATOM     48  C   UNL A   1      45.875  27.953  27.051  1.00  0.00     0.034 A 
ATOM     49  C   UNL A   1      41.056  31.175  30.119  1.00  0.00     0.049 A 
ATOM     50  C   UNL A   1      45.721  29.370  27.534  1.00  0.00     0.074 A 
ATOM     51  C   UNL A   1      41.064  32.492  30.546  1.00  0.00     0.029 A 
ATOM     52  N   UNL A   1      42.275  30.958  29.488  1.00  0.00    -0.354 N 
ATOM     53  N   UNL A   1      44.699  29.927  28.143  1.00  0.00    -0.248 NA
ATOM     54  C   UNL A   1      46.846  30.281  27.288  1.00  0.00     0.031 C 
ATOM     55  C   UNL A   1      42.265  33.081  30.135  1.00  0.00     0.029 A 
ATOM     56  C   UNL A   1      43.035  32.116  29.507  1.00  0.00     0.049 A 
ATOM     57  H   UNL A   1      42.557  30.104  29.088  1.00  0.00     0.167 HD
ATOM     58  C   UNL A   1      45.069  31.247  28.373  1.00  0.00     0.074 A 
ATOM     59  C   UNL A   1      46.408  31.403  27.841  1.00  0.00     0.031 C 
ATOM     60  C   UNL A   1      44.368  32.243  28.970  1.00  0.00     0.034 A 
BRANCH  47  61
ATOM     61  C   UNL A   1      38.736  30.563  30.964  1.00  0.00     0.023 A 
ATOM     62  C   UNL A   1      37.657  31.129  30.264  1.00  0.00     0.031 A 
ATOM     63  C   UNL A   1      38.599  30.393  32.354  1.00  0.00     0.131 A 
ATOM     64  C   UNL A   1      36.519  31.564  30.962  1.00  0.00     0.055 A 
ATOM     65  C   UNL A   1      37.434  30.758  33.033  1.00  0.00     0.041 A 
ATOM     66  F   UNL A   1      39.604  29.879  33.081  1.00  0.00    -0.206 F 
ATOM     67  C   UNL A   1      36.391  31.360  32.338  1.00  0.00     0.022 A 
BRANCH  64  68
ATOM     68  S   UNL A   1      35.263  32.522  30.069  1.00  0.00     0.124 S 
ATOM     69  O   UNL A   1      34.240  32.700  31.098  1.00  0.00    -0.237 OA
ATOM     70  O   UNL A   1      35.996  33.722  29.685  1.00  0.00    -0.237 OA
ATOM     71  O   UNL A   1      34.880  31.643  28.966  1.00  0.00    -0.744 OA
ENDBRANCH  64  68
ENDBRANCH  47  61
BRANCH  48  72
ATOM     72  C   UNL A   1      47.092  27.525  26.304  1.00  0.00     0.023 A 
ATOM     73  C   UNL A   1      47.241  27.812  24.938  1.00  0.00     0.031 A 
ATOM     74  C   UNL A   1      48.117  26.801  26.942  1.00  0.00     0.131 A 
ATOM     75  C   UNL A   1      48.375  27.354  24.248  1.00  0.00     0.055 A 
ATOM     76  C   UNL A   1      49.268  26.395  26.264  1.00  0.00     0.041 A 
ATOM     77  F   UNL A   1      48.023  26.497  28.246  1.00  0.00    -0.206 F 
ATOM     78  C   UNL A   1      49.396  26.662  24.906  1.00  0.00     0.022 A 
BRANCH  75  79
ATOM     79  S   UNL A   1      48.463  27.608  22.455  1.00  0.00     0.124 S 
ATOM     80  O   UNL A   1      48.563  26.239  21.964  1.00  0.00    -0.237 OA
ATOM     81  O   UNL A   1      47.205  28.298  22.185  1.00  0.00    -0.237 OA
ATOM     82  O   UNL A   1      49.665  28.422  22.284  1.00  0.00    -0.744 OA
ENDBRANCH  75  79
ENDBRANCH  48  72
BRANCH  60  83
ATOM     83  C   UNL A   1      45.072  33.563  29.137  1.00  0.00     0.023 A 
ATOM     84  C   UNL A   1      45.852  33.848  30.269  1.00  0.00     0.031 A 
ATOM     85  C   UNL A   1      44.955  34.546  28.138  1.00  0.00     0.131 A 
ATOM     86  C   UNL A   1      46.459  35.107  30.394  1.00  0.00     0.055 A 
ATOM     87  C   UNL A   1      45.597  35.779  28.248  1.00  0.00     0.041 A 
ATOM     88  F   UNL A   1      44.221  34.318  27.038  1.00  0.00    -0.206 F 
ATOM     89  C   UNL A   1      46.348  36.068  29.385  1.00  0.00     0.022 A 
BRANCH  86  90
ATOM     90  S   UNL A   1      47.363  35.494  31.918  1.00  0.00     0.124 S 
ATOM     91  O   UNL A   1      46.278  35.696  32.871  1.00  0.00    -0.237 OA
ATOM     92  O   UNL A   1      48.172  34.295  32.117  1.00  0.00    -0.237 OA
ATOM     93  O   UNL A   1      48.118  36.697  31.572  1.00  0.00    -0.744 OA
ENDBRANCH  86  90
ENDBRANCH  60  83
ENDBRANCH  34  35
ENDBRANCH  27  29
ENDBRANCH  26  27
ENDBRANCH   1  26
TORSDOF 18
ENDMDL
MODEL 3
REMARK VINA RESULT:     -11.8      5.599     11.000
REMARK SMILES CC[NH2+][C@@]1(C(=O)OCCOC(=O)c2ccc(-c3c4nc(c(-c5cc(S(=O)(=O)[O-])ccc5F)c5ccc([nH]5)c(-c5cc(S(=O)(=O)[O-])ccc5F)c5nc(c(-c6cc(S(=O)(=O)[O-])ccc6F)c6ccc3[nH]6)C=C5)C=C4)cc2)CC[C@H](Oc2ccc3c(c2)OCO3)C1
REMARK SMILES IDX 9 1 8 2 7 3 5 4 6 5 4 6 76 7 89 8 77 9 78 10 3 11 2 14 1 15
REMARK SMILES IDX 79 16 80 17 81 18 85 19 82 20 84 21 83 22 86 23 88 24 87 25
REMARK SMILES IDX 10 26 11 27 12 28 13 29 14 30 75 31 15 32 74 33 16 34 17 35
REMARK SMILES IDX 18 36 68 37 19 38 73 39 67 40 69 41 20 42 72 43 66 44 65 45
REMARK SMILES IDX 21 47 53 48 33 49 52 50 34 51 37 52 51 53 70 54 35 55 36 56
REMARK SMILES IDX 50 58 71 59 38 60 22 61 23 62 31 63 24 64 30 65 32 66 29 67
REMARK SMILES IDX 25 68 26 69 27 70 28 71 54 72 55 73 63 74 56 75 62 76 64 77
REMARK SMILES IDX 61 78 57 79 58 80 59 81 60 82 39 83 40 84 48 85 41 86 47 87
REMARK SMILES IDX 49 88 46 89 42 90 43 91 44 92 45 93
REMARK H PARENT 3 12 3 13 69 46 37 57
REMARK Flexibility Score: inf
ROOT
ATOM      1  C   UNL A   1      31.859  29.782  26.885  1.00  0.00     0.275 C 
ENDROOT
BRANCH   1   2
ATOM      2  C   UNL A   1      31.924  28.305  27.258  1.00  0.00     0.274 C 
BRANCH   2   3
ATOM      3  O   UNL A   1      31.290  27.522  26.229  1.00  0.00    -0.457 OA
BRANCH   3   4
ATOM      4  C   UNL A   1      32.091  26.852  25.364  1.00  0.00     0.368 C 
ATOM      5  O   UNL A   1      33.318  26.895  25.398  1.00  0.00    -0.245 OA
BRANCH   4   6
ATOM      6  C   UNL A   1      31.281  26.031  24.294  1.00  0.00     0.198 C 
ATOM      7  C   UNL A   1      32.043  26.189  22.971  1.00  0.00     0.085 C 
ATOM      8  C   UNL A   1      29.911  26.624  23.921  1.00  0.00     0.126 C 
ATOM      9  C   UNL A   1      31.658  27.597  22.508  1.00  0.00     0.052 C 
ATOM     10  C   UNL A   1      30.222  27.823  23.007  1.00  0.00     0.180 C 
BRANCH   6  11
ATOM     11  N   UNL A   1      31.147  24.664  24.837  1.00  0.00    -0.332 N 
ATOM     12  H   UNL A   1      31.962  24.490  25.425  1.00  0.00     0.347 HD
ATOM     13  H   UNL A   1      30.246  24.669  25.316  1.00  0.00     0.347 HD
BRANCH  11  14
ATOM     14  C   UNL A   1      31.049  23.557  23.896  1.00  0.00     0.257 C 
ATOM     15  C   UNL A   1      31.762  22.342  24.482  1.00  0.00     0.071 C 
ENDBRANCH  11  14
ENDBRANCH   6  11
BRANCH  10  16
ATOM     16  O   UNL A   1      30.123  28.979  23.829  1.00  0.00    -0.490 OA
BRANCH  16  17
ATOM     17  C   UNL A   1      29.570  30.129  23.369  1.00  0.00     0.123 A 
ATOM     18  C   UNL A   1      29.399  31.317  24.094  1.00  0.00     0.050 A 
ATOM     19  C   UNL A   1      29.128  30.037  22.044  1.00  0.00     0.097 A 
ATOM     20  C   UNL A   1      28.782  32.424  23.495  1.00  0.00     0.054 A 
ATOM     21  C   UNL A   1      28.536  31.140  21.479  1.00  0.00     0.169 A 
ATOM     22  C   UNL A   1      28.367  32.305  22.186  1.00  0.00     0.166 A 
ATOM     23  O   UNL A   1      28.064  31.226  20.207  1.00  0.00    -0.453 OA
ATOM     24  O   UNL A   1      27.765  33.274  21.445  1.00  0.00    -0.454 OA
ATOM     25  C   UNL A   1      27.650  32.605  20.171  1.00  0.00     0.468 C 
ENDBRANCH  16  17
ENDBRANCH  10  16
ENDBRANCH   4   6
ENDBRANCH   3   4
ENDBRANCH   2   3
ENDBRANCH   1   2
BRANCH   1  26
ATOM     26  O   UNL A   1      33.177  30.238  26.540  1.00  0.00    -0.458 OA
BRANCH  26  27
ATOM     27  C   UNL A   1      33.639  31.255  27.303  1.00  0.00     0.338 C 
ATOM     28  O   UNL A   1      33.055  32.274  27.629  1.00  0.00    -0.246 OA
BRANCH  27  29
ATOM     29  C   UNL A   1      34.994  30.932  27.756  1.00  0.00     0.060 A 
ATOM     30  C   UNL A   1      35.281  29.631  28.169  1.00  0.00     0.016 A 
ATOM     31  C   UNL A   1      35.934  31.948  27.894  1.00  0.00     0.016 A 
ATOM     32  C   UNL A   1      36.483  29.362  28.818  1.00  0.00     0.010 A 
ATOM     33  C   UNL A   1      37.177  31.651  28.452  1.00  0.00     0.010 A 
ATOM     34  C   UNL A   1      37.453  30.364  28.954  1.00  0.00    -0.014 A 
BRANCH  34  35
ATOM     35  C   UNL A   1      38.746  30.106  29.644  1.00  0.00     0.031 A 
ATOM     36  C   UNL A   1      39.730  29.146  29.033  1.00  0.00     0.074 A 
ATOM     37  C   UNL A   1      39.028  30.694  30.823  1.00  0.00     0.049 A 
ATOM     38  N   UNL A   1      40.742  28.529  29.582  1.00  0.00    -0.248 NA
ATOM     39  C   UNL A   1      39.526  28.821  27.613  1.00  0.00     0.031 C 
ATOM     40  C   UNL A   1      38.207  31.709  31.486  1.00  0.00     0.029 A 
ATOM     41  N   UNL A   1      40.081  30.509  31.685  1.00  0.00    -0.354 N 
ATOM     42  C   UNL A   1      41.262  27.697  28.595  1.00  0.00     0.074 A 
ATOM     43  C   UNL A   1      40.447  27.890  27.413  1.00  0.00     0.031 C 
ATOM     44  C   UNL A   1      38.792  32.065  32.639  1.00  0.00     0.029 A 
ATOM     45  C   UNL A   1      39.966  31.229  32.852  1.00  0.00     0.049 A 
ATOM     46  H   UNL A   1      40.844  29.919  31.486  1.00  0.00     0.167 HD
ATOM     47  C   UNL A   1      42.314  26.845  28.679  1.00  0.00     0.034 A 
ATOM     48  C   UNL A   1      40.681  31.172  33.993  1.00  0.00     0.034 A 
ATOM     49  C   UNL A   1      43.127  26.700  29.863  1.00  0.00     0.049 A 
ATOM     50  C   UNL A   1      41.800  30.170  34.095  1.00  0.00     0.074 A 
ATOM     51  C   UNL A   1      44.204  25.857  30.079  1.00  0.00     0.029 A 
ATOM     52  N   UNL A   1      42.959  27.432  31.033  1.00  0.00    -0.354 N 
ATOM     53  N   UNL A   1      42.215  29.303  33.200  1.00  0.00    -0.248 NA
ATOM     54  C   UNL A   1      42.533  30.121  35.366  1.00  0.00     0.031 C 
ATOM     55  C   UNL A   1      44.656  26.046  31.390  1.00  0.00     0.029 A 
ATOM     56  C   UNL A   1      43.904  27.053  31.973  1.00  0.00     0.049 A 
ATOM     57  H   UNL A   1      42.270  28.122  31.171  1.00  0.00     0.167 HD
ATOM     58  C   UNL A   1      43.273  28.623  33.793  1.00  0.00     0.074 A 
ATOM     59  C   UNL A   1      43.436  29.183  35.120  1.00  0.00     0.031 C 
ATOM     60  C   UNL A   1      44.044  27.628  33.288  1.00  0.00     0.034 A 
BRANCH  47  61
ATOM     61  C   UNL A   1      42.593  25.962  27.488  1.00  0.00     0.023 A 
ATOM     62  C   UNL A   1      42.062  24.666  27.377  1.00  0.00     0.031 A 
ATOM     63  C   UNL A   1      43.438  26.416  26.459  1.00  0.00     0.131 A 
ATOM     64  C   UNL A   1      42.433  23.847  26.299  1.00  0.00     0.055 A 
ATOM     65  C   UNL A   1      43.745  25.624  25.350  1.00  0.00     0.041 A 
ATOM     66  F   UNL A   1      43.995  27.636  26.521  1.00  0.00    -0.206 F 
ATOM     67  C   UNL A   1      43.252  24.326  25.273  1.00  0.00     0.022 A 
BRANCH  64  68
ATOM     68  S   UNL A   1      41.941  22.101  26.322  1.00  0.00     0.124 S 
ATOM     69  O   UNL A   1      40.511  22.193  26.035  1.00  0.00    -0.237 OA
ATOM     70  O   UNL A   1      42.768  21.525  25.268  1.00  0.00    -0.237 OA
ATOM     71  O   UNL A   1      42.270  21.669  27.679  1.00  0.00    -0.744 OA
ENDBRANCH  64  68
ENDBRANCH  47  61
BRANCH  48  72
ATOM     72  C   UNL A   1      40.306  32.025  35.156  1.00  0.00     0.023 A 
ATOM     73  C   UNL A   1      39.321  31.613  36.067  1.00  0.00     0.031 A 
ATOM     74  C   UNL A   1      40.913  33.277  35.363  1.00  0.00     0.131 A 
ATOM     75  C   UNL A   1      38.952  32.459  37.126  1.00  0.00     0.055 A 
ATOM     76  C   UNL A   1      40.582  34.090  36.448  1.00  0.00     0.041 A 
ATOM     77  F   UNL A   1      41.860  33.720  34.519  1.00  0.00    -0.206 F 
ATOM     78  C   UNL A   1      39.588  33.686  37.331  1.00  0.00     0.022 A 
BRANCH  75  79
ATOM     79  S   UNL A   1      37.571  31.965  38.192  1.00  0.00     0.124 S 
ATOM     80  O   UNL A   1      38.142  32.143  39.522  1.00  0.00    -0.237 OA
ATOM     81  O   UNL A   1      36.534  32.917  37.805  1.00  0.00    -0.237 OA
ATOM     82  O   UNL A   1      37.317  30.580  37.801  1.00  0.00    -0.744 OA
ENDBRANCH  75  79
ENDBRANCH  48  72
BRANCH  60  83
ATOM     83  C   UNL A   1      45.171  27.136  34.156  1.00  0.00     0.023 A 
ATOM     84  C   UNL A   1      45.008  26.058  35.040  1.00  0.00     0.031 A 
ATOM     85  C   UNL A   1      46.428  27.763  34.088  1.00  0.00     0.131 A 
ATOM     86  C   UNL A   1      46.079  25.660  35.854  1.00  0.00     0.055 A 
ATOM     87  C   UNL A   1      47.501  27.335  34.868  1.00  0.00     0.041 A 
ATOM     88  F   UNL A   1      46.631  28.797  33.257  1.00  0.00    -0.206 F 
ATOM     89  C   UNL A   1      47.327  26.282  35.764  1.00  0.00     0.022 A 
BRANCH  86  90
ATOM     90  S   UNL A   1      45.810  24.343  37.072  1.00  0.00     0.124 S 
ATOM     91  O   UNL A   1      44.879  24.974  38.001  1.00  0.00    -0.237 OA
ATOM     92  O   UNL A   1      45.262  23.265  36.254  1.00  0.00    -0.237 OA
ATOM     93  O   UNL A   1      47.147  24.092  37.607  1.00  0.00    -0.744 OA
ENDBRANCH  86  90
ENDBRANCH  60  83
ENDBRANCH  34  35
ENDBRANCH  27  29
ENDBRANCH  26  27
ENDBRANCH   1  26
TORSDOF 18
ENDMDL
