MODEL 1
REMARK VINA RESULT:     -11.6      0.000      0.000
REMARK SMILES Cc1cc(Br)c(C)c([C@@H]2[NH2+][C@H](C(=O)OCCOC(=O)c3ccc(-c4c5nc(c(-c6cc(S(=O)(=O)[O-])ccc6F)c6ccc([nH]6)c(-c6cc(S(=O)(=O)[O-])ccc6F)c6nc(c(-c7cc(S(=O)(=O)[O-])ccc7F)c7ccc4[nH]7)C=C6)C=C5)cc3)CS2)c1O
REMARK SMILES IDX 16 1 15 2 14 3 12 4 13 5 11 6 9 7 10 8 84 9 83 12 8 13 1 14
REMARK SMILES IDX 2 15 3 16 85 17 4 18 5 19 6 20 7 21 86 22 17 24 18 25 19 26
REMARK SMILES IDX 20 27 21 28 82 29 22 30 81 31 23 32 24 33 25 34 75 35 26 36
REMARK SMILES IDX 80 37 74 38 76 39 27 40 79 41 73 42 72 43 28 45 60 46 40 47
REMARK SMILES IDX 59 48 41 49 44 50 58 51 77 52 42 53 43 54 57 56 78 57 45 58
REMARK SMILES IDX 29 59 30 60 38 61 31 62 37 63 39 64 36 65 32 66 33 67 34 68
REMARK SMILES IDX 35 69 61 70 62 71 70 72 63 73 69 74 71 75 68 76 64 77 65 78
REMARK SMILES IDX 66 79 67 80 46 81 47 82 55 83 48 84 54 85 56 86 53 87 49 88
REMARK SMILES IDX 50 89 51 90 52 91
REMARK H PARENT 10 10 10 11 86 23 76 44 44 55
REMARK Flexibility Score: inf
ROOT
ATOM      1  C   UNL A   1      31.912  30.466  26.171  1.00  0.00     0.275 C 
ENDROOT
BRANCH   1   2
ATOM      2  C   UNL A   1      31.700  29.595  24.929  1.00  0.00     0.274 C 
BRANCH   2   3
ATOM      3  O   UNL A   1      31.292  28.270  25.310  1.00  0.00    -0.458 OA
BRANCH   3   4
ATOM      4  C   UNL A   1      32.269  27.330  25.510  1.00  0.00     0.365 C 
ATOM      5  O   UNL A   1      32.713  27.017  26.607  1.00  0.00    -0.245 OA
BRANCH   4   6
ATOM      6  C   UNL A   1      32.733  26.699  24.185  1.00  0.00     0.304 C 
ATOM      7  C   UNL A   1      34.134  24.807  23.611  1.00  0.00     0.278 C 
ATOM      8  N   UNL A   1      34.033  26.031  24.382  1.00  0.00    -0.319 N 
ATOM      9  S   UNL A   1      32.599  24.529  22.696  1.00  0.00    -0.087 SA
ATOM     10  H   UNL A   1      34.776  26.666  24.092  1.00  0.00     0.348 HD
ATOM     11  H   UNL A   1      34.118  25.790  25.369  1.00  0.00     0.348 HD
ATOM     12  C   UNL A   1      31.674  25.746  23.653  1.00  0.00     0.153 C 
BRANCH   7  13
ATOM     13  C   UNL A   1      34.519  23.649  24.529  1.00  0.00     0.066 A 
ATOM     14  C   UNL A   1      33.311  22.259  27.907  1.00  0.00     0.048 C 
ATOM     15  C   UNL A   1      34.093  22.401  26.634  1.00  0.00    -0.008 A 
ATOM     16  C   UNL A   1      35.173  21.576  26.355  1.00  0.00     0.023 A 
ATOM     17  C   UNL A   1      33.780  23.408  25.719  1.00  0.00     0.128 A 
ATOM     18  C   UNL A   1      35.921  21.761  25.188  1.00  0.00     0.021 A 
ATOM     19  Br  UNL A   1      37.347  20.523  24.914  1.00  0.00    -0.051 Br
ATOM     20  C   UNL A   1      35.634  22.803  24.269  1.00  0.00    -0.023 A 
ATOM     21  C   UNL A   1      36.521  22.953  23.055  1.00  0.00     0.046 C 
BRANCH  17  22
ATOM     22  O   UNL A   1      32.715  24.193  26.076  1.00  0.00    -0.507 OA
ATOM     23  H   UNL A   1      32.376  24.155  26.948  1.00  0.00     0.293 HD
ENDBRANCH  17  22
ENDBRANCH   7  13
ENDBRANCH   4   6
ENDBRANCH   3   4
ENDBRANCH   2   3
ENDBRANCH   1   2
BRANCH   1  24
ATOM     24  O   UNL A   1      33.286  30.455  26.591  1.00  0.00    -0.458 OA
BRANCH  24  25
ATOM     25  C   UNL A   1      33.707  31.533  27.301  1.00  0.00     0.338 C 
ATOM     26  O   UNL A   1      33.107  32.569  27.502  1.00  0.00    -0.246 OA
BRANCH  25  27
ATOM     27  C   UNL A   1      34.975  31.175  27.961  1.00  0.00     0.060 A 
ATOM     28  C   UNL A   1      36.003  32.107  28.100  1.00  0.00     0.016 A 
ATOM     29  C   UNL A   1      35.130  29.870  28.437  1.00  0.00     0.016 A 
ATOM     30  C   UNL A   1      37.209  31.707  28.673  1.00  0.00     0.010 A 
ATOM     31  C   UNL A   1      36.330  29.474  29.020  1.00  0.00     0.010 A 
ATOM     32  C   UNL A   1      37.386  30.384  29.120  1.00  0.00    -0.014 A 
BRANCH  32  33
ATOM     33  C   UNL A   1      38.672  29.976  29.729  1.00  0.00     0.031 A 
ATOM     34  C   UNL A   1      39.085  30.495  31.075  1.00  0.00     0.074 A 
ATOM     35  C   UNL A   1      39.465  29.127  29.051  1.00  0.00     0.049 A 
ATOM     36  N   UNL A   1      40.094  30.125  31.818  1.00  0.00    -0.248 NA
ATOM     37  C   UNL A   1      38.275  31.578  31.655  1.00  0.00     0.031 C 
ATOM     38  C   UNL A   1      39.187  28.634  27.703  1.00  0.00     0.029 A 
ATOM     39  N   UNL A   1      40.642  28.520  29.400  1.00  0.00    -0.354 N 
ATOM     40  C   UNL A   1      40.035  30.916  32.959  1.00  0.00     0.074 A 
ATOM     41  C   UNL A   1      38.933  31.833  32.777  1.00  0.00     0.031 C 
ATOM     42  C   UNL A   1      40.139  27.758  27.357  1.00  0.00     0.029 A 
ATOM     43  C   UNL A   1      41.110  27.648  28.445  1.00  0.00     0.049 A 
ATOM     44  H   UNL A   1      41.108  28.690  30.250  1.00  0.00     0.167 HD
ATOM     45  C   UNL A   1      40.816  30.854  34.065  1.00  0.00     0.034 A 
ATOM     46  C   UNL A   1      42.185  26.832  28.452  1.00  0.00     0.034 A 
ATOM     47  C   UNL A   1      41.913  29.929  34.208  1.00  0.00     0.049 A 
ATOM     48  C   UNL A   1      43.024  26.755  29.701  1.00  0.00     0.074 A 
ATOM     49  C   UNL A   1      42.730  29.739  35.308  1.00  0.00     0.029 A 
ATOM     50  N   UNL A   1      42.353  29.050  33.228  1.00  0.00    -0.354 N 
ATOM     51  N   UNL A   1      42.885  27.416  30.828  1.00  0.00    -0.248 NA
ATOM     52  C   UNL A   1      44.145  25.808  29.698  1.00  0.00     0.031 C 
ATOM     53  C   UNL A   1      43.714  28.812  34.963  1.00  0.00     0.029 A 
ATOM     54  C   UNL A   1      43.449  28.338  33.687  1.00  0.00     0.049 A 
ATOM     55  H   UNL A   1      41.945  28.946  32.338  1.00  0.00     0.167 HD
ATOM     56  C   UNL A   1      43.876  26.938  31.680  1.00  0.00     0.074 A 
ATOM     57  C   UNL A   1      44.598  25.922  30.942  1.00  0.00     0.031 C 
ATOM     58  C   UNL A   1      44.155  27.310  32.955  1.00  0.00     0.034 A 
BRANCH  45  59
ATOM     59  C   UNL A   1      40.519  31.785  35.217  1.00  0.00     0.023 A 
ATOM     60  C   UNL A   1      39.425  31.531  36.066  1.00  0.00     0.031 A 
ATOM     61  C   UNL A   1      41.230  32.986  35.398  1.00  0.00     0.131 A 
ATOM     62  C   UNL A   1      39.054  32.477  37.031  1.00  0.00     0.055 A 
ATOM     63  C   UNL A   1      40.890  33.901  36.396  1.00  0.00     0.041 A 
ATOM     64  F   UNL A   1      42.276  33.287  34.611  1.00  0.00    -0.206 F 
ATOM     65  C   UNL A   1      39.788  33.654  37.208  1.00  0.00     0.022 A 
BRANCH  62  66
ATOM     66  S   UNL A   1      37.558  32.258  38.033  1.00  0.00     0.124 S 
ATOM     67  O   UNL A   1      36.580  33.046  37.287  1.00  0.00    -0.237 OA
ATOM     68  O   UNL A   1      37.365  30.812  37.982  1.00  0.00    -0.237 OA
ATOM     69  O   UNL A   1      37.928  32.797  39.337  1.00  0.00    -0.744 OA
ENDBRANCH  62  66
ENDBRANCH  45  59
BRANCH  46  70
ATOM     70  C   UNL A   1      42.425  25.962  27.264  1.00  0.00     0.023 A 
ATOM     71  C   UNL A   1      41.937  24.643  27.235  1.00  0.00     0.031 A 
ATOM     72  C   UNL A   1      43.276  26.377  26.227  1.00  0.00     0.131 A 
ATOM     73  C   UNL A   1      42.377  23.761  26.239  1.00  0.00     0.055 A 
ATOM     74  C   UNL A   1      43.647  25.517  25.192  1.00  0.00     0.041 A 
ATOM     75  F   UNL A   1      43.783  27.620  26.223  1.00  0.00    -0.206 F 
ATOM     76  C   UNL A   1      43.215  24.194  25.208  1.00  0.00     0.022 A 
BRANCH  73  77
ATOM     77  S   UNL A   1      42.007  21.988  26.345  1.00  0.00     0.124 S 
ATOM     78  O   UNL A   1      42.878  21.431  25.316  1.00  0.00    -0.237 OA
ATOM     79  O   UNL A   1      42.387  21.689  27.724  1.00  0.00    -0.237 OA
ATOM     80  O   UNL A   1      40.576  21.917  26.066  1.00  0.00    -0.744 OA
ENDBRANCH  73  77
ENDBRANCH  46  70
BRANCH  58  81
ATOM     81  C   UNL A   1      45.277  26.610  33.690  1.00  0.00     0.023 A 
ATOM     82  C   UNL A   1      44.982  25.504  34.512  1.00  0.00     0.031 A 
ATOM     83  C   UNL A   1      46.582  27.129  33.724  1.00  0.00     0.131 A 
ATOM     84  C   UNL A   1      45.960  24.988  35.370  1.00  0.00     0.055 A 
ATOM     85  C   UNL A   1      47.571  26.573  34.536  1.00  0.00     0.041 A 
ATOM     86  F   UNL A   1      46.913  28.192  32.974  1.00  0.00    -0.206 F 
ATOM     87  C   UNL A   1      47.257  25.510  35.379  1.00  0.00     0.022 A 
BRANCH  84  88
ATOM     88  S   UNL A   1      45.554  23.705  36.588  1.00  0.00     0.124 S 
ATOM     89  O   UNL A   1      44.676  24.427  37.505  1.00  0.00    -0.237 OA
ATOM     90  O   UNL A   1      44.897  22.695  35.762  1.00  0.00    -0.237 OA
ATOM     91  O   UNL A   1      46.848  23.319  37.139  1.00  0.00    -0.744 OA
ENDBRANCH  84  88
ENDBRANCH  58  81
ENDBRANCH  32  33
ENDBRANCH  25  27
ENDBRANCH  24  25
ENDBRANCH   1  24
TORSDOF 16
ENDMDL
MODEL 2
REMARK VINA RESULT:     -11.6      5.029     10.171
REMARK SMILES Cc1cc(Br)c(C)c([C@@H]2[NH2+][C@H](C(=O)OCCOC(=O)c3ccc(-c4c5nc(c(-c6cc(S(=O)(=O)[O-])ccc6F)c6ccc([nH]6)c(-c6cc(S(=O)(=O)[O-])ccc6F)c6nc(c(-c7cc(S(=O)(=O)[O-])ccc7F)c7ccc4[nH]7)C=C6)C=C5)cc3)CS2)c1O
REMARK SMILES IDX 16 1 15 2 14 3 12 4 13 5 11 6 9 7 10 8 84 9 83 12 8 13 1 14
REMARK SMILES IDX 2 15 3 16 85 17 4 18 5 19 6 20 7 21 86 22 17 24 18 25 19 26
REMARK SMILES IDX 20 27 21 28 82 29 22 30 81 31 23 32 24 33 25 34 75 35 26 36
REMARK SMILES IDX 80 37 74 38 76 39 27 40 79 41 73 42 72 43 28 45 60 46 40 47
REMARK SMILES IDX 59 48 41 49 44 50 58 51 77 52 42 53 43 54 57 56 78 57 45 58
REMARK SMILES IDX 29 59 30 60 38 61 31 62 37 63 39 64 36 65 32 66 33 67 34 68
REMARK SMILES IDX 35 69 61 70 62 71 70 72 63 73 69 74 71 75 68 76 64 77 65 78
REMARK SMILES IDX 66 79 67 80 46 81 47 82 55 83 48 84 54 85 56 86 53 87 49 88
REMARK SMILES IDX 50 89 51 90 52 91
REMARK H PARENT 10 10 10 11 86 23 76 44 44 55
REMARK Flexibility Score: inf
ROOT
ATOM      1  C   UNL A   1      37.057  20.741  25.046  1.00  0.00     0.275 C 
ENDROOT
BRANCH   1   2
ATOM      2  C   UNL A   1      35.542  20.961  24.992  1.00  0.00     0.274 C 
BRANCH   2   3
ATOM      3  O   UNL A   1      35.232  22.354  25.166  1.00  0.00    -0.458 OA
BRANCH   3   4
ATOM      4  C   UNL A   1      34.184  22.871  24.449  1.00  0.00     0.365 C 
ATOM      5  O   UNL A   1      34.174  22.998  23.231  1.00  0.00    -0.245 OA
BRANCH   4   6
ATOM      6  C   UNL A   1      33.006  23.260  25.361  1.00  0.00     0.304 C 
ATOM      7  C   UNL A   1      32.121  25.362  26.180  1.00  0.00     0.278 C 
ATOM      8  N   UNL A   1      33.304  24.534  26.040  1.00  0.00    -0.319 N 
ATOM      9  S   UNL A   1      30.698  24.528  25.438  1.00  0.00    -0.087 SA
ATOM     10  H   UNL A   1      33.677  24.334  26.967  1.00  0.00     0.348 HD
ATOM     11  H   UNL A   1      33.981  25.044  25.473  1.00  0.00     0.348 HD
ATOM     12  C   UNL A   1      31.715  23.326  24.559  1.00  0.00     0.153 C 
BRANCH   7  13
ATOM     13  C   UNL A   1      32.390  26.748  25.600  1.00  0.00     0.066 A 
ATOM     14  C   UNL A   1      33.936  28.162  22.372  1.00  0.00     0.048 C 
ATOM     15  C   UNL A   1      33.272  28.108  23.717  1.00  0.00    -0.008 A 
ATOM     16  C   UNL A   1      33.005  29.265  24.436  1.00  0.00     0.023 A 
ATOM     17  C   UNL A   1      32.953  26.881  24.302  1.00  0.00     0.128 A 
ATOM     18  C   UNL A   1      32.434  29.188  25.711  1.00  0.00     0.021 A 
ATOM     19  Br  UNL A   1      32.079  30.860  26.560  1.00  0.00    -0.051 Br
ATOM     20  C   UNL A   1      32.139  27.945  26.328  1.00  0.00    -0.023 A 
ATOM     21  C   UNL A   1      31.562  27.958  27.725  1.00  0.00     0.046 C 
BRANCH  17  22
ATOM     22  O   UNL A   1      33.268  25.787  23.539  1.00  0.00    -0.507 OA
ATOM     23  H   UNL A   1      34.084  25.754  23.081  1.00  0.00     0.293 HD
ENDBRANCH  17  22
ENDBRANCH   7  13
ENDBRANCH   4   6
ENDBRANCH   3   4
ENDBRANCH   2   3
ENDBRANCH   1   2
BRANCH   1  24
ATOM     24  O   UNL A   1      37.719  21.813  25.738  1.00  0.00    -0.458 OA
BRANCH  24  25
ATOM     25  C   UNL A   1      38.990  21.569  26.150  1.00  0.00     0.338 C 
ATOM     26  O   UNL A   1      39.633  20.549  26.007  1.00  0.00    -0.246 OA
BRANCH  25  27
ATOM     27  C   UNL A   1      39.551  22.832  26.660  1.00  0.00     0.060 A 
ATOM     28  C   UNL A   1      39.088  24.064  26.201  1.00  0.00     0.016 A 
ATOM     29  C   UNL A   1      40.573  22.767  27.612  1.00  0.00     0.016 A 
ATOM     30  C   UNL A   1      39.692  25.232  26.664  1.00  0.00     0.010 A 
ATOM     31  C   UNL A   1      41.167  23.933  28.083  1.00  0.00     0.010 A 
ATOM     32  C   UNL A   1      40.747  25.173  27.594  1.00  0.00    -0.014 A 
BRANCH  32  33
ATOM     33  C   UNL A   1      41.375  26.423  28.078  1.00  0.00     0.031 A 
ATOM     34  C   UNL A   1      42.797  26.754  27.732  1.00  0.00     0.074 A 
ATOM     35  C   UNL A   1      40.644  27.259  28.836  1.00  0.00     0.049 A 
ATOM     36  N   UNL A   1      43.450  27.866  27.939  1.00  0.00    -0.248 NA
ATOM     37  C   UNL A   1      43.594  25.699  27.086  1.00  0.00     0.031 C 
ATOM     38  C   UNL A   1      39.282  26.986  29.292  1.00  0.00     0.029 A 
ATOM     39  N   UNL A   1      40.927  28.503  29.338  1.00  0.00    -0.354 N 
ATOM     40  C   UNL A   1      44.729  27.655  27.438  1.00  0.00     0.074 A 
ATOM     41  C   UNL A   1      44.779  26.284  26.982  1.00  0.00     0.031 C 
ATOM     42  C   UNL A   1      38.827  28.051  29.964  1.00  0.00     0.029 A 
ATOM     43  C   UNL A   1      39.871  29.073  30.011  1.00  0.00     0.049 A 
ATOM     44  H   UNL A   1      41.799  28.944  29.228  1.00  0.00     0.167 HD
ATOM     45  C   UNL A   1      45.751  28.539  27.346  1.00  0.00     0.034 A 
ATOM     46  C   UNL A   1      39.749  30.290  30.580  1.00  0.00     0.034 A 
ATOM     47  C   UNL A   1      45.667  29.898  27.820  1.00  0.00     0.049 A 
ATOM     48  C   UNL A   1      40.885  31.269  30.441  1.00  0.00     0.074 A 
ATOM     49  C   UNL A   1      46.620  30.896  27.722  1.00  0.00     0.029 A 
ATOM     50  N   UNL A   1      44.580  30.449  28.485  1.00  0.00    -0.354 N 
ATOM     51  N   UNL A   1      42.047  31.104  29.852  1.00  0.00    -0.248 NA
ATOM     52  C   UNL A   1      40.690  32.607  31.014  1.00  0.00     0.031 C 
ATOM     53  C   UNL A   1      46.145  32.018  28.402  1.00  0.00     0.029 A 
ATOM     54  C   UNL A   1      44.851  31.763  28.831  1.00  0.00     0.049 A 
ATOM     55  H   UNL A   1      43.739  29.976  28.682  1.00  0.00     0.167 HD
ATOM     56  C   UNL A   1      42.707  32.325  29.951  1.00  0.00     0.074 A 
ATOM     57  C   UNL A   1      41.807  33.224  30.644  1.00  0.00     0.031 C 
ATOM     58  C   UNL A   1      43.943  32.664  29.504  1.00  0.00     0.034 A 
BRANCH  45  59
ATOM     59  C   UNL A   1      47.042  28.092  26.700  1.00  0.00     0.023 A 
ATOM     60  C   UNL A   1      47.184  28.139  25.301  1.00  0.00     0.031 A 
ATOM     61  C   UNL A   1      48.076  27.501  27.450  1.00  0.00     0.131 A 
ATOM     62  C   UNL A   1      48.314  27.576  24.693  1.00  0.00     0.055 A 
ATOM     63  C   UNL A   1      49.225  26.989  26.844  1.00  0.00     0.041 A 
ATOM     64  F   UNL A   1      47.990  27.418  28.788  1.00  0.00    -0.206 F 
ATOM     65  C   UNL A   1      49.340  27.013  25.458  1.00  0.00     0.022 A 
BRANCH  62  66
ATOM     66  S   UNL A   1      48.458  27.476  22.888  1.00  0.00     0.124 S 
ATOM     67  O   UNL A   1      48.398  26.034  22.663  1.00  0.00    -0.237 OA
ATOM     68  O   UNL A   1      47.285  28.225  22.447  1.00  0.00    -0.237 OA
ATOM     69  O   UNL A   1      49.746  28.098  22.603  1.00  0.00    -0.744 OA
ENDBRANCH  62  66
ENDBRANCH  45  59
BRANCH  46  70
ATOM     70  C   UNL A   1      38.450  30.646  31.221  1.00  0.00     0.023 A 
ATOM     71  C   UNL A   1      37.422  31.242  30.470  1.00  0.00     0.031 A 
ATOM     72  C   UNL A   1      38.283  30.549  32.613  1.00  0.00     0.131 A 
ATOM     73  C   UNL A   1      36.315  31.798  31.123  1.00  0.00     0.055 A 
ATOM     74  C   UNL A   1      37.140  31.034  33.251  1.00  0.00     0.041 A 
ATOM     75  F   UNL A   1      39.245  30.008  33.375  1.00  0.00    -0.206 F 
ATOM     76  C   UNL A   1      36.158  31.683  32.507  1.00  0.00     0.022 A 
BRANCH  73  77
ATOM     77  S   UNL A   1      35.127  32.830  30.218  1.00  0.00     0.124 S 
ATOM     78  O   UNL A   1      34.699  31.936  29.147  1.00  0.00    -0.237 OA
ATOM     79  O   UNL A   1      34.129  33.104  31.249  1.00  0.00    -0.237 OA
ATOM     80  O   UNL A   1      35.919  33.981  29.799  1.00  0.00    -0.744 OA
ENDBRANCH  73  77
ENDBRANCH  46  70
BRANCH  58  81
ATOM     81  C   UNL A   1      44.429  34.082  29.707  1.00  0.00     0.023 A 
ATOM     82  C   UNL A   1      44.151  35.057  28.727  1.00  0.00     0.031 A 
ATOM     83  C   UNL A   1      45.299  34.427  30.754  1.00  0.00     0.131 A 
ATOM     84  C   UNL A   1      44.778  36.306  28.784  1.00  0.00     0.055 A 
ATOM     85  C   UNL A   1      45.875  35.697  30.841  1.00  0.00     0.041 A 
ATOM     86  F   UNL A   1      45.611  33.533  31.706  1.00  0.00    -0.206 F 
ATOM     87  C   UNL A   1      45.631  36.636  29.842  1.00  0.00     0.022 A 
BRANCH  84  88
ATOM     88  S   UNL A   1      44.605  37.502  27.430  1.00  0.00     0.124 S 
ATOM     89  O   UNL A   1      44.602  38.774  28.150  1.00  0.00    -0.237 OA
ATOM     90  O   UNL A   1      45.801  37.240  26.634  1.00  0.00    -0.237 OA
ATOM     91  O   UNL A   1      43.341  37.141  26.800  1.00  0.00    -0.744 OA
ENDBRANCH  84  88
ENDBRANCH  58  81
ENDBRANCH  32  33
ENDBRANCH  25  27
ENDBRANCH  24  25
ENDBRANCH   1  24
TORSDOF 16
ENDMDL
MODEL 3
REMARK VINA RESULT:     -11.6      5.052     10.032
REMARK SMILES Cc1cc(Br)c(C)c([C@@H]2[NH2+][C@H](C(=O)OCCOC(=O)c3ccc(-c4c5nc(c(-c6cc(S(=O)(=O)[O-])ccc6F)c6ccc([nH]6)c(-c6cc(S(=O)(=O)[O-])ccc6F)c6nc(c(-c7cc(S(=O)(=O)[O-])ccc7F)c7ccc4[nH]7)C=C6)C=C5)cc3)CS2)c1O
REMARK SMILES IDX 16 1 15 2 14 3 12 4 13 5 11 6 9 7 10 8 84 9 83 12 8 13 1 14
REMARK SMILES IDX 2 15 3 16 85 17 4 18 5 19 6 20 7 21 86 22 17 24 18 25 19 26
REMARK SMILES IDX 20 27 21 28 82 29 22 30 81 31 23 32 24 33 25 34 75 35 26 36
REMARK SMILES IDX 80 37 74 38 76 39 27 40 79 41 73 42 72 43 28 45 60 46 40 47
REMARK SMILES IDX 59 48 41 49 44 50 58 51 77 52 42 53 43 54 57 56 78 57 45 58
REMARK SMILES IDX 29 59 30 60 38 61 31 62 37 63 39 64 36 65 32 66 33 67 34 68
REMARK SMILES IDX 35 69 61 70 62 71 70 72 63 73 69 74 71 75 68 76 64 77 65 78
REMARK SMILES IDX 66 79 67 80 46 81 47 82 55 83 48 84 54 85 56 86 53 87 49 88
REMARK SMILES IDX 50 89 51 90 52 91
REMARK H PARENT 10 10 10 11 86 23 76 44 44 55
REMARK Flexibility Score: inf
ROOT
ATOM      1  C   UNL A   1      36.248  20.243  25.046  1.00  0.00     0.275 C 
ENDROOT
BRANCH   1   2
ATOM      2  C   UNL A   1      34.814  20.782  25.075  1.00  0.00     0.274 C 
BRANCH   2   3
ATOM      3  O   UNL A   1      34.619  21.745  24.026  1.00  0.00    -0.458 OA
BRANCH   3   4
ATOM      4  C   UNL A   1      34.571  23.070  24.372  1.00  0.00     0.365 C 
ATOM      5  O   UNL A   1      35.374  23.914  23.994  1.00  0.00    -0.245 OA
BRANCH   4   6
ATOM      6  C   UNL A   1      33.371  23.378  25.285  1.00  0.00     0.304 C 
ATOM      7  C   UNL A   1      32.369  25.415  26.135  1.00  0.00     0.278 C 
ATOM      8  N   UNL A   1      33.596  24.655  25.987  1.00  0.00    -0.319 N 
ATOM      9  S   UNL A   1      30.996  24.517  25.372  1.00  0.00    -0.087 SA
ATOM     10  H   UNL A   1      33.976  24.460  26.912  1.00  0.00     0.348 HD
ATOM     11  H   UNL A   1      34.246  25.211  25.431  1.00  0.00     0.348 HD
ATOM     12  C   UNL A   1      32.081  23.387  24.478  1.00  0.00     0.153 C 
BRANCH   7  13
ATOM     13  C   UNL A   1      32.564  26.823  25.580  1.00  0.00     0.066 A 
ATOM     14  C   UNL A   1      34.085  28.376  22.404  1.00  0.00     0.048 C 
ATOM     15  C   UNL A   1      33.398  28.262  23.734  1.00  0.00    -0.008 A 
ATOM     16  C   UNL A   1      33.046  29.390  24.463  1.00  0.00     0.023 A 
ATOM     17  C   UNL A   1      33.143  27.010  24.295  1.00  0.00     0.128 A 
ATOM     18  C   UNL A   1      32.456  29.259  25.725  1.00  0.00     0.021 A 
ATOM     19  Br  UNL A   1      31.982  30.893  26.589  1.00  0.00    -0.051 Br
ATOM     20  C   UNL A   1      32.225  27.992  26.319  1.00  0.00    -0.023 A 
ATOM     21  C   UNL A   1      31.621  27.949  27.703  1.00  0.00     0.046 C 
BRANCH  17  22
ATOM     22  O   UNL A   1      33.540  25.948  23.525  1.00  0.00    -0.507 OA
ATOM     23  H   UNL A   1      32.932  25.266  23.318  1.00  0.00     0.293 HD
ENDBRANCH  17  22
ENDBRANCH   7  13
ENDBRANCH   4   6
ENDBRANCH   3   4
ENDBRANCH   2   3
ENDBRANCH   1   2
BRANCH   1  24
ATOM     24  O   UNL A   1      37.209  21.301  25.190  1.00  0.00    -0.458 OA
BRANCH  24  25
ATOM     25  C   UNL A   1      38.431  20.943  25.662  1.00  0.00     0.338 C 
ATOM     26  O   UNL A   1      38.981  19.866  25.556  1.00  0.00    -0.246 OA
BRANCH  25  27
ATOM     27  C   UNL A   1      39.086  22.153  26.190  1.00  0.00     0.060 A 
ATOM     28  C   UNL A   1      38.614  23.426  25.869  1.00  0.00     0.016 A 
ATOM     29  C   UNL A   1      40.203  21.997  27.015  1.00  0.00     0.016 A 
ATOM     30  C   UNL A   1      39.303  24.543  26.338  1.00  0.00     0.010 A 
ATOM     31  C   UNL A   1      40.883  23.113  27.493  1.00  0.00     0.010 A 
ATOM     32  C   UNL A   1      40.451  24.393  27.138  1.00  0.00    -0.014 A 
BRANCH  32  33
ATOM     33  C   UNL A   1      41.169  25.590  27.632  1.00  0.00     0.031 A 
ATOM     34  C   UNL A   1      42.598  25.842  27.252  1.00  0.00     0.074 A 
ATOM     35  C   UNL A   1      40.511  26.452  28.428  1.00  0.00     0.049 A 
ATOM     36  N   UNL A   1      43.324  26.907  27.464  1.00  0.00    -0.248 NA
ATOM     37  C   UNL A   1      43.311  24.756  26.560  1.00  0.00     0.031 C 
ATOM     38  C   UNL A   1      39.148  26.252  28.918  1.00  0.00     0.029 A 
ATOM     39  N   UNL A   1      40.884  27.663  28.949  1.00  0.00    -0.354 N 
ATOM     40  C   UNL A   1      44.573  26.630  26.922  1.00  0.00     0.074 A 
ATOM     41  C   UNL A   1      44.526  25.270  26.435  1.00  0.00     0.031 C 
ATOM     42  C   UNL A   1      38.779  27.327  29.625  1.00  0.00     0.029 A 
ATOM     43  C   UNL A   1      39.886  28.281  29.665  1.00  0.00     0.049 A 
ATOM     44  H   UNL A   1      41.779  28.053  28.824  1.00  0.00     0.167 HD
ATOM     45  C   UNL A   1      45.646  27.451  26.821  1.00  0.00     0.034 A 
ATOM     46  C   UNL A   1      39.854  29.489  30.265  1.00  0.00     0.034 A 
ATOM     47  C   UNL A   1      45.659  28.802  27.326  1.00  0.00     0.049 A 
ATOM     48  C   UNL A   1      41.044  30.400  30.114  1.00  0.00     0.074 A 
ATOM     49  C   UNL A   1      46.669  29.741  27.224  1.00  0.00     0.029 A 
ATOM     50  N   UNL A   1      44.627  29.402  28.035  1.00  0.00    -0.354 N 
ATOM     51  N   UNL A   1      42.177  30.178  29.489  1.00  0.00    -0.248 NA
ATOM     52  C   UNL A   1      40.949  31.733  30.722  1.00  0.00     0.031 C 
ATOM     53  C   UNL A   1      46.283  30.874  27.941  1.00  0.00     0.029 A 
ATOM     54  C   UNL A   1      44.988  30.688  28.402  1.00  0.00     0.049 A 
ATOM     55  H   UNL A   1      43.764  28.977  28.245  1.00  0.00     0.167 HD
ATOM     56  C   UNL A   1      42.914  31.354  29.595  1.00  0.00     0.074 A 
ATOM     57  C   UNL A   1      42.091  32.289  30.333  1.00  0.00     0.031 C 
ATOM     58  C   UNL A   1      44.156  31.627  29.120  1.00  0.00     0.034 A 
BRANCH  45  59
ATOM     59  C   UNL A   1      46.888  26.942  26.128  1.00  0.00     0.023 A 
ATOM     60  C   UNL A   1      47.905  26.316  26.873  1.00  0.00     0.031 A 
ATOM     61  C   UNL A   1      47.127  27.191  24.764  1.00  0.00     0.131 A 
ATOM     62  C   UNL A   1      49.122  25.990  26.260  1.00  0.00     0.055 A 
ATOM     63  C   UNL A   1      48.321  26.816  24.144  1.00  0.00     0.041 A 
ATOM     64  F   UNL A   1      46.198  27.796  24.006  1.00  0.00    -0.206 F 
ATOM     65  C   UNL A   1      49.330  26.227  24.898  1.00  0.00     0.022 A 
BRANCH  62  66
ATOM     66  S   UNL A   1      50.510  25.329  27.222  1.00  0.00     0.124 S 
ATOM     67  O   UNL A   1      49.876  24.229  27.945  1.00  0.00    -0.237 OA
ATOM     68  O   UNL A   1      51.444  24.928  26.173  1.00  0.00    -0.237 OA
ATOM     69  O   UNL A   1      50.935  26.454  28.046  1.00  0.00    -0.744 OA
ENDBRANCH  62  66
ENDBRANCH  45  59
BRANCH  46  70
ATOM     70  C   UNL A   1      38.598  29.909  30.951  1.00  0.00     0.023 A 
ATOM     71  C   UNL A   1      37.588  30.584  30.242  1.00  0.00     0.031 A 
ATOM     72  C   UNL A   1      38.463  29.790  32.344  1.00  0.00     0.131 A 
ATOM     73  C   UNL A   1      36.536  31.191  30.940  1.00  0.00     0.055 A 
ATOM     74  C   UNL A   1      37.371  30.328  33.026  1.00  0.00     0.041 A 
ATOM     75  F   UNL A   1      39.411  29.173  33.066  1.00  0.00    -0.206 F 
ATOM     76  C   UNL A   1      36.411  31.053  32.325  1.00  0.00     0.022 A 
BRANCH  73  77
ATOM     77  S   UNL A   1      35.390  32.315  30.092  1.00  0.00     0.124 S 
ATOM     78  O   UNL A   1      34.879  31.475  29.014  1.00  0.00    -0.237 OA
ATOM     79  O   UNL A   1      34.439  32.624  31.157  1.00  0.00    -0.237 OA
ATOM     80  O   UNL A   1      36.240  33.426  29.677  1.00  0.00    -0.744 OA
ENDBRANCH  73  77
ENDBRANCH  46  70
BRANCH  58  81
ATOM     81  C   UNL A   1      44.734  33.007  29.341  1.00  0.00     0.023 A 
ATOM     82  C   UNL A   1      44.712  33.944  28.287  1.00  0.00     0.031 A 
ATOM     83  C   UNL A   1      45.451  33.337  30.503  1.00  0.00     0.131 A 
ATOM     84  C   UNL A   1      45.437  35.136  28.394  1.00  0.00     0.055 A 
ATOM     85  C   UNL A   1      46.122  34.554  30.629  1.00  0.00     0.041 A 
ATOM     86  F   UNL A   1      45.519  32.476  31.530  1.00  0.00    -0.206 F 
ATOM     87  C   UNL A   1      46.134  35.452  29.565  1.00  0.00     0.022 A 
BRANCH  84  88
ATOM     88  S   UNL A   1      45.600  36.262  26.980  1.00  0.00     0.124 S 
ATOM     89  O   UNL A   1      45.589  35.333  25.853  1.00  0.00    -0.237 OA
ATOM     90  O   UNL A   1      44.408  37.096  27.113  1.00  0.00    -0.237 OA
ATOM     91  O   UNL A   1      46.869  36.941  27.214  1.00  0.00    -0.744 OA
ENDBRANCH  84  88
ENDBRANCH  58  81
ENDBRANCH  32  33
ENDBRANCH  25  27
ENDBRANCH  24  25
ENDBRANCH   1  24
TORSDOF 16
ENDMDL
