MODEL 1
REMARK VINA RESULT:     -12.3      0.000      0.000
REMARK SMILES O=C(Cn1c(=O)c2c3c(sc2n(Cc2ccc(Cl)cc2Cl)c1=O)CCCC3)OCCOC(=O)c1ccc(-c2c3nc(c(-c4cc(S(=O)(=O)[O-])ccc4F)c4ccc([nH]4)c(-c4cc(S(=O)(=O)[O-])ccc4F)c4nc(c(-c5cc(S(=O)(=O)[O-])ccc5F)c5ccc2[nH]5)C=C4)C=C3)cc1
REMARK SMILES IDX 29 1 28 2 2 3 1 4 3 5 4 6 5 7 22 8 6 9 7 10 12 11 23 12 8 13
REMARK SMILES IDX 11 14 9 15 27 16 10 17 24 18 26 19 25 20 13 21 14 22 15 23
REMARK SMILES IDX 20 24 16 25 19 26 21 27 17 28 18 29 30 30 31 31 32 32 33 33
REMARK SMILES IDX 34 34 35 35 96 36 36 37 95 38 37 39 38 40 39 41 89 42 40 43
REMARK SMILES IDX 94 44 88 45 90 46 41 47 93 48 87 49 86 50 42 52 74 53 54 54
REMARK SMILES IDX 73 55 55 56 58 57 72 58 91 59 56 60 57 61 71 63 92 64 59 65
REMARK SMILES IDX 43 66 44 67 52 68 45 69 51 70 53 71 50 72 46 73 47 74 48 75
REMARK SMILES IDX 49 76 75 77 76 78 84 79 77 80 83 81 85 82 82 83 78 84 79 85
REMARK SMILES IDX 80 86 81 87 60 88 61 89 69 90 62 91 68 92 70 93 67 94 63 95
REMARK SMILES IDX 64 96 65 97 66 98
REMARK H PARENT 90 51 58 62
REMARK Flexibility Score: inf
ROOT
ATOM      1  C   UNL A   1      40.990  24.662  26.961  1.00  0.00     0.274 C 
ENDROOT
BRANCH   1   2
ATOM      2  O   UNL A   1      41.093  23.264  26.636  1.00  0.00    -0.461 OA
BRANCH   2   3
ATOM      3  C   UNL A   1      40.099  22.349  26.612  1.00  0.00     0.326 C 
ATOM      4  O   UNL A   1      39.793  21.781  27.661  1.00  0.00    -0.250 OA
BRANCH   3   5
ATOM      5  C   UNL A   1      39.388  21.989  25.308  1.00  0.00     0.253 C 
BRANCH   5   6
ATOM      6  N   UNL A   1      37.934  21.888  25.360  1.00  0.00    -0.248 N 
ATOM      7  C   UNL A   1      37.381  20.615  25.190  1.00  0.00     0.265 A 
ATOM      8  C   UNL A   1      37.231  23.048  25.705  1.00  0.00     0.332 A 
ATOM      9  O   UNL A   1      38.029  19.607  24.973  1.00  0.00    -0.268 OA
ATOM     10  C   UNL A   1      35.941  20.579  25.276  1.00  0.00     0.079 A 
ATOM     11  N   UNL A   1      35.842  22.957  25.857  1.00  0.00    -0.280 N 
ATOM     12  O   UNL A   1      37.820  24.119  25.867  1.00  0.00    -0.247 OA
ATOM     13  C   UNL A   1      35.039  19.505  24.960  1.00  0.00    -0.019 A 
ATOM     14  C   UNL A   1      35.268  21.711  25.648  1.00  0.00     0.113 A 
ATOM     15  C   UNL A   1      33.729  19.888  25.179  1.00  0.00     0.011 A 
ATOM     16  C   UNL A   1      35.379  18.163  24.378  1.00  0.00     0.037 C 
ATOM     17  S   UNL A   1      33.616  21.434  25.855  1.00  0.00    -0.122 S 
ATOM     18  C   UNL A   1      32.517  19.064  24.892  1.00  0.00     0.047 C 
ATOM     19  C   UNL A   1      34.172  17.207  24.400  1.00  0.00     0.005 C 
ATOM     20  C   UNL A   1      32.879  17.905  23.955  1.00  0.00     0.006 C 
BRANCH  11  21
ATOM     21  C   UNL A   1      35.090  24.199  26.138  1.00  0.00     0.165 C 
BRANCH  21  22
ATOM     22  C   UNL A   1      34.489  24.801  24.876  1.00  0.00    -0.009 A 
ATOM     23  C   UNL A   1      34.572  24.066  23.677  1.00  0.00     0.008 A 
ATOM     24  C   UNL A   1      33.804  26.028  24.842  1.00  0.00     0.047 A 
ATOM     25  C   UNL A   1      33.920  24.493  22.518  1.00  0.00     0.021 A 
ATOM     26  C   UNL A   1      33.099  26.424  23.700  1.00  0.00     0.041 A 
ATOM     27  Cl  UNL A   1      33.859  27.176  26.133  1.00  0.00    -0.084 Cl
ATOM     28  C   UNL A   1      33.154  25.651  22.548  1.00  0.00     0.042 A 
ATOM     29  Cl  UNL A   1      32.289  26.146  21.145  1.00  0.00    -0.084 Cl
ENDBRANCH  21  22
ENDBRANCH  11  21
ENDBRANCH   5   6
ENDBRANCH   3   5
ENDBRANCH   2   3
ENDBRANCH   1   2
BRANCH   1  30
ATOM     30  C   UNL A   1      41.236  25.614  25.788  1.00  0.00     0.275 C 
BRANCH  30  31
ATOM     31  O   UNL A   1      42.382  26.453  25.974  1.00  0.00    -0.458 OA
BRANCH  31  32
ATOM     32  C   UNL A   1      42.205  27.734  25.565  1.00  0.00     0.338 C 
ATOM     33  O   UNL A   1      42.484  28.192  24.469  1.00  0.00    -0.246 OA
BRANCH  32  34
ATOM     34  C   UNL A   1      41.457  28.474  26.589  1.00  0.00     0.060 A 
ATOM     35  C   UNL A   1      42.108  28.762  27.791  1.00  0.00     0.016 A 
ATOM     36  C   UNL A   1      40.113  28.799  26.405  1.00  0.00     0.016 A 
ATOM     37  C   UNL A   1      41.393  29.340  28.834  1.00  0.00     0.010 A 
ATOM     38  C   UNL A   1      39.389  29.335  27.471  1.00  0.00     0.010 A 
ATOM     39  C   UNL A   1      40.012  29.575  28.706  1.00  0.00    -0.014 A 
BRANCH  39  40
ATOM     40  C   UNL A   1      39.251  29.952  29.923  1.00  0.00     0.031 A 
ATOM     41  C   UNL A   1      39.629  29.297  31.212  1.00  0.00     0.074 A 
ATOM     42  C   UNL A   1      38.682  31.182  29.972  1.00  0.00     0.049 A 
ATOM     43  N   UNL A   1      40.731  29.593  31.836  1.00  0.00    -0.248 NA
ATOM     44  C   UNL A   1      38.929  28.148  31.783  1.00  0.00     0.031 C 
ATOM     45  C   UNL A   1      39.134  32.307  29.131  1.00  0.00     0.029 A 
ATOM     46  N   UNL A   1      37.799  31.762  30.851  1.00  0.00    -0.354 N 
ATOM     47  C   UNL A   1      40.902  28.676  32.853  1.00  0.00     0.074 A 
ATOM     48  C   UNL A   1      39.752  27.800  32.789  1.00  0.00     0.031 C 
ATOM     49  C   UNL A   1      38.654  33.457  29.637  1.00  0.00     0.029 A 
ATOM     50  C   UNL A   1      37.763  33.159  30.752  1.00  0.00     0.049 A 
ATOM     51  H   UNL A   1      37.248  31.250  31.485  1.00  0.00     0.167 HD
ATOM     52  C   UNL A   1      41.986  28.698  33.674  1.00  0.00     0.034 A 
ATOM     53  C   UNL A   1      37.617  34.009  31.804  1.00  0.00     0.034 A 
ATOM     54  C   UNL A   1      42.934  29.741  33.404  1.00  0.00     0.049 A 
ATOM     55  C   UNL A   1      38.857  33.714  32.615  1.00  0.00     0.074 A 
ATOM     56  C   UNL A   1      44.073  29.889  32.640  1.00  0.00     0.029 A 
ATOM     57  N   UNL A   1      42.693  30.998  33.910  1.00  0.00    -0.354 N 
ATOM     58  N   UNL A   1      40.069  34.125  32.349  1.00  0.00    -0.248 NA
ATOM     59  C   UNL A   1      38.784  32.619  33.583  1.00  0.00     0.031 C 
ATOM     60  C   UNL A   1      44.152  31.286  32.347  1.00  0.00     0.029 A 
ATOM     61  C   UNL A   1      43.028  31.885  32.916  1.00  0.00     0.049 A 
ATOM     62  H   UNL A   1      42.349  31.218  34.805  1.00  0.00     0.167 HD
ATOM     63  C   UNL A   1      40.923  33.184  32.925  1.00  0.00     0.074 A 
ATOM     64  C   UNL A   1      40.065  32.293  33.684  1.00  0.00     0.031 C 
ATOM     65  C   UNL A   1      42.249  33.069  32.619  1.00  0.00     0.034 A 
BRANCH  52  66
ATOM     66  C   UNL A   1      42.202  27.819  34.840  1.00  0.00     0.023 A 
ATOM     67  C   UNL A   1      42.989  26.673  34.660  1.00  0.00     0.031 A 
ATOM     68  C   UNL A   1      41.465  27.946  36.024  1.00  0.00     0.131 A 
ATOM     69  C   UNL A   1      42.990  25.663  35.627  1.00  0.00     0.055 A 
ATOM     70  C   UNL A   1      41.482  26.941  36.998  1.00  0.00     0.041 A 
ATOM     71  F   UNL A   1      40.677  29.014  36.226  1.00  0.00    -0.206 F 
ATOM     72  C   UNL A   1      42.234  25.785  36.794  1.00  0.00     0.022 A 
BRANCH  69  73
ATOM     73  S   UNL A   1      43.916  24.147  35.271  1.00  0.00     0.124 S 
ATOM     74  O   UNL A   1      44.719  24.546  34.120  1.00  0.00    -0.237 OA
ATOM     75  O   UNL A   1      44.644  23.949  36.520  1.00  0.00    -0.237 OA
ATOM     76  O   UNL A   1      42.869  23.167  34.994  1.00  0.00    -0.744 OA
ENDBRANCH  69  73
ENDBRANCH  52  66
BRANCH  53  77
ATOM     77  C   UNL A   1      36.246  34.102  32.402  1.00  0.00     0.023 A 
ATOM     78  C   UNL A   1      35.562  35.337  32.359  1.00  0.00     0.031 A 
ATOM     79  C   UNL A   1      35.592  33.045  33.055  1.00  0.00     0.131 A 
ATOM     80  C   UNL A   1      34.254  35.457  32.857  1.00  0.00     0.055 A 
ATOM     81  C   UNL A   1      34.275  33.155  33.517  1.00  0.00     0.041 A 
ATOM     82  F   UNL A   1      36.201  31.868  33.256  1.00  0.00    -0.206 F 
ATOM     83  C   UNL A   1      33.592  34.359  33.404  1.00  0.00     0.022 A 
BRANCH  80  84
ATOM     84  S   UNL A   1      33.407  37.058  32.741  1.00  0.00     0.124 S 
ATOM     85  O   UNL A   1      32.013  36.682  32.952  1.00  0.00    -0.237 OA
ATOM     86  O   UNL A   1      34.031  37.825  33.815  1.00  0.00    -0.237 OA
ATOM     87  O   UNL A   1      33.731  37.517  31.391  1.00  0.00    -0.744 OA
ENDBRANCH  80  84
ENDBRANCH  53  77
BRANCH  65  88
ATOM     88  C   UNL A   1      42.819  34.123  31.723  1.00  0.00     0.023 A 
ATOM     89  C   UNL A   1      43.051  33.847  30.367  1.00  0.00     0.031 A 
ATOM     90  C   UNL A   1      43.077  35.425  32.192  1.00  0.00     0.131 A 
ATOM     91  C   UNL A   1      43.501  34.865  29.514  1.00  0.00     0.055 A 
ATOM     92  C   UNL A   1      43.499  36.441  31.334  1.00  0.00     0.041 A 
ATOM     93  F   UNL A   1      42.892  35.745  33.484  1.00  0.00    -0.206 F 
ATOM     94  C   UNL A   1      43.706  36.166  29.986  1.00  0.00     0.022 A 
BRANCH  91  95
ATOM     95  S   UNL A   1      43.752  34.497  27.756  1.00  0.00     0.124 S 
ATOM     96  O   UNL A   1      42.624  35.177  27.127  1.00  0.00    -0.237 OA
ATOM     97  O   UNL A   1      45.070  35.063  27.490  1.00  0.00    -0.237 OA
ATOM     98  O   UNL A   1      43.697  33.035  27.705  1.00  0.00    -0.744 OA
ENDBRANCH  91  95
ENDBRANCH  65  88
ENDBRANCH  39  40
ENDBRANCH  32  34
ENDBRANCH  31  32
ENDBRANCH  30  31
ENDBRANCH   1  30
TORSDOF 17
ENDMDL
MODEL 2
REMARK VINA RESULT:     -12.2      4.478      6.652
REMARK SMILES O=C(Cn1c(=O)c2c3c(sc2n(Cc2ccc(Cl)cc2Cl)c1=O)CCCC3)OCCOC(=O)c1ccc(-c2c3nc(c(-c4cc(S(=O)(=O)[O-])ccc4F)c4ccc([nH]4)c(-c4cc(S(=O)(=O)[O-])ccc4F)c4nc(c(-c5cc(S(=O)(=O)[O-])ccc5F)c5ccc2[nH]5)C=C4)C=C3)cc1
REMARK SMILES IDX 29 1 28 2 2 3 1 4 3 5 4 6 5 7 22 8 6 9 7 10 12 11 23 12 8 13
REMARK SMILES IDX 11 14 9 15 27 16 10 17 24 18 26 19 25 20 13 21 14 22 15 23
REMARK SMILES IDX 20 24 16 25 19 26 21 27 17 28 18 29 30 30 31 31 32 32 33 33
REMARK SMILES IDX 34 34 35 35 96 36 36 37 95 38 37 39 38 40 39 41 89 42 40 43
REMARK SMILES IDX 94 44 88 45 90 46 41 47 93 48 87 49 86 50 42 52 74 53 54 54
REMARK SMILES IDX 73 55 55 56 58 57 72 58 91 59 56 60 57 61 71 63 92 64 59 65
REMARK SMILES IDX 43 66 44 67 52 68 45 69 51 70 53 71 50 72 46 73 47 74 48 75
REMARK SMILES IDX 49 76 75 77 76 78 84 79 77 80 83 81 85 82 82 83 78 84 79 85
REMARK SMILES IDX 80 86 81 87 60 88 61 89 69 90 62 91 68 92 70 93 67 94 63 95
REMARK SMILES IDX 64 96 65 97 66 98
REMARK H PARENT 90 51 58 62
REMARK Flexibility Score: inf
ROOT
ATOM      1  C   UNL A   1      44.121  21.134  25.191  1.00  0.00     0.274 C 
ENDROOT
BRANCH   1   2
ATOM      2  O   UNL A   1      43.344  19.969  24.859  1.00  0.00    -0.461 OA
BRANCH   2   3
ATOM      3  C   UNL A   1      42.911  19.001  25.698  1.00  0.00     0.326 C 
ATOM      4  O   UNL A   1      43.117  17.825  25.398  1.00  0.00    -0.250 OA
BRANCH   3   5
ATOM      5  C   UNL A   1      42.145  19.347  26.974  1.00  0.00     0.253 C 
BRANCH   5   6
ATOM      6  N   UNL A   1      41.314  20.545  26.935  1.00  0.00    -0.248 N 
ATOM      7  C   UNL A   1      40.091  20.447  26.265  1.00  0.00     0.265 A 
ATOM      8  C   UNL A   1      41.754  21.644  27.682  1.00  0.00     0.332 A 
ATOM      9  O   UNL A   1      39.699  19.445  25.694  1.00  0.00    -0.268 OA
ATOM     10  C   UNL A   1      39.307  21.659  26.283  1.00  0.00     0.079 A 
ATOM     11  N   UNL A   1      40.929  22.775  27.741  1.00  0.00    -0.280 N 
ATOM     12  O   UNL A   1      42.839  21.617  28.268  1.00  0.00    -0.247 OA
ATOM     13  C   UNL A   1      38.117  21.980  25.544  1.00  0.00    -0.019 A 
ATOM     14  C   UNL A   1      39.730  22.713  27.045  1.00  0.00     0.113 A 
ATOM     15  C   UNL A   1      37.682  23.256  25.853  1.00  0.00     0.011 A 
ATOM     16  C   UNL A   1      37.433  21.148  24.497  1.00  0.00     0.037 C 
ATOM     17  S   UNL A   1      38.607  23.973  27.073  1.00  0.00    -0.122 S 
ATOM     18  C   UNL A   1      36.522  23.960  25.229  1.00  0.00     0.047 C 
ATOM     19  C   UNL A   1      36.064  21.732  24.105  1.00  0.00     0.005 C 
ATOM     20  C   UNL A   1      36.119  23.256  23.926  1.00  0.00     0.006 C 
BRANCH  11  21
ATOM     21  C   UNL A   1      41.431  23.966  28.459  1.00  0.00     0.165 C 
BRANCH  21  22
ATOM     22  C   UNL A   1      41.408  25.212  27.585  1.00  0.00    -0.009 A 
ATOM     23  C   UNL A   1      40.726  26.350  28.060  1.00  0.00     0.008 A 
ATOM     24  C   UNL A   1      42.073  25.318  26.351  1.00  0.00     0.047 A 
ATOM     25  C   UNL A   1      40.784  27.568  27.377  1.00  0.00     0.021 A 
ATOM     26  C   UNL A   1      42.184  26.552  25.700  1.00  0.00     0.041 A 
ATOM     27  Cl  UNL A   1      42.702  23.952  25.499  1.00  0.00    -0.084 Cl
ATOM     28  C   UNL A   1      41.547  27.671  26.221  1.00  0.00     0.042 A 
ATOM     29  Cl  UNL A   1      41.682  29.183  25.412  1.00  0.00    -0.084 Cl
ENDBRANCH  21  22
ENDBRANCH  11  21
ENDBRANCH   5   6
ENDBRANCH   3   5
ENDBRANCH   2   3
ENDBRANCH   1   2
BRANCH   1  30
ATOM     30  C   UNL A   1      45.542  21.141  24.624  1.00  0.00     0.275 C 
BRANCH  30  31
ATOM     31  O   UNL A   1      46.451  21.941  25.390  1.00  0.00    -0.458 OA
BRANCH  31  32
ATOM     32  C   UNL A   1      46.380  23.269  25.126  1.00  0.00     0.338 C 
ATOM     33  O   UNL A   1      46.440  23.796  24.028  1.00  0.00    -0.246 OA
BRANCH  32  34
ATOM     34  C   UNL A   1      46.043  23.993  26.358  1.00  0.00     0.060 A 
ATOM     35  C   UNL A   1      45.776  23.240  27.504  1.00  0.00     0.016 A 
ATOM     36  C   UNL A   1      45.903  25.381  26.363  1.00  0.00     0.016 A 
ATOM     37  C   UNL A   1      45.322  23.880  28.652  1.00  0.00     0.010 A 
ATOM     38  C   UNL A   1      45.403  26.012  27.502  1.00  0.00     0.010 A 
ATOM     39  C   UNL A   1      45.072  25.265  28.642  1.00  0.00    -0.014 A 
BRANCH  39  40
ATOM     40  C   UNL A   1      44.353  25.854  29.801  1.00  0.00     0.031 A 
ATOM     41  C   UNL A   1      44.731  25.382  31.168  1.00  0.00     0.074 A 
ATOM     42  C   UNL A   1      43.839  27.101  29.673  1.00  0.00     0.049 A 
ATOM     43  N   UNL A   1      45.858  25.717  31.724  1.00  0.00    -0.248 NA
ATOM     44  C   UNL A   1      43.996  24.363  31.915  1.00  0.00     0.031 C 
ATOM     45  C   UNL A   1      44.320  28.066  28.667  1.00  0.00     0.029 A 
ATOM     46  N   UNL A   1      43.001  27.846  30.469  1.00  0.00    -0.354 N 
ATOM     47  C   UNL A   1      46.013  24.956  32.864  1.00  0.00     0.074 A 
ATOM     48  C   UNL A   1      44.825  24.133  32.950  1.00  0.00     0.031 C 
ATOM     49  C   UNL A   1      43.900  29.299  29.002  1.00  0.00     0.029 A 
ATOM     50  C   UNL A   1      43.022  29.212  30.163  1.00  0.00     0.049 A 
ATOM     51  H   UNL A   1      42.442  27.459  31.181  1.00  0.00     0.167 HD
ATOM     52  C   UNL A   1      47.114  25.051  33.656  1.00  0.00     0.034 A 
ATOM     53  C   UNL A   1      42.935  30.215  31.077  1.00  0.00     0.034 A 
ATOM     54  C   UNL A   1      48.100  25.997  33.218  1.00  0.00     0.049 A 
ATOM     55  C   UNL A   1      44.179  29.989  31.904  1.00  0.00     0.074 A 
ATOM     56  C   UNL A   1      49.227  25.978  32.423  1.00  0.00     0.029 A 
ATOM     57  N   UNL A   1      47.924  27.326  33.533  1.00  0.00    -0.354 N 
ATOM     58  N   UNL A   1      45.401  30.300  31.561  1.00  0.00    -0.248 NA
ATOM     59  C   UNL A   1      44.080  29.055  33.027  1.00  0.00     0.031 C 
ATOM     60  C   UNL A   1      49.359  27.311  31.923  1.00  0.00     0.029 A 
ATOM     61  C   UNL A   1      48.274  28.038  32.412  1.00  0.00     0.049 A 
ATOM     62  H   UNL A   1      47.608  27.692  34.391  1.00  0.00     0.167 HD
ATOM     63  C   UNL A   1      46.226  29.418  32.258  1.00  0.00     0.074 A 
ATOM     64  C   UNL A   1      45.348  28.690  33.156  1.00  0.00     0.031 C 
ATOM     65  C   UNL A   1      47.539  29.199  31.953  1.00  0.00     0.034 A 
BRANCH  52  66
ATOM     66  C   UNL A   1      47.318  24.346  34.937  1.00  0.00     0.023 A 
ATOM     67  C   UNL A   1      47.853  23.051  34.895  1.00  0.00     0.031 A 
ATOM     68  C   UNL A   1      46.778  24.809  36.143  1.00  0.00     0.131 A 
ATOM     69  C   UNL A   1      47.797  22.232  36.027  1.00  0.00     0.055 A 
ATOM     70  C   UNL A   1      46.740  23.993  37.279  1.00  0.00     0.041 A 
ATOM     71  F   UNL A   1      46.231  26.033  36.221  1.00  0.00    -0.206 F 
ATOM     72  C   UNL A   1      47.236  22.691  37.219  1.00  0.00     0.022 A 
BRANCH  69  73
ATOM     73  S   UNL A   1      48.378  20.523  35.867  1.00  0.00     0.124 S 
ATOM     74  O   UNL A   1      47.862  19.912  37.087  1.00  0.00    -0.237 OA
ATOM     75  O   UNL A   1      47.735  20.111  34.624  1.00  0.00    -0.237 OA
ATOM     76  O   UNL A   1      49.831  20.664  35.804  1.00  0.00    -0.744 OA
ENDBRANCH  69  73
ENDBRANCH  52  66
BRANCH  53  77
ATOM     77  C   UNL A   1      41.583  30.458  31.675  1.00  0.00     0.023 A 
ATOM     78  C   UNL A   1      40.561  29.504  31.470  1.00  0.00     0.031 A 
ATOM     79  C   UNL A   1      41.231  31.606  32.403  1.00  0.00     0.131 A 
ATOM     80  C   UNL A   1      39.295  29.662  32.058  1.00  0.00     0.055 A 
ATOM     81  C   UNL A   1      39.982  31.745  33.020  1.00  0.00     0.041 A 
ATOM     82  F   UNL A   1      42.089  32.625  32.552  1.00  0.00    -0.206 F 
ATOM     83  C   UNL A   1      39.012  30.763  32.863  1.00  0.00     0.022 A 
BRANCH  80  84
ATOM     84  S   UNL A   1      38.032  28.386  31.792  1.00  0.00     0.124 S 
ATOM     85  O   UNL A   1      38.007  27.708  33.084  1.00  0.00    -0.237 OA
ATOM     86  O   UNL A   1      36.849  29.175  31.461  1.00  0.00    -0.237 OA
ATOM     87  O   UNL A   1      38.572  27.598  30.685  1.00  0.00    -0.744 OA
ENDBRANCH  80  84
ENDBRANCH  53  77
BRANCH  65  88
ATOM     88  C   UNL A   1      48.135  30.080  30.900  1.00  0.00     0.023 A 
ATOM     89  C   UNL A   1      48.166  29.660  29.562  1.00  0.00     0.031 A 
ATOM     90  C   UNL A   1      48.615  31.367  31.206  1.00  0.00     0.131 A 
ATOM     91  C   UNL A   1      48.643  30.527  28.568  1.00  0.00     0.055 A 
ATOM     92  C   UNL A   1      49.064  32.236  30.211  1.00  0.00     0.041 A 
ATOM     93  F   UNL A   1      48.628  31.820  32.472  1.00  0.00    -0.206 F 
ATOM     94  C   UNL A   1      49.073  31.820  28.883  1.00  0.00     0.022 A 
BRANCH  91  95
ATOM     95  S   UNL A   1      48.633  29.978  26.840  1.00  0.00     0.124 S 
ATOM     96  O   UNL A   1      47.326  30.427  26.374  1.00  0.00    -0.237 OA
ATOM     97  O   UNL A   1      49.787  30.670  26.274  1.00  0.00    -0.237 OA
ATOM     98  O   UNL A   1      48.786  28.526  26.944  1.00  0.00    -0.744 OA
ENDBRANCH  91  95
ENDBRANCH  65  88
ENDBRANCH  39  40
ENDBRANCH  32  34
ENDBRANCH  31  32
ENDBRANCH  30  31
ENDBRANCH   1  30
TORSDOF 17
ENDMDL
MODEL 3
REMARK VINA RESULT:     -12.1      2.892      8.476
REMARK SMILES O=C(Cn1c(=O)c2c3c(sc2n(Cc2ccc(Cl)cc2Cl)c1=O)CCCC3)OCCOC(=O)c1ccc(-c2c3nc(c(-c4cc(S(=O)(=O)[O-])ccc4F)c4ccc([nH]4)c(-c4cc(S(=O)(=O)[O-])ccc4F)c4nc(c(-c5cc(S(=O)(=O)[O-])ccc5F)c5ccc2[nH]5)C=C4)C=C3)cc1
REMARK SMILES IDX 29 1 28 2 2 3 1 4 3 5 4 6 5 7 22 8 6 9 7 10 12 11 23 12 8 13
REMARK SMILES IDX 11 14 9 15 27 16 10 17 24 18 26 19 25 20 13 21 14 22 15 23
REMARK SMILES IDX 20 24 16 25 19 26 21 27 17 28 18 29 30 30 31 31 32 32 33 33
REMARK SMILES IDX 34 34 35 35 96 36 36 37 95 38 37 39 38 40 39 41 89 42 40 43
REMARK SMILES IDX 94 44 88 45 90 46 41 47 93 48 87 49 86 50 42 52 74 53 54 54
REMARK SMILES IDX 73 55 55 56 58 57 72 58 91 59 56 60 57 61 71 63 92 64 59 65
REMARK SMILES IDX 43 66 44 67 52 68 45 69 51 70 53 71 50 72 46 73 47 74 48 75
REMARK SMILES IDX 49 76 75 77 76 78 84 79 77 80 83 81 85 82 82 83 78 84 79 85
REMARK SMILES IDX 80 86 81 87 60 88 61 89 69 90 62 91 68 92 70 93 67 94 63 95
REMARK SMILES IDX 64 96 65 97 66 98
REMARK H PARENT 90 51 58 62
REMARK Flexibility Score: inf
ROOT
ATOM      1  C   UNL A   1      38.187  21.405  25.452  1.00  0.00     0.274 C 
ENDROOT
BRANCH   1   2
ATOM      2  O   UNL A   1      37.926  22.817  25.365  1.00  0.00    -0.461 OA
BRANCH   2   3
ATOM      3  C   UNL A   1      36.825  23.422  24.864  1.00  0.00     0.326 C 
ATOM      4  O   UNL A   1      36.609  23.347  23.654  1.00  0.00    -0.250 OA
BRANCH   3   5
ATOM      5  C   UNL A   1      35.883  24.219  25.765  1.00  0.00     0.253 C 
BRANCH   5   6
ATOM      6  N   UNL A   1      34.464  24.176  25.431  1.00  0.00    -0.248 N 
ATOM      7  C   UNL A   1      33.929  25.299  24.793  1.00  0.00     0.265 A 
ATOM      8  C   UNL A   1      33.797  22.967  25.658  1.00  0.00     0.332 A 
ATOM      9  O   UNL A   1      34.560  26.308  24.533  1.00  0.00    -0.268 OA
ATOM     10  C   UNL A   1      32.528  25.185  24.468  1.00  0.00     0.079 A 
ATOM     11  N   UNL A   1      32.459  22.866  25.257  1.00  0.00    -0.280 N 
ATOM     12  O   UNL A   1      34.372  22.019  26.199  1.00  0.00    -0.247 OA
ATOM     13  C   UNL A   1      31.618  26.196  24.002  1.00  0.00    -0.019 A 
ATOM     14  C   UNL A   1      31.896  23.987  24.663  1.00  0.00     0.113 A 
ATOM     15  C   UNL A   1      30.355  25.666  23.815  1.00  0.00     0.011 A 
ATOM     16  C   UNL A   1      31.892  27.660  23.813  1.00  0.00     0.037 C 
ATOM     17  S   UNL A   1      30.314  23.995  24.074  1.00  0.00    -0.122 S 
ATOM     18  C   UNL A   1      29.138  26.429  23.409  1.00  0.00     0.047 C 
ATOM     19  C   UNL A   1      30.738  28.369  23.082  1.00  0.00     0.005 C 
ATOM     20  C   UNL A   1      29.366  27.932  23.615  1.00  0.00     0.006 C 
BRANCH  11  21
ATOM     21  C   UNL A   1      31.729  21.619  25.573  1.00  0.00     0.165 C 
BRANCH  21  22
ATOM     22  C   UNL A   1      32.348  20.406  24.894  1.00  0.00    -0.009 A 
ATOM     23  C   UNL A   1      32.918  19.403  25.703  1.00  0.00     0.008 A 
ATOM     24  C   UNL A   1      32.339  20.195  23.504  1.00  0.00     0.047 A 
ATOM     25  C   UNL A   1      33.374  18.202  25.155  1.00  0.00     0.021 A 
ATOM     26  C   UNL A   1      32.738  18.969  22.962  1.00  0.00     0.041 A 
ATOM     27  Cl  UNL A   1      31.949  21.436  22.365  1.00  0.00    -0.084 Cl
ATOM     28  C   UNL A   1      33.245  17.976  23.791  1.00  0.00     0.042 A 
ATOM     29  Cl  UNL A   1      33.738  16.471  23.117  1.00  0.00    -0.084 Cl
ENDBRANCH  21  22
ENDBRANCH  11  21
ENDBRANCH   5   6
ENDBRANCH   3   5
ENDBRANCH   2   3
ENDBRANCH   1   2
BRANCH   1  30
ATOM     30  C   UNL A   1      39.429  21.031  26.264  1.00  0.00     0.275 C 
BRANCH  30  31
ATOM     31  O   UNL A   1      40.460  22.023  26.208  1.00  0.00    -0.458 OA
BRANCH  31  32
ATOM     32  C   UNL A   1      41.293  22.021  27.277  1.00  0.00     0.338 C 
ATOM     33  O   UNL A   1      41.809  21.044  27.794  1.00  0.00    -0.246 OA
BRANCH  32  34
ATOM     34  C   UNL A   1      41.635  23.404  27.633  1.00  0.00     0.060 A 
ATOM     35  C   UNL A   1      40.587  24.278  27.931  1.00  0.00     0.016 A 
ATOM     36  C   UNL A   1      42.955  23.855  27.586  1.00  0.00     0.016 A 
ATOM     37  C   UNL A   1      40.859  25.625  28.139  1.00  0.00     0.010 A 
ATOM     38  C   UNL A   1      43.216  25.216  27.749  1.00  0.00     0.010 A 
ATOM     39  C   UNL A   1      42.168  26.118  27.989  1.00  0.00    -0.014 A 
BRANCH  39  40
ATOM     40  C   UNL A   1      42.364  27.590  27.971  1.00  0.00     0.031 A 
ATOM     41  C   UNL A   1      41.150  28.452  27.835  1.00  0.00     0.074 A 
ATOM     42  C   UNL A   1      43.447  28.104  28.603  1.00  0.00     0.049 A 
ATOM     43  N   UNL A   1      40.298  28.599  28.806  1.00  0.00    -0.248 NA
ATOM     44  C   UNL A   1      40.698  29.036  26.573  1.00  0.00     0.031 C 
ATOM     45  C   UNL A   1      44.173  27.380  29.664  1.00  0.00     0.029 A 
ATOM     46  N   UNL A   1      43.994  29.365  28.632  1.00  0.00    -0.354 N 
ATOM     47  C   UNL A   1      39.193  29.257  28.308  1.00  0.00     0.074 A 
ATOM     48  C   UNL A   1      39.489  29.518  26.915  1.00  0.00     0.031 C 
ATOM     49  C   UNL A   1      44.946  28.248  30.340  1.00  0.00     0.029 A 
ATOM     50  C   UNL A   1      44.879  29.556  29.700  1.00  0.00     0.049 A 
ATOM     51  H   UNL A   1      43.785  30.062  27.970  1.00  0.00     0.167 HD
ATOM     52  C   UNL A   1      38.106  29.535  29.076  1.00  0.00     0.034 A 
ATOM     53  C   UNL A   1      45.008  30.711  30.406  1.00  0.00     0.034 A 
ATOM     54  C   UNL A   1      38.193  29.093  30.438  1.00  0.00     0.049 A 
ATOM     55  C   UNL A   1      43.634  30.855  31.018  1.00  0.00     0.074 A 
ATOM     56  C   UNL A   1      37.849  27.965  31.152  1.00  0.00     0.029 A 
ATOM     57  N   UNL A   1      38.868  29.880  31.344  1.00  0.00    -0.354 N 
ATOM     58  N   UNL A   1      43.171  30.187  32.042  1.00  0.00    -0.248 NA
ATOM     59  C   UNL A   1      42.612  31.538  30.225  1.00  0.00     0.031 C 
ATOM     60  C   UNL A   1      38.743  27.935  32.267  1.00  0.00     0.029 A 
ATOM     61  C   UNL A   1      39.602  29.024  32.128  1.00  0.00     0.049 A 
ATOM     62  H   UNL A   1      38.832  30.862  31.415  1.00  0.00     0.167 HD
ATOM     63  C   UNL A   1      41.786  30.162  31.883  1.00  0.00     0.074 A 
ATOM     64  C   UNL A   1      41.508  31.028  30.752  1.00  0.00     0.031 C 
ATOM     65  C   UNL A   1      40.956  29.312  32.557  1.00  0.00     0.034 A 
BRANCH  52  66
ATOM     66  C   UNL A   1      36.927  30.313  28.650  1.00  0.00     0.023 A 
ATOM     67  C   UNL A   1      36.732  31.577  29.226  1.00  0.00     0.031 A 
ATOM     68  C   UNL A   1      35.886  29.752  27.901  1.00  0.00     0.131 A 
ATOM     69  C   UNL A   1      35.503  32.228  29.090  1.00  0.00     0.055 A 
ATOM     70  C   UNL A   1      34.662  30.414  27.752  1.00  0.00     0.041 A 
ATOM     71  F   UNL A   1      36.019  28.532  27.354  1.00  0.00    -0.206 F 
ATOM     72  C   UNL A   1      34.460  31.652  28.362  1.00  0.00     0.022 A 
BRANCH  69  73
ATOM     73  S   UNL A   1      35.268  33.792  29.974  1.00  0.00     0.124 S 
ATOM     74  O   UNL A   1      34.116  33.494  30.818  1.00  0.00    -0.237 OA
ATOM     75  O   UNL A   1      36.546  33.933  30.664  1.00  0.00    -0.237 OA
ATOM     76  O   UNL A   1      35.026  34.755  28.902  1.00  0.00    -0.744 OA
ENDBRANCH  69  73
ENDBRANCH  52  66
BRANCH  53  77
ATOM     77  C   UNL A   1      45.725  31.835  29.723  1.00  0.00     0.023 A 
ATOM     78  C   UNL A   1      45.382  32.158  28.391  1.00  0.00     0.031 A 
ATOM     79  C   UNL A   1      46.765  32.581  30.300  1.00  0.00     0.131 A 
ATOM     80  C   UNL A   1      45.988  33.239  27.729  1.00  0.00     0.055 A 
ATOM     81  C   UNL A   1      47.342  33.681  29.655  1.00  0.00     0.041 A 
ATOM     82  F   UNL A   1      47.248  32.277  31.513  1.00  0.00    -0.206 F 
ATOM     83  C   UNL A   1      46.943  34.026  28.370  1.00  0.00     0.022 A 
BRANCH  80  84
ATOM     84  S   UNL A   1      45.481  33.633  26.032  1.00  0.00     0.124 S 
ATOM     85  O   UNL A   1      46.729  34.107  25.444  1.00  0.00    -0.237 OA
ATOM     86  O   UNL A   1      44.991  32.349  25.541  1.00  0.00    -0.237 OA
ATOM     87  O   UNL A   1      44.450  34.653  26.213  1.00  0.00    -0.744 OA
ENDBRANCH  80  84
ENDBRANCH  53  77
BRANCH  65  88
ATOM     88  C   UNL A   1      41.585  28.475  33.626  1.00  0.00     0.023 A 
ATOM     89  C   UNL A   1      42.409  27.393  33.283  1.00  0.00     0.031 A 
ATOM     90  C   UNL A   1      41.422  28.783  34.990  1.00  0.00     0.131 A 
ATOM     91  C   UNL A   1      43.067  26.669  34.289  1.00  0.00     0.055 A 
ATOM     92  C   UNL A   1      42.099  28.077  35.985  1.00  0.00     0.041 A 
ATOM     93  F   UNL A   1      40.631  29.797  35.382  1.00  0.00    -0.206 F 
ATOM     94  C   UNL A   1      42.932  27.019  35.636  1.00  0.00     0.022 A 
BRANCH  91  95
ATOM     95  S   UNL A   1      44.161  25.302  33.819  1.00  0.00     0.124 S 
ATOM     96  O   UNL A   1      45.433  25.698  34.415  1.00  0.00    -0.237 OA
ATOM     97  O   UNL A   1      43.508  24.142  34.417  1.00  0.00    -0.237 OA
ATOM     98  O   UNL A   1      44.130  25.330  32.356  1.00  0.00    -0.744 OA
ENDBRANCH  91  95
ENDBRANCH  65  88
ENDBRANCH  39  40
ENDBRANCH  32  34
ENDBRANCH  31  32
ENDBRANCH  30  31
ENDBRANCH   1  30
TORSDOF 17
ENDMDL
