MODEL 1
REMARK VINA RESULT:     -10.8      0.000      0.000
REMARK SMILES COCC[C@H](NC(=O)c1ccc(Br)nc1)C(=O)OCCOC(=O)c1ccc(-c2c3nc(c(-c4cc(S(=O)(=O)[O-])ccc4F)c4ccc([nH]4)c(-c4cc(S(=O)(=O)[O-])ccc4F)c4nc(c(-c5cc(S(=O)(=O)[O-])ccc5F)c5ccc2[nH]5)C=C4)C=C3)cc1
REMARK SMILES IDX 19 1 18 2 16 3 17 4 5 5 4 6 3 7 2 8 1 9 6 10 7 11 8 13 9 14
REMARK SMILES IDX 10 15 15 16 11 17 14 18 12 19 13 20 20 21 21 22 22 23 23 24
REMARK SMILES IDX 24 25 25 26 86 27 26 28 85 29 27 30 28 31 29 32 79 33 30 34
REMARK SMILES IDX 84 35 78 36 80 37 31 38 83 39 77 40 76 41 32 43 64 44 44 45
REMARK SMILES IDX 63 46 45 47 48 48 62 49 81 50 46 51 47 52 61 54 82 55 49 56
REMARK SMILES IDX 33 57 34 58 42 59 35 60 41 61 43 62 40 63 36 64 37 65 38 66
REMARK SMILES IDX 39 67 65 68 66 69 74 70 67 71 73 72 75 73 72 74 68 75 69 76
REMARK SMILES IDX 70 77 71 78 50 79 51 80 59 81 52 82 58 83 60 84 57 85 53 86
REMARK SMILES IDX 54 87 55 88 56 89
REMARK H PARENT 6 12 80 42 48 53
REMARK Flexibility Score: inf
ROOT
ATOM      1  C   UNL A   1      32.795  28.653  24.251  1.00  0.00     0.274 C 
ENDROOT
BRANCH   1   2
ATOM      2  O   UNL A   1      32.861  27.390  24.940  1.00  0.00    -0.461 OA
BRANCH   2   3
ATOM      3  C   UNL A   1      31.802  26.566  24.698  1.00  0.00     0.328 C 
ATOM      4  O   UNL A   1      31.370  25.738  25.497  1.00  0.00    -0.250 OA
BRANCH   3   5
ATOM      5  C   UNL A   1      31.198  26.736  23.294  1.00  0.00     0.194 C 
BRANCH   5   6
ATOM      6  C   UNL A   1      29.664  26.786  23.459  1.00  0.00     0.065 C 
BRANCH   6   7
ATOM      7  C   UNL A   1      29.024  28.165  23.244  1.00  0.00     0.162 C 
BRANCH   7   8
ATOM      8  O   UNL A   1      29.401  28.751  22.000  1.00  0.00    -0.385 OA
ATOM      9  C   UNL A   1      29.904  30.080  22.111  1.00  0.00     0.194 C 
ENDBRANCH   7   8
ENDBRANCH   6   7
ENDBRANCH   5   6
BRANCH   5  10
ATOM     10  N   UNL A   1      31.582  25.770  22.254  1.00  0.00    -0.338 N 
ATOM     11  C   UNL A   1      32.818  25.176  22.209  1.00  0.00     0.253 C 
ATOM     12  H   UNL A   1      30.924  25.540  21.558  1.00  0.00     0.164 HD
ATOM     13  O   UNL A   1      33.643  25.566  21.389  1.00  0.00    -0.269 OA
BRANCH  11  14
ATOM     14  C   UNL A   1      33.035  23.948  23.005  1.00  0.00     0.058 A 
ATOM     15  C   UNL A   1      32.194  22.838  22.930  1.00  0.00     0.018 A 
ATOM     16  C   UNL A   1      34.211  23.816  23.732  1.00  0.00     0.126 A 
ATOM     17  C   UNL A   1      32.565  21.649  23.559  1.00  0.00     0.037 A 
ATOM     18  N   UNL A   1      34.587  22.671  24.352  1.00  0.00    -0.249 NA
ATOM     19  C   UNL A   1      33.772  21.605  24.237  1.00  0.00     0.106 A 
ATOM     20  Br  UNL A   1      34.327  19.963  25.004  1.00  0.00    -0.029 Br
ENDBRANCH  11  14
ENDBRANCH   5  10
ENDBRANCH   3   5
ENDBRANCH   2   3
ENDBRANCH   1   2
BRANCH   1  21
ATOM     21  C   UNL A   1      32.142  29.719  25.123  1.00  0.00     0.275 C 
BRANCH  21  22
ATOM     22  O   UNL A   1      32.738  29.705  26.430  1.00  0.00    -0.458 OA
BRANCH  22  23
ATOM     23  C   UNL A   1      33.060  30.919  26.931  1.00  0.00     0.338 C 
ATOM     24  O   UNL A   1      32.397  31.939  26.836  1.00  0.00    -0.246 OA
BRANCH  23  25
ATOM     25  C   UNL A   1      34.325  30.852  27.701  1.00  0.00     0.060 A 
ATOM     26  C   UNL A   1      35.160  31.966  27.851  1.00  0.00     0.016 A 
ATOM     27  C   UNL A   1      34.741  29.605  28.175  1.00  0.00     0.016 A 
ATOM     28  C   UNL A   1      36.424  31.823  28.427  1.00  0.00     0.010 A 
ATOM     29  C   UNL A   1      35.978  29.478  28.806  1.00  0.00     0.010 A 
ATOM     30  C   UNL A   1      36.836  30.582  28.928  1.00  0.00    -0.014 A 
BRANCH  30  31
ATOM     31  C   UNL A   1      38.141  30.410  29.618  1.00  0.00     0.031 A 
ATOM     32  C   UNL A   1      39.177  29.484  29.051  1.00  0.00     0.074 A 
ATOM     33  C   UNL A   1      38.354  31.020  30.797  1.00  0.00     0.049 A 
ATOM     34  N   UNL A   1      40.199  28.916  29.632  1.00  0.00    -0.248 NA
ATOM     35  C   UNL A   1      39.021  29.140  27.634  1.00  0.00     0.031 C 
ATOM     36  C   UNL A   1      37.455  31.987  31.428  1.00  0.00     0.029 A 
ATOM     37  N   UNL A   1      39.388  30.891  31.689  1.00  0.00    -0.354 N 
ATOM     38  C   UNL A   1      40.770  28.087  28.669  1.00  0.00     0.074 A 
ATOM     39  C   UNL A   1      39.986  28.247  27.462  1.00  0.00     0.031 C 
ATOM     40  C   UNL A   1      37.971  32.357  32.610  1.00  0.00     0.029 A 
ATOM     41  C   UNL A   1      39.185  31.589  32.855  1.00  0.00     0.049 A 
ATOM     42  H   UNL A   1      40.192  30.352  31.512  1.00  0.00     0.167 HD
ATOM     43  C   UNL A   1      41.839  27.261  28.798  1.00  0.00     0.034 A 
ATOM     44  C   UNL A   1      39.865  31.564  34.018  1.00  0.00     0.034 A 
ATOM     45  C   UNL A   1      42.633  27.174  30.003  1.00  0.00     0.049 A 
ATOM     46  C   UNL A   1      41.052  30.649  34.143  1.00  0.00     0.074 A 
ATOM     47  C   UNL A   1      43.743  26.386  30.256  1.00  0.00     0.029 A 
ATOM     48  N   UNL A   1      42.411  27.922  31.153  1.00  0.00    -0.354 N 
ATOM     49  N   UNL A   1      41.525  29.788  33.273  1.00  0.00    -0.248 NA
ATOM     50  C   UNL A   1      41.794  30.703  35.409  1.00  0.00     0.031 C 
ATOM     51  C   UNL A   1      44.165  26.627  31.570  1.00  0.00     0.029 A 
ATOM     52  C   UNL A   1      43.360  27.614  32.117  1.00  0.00     0.049 A 
ATOM     53  H   UNL A   1      41.686  28.578  31.268  1.00  0.00     0.167 HD
ATOM     54  C   UNL A   1      42.630  29.203  33.883  1.00  0.00     0.074 A 
ATOM     55  C   UNL A   1      42.762  29.827  35.186  1.00  0.00     0.031 C 
ATOM     56  C   UNL A   1      43.461  28.238  33.414  1.00  0.00     0.034 A 
BRANCH  43  57
ATOM     57  C   UNL A   1      42.164  26.336  27.647  1.00  0.00     0.023 A 
ATOM     58  C   UNL A   1      41.681  25.018  27.572  1.00  0.00     0.031 A 
ATOM     59  C   UNL A   1      42.983  26.794  26.598  1.00  0.00     0.131 A 
ATOM     60  C   UNL A   1      42.061  24.192  26.499  1.00  0.00     0.055 A 
ATOM     61  C   UNL A   1      43.302  25.991  25.501  1.00  0.00     0.041 A 
ATOM     62  F   UNL A   1      43.492  28.036  26.622  1.00  0.00    -0.206 F 
ATOM     63  C   UNL A   1      42.848  24.679  25.452  1.00  0.00     0.022 A 
BRANCH  60  64
ATOM     64  S   UNL A   1      41.589  22.440  26.527  1.00  0.00     0.124 S 
ATOM     65  O   UNL A   1      42.093  22.019  27.830  1.00  0.00    -0.237 OA
ATOM     66  O   UNL A   1      40.138  22.502  26.390  1.00  0.00    -0.237 OA
ATOM     67  O   UNL A   1      42.296  21.874  25.379  1.00  0.00    -0.744 OA
ENDBRANCH  60  64
ENDBRANCH  43  57
BRANCH  44  68
ATOM     68  C   UNL A   1      39.398  32.385  35.166  1.00  0.00     0.023 A 
ATOM     69  C   UNL A   1      38.675  31.805  36.218  1.00  0.00     0.031 A 
ATOM     70  C   UNL A   1      39.677  33.763  35.232  1.00  0.00     0.131 A 
ATOM     71  C   UNL A   1      38.230  32.606  37.280  1.00  0.00     0.055 A 
ATOM     72  C   UNL A   1      39.273  34.545  36.314  1.00  0.00     0.041 A 
ATOM     73  F   UNL A   1      40.376  34.360  34.254  1.00  0.00    -0.206 F 
ATOM     74  C   UNL A   1      38.537  33.968  37.342  1.00  0.00     0.022 A 
BRANCH  71  75
ATOM     75  S   UNL A   1      37.194  31.846  38.560  1.00  0.00     0.124 S 
ATOM     76  O   UNL A   1      36.008  32.695  38.525  1.00  0.00    -0.237 OA
ATOM     77  O   UNL A   1      37.028  30.490  38.048  1.00  0.00    -0.237 OA
ATOM     78  O   UNL A   1      38.009  31.959  39.768  1.00  0.00    -0.744 OA
ENDBRANCH  71  75
ENDBRANCH  44  68
BRANCH  56  79
ATOM     79  C   UNL A   1      44.608  27.846  34.308  1.00  0.00     0.023 A 
ATOM     80  C   UNL A   1      44.426  26.986  35.404  1.00  0.00     0.031 A 
ATOM     81  C   UNL A   1      45.891  28.371  34.077  1.00  0.00     0.131 A 
ATOM     82  C   UNL A   1      45.500  26.722  36.267  1.00  0.00     0.055 A 
ATOM     83  C   UNL A   1      46.968  28.062  34.908  1.00  0.00     0.041 A 
ATOM     84  F   UNL A   1      46.115  29.198  33.043  1.00  0.00    -0.206 F 
ATOM     85  C   UNL A   1      46.772  27.245  36.019  1.00  0.00     0.022 A 
BRANCH  82  86
ATOM     86  S   UNL A   1      45.192  25.758  37.771  1.00  0.00     0.124 S 
ATOM     87  O   UNL A   1      44.949  24.423  37.233  1.00  0.00    -0.237 OA
ATOM     88  O   UNL A   1      46.437  25.929  38.514  1.00  0.00    -0.237 OA
ATOM     89  O   UNL A   1      44.024  26.408  38.362  1.00  0.00    -0.744 OA
ENDBRANCH  82  86
ENDBRANCH  56  79
ENDBRANCH  30  31
ENDBRANCH  23  25
ENDBRANCH  22  23
ENDBRANCH  21  22
ENDBRANCH   1  21
TORSDOF 19
ENDMDL
MODEL 2
REMARK VINA RESULT:     -10.8      5.292     10.032
REMARK SMILES COCC[C@H](NC(=O)c1ccc(Br)nc1)C(=O)OCCOC(=O)c1ccc(-c2c3nc(c(-c4cc(S(=O)(=O)[O-])ccc4F)c4ccc([nH]4)c(-c4cc(S(=O)(=O)[O-])ccc4F)c4nc(c(-c5cc(S(=O)(=O)[O-])ccc5F)c5ccc2[nH]5)C=C4)C=C3)cc1
REMARK SMILES IDX 19 1 18 2 16 3 17 4 5 5 4 6 3 7 2 8 1 9 6 10 7 11 8 13 9 14
REMARK SMILES IDX 10 15 15 16 11 17 14 18 12 19 13 20 20 21 21 22 22 23 23 24
REMARK SMILES IDX 24 25 25 26 86 27 26 28 85 29 27 30 28 31 29 32 79 33 30 34
REMARK SMILES IDX 84 35 78 36 80 37 31 38 83 39 77 40 76 41 32 43 64 44 44 45
REMARK SMILES IDX 63 46 45 47 48 48 62 49 81 50 46 51 47 52 61 54 82 55 49 56
REMARK SMILES IDX 33 57 34 58 42 59 35 60 41 61 43 62 40 63 36 64 37 65 38 66
REMARK SMILES IDX 39 67 65 68 66 69 74 70 67 71 73 72 75 73 72 74 68 75 69 76
REMARK SMILES IDX 70 77 71 78 50 79 51 80 59 81 52 82 58 83 60 84 57 85 53 86
REMARK SMILES IDX 54 87 55 88 56 89
REMARK H PARENT 6 12 80 42 48 53
REMARK Flexibility Score: inf
ROOT
ATOM      1  C   UNL A   1      34.378  21.054  25.894  1.00  0.00     0.274 C 
ENDROOT
BRANCH   1   2
ATOM      2  O   UNL A   1      33.596  22.180  25.450  1.00  0.00    -0.461 OA
BRANCH   2   3
ATOM      3  C   UNL A   1      32.295  21.882  25.176  1.00  0.00     0.328 C 
ATOM      4  O   UNL A   1      31.771  20.792  25.395  1.00  0.00    -0.250 OA
BRANCH   3   5
ATOM      5  C   UNL A   1      31.522  23.039  24.521  1.00  0.00     0.194 C 
BRANCH   5   6
ATOM      6  C   UNL A   1      32.557  23.938  23.811  1.00  0.00     0.065 C 
BRANCH   6   7
ATOM      7  C   UNL A   1      32.337  24.129  22.304  1.00  0.00     0.162 C 
BRANCH   7   8
ATOM      8  O   UNL A   1      33.219  25.100  21.745  1.00  0.00    -0.385 OA
ATOM      9  C   UNL A   1      32.667  25.827  20.650  1.00  0.00     0.194 C 
ENDBRANCH   7   8
ENDBRANCH   6   7
ENDBRANCH   5   6
BRANCH   5  10
ATOM     10  N   UNL A   1      30.626  23.839  25.369  1.00  0.00    -0.338 N 
ATOM     11  C   UNL A   1      30.911  25.128  25.744  1.00  0.00     0.253 C 
ATOM     12  H   UNL A   1      29.785  23.434  25.681  1.00  0.00     0.164 HD
ATOM     13  O   UNL A   1      31.302  25.350  26.885  1.00  0.00    -0.269 OA
BRANCH  11  14
ATOM     14  C   UNL A   1      30.531  26.226  24.827  1.00  0.00     0.058 A 
ATOM     15  C   UNL A   1      29.366  26.204  24.060  1.00  0.00     0.018 A 
ATOM     16  C   UNL A   1      31.267  27.403  24.845  1.00  0.00     0.126 A 
ATOM     17  C   UNL A   1      28.976  27.350  23.368  1.00  0.00     0.037 A 
ATOM     18  N   UNL A   1      30.906  28.526  24.178  1.00  0.00    -0.249 NA
ATOM     19  C   UNL A   1      29.761  28.488  23.471  1.00  0.00     0.106 A 
ATOM     20  Br  UNL A   1      29.178  30.076  22.616  1.00  0.00    -0.029 Br
ENDBRANCH  11  14
ENDBRANCH   5  10
ENDBRANCH   3   5
ENDBRANCH   2   3
ENDBRANCH   1   2
BRANCH   1  21
ATOM     21  C   UNL A   1      35.706  20.982  25.148  1.00  0.00     0.275 C 
BRANCH  21  22
ATOM     22  O   UNL A   1      36.656  21.862  25.770  1.00  0.00    -0.458 OA
BRANCH  22  23
ATOM     23  C   UNL A   1      37.943  21.445  25.728  1.00  0.00     0.338 C 
ATOM     24  O   UNL A   1      38.341  20.373  25.304  1.00  0.00    -0.246 OA
BRANCH  23  25
ATOM     25  C   UNL A   1      38.857  22.509  26.207  1.00  0.00     0.060 A 
ATOM     26  C   UNL A   1      39.997  22.219  26.966  1.00  0.00     0.016 A 
ATOM     27  C   UNL A   1      38.487  23.840  25.992  1.00  0.00     0.016 A 
ATOM     28  C   UNL A   1      40.734  23.253  27.549  1.00  0.00     0.010 A 
ATOM     29  C   UNL A   1      39.260  24.872  26.524  1.00  0.00     0.010 A 
ATOM     30  C   UNL A   1      40.383  24.589  27.316  1.00  0.00    -0.014 A 
BRANCH  30  31
ATOM     31  C   UNL A   1      41.190  25.715  27.854  1.00  0.00     0.031 A 
ATOM     32  C   UNL A   1      40.535  26.784  28.680  1.00  0.00     0.074 A 
ATOM     33  C   UNL A   1      42.489  25.818  27.526  1.00  0.00     0.049 A 
ATOM     34  N   UNL A   1      40.934  27.999  28.944  1.00  0.00    -0.248 NA
ATOM     35  C   UNL A   1      39.240  26.433  29.270  1.00  0.00     0.031 C 
ATOM     36  C   UNL A   1      43.259  24.820  26.780  1.00  0.00     0.029 A 
ATOM     37  N   UNL A   1      43.386  26.830  27.755  1.00  0.00    -0.354 N 
ATOM     38  C   UNL A   1      39.903  28.586  29.674  1.00  0.00     0.074 A 
ATOM     39  C   UNL A   1      38.873  27.580  29.824  1.00  0.00     0.031 C 
ATOM     40  C   UNL A   1      44.509  25.274  26.605  1.00  0.00     0.029 A 
ATOM     41  C   UNL A   1      44.600  26.624  27.147  1.00  0.00     0.049 A 
ATOM     42  H   UNL A   1      43.180  27.623  28.300  1.00  0.00     0.167 HD
ATOM     43  C   UNL A   1      39.829  29.853  30.155  1.00  0.00     0.034 A 
ATOM     44  C   UNL A   1      45.648  27.454  26.985  1.00  0.00     0.034 A 
ATOM     45  C   UNL A   1      40.907  30.810  30.036  1.00  0.00     0.049 A 
ATOM     46  C   UNL A   1      45.555  28.854  27.530  1.00  0.00     0.074 A 
ATOM     47  C   UNL A   1      40.959  32.118  30.487  1.00  0.00     0.029 A 
ATOM     48  N   UNL A   1      42.134  30.551  29.437  1.00  0.00    -0.354 N 
ATOM     49  N   UNL A   1      44.542  29.442  28.122  1.00  0.00    -0.248 NA
ATOM     50  C   UNL A   1      46.745  29.699  27.380  1.00  0.00     0.031 C 
ATOM     51  C   UNL A   1      42.199  32.660  30.126  1.00  0.00     0.029 A 
ATOM     52  C   UNL A   1      42.948  31.672  29.506  1.00  0.00     0.049 A 
ATOM     53  H   UNL A   1      42.390  29.694  29.025  1.00  0.00     0.167 HD
ATOM     54  C   UNL A   1      44.979  30.726  28.428  1.00  0.00     0.074 A 
ATOM     55  C   UNL A   1      46.352  30.817  27.971  1.00  0.00     0.031 C 
ATOM     56  C   UNL A   1      44.308  31.742  29.029  1.00  0.00     0.034 A 
BRANCH  43  57
ATOM     57  C   UNL A   1      38.526  30.301  30.777  1.00  0.00     0.023 A 
ATOM     58  C   UNL A   1      37.532  30.981  30.052  1.00  0.00     0.031 A 
ATOM     59  C   UNL A   1      38.280  30.037  32.138  1.00  0.00     0.131 A 
ATOM     60  C   UNL A   1      36.363  31.414  30.703  1.00  0.00     0.055 A 
ATOM     61  C   UNL A   1      37.088  30.411  32.762  1.00  0.00     0.041 A 
ATOM     62  F   UNL A   1      39.200  29.410  32.889  1.00  0.00    -0.206 F 
ATOM     63  C   UNL A   1      36.126  31.112  32.046  1.00  0.00     0.022 A 
BRANCH  60  64
ATOM     64  S   UNL A   1      35.188  32.460  29.797  1.00  0.00     0.124 S 
ATOM     65  O   UNL A   1      36.065  33.499  29.267  1.00  0.00    -0.237 OA
ATOM     66  O   UNL A   1      34.629  31.533  28.819  1.00  0.00    -0.237 OA
ATOM     67  O   UNL A   1      34.257  32.907  30.831  1.00  0.00    -0.744 OA
ENDBRANCH  60  64
ENDBRANCH  43  57
BRANCH  44  68
ATOM     68  C   UNL A   1      46.843  27.000  26.224  1.00  0.00     0.023 A 
ATOM     69  C   UNL A   1      47.079  27.453  24.919  1.00  0.00     0.031 A 
ATOM     70  C   UNL A   1      47.771  26.111  26.797  1.00  0.00     0.131 A 
ATOM     71  C   UNL A   1      48.203  26.995  24.216  1.00  0.00     0.055 A 
ATOM     72  C   UNL A   1      48.912  25.696  26.112  1.00  0.00     0.041 A 
ATOM     73  F   UNL A   1      47.593  25.659  28.049  1.00  0.00    -0.206 F 
ATOM     74  C   UNL A   1      49.128  26.131  24.809  1.00  0.00     0.022 A 
BRANCH  71  75
ATOM     75  S   UNL A   1      48.410  27.506  22.490  1.00  0.00     0.124 S 
ATOM     76  O   UNL A   1      48.525  26.220  21.810  1.00  0.00    -0.237 OA
ATOM     77  O   UNL A   1      47.182  28.254  22.246  1.00  0.00    -0.237 OA
ATOM     78  O   UNL A   1      49.631  28.310  22.517  1.00  0.00    -0.744 OA
ENDBRANCH  71  75
ENDBRANCH  44  68
BRANCH  56  79
ATOM     79  C   UNL A   1      45.081  33.013  29.262  1.00  0.00     0.023 A 
ATOM     80  C   UNL A   1      45.137  34.029  28.294  1.00  0.00     0.031 A 
ATOM     81  C   UNL A   1      45.800  33.190  30.457  1.00  0.00     0.131 A 
ATOM     82  C   UNL A   1      45.946  35.155  28.512  1.00  0.00     0.055 A 
ATOM     83  C   UNL A   1      46.561  34.335  30.690  1.00  0.00     0.041 A 
ATOM     84  F   UNL A   1      45.780  32.247  31.413  1.00  0.00    -0.206 F 
ATOM     85  C   UNL A   1      46.649  35.319  29.708  1.00  0.00     0.022 A 
BRANCH  82  86
ATOM     86  S   UNL A   1      46.141  36.359  27.170  1.00  0.00     0.124 S 
ATOM     87  O   UNL A   1      46.341  35.495  26.012  1.00  0.00    -0.237 OA
ATOM     88  O   UNL A   1      44.875  37.084  27.214  1.00  0.00    -0.237 OA
ATOM     89  O   UNL A   1      47.313  37.134  27.573  1.00  0.00    -0.744 OA
ENDBRANCH  82  86
ENDBRANCH  56  79
ENDBRANCH  30  31
ENDBRANCH  23  25
ENDBRANCH  22  23
ENDBRANCH  21  22
ENDBRANCH   1  21
TORSDOF 19
ENDMDL
MODEL 3
REMARK VINA RESULT:     -10.7      1.544      1.983
REMARK SMILES COCC[C@H](NC(=O)c1ccc(Br)nc1)C(=O)OCCOC(=O)c1ccc(-c2c3nc(c(-c4cc(S(=O)(=O)[O-])ccc4F)c4ccc([nH]4)c(-c4cc(S(=O)(=O)[O-])ccc4F)c4nc(c(-c5cc(S(=O)(=O)[O-])ccc5F)c5ccc2[nH]5)C=C4)C=C3)cc1
REMARK SMILES IDX 19 1 18 2 16 3 17 4 5 5 4 6 3 7 2 8 1 9 6 10 7 11 8 13 9 14
REMARK SMILES IDX 10 15 15 16 11 17 14 18 12 19 13 20 20 21 21 22 22 23 23 24
REMARK SMILES IDX 24 25 25 26 86 27 26 28 85 29 27 30 28 31 29 32 79 33 30 34
REMARK SMILES IDX 84 35 78 36 80 37 31 38 83 39 77 40 76 41 32 43 64 44 44 45
REMARK SMILES IDX 63 46 45 47 48 48 62 49 81 50 46 51 47 52 61 54 82 55 49 56
REMARK SMILES IDX 33 57 34 58 42 59 35 60 41 61 43 62 40 63 36 64 37 65 38 66
REMARK SMILES IDX 39 67 65 68 66 69 74 70 67 71 73 72 75 73 72 74 68 75 69 76
REMARK SMILES IDX 70 77 71 78 50 79 51 80 59 81 52 82 58 83 60 84 57 85 53 86
REMARK SMILES IDX 54 87 55 88 56 89
REMARK H PARENT 6 12 80 42 48 53
REMARK Flexibility Score: inf
ROOT
ATOM      1  C   UNL A   1      32.994  29.312  24.806  1.00  0.00     0.274 C 
ENDROOT
BRANCH   1   2
ATOM      2  O   UNL A   1      32.502  28.057  24.296  1.00  0.00    -0.461 OA
BRANCH   2   3
ATOM      3  C   UNL A   1      32.549  27.950  22.938  1.00  0.00     0.328 C 
ATOM      4  O   UNL A   1      33.462  28.384  22.239  1.00  0.00    -0.250 OA
BRANCH   3   5
ATOM      5  C   UNL A   1      31.319  27.254  22.332  1.00  0.00     0.194 C 
BRANCH   5   6
ATOM      6  C   UNL A   1      30.203  27.285  23.398  1.00  0.00     0.065 C 
BRANCH   6   7
ATOM      7  C   UNL A   1      28.991  28.163  23.055  1.00  0.00     0.162 C 
BRANCH   7   8
ATOM      8  O   UNL A   1      29.238  29.548  23.290  1.00  0.00    -0.385 OA
ATOM      9  C   UNL A   1      28.219  30.413  22.798  1.00  0.00     0.194 C 
ENDBRANCH   7   8
ENDBRANCH   6   7
ENDBRANCH   5   6
BRANCH   5  10
ATOM     10  N   UNL A   1      31.489  25.898  21.790  1.00  0.00    -0.338 N 
ATOM     11  C   UNL A   1      32.694  25.241  21.790  1.00  0.00     0.253 C 
ATOM     12  H   UNL A   1      30.704  25.440  21.410  1.00  0.00     0.164 HD
ATOM     13  O   UNL A   1      33.330  25.152  20.746  1.00  0.00    -0.269 OA
BRANCH  11  14
ATOM     14  C   UNL A   1      33.077  24.480  23.001  1.00  0.00     0.058 A 
ATOM     15  C   UNL A   1      34.371  24.488  23.522  1.00  0.00     0.018 A 
ATOM     16  C   UNL A   1      32.085  23.866  23.752  1.00  0.00     0.126 A 
ATOM     17  C   UNL A   1      34.615  23.908  24.767  1.00  0.00     0.037 A 
ATOM     18  N   UNL A   1      32.302  23.294  24.961  1.00  0.00    -0.249 NA
ATOM     19  C   UNL A   1      33.554  23.344  25.456  1.00  0.00     0.106 A 
ATOM     20  Br  UNL A   1      33.863  22.648  27.192  1.00  0.00    -0.029 Br
ENDBRANCH  11  14
ENDBRANCH   5  10
ENDBRANCH   3   5
ENDBRANCH   2   3
ENDBRANCH   1   2
BRANCH   1  21
ATOM     21  C   UNL A   1      31.906  30.055  25.572  1.00  0.00     0.275 C 
BRANCH  21  22
ATOM     22  O   UNL A   1      32.321  30.248  26.934  1.00  0.00    -0.458 OA
BRANCH  22  23
ATOM     23  C   UNL A   1      32.990  31.398  27.177  1.00  0.00     0.338 C 
ATOM     24  O   UNL A   1      32.561  32.529  27.022  1.00  0.00    -0.246 OA
BRANCH  23  25
ATOM     25  C   UNL A   1      34.331  31.118  27.742  1.00  0.00     0.060 A 
ATOM     26  C   UNL A   1      34.708  29.833  28.151  1.00  0.00     0.016 A 
ATOM     27  C   UNL A   1      35.183  32.199  27.982  1.00  0.00     0.016 A 
ATOM     28  C   UNL A   1      35.907  29.638  28.840  1.00  0.00     0.010 A 
ATOM     29  C   UNL A   1      36.409  31.993  28.616  1.00  0.00     0.010 A 
ATOM     30  C   UNL A   1      36.777  30.714  29.061  1.00  0.00    -0.014 A 
BRANCH  30  31
ATOM     31  C   UNL A   1      38.096  30.531  29.720  1.00  0.00     0.031 A 
ATOM     32  C   UNL A   1      39.126  29.627  29.107  1.00  0.00     0.074 A 
ATOM     33  C   UNL A   1      38.330  31.108  30.912  1.00  0.00     0.049 A 
ATOM     34  N   UNL A   1      40.163  29.049  29.652  1.00  0.00    -0.248 NA
ATOM     35  C   UNL A   1      38.944  29.322  27.685  1.00  0.00     0.031 C 
ATOM     36  C   UNL A   1      37.438  32.052  31.587  1.00  0.00     0.029 A 
ATOM     37  N   UNL A   1      39.382  30.961  31.779  1.00  0.00    -0.354 N 
ATOM     38  C   UNL A   1      40.718  28.250  28.655  1.00  0.00     0.074 A 
ATOM     39  C   UNL A   1      39.910  28.439  27.469  1.00  0.00     0.031 C 
ATOM     40  C   UNL A   1      37.976  32.392  32.768  1.00  0.00     0.029 A 
ATOM     41  C   UNL A   1      39.199  31.625  32.968  1.00  0.00     0.049 A 
ATOM     42  H   UNL A   1      40.186  30.432  31.571  1.00  0.00     0.167 HD
ATOM     43  C   UNL A   1      41.794  27.428  28.739  1.00  0.00     0.034 A 
ATOM     44  C   UNL A   1      39.902  31.572  34.116  1.00  0.00     0.034 A 
ATOM     45  C   UNL A   1      42.612  27.312  29.926  1.00  0.00     0.049 A 
ATOM     46  C   UNL A   1      41.097  30.661  34.192  1.00  0.00     0.074 A 
ATOM     47  C   UNL A   1      43.731  26.523  30.135  1.00  0.00     0.029 A 
ATOM     48  N   UNL A   1      42.410  28.027  31.101  1.00  0.00    -0.354 N 
ATOM     49  N   UNL A   1      41.556  29.827  33.289  1.00  0.00    -0.248 NA
ATOM     50  C   UNL A   1      41.863  30.684  35.443  1.00  0.00     0.031 C 
ATOM     51  C   UNL A   1      44.178  26.731  31.445  1.00  0.00     0.029 A 
ATOM     52  C   UNL A   1      43.379  27.697  32.036  1.00  0.00     0.049 A 
ATOM     53  H   UNL A   1      41.684  28.675  31.247  1.00  0.00     0.167 HD
ATOM     54  C   UNL A   1      42.676  29.232  33.860  1.00  0.00     0.074 A 
ATOM     55  C   UNL A   1      42.831  29.820  35.177  1.00  0.00     0.031 C 
ATOM     56  C   UNL A   1      43.503  28.285  33.347  1.00  0.00     0.034 A 
BRANCH  43  57
ATOM     57  C   UNL A   1      42.101  26.536  27.557  1.00  0.00     0.023 A 
ATOM     58  C   UNL A   1      41.700  25.191  27.496  1.00  0.00     0.031 A 
ATOM     59  C   UNL A   1      42.817  27.058  26.462  1.00  0.00     0.131 A 
ATOM     60  C   UNL A   1      42.061  24.402  26.388  1.00  0.00     0.055 A 
ATOM     61  C   UNL A   1      43.113  26.288  25.336  1.00  0.00     0.041 A 
ATOM     62  F   UNL A   1      43.245  28.330  26.470  1.00  0.00    -0.206 F 
ATOM     63  C   UNL A   1      42.744  24.949  25.299  1.00  0.00     0.022 A 
BRANCH  60  64
ATOM     64  S   UNL A   1      41.706  22.622  26.423  1.00  0.00     0.124 S 
ATOM     65  O   UNL A   1      42.467  22.146  25.272  1.00  0.00    -0.237 OA
ATOM     66  O   UNL A   1      42.210  22.226  27.733  1.00  0.00    -0.237 OA
ATOM     67  O   UNL A   1      40.253  22.558  26.272  1.00  0.00    -0.744 OA
ENDBRANCH  60  64
ENDBRANCH  43  57
BRANCH  44  68
ATOM     68  C   UNL A   1      39.453  32.358  35.296  1.00  0.00     0.023 A 
ATOM     69  C   UNL A   1      39.882  33.680  35.483  1.00  0.00     0.031 A 
ATOM     70  C   UNL A   1      38.581  31.801  36.248  1.00  0.00     0.131 A 
ATOM     71  C   UNL A   1      39.460  34.394  36.614  1.00  0.00     0.055 A 
ATOM     72  C   UNL A   1      38.127  32.531  37.346  1.00  0.00     0.041 A 
ATOM     73  F   UNL A   1      38.135  30.542  36.105  1.00  0.00    -0.206 F 
ATOM     74  C   UNL A   1      38.574  33.833  37.539  1.00  0.00     0.022 A 
BRANCH  71  75
ATOM     75  S   UNL A   1      40.131  36.055  36.887  1.00  0.00     0.124 S 
ATOM     76  O   UNL A   1      39.792  36.723  35.634  1.00  0.00    -0.237 OA
ATOM     77  O   UNL A   1      39.390  36.490  38.066  1.00  0.00    -0.237 OA
ATOM     78  O   UNL A   1      41.556  35.816  37.102  1.00  0.00    -0.744 OA
ENDBRANCH  71  75
ENDBRANCH  44  68
BRANCH  56  79
ATOM     79  C   UNL A   1      44.669  27.875  34.207  1.00  0.00     0.023 A 
ATOM     80  C   UNL A   1      44.555  26.855  35.165  1.00  0.00     0.031 A 
ATOM     81  C   UNL A   1      45.901  28.543  34.087  1.00  0.00     0.131 A 
ATOM     82  C   UNL A   1      45.638  26.568  36.010  1.00  0.00     0.055 A 
ATOM     83  C   UNL A   1      46.991  28.218  34.895  1.00  0.00     0.041 A 
ATOM     84  F   UNL A   1      46.060  29.527  33.187  1.00  0.00    -0.206 F 
ATOM     85  C   UNL A   1      46.858  27.235  35.873  1.00  0.00     0.022 A 
BRANCH  82  86
ATOM     86  S   UNL A   1      45.401  25.374  37.355  1.00  0.00     0.124 S 
ATOM     87  O   UNL A   1      44.109  25.780  37.898  1.00  0.00    -0.237 OA
ATOM     88  O   UNL A   1      45.423  24.098  36.647  1.00  0.00    -0.237 OA
ATOM     89  O   UNL A   1      46.544  25.615  38.233  1.00  0.00    -0.744 OA
ENDBRANCH  82  86
ENDBRANCH  56  79
ENDBRANCH  30  31
ENDBRANCH  23  25
ENDBRANCH  22  23
ENDBRANCH  21  22
ENDBRANCH   1  21
TORSDOF 19
ENDMDL
