MODEL 1
REMARK VINA RESULT:     -11.1      0.000      0.000
REMARK SMILES O=C(OCCOC(=O)c1c(F)cccc1NC(=O)C1CCCCC1)c1ccc(-c2c3nc(c(-c4cc(S(=O)(=O)[O-])ccc4F)c4ccc([nH]4)c(-c4cc(S(=O)(=O)[O-])ccc4F)c4nc(c(-c5cc(S(=O)(=O)[O-])ccc5F)c5ccc2[nH]5)C=C4)C=C3)cc1
REMARK SMILES IDX 4 1 3 2 2 3 1 4 25 5 26 6 87 7 27 8 86 9 28 10 29 11 30 12
REMARK SMILES IDX 80 13 31 14 85 15 79 16 81 17 32 18 84 19 78 20 77 21 33 23
REMARK SMILES IDX 65 24 45 25 64 26 46 27 49 28 63 29 82 30 47 31 48 32 62 34
REMARK SMILES IDX 83 35 50 36 34 37 35 38 43 39 36 40 42 41 44 42 41 43 37 44
REMARK SMILES IDX 38 45 39 46 40 47 66 48 67 49 75 50 68 51 74 52 76 53 73 54
REMARK SMILES IDX 69 55 70 56 71 57 72 58 51 59 52 60 60 61 53 62 59 63 61 64
REMARK SMILES IDX 58 65 54 66 55 67 56 68 57 69 5 70 6 71 7 72 8 73 9 74 10 75
REMARK SMILES IDX 15 76 11 77 12 78 14 79 13 80 16 81 17 82 18 84 19 85 20 86
REMARK SMILES IDX 24 87 21 88 23 89 22 90
REMARK H PARENT 81 22 49 33 16 83
REMARK Flexibility Score: inf
ROOT
ATOM      1  C   UNL A   1      34.052  32.867  28.042  1.00  0.00     0.275 C 
ENDROOT
BRANCH   1   2
ATOM      2  O   UNL A   1      33.582  31.563  27.661  1.00  0.00    -0.458 OA
BRANCH   2   3
ATOM      3  C   UNL A   1      34.253  30.495  27.174  1.00  0.00     0.338 C 
ATOM      4  O   UNL A   1      33.695  29.793  26.333  1.00  0.00    -0.246 OA
BRANCH   3   5
ATOM      5  C   UNL A   1      35.583  30.034  27.687  1.00  0.00     0.060 A 
ATOM      6  C   UNL A   1      36.801  30.094  27.008  1.00  0.00     0.016 A 
ATOM      7  C   UNL A   1      35.575  29.428  28.955  1.00  0.00     0.016 A 
ATOM      8  C   UNL A   1      37.987  29.641  27.604  1.00  0.00     0.010 A 
ATOM      9  C   UNL A   1      36.757  28.993  29.564  1.00  0.00     0.010 A 
ATOM     10  C   UNL A   1      37.979  29.104  28.893  1.00  0.00    -0.014 A 
BRANCH  10  11
ATOM     11  C   UNL A   1      39.219  28.568  29.507  1.00  0.00     0.031 A 
ATOM     12  C   UNL A   1      39.804  29.257  30.704  1.00  0.00     0.074 A 
ATOM     13  C   UNL A   1      39.825  27.477  29.002  1.00  0.00     0.049 A 
ATOM     14  N   UNL A   1      40.905  28.988  31.357  1.00  0.00    -0.248 NA
ATOM     15  C   UNL A   1      39.035  30.387  31.246  1.00  0.00     0.031 C 
ATOM     16  C   UNL A   1      39.318  26.664  27.900  1.00  0.00     0.029 A 
ATOM     17  N   UNL A   1      41.015  26.879  29.333  1.00  0.00    -0.354 N 
ATOM     18  C   UNL A   1      40.924  29.870  32.429  1.00  0.00     0.074 A 
ATOM     19  C   UNL A   1      39.795  30.761  32.263  1.00  0.00     0.031 C 
ATOM     20  C   UNL A   1      40.223  25.719  27.595  1.00  0.00     0.029 A 
ATOM     21  C   UNL A   1      41.371  25.860  28.481  1.00  0.00     0.049 A 
ATOM     22  H   UNL A   1      41.560  27.151  30.105  1.00  0.00     0.167 HD
ATOM     23  C   UNL A   1      41.764  29.893  33.492  1.00  0.00     0.034 A 
ATOM     24  C   UNL A   1      42.501  25.130  28.409  1.00  0.00     0.034 A 
ATOM     25  C   UNL A   1      42.911  29.034  33.626  1.00  0.00     0.049 A 
ATOM     26  C   UNL A   1      43.551  25.312  29.466  1.00  0.00     0.074 A 
ATOM     27  C   UNL A   1      43.850  28.991  34.640  1.00  0.00     0.029 A 
ATOM     28  N   UNL A   1      43.285  28.070  32.697  1.00  0.00    -0.354 N 
ATOM     29  N   UNL A   1      43.562  26.155  30.472  1.00  0.00    -0.248 NA
ATOM     30  C   UNL A   1      44.712  24.417  29.410  1.00  0.00     0.031 C 
ATOM     31  C   UNL A   1      44.816  28.035  34.301  1.00  0.00     0.029 A 
ATOM     32  C   UNL A   1      44.449  27.440  33.104  1.00  0.00     0.049 A 
ATOM     33  H   UNL A   1      42.792  27.863  31.870  1.00  0.00     0.167 HD
ATOM     34  C   UNL A   1      44.695  25.843  31.214  1.00  0.00     0.074 A 
ATOM     35  C   UNL A   1      45.368  24.766  30.511  1.00  0.00     0.031 C 
ATOM     36  C   UNL A   1      45.111  26.371  32.393  1.00  0.00     0.034 A 
BRANCH  23  37
ATOM     37  C   UNL A   1      41.438  30.892  34.571  1.00  0.00     0.023 A 
ATOM     38  C   UNL A   1      40.301  30.718  35.385  1.00  0.00     0.031 A 
ATOM     39  C   UNL A   1      42.190  32.067  34.727  1.00  0.00     0.131 A 
ATOM     40  C   UNL A   1      39.893  31.747  36.244  1.00  0.00     0.055 A 
ATOM     41  C   UNL A   1      41.821  33.054  35.645  1.00  0.00     0.041 A 
ATOM     42  F   UNL A   1      43.269  32.294  33.963  1.00  0.00    -0.206 F 
ATOM     43  C   UNL A   1      40.656  32.905  36.396  1.00  0.00     0.022 A 
BRANCH  40  44
ATOM     44  S   UNL A   1      38.265  31.614  37.035  1.00  0.00     0.124 S 
ATOM     45  O   UNL A   1      38.533  32.183  38.355  1.00  0.00    -0.237 OA
ATOM     46  O   UNL A   1      37.419  32.413  36.156  1.00  0.00    -0.237 OA
ATOM     47  O   UNL A   1      37.996  30.178  37.024  1.00  0.00    -0.744 OA
ENDBRANCH  40  44
ENDBRANCH  23  37
BRANCH  24  48
ATOM     48  C   UNL A   1      42.677  24.165  27.294  1.00  0.00     0.023 A 
ATOM     49  C   UNL A   1      42.145  22.871  27.360  1.00  0.00     0.031 A 
ATOM     50  C   UNL A   1      43.345  24.555  26.119  1.00  0.00     0.131 A 
ATOM     51  C   UNL A   1      42.298  22.002  26.267  1.00  0.00     0.055 A 
ATOM     52  C   UNL A   1      43.486  23.690  25.032  1.00  0.00     0.041 A 
ATOM     53  F   UNL A   1      43.842  25.797  26.002  1.00  0.00    -0.206 F 
ATOM     54  C   UNL A   1      42.961  22.403  25.104  1.00  0.00     0.022 A 
BRANCH  51  55
ATOM     55  S   UNL A   1      41.586  20.336  26.373  1.00  0.00     0.124 S 
ATOM     56  O   UNL A   1      42.289  19.643  25.302  1.00  0.00    -0.237 OA
ATOM     57  O   UNL A   1      41.937  19.944  27.734  1.00  0.00    -0.237 OA
ATOM     58  O   UNL A   1      40.161  20.562  26.146  1.00  0.00    -0.744 OA
ENDBRANCH  51  55
ENDBRANCH  24  48
BRANCH  36  59
ATOM     59  C   UNL A   1      46.307  25.735  33.045  1.00  0.00     0.023 A 
ATOM     60  C   UNL A   1      46.194  24.602  33.867  1.00  0.00     0.031 A 
ATOM     61  C   UNL A   1      47.588  26.264  32.809  1.00  0.00     0.131 A 
ATOM     62  C   UNL A   1      47.345  24.052  34.449  1.00  0.00     0.055 A 
ATOM     63  C   UNL A   1      48.734  25.685  33.354  1.00  0.00     0.041 A 
ATOM     64  F   UNL A   1      47.746  27.348  32.032  1.00  0.00    -0.206 F 
ATOM     65  C   UNL A   1      48.615  24.574  34.184  1.00  0.00     0.022 A 
BRANCH  62  66
ATOM     66  S   UNL A   1      47.160  22.658  35.595  1.00  0.00     0.124 S 
ATOM     67  O   UNL A   1      48.060  23.040  36.679  1.00  0.00    -0.237 OA
ATOM     68  O   UNL A   1      45.736  22.693  35.908  1.00  0.00    -0.237 OA
ATOM     69  O   UNL A   1      47.592  21.506  34.805  1.00  0.00    -0.744 OA
ENDBRANCH  62  66
ENDBRANCH  36  59
ENDBRANCH  10  11
ENDBRANCH   3   5
ENDBRANCH   2   3
ENDBRANCH   1   2
BRANCH   1  70
ATOM     70  C   UNL A   1      32.968  33.940  28.032  1.00  0.00     0.275 C 
BRANCH  70  71
ATOM     71  O   UNL A   1      32.699  34.492  29.325  1.00  0.00    -0.458 OA
BRANCH  71  72
ATOM     72  C   UNL A   1      33.407  35.604  29.670  1.00  0.00     0.343 C 
ATOM     73  O   UNL A   1      33.646  36.574  28.985  1.00  0.00    -0.246 OA
BRANCH  72  74
ATOM     74  C   UNL A   1      33.767  35.477  31.089  1.00  0.00     0.119 A 
ATOM     75  C   UNL A   1      32.882  36.056  32.009  1.00  0.00     0.139 A 
ATOM     76  C   UNL A   1      34.990  34.909  31.500  1.00  0.00     0.058 A 
ATOM     77  F   UNL A   1      31.693  36.529  31.609  1.00  0.00    -0.206 F 
ATOM     78  C   UNL A   1      33.221  36.165  33.346  1.00  0.00     0.040 A 
ATOM     79  C   UNL A   1      35.377  35.235  32.791  1.00  0.00     0.027 A 
ATOM     80  C   UNL A   1      34.501  35.800  33.728  1.00  0.00     0.005 A 
BRANCH  76  81
ATOM     81  N   UNL A   1      35.741  34.120  30.596  1.00  0.00    -0.325 N 
ATOM     82  C   UNL A   1      37.027  33.849  30.257  1.00  0.00     0.227 C 
ATOM     83  H   UNL A   1      35.131  33.597  30.028  1.00  0.00     0.169 HD
ATOM     84  O   UNL A   1      37.119  33.016  29.333  1.00  0.00    -0.274 OA
BRANCH  82  85
ATOM     85  C   UNL A   1      38.365  34.283  30.880  1.00  0.00     0.079 C 
ATOM     86  C   UNL A   1      38.701  33.966  32.323  1.00  0.00     0.013 C 
ATOM     87  C   UNL A   1      39.530  33.881  29.956  1.00  0.00     0.013 C 
ATOM     88  C   UNL A   1      40.011  34.582  32.791  1.00  0.00     0.001 C 
ATOM     89  C   UNL A   1      40.887  34.402  30.452  1.00  0.00     0.001 C 
ATOM     90  C   UNL A   1      41.146  34.064  31.917  1.00  0.00     0.000 C 
ENDBRANCH  82  85
ENDBRANCH  76  81
ENDBRANCH  72  74
ENDBRANCH  71  72
ENDBRANCH  70  71
ENDBRANCH   1  70
TORSDOF 16
ENDMDL
MODEL 2
REMARK VINA RESULT:     -10.8      4.421     12.552
REMARK SMILES O=C(OCCOC(=O)c1c(F)cccc1NC(=O)C1CCCCC1)c1ccc(-c2c3nc(c(-c4cc(S(=O)(=O)[O-])ccc4F)c4ccc([nH]4)c(-c4cc(S(=O)(=O)[O-])ccc4F)c4nc(c(-c5cc(S(=O)(=O)[O-])ccc5F)c5ccc2[nH]5)C=C4)C=C3)cc1
REMARK SMILES IDX 4 1 3 2 2 3 1 4 25 5 26 6 87 7 27 8 86 9 28 10 29 11 30 12
REMARK SMILES IDX 80 13 31 14 85 15 79 16 81 17 32 18 84 19 78 20 77 21 33 23
REMARK SMILES IDX 65 24 45 25 64 26 46 27 49 28 63 29 82 30 47 31 48 32 62 34
REMARK SMILES IDX 83 35 50 36 34 37 35 38 43 39 36 40 42 41 44 42 41 43 37 44
REMARK SMILES IDX 38 45 39 46 40 47 66 48 67 49 75 50 68 51 74 52 76 53 73 54
REMARK SMILES IDX 69 55 70 56 71 57 72 58 51 59 52 60 60 61 53 62 59 63 61 64
REMARK SMILES IDX 58 65 54 66 55 67 56 68 57 69 5 70 6 71 7 72 8 73 9 74 10 75
REMARK SMILES IDX 15 76 11 77 12 78 14 79 13 80 16 81 17 82 18 84 19 85 20 86
REMARK SMILES IDX 24 87 21 88 23 89 22 90
REMARK H PARENT 81 22 49 33 16 83
REMARK Flexibility Score: inf
ROOT
ATOM      1  C   UNL A   1      40.264  20.809  26.788  1.00  0.00     0.275 C 
ENDROOT
BRANCH   1   2
ATOM      2  O   UNL A   1      39.350  21.547  25.961  1.00  0.00    -0.458 OA
BRANCH   2   3
ATOM      3  C   UNL A   1      38.576  22.618  26.246  1.00  0.00     0.338 C 
ATOM      4  O   UNL A   1      37.359  22.508  26.111  1.00  0.00    -0.246 OA
BRANCH   3   5
ATOM      5  C   UNL A   1      39.112  23.973  26.591  1.00  0.00     0.060 A 
ATOM      6  C   UNL A   1      39.880  24.799  25.766  1.00  0.00     0.016 A 
ATOM      7  C   UNL A   1      38.859  24.419  27.900  1.00  0.00     0.016 A 
ATOM      8  C   UNL A   1      40.311  26.059  26.201  1.00  0.00     0.010 A 
ATOM      9  C   UNL A   1      39.270  25.684  28.333  1.00  0.00     0.010 A 
ATOM     10  C   UNL A   1      39.996  26.521  27.480  1.00  0.00    -0.014 A 
BRANCH  10  11
ATOM     11  C   UNL A   1      40.500  27.828  27.969  1.00  0.00     0.031 A 
ATOM     12  C   UNL A   1      41.979  28.074  28.021  1.00  0.00     0.074 A 
ATOM     13  C   UNL A   1      39.649  28.790  28.371  1.00  0.00     0.049 A 
ATOM     14  N   UNL A   1      42.628  29.119  28.464  1.00  0.00    -0.248 NA
ATOM     15  C   UNL A   1      42.836  27.006  27.484  1.00  0.00     0.031 C 
ATOM     16  C   UNL A   1      38.193  28.716  28.293  1.00  0.00     0.029 A 
ATOM     17  N   UNL A   1      39.886  30.013  28.949  1.00  0.00    -0.354 N 
ATOM     18  C   UNL A   1      43.966  28.864  28.194  1.00  0.00     0.074 A 
ATOM     19  C   UNL A   1      44.043  27.518  27.669  1.00  0.00     0.031 C 
ATOM     20  C   UNL A   1      37.662  29.806  28.871  1.00  0.00     0.029 A 
ATOM     21  C   UNL A   1      38.741  30.656  29.358  1.00  0.00     0.049 A 
ATOM     22  H   UNL A   1      40.787  30.392  29.061  1.00  0.00     0.167 HD
ATOM     23  C   UNL A   1      45.027  29.700  28.307  1.00  0.00     0.034 A 
ATOM     24  C   UNL A   1      38.576  31.794  30.059  1.00  0.00     0.034 A 
ATOM     25  C   UNL A   1      44.950  31.021  28.874  1.00  0.00     0.049 A 
ATOM     26  C   UNL A   1      39.783  32.622  30.391  1.00  0.00     0.074 A 
ATOM     27  C   UNL A   1      45.962  31.942  29.070  1.00  0.00     0.029 A 
ATOM     28  N   UNL A   1      43.783  31.605  29.353  1.00  0.00    -0.354 N 
ATOM     29  N   UNL A   1      41.045  32.369  30.137  1.00  0.00    -0.248 NA
ATOM     30  C   UNL A   1      39.543  33.908  31.057  1.00  0.00     0.031 C 
ATOM     31  C   UNL A   1      45.417  33.062  29.711  1.00  0.00     0.029 A 
ATOM     32  C   UNL A   1      44.053  32.865  29.861  1.00  0.00     0.049 A 
ATOM     33  H   UNL A   1      42.893  31.184  29.332  1.00  0.00     0.167 HD
ATOM     34  C   UNL A   1      41.747  33.497  30.545  1.00  0.00     0.074 A 
ATOM     35  C   UNL A   1      40.770  34.412  31.107  1.00  0.00     0.031 C 
ATOM     36  C   UNL A   1      43.071  33.765  30.421  1.00  0.00     0.034 A 
BRANCH  23  37
ATOM     37  C   UNL A   1      46.343  29.172  27.797  1.00  0.00     0.023 A 
ATOM     38  C   UNL A   1      46.532  28.937  26.421  1.00  0.00     0.031 A 
ATOM     39  C   UNL A   1      47.371  28.804  28.679  1.00  0.00     0.131 A 
ATOM     40  C   UNL A   1      47.676  28.260  25.979  1.00  0.00     0.055 A 
ATOM     41  C   UNL A   1      48.545  28.202  28.221  1.00  0.00     0.041 A 
ATOM     42  F   UNL A   1      47.234  28.986  30.002  1.00  0.00    -0.206 F 
ATOM     43  C   UNL A   1      48.694  27.909  26.866  1.00  0.00     0.022 A 
BRANCH  40  44
ATOM     44  S   UNL A   1      47.735  27.703  24.253  1.00  0.00     0.124 S 
ATOM     45  O   UNL A   1      49.155  27.858  23.943  1.00  0.00    -0.237 OA
ATOM     46  O   UNL A   1      47.249  26.331  24.346  1.00  0.00    -0.237 OA
ATOM     47  O   UNL A   1      46.846  28.635  23.563  1.00  0.00    -0.744 OA
ENDBRANCH  40  44
ENDBRANCH  23  37
BRANCH  24  48
ATOM     48  C   UNL A   1      37.212  32.201  30.480  1.00  0.00     0.023 A 
ATOM     49  C   UNL A   1      36.358  32.895  29.612  1.00  0.00     0.031 A 
ATOM     50  C   UNL A   1      36.729  31.849  31.753  1.00  0.00     0.131 A 
ATOM     51  C   UNL A   1      35.060  33.225  30.034  1.00  0.00     0.055 A 
ATOM     52  C   UNL A   1      35.434  32.173  32.164  1.00  0.00     0.041 A 
ATOM     53  F   UNL A   1      37.503  31.156  32.605  1.00  0.00    -0.206 F 
ATOM     54  C   UNL A   1      34.591  32.867  31.301  1.00  0.00     0.022 A 
BRANCH  51  55
ATOM     55  S   UNL A   1      33.970  34.111  28.884  1.00  0.00     0.124 S 
ATOM     56  O   UNL A   1      34.868  35.125  28.345  1.00  0.00    -0.237 OA
ATOM     57  O   UNL A   1      33.573  33.049  27.966  1.00  0.00    -0.237 OA
ATOM     58  O   UNL A   1      32.903  34.611  29.747  1.00  0.00    -0.744 OA
ENDBRANCH  51  55
ENDBRANCH  24  48
BRANCH  36  59
ATOM     59  C   UNL A   1      43.534  35.138  30.825  1.00  0.00     0.023 A 
ATOM     60  C   UNL A   1      43.517  36.222  29.933  1.00  0.00     0.031 A 
ATOM     61  C   UNL A   1      43.972  35.362  32.142  1.00  0.00     0.131 A 
ATOM     62  C   UNL A   1      43.961  37.480  30.365  1.00  0.00     0.055 A 
ATOM     63  C   UNL A   1      44.370  36.626  32.578  1.00  0.00     0.041 A 
ATOM     64  F   UNL A   1      44.009  34.355  33.030  1.00  0.00    -0.206 F 
ATOM     65  C   UNL A   1      44.370  37.693  31.685  1.00  0.00     0.022 A 
BRANCH  62  66
ATOM     66  S   UNL A   1      44.035  38.837  29.164  1.00  0.00     0.124 S 
ATOM     67  O   UNL A   1      43.239  39.866  29.826  1.00  0.00    -0.237 OA
ATOM     68  O   UNL A   1      45.467  39.101  29.072  1.00  0.00    -0.237 OA
ATOM     69  O   UNL A   1      43.433  38.264  27.961  1.00  0.00    -0.744 OA
ENDBRANCH  62  66
ENDBRANCH  36  59
ENDBRANCH  10  11
ENDBRANCH   3   5
ENDBRANCH   2   3
ENDBRANCH   1   2
BRANCH   1  70
ATOM     70  C   UNL A   1      40.704  19.479  26.187  1.00  0.00     0.275 C 
BRANCH  70  71
ATOM     71  O   UNL A   1      41.863  19.583  25.353  1.00  0.00    -0.458 OA
BRANCH  71  72
ATOM     72  C   UNL A   1      43.046  19.200  25.908  1.00  0.00     0.343 C 
ATOM     73  O   UNL A   1      43.249  18.268  26.655  1.00  0.00    -0.246 OA
BRANCH  72  74
ATOM     74  C   UNL A   1      44.095  20.070  25.359  1.00  0.00     0.119 A 
ATOM     75  C   UNL A   1      44.866  19.536  24.318  1.00  0.00     0.139 A 
ATOM     76  C   UNL A   1      44.390  21.329  25.921  1.00  0.00     0.058 A 
ATOM     77  F   UNL A   1      44.531  18.369  23.748  1.00  0.00    -0.206 F 
ATOM     78  C   UNL A   1      45.998  20.191  23.865  1.00  0.00     0.040 A 
ATOM     79  C   UNL A   1      45.638  21.835  25.593  1.00  0.00     0.027 A 
ATOM     80  C   UNL A   1      46.415  21.322  24.546  1.00  0.00     0.005 A 
BRANCH  76  81
ATOM     81  N   UNL A   1      43.459  21.949  26.790  1.00  0.00    -0.325 N 
ATOM     82  C   UNL A   1      43.416  22.757  27.879  1.00  0.00     0.227 C 
ATOM     83  H   UNL A   1      42.543  21.719  26.513  1.00  0.00     0.169 HD
ATOM     84  O   UNL A   1      42.253  23.010  28.250  1.00  0.00    -0.274 OA
BRANCH  82  85
ATOM     85  C   UNL A   1      44.523  23.502  28.646  1.00  0.00     0.079 C 
ATOM     86  C   UNL A   1      45.501  24.412  27.932  1.00  0.00     0.013 C 
ATOM     87  C   UNL A   1      43.923  24.217  29.872  1.00  0.00     0.013 C 
ATOM     88  C   UNL A   1      46.594  24.961  28.837  1.00  0.00     0.001 C 
ATOM     89  C   UNL A   1      44.991  24.871  30.760  1.00  0.00     0.001 C 
ATOM     90  C   UNL A   1      45.952  25.754  29.969  1.00  0.00     0.000 C 
ENDBRANCH  82  85
ENDBRANCH  76  81
ENDBRANCH  72  74
ENDBRANCH  71  72
ENDBRANCH  70  71
ENDBRANCH   1  70
TORSDOF 16
ENDMDL
MODEL 3
REMARK VINA RESULT:     -10.7      6.086     12.288
REMARK SMILES O=C(OCCOC(=O)c1c(F)cccc1NC(=O)C1CCCCC1)c1ccc(-c2c3nc(c(-c4cc(S(=O)(=O)[O-])ccc4F)c4ccc([nH]4)c(-c4cc(S(=O)(=O)[O-])ccc4F)c4nc(c(-c5cc(S(=O)(=O)[O-])ccc5F)c5ccc2[nH]5)C=C4)C=C3)cc1
REMARK SMILES IDX 4 1 3 2 2 3 1 4 25 5 26 6 87 7 27 8 86 9 28 10 29 11 30 12
REMARK SMILES IDX 80 13 31 14 85 15 79 16 81 17 32 18 84 19 78 20 77 21 33 23
REMARK SMILES IDX 65 24 45 25 64 26 46 27 49 28 63 29 82 30 47 31 48 32 62 34
REMARK SMILES IDX 83 35 50 36 34 37 35 38 43 39 36 40 42 41 44 42 41 43 37 44
REMARK SMILES IDX 38 45 39 46 40 47 66 48 67 49 75 50 68 51 74 52 76 53 73 54
REMARK SMILES IDX 69 55 70 56 71 57 72 58 51 59 52 60 60 61 53 62 59 63 61 64
REMARK SMILES IDX 58 65 54 66 55 67 56 68 57 69 5 70 6 71 7 72 8 73 9 74 10 75
REMARK SMILES IDX 15 76 11 77 12 78 14 79 13 80 16 81 17 82 18 84 19 85 20 86
REMARK SMILES IDX 24 87 21 88 23 89 22 90
REMARK H PARENT 81 22 49 33 16 83
REMARK Flexibility Score: inf
ROOT
ATOM      1  C   UNL A   1      37.216  21.926  25.610  1.00  0.00     0.275 C 
ENDROOT
BRANCH   1   2
ATOM      2  O   UNL A   1      38.562  21.430  25.684  1.00  0.00    -0.458 OA
BRANCH   2   3
ATOM      3  C   UNL A   1      39.582  21.774  26.503  1.00  0.00     0.338 C 
ATOM      4  O   UNL A   1      40.155  20.880  27.124  1.00  0.00    -0.246 OA
BRANCH   3   5
ATOM      5  C   UNL A   1      39.977  23.187  26.804  1.00  0.00     0.060 A 
ATOM      6  C   UNL A   1      39.695  24.312  26.028  1.00  0.00     0.016 A 
ATOM      7  C   UNL A   1      40.760  23.373  27.957  1.00  0.00     0.016 A 
ATOM      8  C   UNL A   1      40.108  25.591  26.427  1.00  0.00     0.010 A 
ATOM      9  C   UNL A   1      41.158  24.648  28.371  1.00  0.00     0.010 A 
ATOM     10  C   UNL A   1      40.828  25.773  27.609  1.00  0.00    -0.014 A 
BRANCH  10  11
ATOM     11  C   UNL A   1      41.320  27.115  28.008  1.00  0.00     0.031 A 
ATOM     12  C   UNL A   1      42.785  27.421  27.904  1.00  0.00     0.074 A 
ATOM     13  C   UNL A   1      40.472  28.055  28.464  1.00  0.00     0.049 A 
ATOM     14  N   UNL A   1      43.429  28.505  28.249  1.00  0.00    -0.248 NA
ATOM     15  C   UNL A   1      43.630  26.372  27.315  1.00  0.00     0.031 C 
ATOM     16  C   UNL A   1      39.020  27.920  28.534  1.00  0.00     0.029 A 
ATOM     17  N   UNL A   1      40.712  29.304  28.981  1.00  0.00    -0.354 N 
ATOM     18  C   UNL A   1      44.744  28.296  27.855  1.00  0.00     0.074 A 
ATOM     19  C   UNL A   1      44.826  26.937  27.364  1.00  0.00     0.031 C 
ATOM     20  C   UNL A   1      38.503  29.007  29.131  1.00  0.00     0.029 A 
ATOM     21  C   UNL A   1      39.587  29.915  29.482  1.00  0.00     0.049 A 
ATOM     22  H   UNL A   1      41.602  29.723  28.991  1.00  0.00     0.167 HD
ATOM     23  C   UNL A   1      45.774  29.177  27.838  1.00  0.00     0.034 A 
ATOM     24  C   UNL A   1      39.443  31.067  30.163  1.00  0.00     0.034 A 
ATOM     25  C   UNL A   1      45.696  30.512  28.371  1.00  0.00     0.049 A 
ATOM     26  C   UNL A   1      40.640  31.954  30.350  1.00  0.00     0.074 A 
ATOM     27  C   UNL A   1      46.682  31.478  28.438  1.00  0.00     0.029 A 
ATOM     28  N   UNL A   1      44.558  31.064  28.947  1.00  0.00    -0.354 N 
ATOM     29  N   UNL A   1      41.880  31.743  29.978  1.00  0.00    -0.248 NA
ATOM     30  C   UNL A   1      40.411  33.250  30.999  1.00  0.00     0.031 C 
ATOM     31  C   UNL A   1      46.155  32.596  29.098  1.00  0.00     0.029 A 
ATOM     32  C   UNL A   1      44.822  32.349  29.389  1.00  0.00     0.049 A 
ATOM     33  H   UNL A   1      43.689  30.607  29.028  1.00  0.00     0.167 HD
ATOM     34  C   UNL A   1      42.570  32.911  30.282  1.00  0.00     0.074 A 
ATOM     35  C   UNL A   1      41.615  33.804  30.912  1.00  0.00     0.031 C 
ATOM     36  C   UNL A   1      43.863  33.227  30.018  1.00  0.00     0.034 A 
BRANCH  23  37
ATOM     37  C   UNL A   1      47.054  28.685  27.214  1.00  0.00     0.023 A 
ATOM     38  C   UNL A   1      47.162  28.552  25.816  1.00  0.00     0.031 A 
ATOM     39  C   UNL A   1      48.130  28.252  28.005  1.00  0.00     0.131 A 
ATOM     40  C   UNL A   1      48.274  27.907  25.259  1.00  0.00     0.055 A 
ATOM     41  C   UNL A   1      49.272  27.683  27.436  1.00  0.00     0.041 A 
ATOM     42  F   UNL A   1      48.071  28.336  29.343  1.00  0.00    -0.206 F 
ATOM     43  C   UNL A   1      49.340  27.490  26.057  1.00  0.00     0.022 A 
BRANCH  40  44
ATOM     44  S   UNL A   1      48.229  27.478  23.496  1.00  0.00     0.124 S 
ATOM     45  O   UNL A   1      47.039  28.199  23.050  1.00  0.00    -0.237 OA
ATOM     46  O   UNL A   1      49.505  27.991  23.012  1.00  0.00    -0.237 OA
ATOM     47  O   UNL A   1      48.104  26.022  23.502  1.00  0.00    -0.744 OA
ENDBRANCH  40  44
ENDBRANCH  23  37
BRANCH  24  48
ATOM     48  C   UNL A   1      38.110  31.433  30.707  1.00  0.00     0.023 A 
ATOM     49  C   UNL A   1      37.186  32.158  29.942  1.00  0.00     0.031 A 
ATOM     50  C   UNL A   1      37.729  31.011  31.993  1.00  0.00     0.131 A 
ATOM     51  C   UNL A   1      35.920  32.448  30.478  1.00  0.00     0.055 A 
ATOM     52  C   UNL A   1      36.467  31.295  32.517  1.00  0.00     0.041 A 
ATOM     53  F   UNL A   1      38.573  30.287  32.747  1.00  0.00    -0.206 F 
ATOM     54  C   UNL A   1      35.553  32.019  31.756  1.00  0.00     0.022 A 
BRANCH  51  55
ATOM     55  S   UNL A   1      34.737  33.375  29.460  1.00  0.00     0.124 S 
ATOM     56  O   UNL A   1      33.862  33.952  30.473  1.00  0.00    -0.237 OA
ATOM     57  O   UNL A   1      35.611  34.308  28.756  1.00  0.00    -0.237 OA
ATOM     58  O   UNL A   1      34.132  32.344  28.621  1.00  0.00    -0.744 OA
ENDBRANCH  51  55
ENDBRANCH  24  48
BRANCH  36  59
ATOM     59  C   UNL A   1      44.303  34.630  30.334  1.00  0.00     0.023 A 
ATOM     60  C   UNL A   1      44.117  35.690  29.432  1.00  0.00     0.031 A 
ATOM     61  C   UNL A   1      44.895  34.907  31.579  1.00  0.00     0.131 A 
ATOM     62  C   UNL A   1      44.549  36.978  29.780  1.00  0.00     0.055 A 
ATOM     63  C   UNL A   1      45.280  36.199  31.937  1.00  0.00     0.041 A 
ATOM     64  F   UNL A   1      45.096  33.925  32.473  1.00  0.00    -0.206 F 
ATOM     65  C   UNL A   1      45.112  37.242  31.033  1.00  0.00     0.022 A 
BRANCH  62  66
ATOM     66  S   UNL A   1      44.399  38.308  28.556  1.00  0.00     0.124 S 
ATOM     67  O   UNL A   1      44.298  37.556  27.308  1.00  0.00    -0.237 OA
ATOM     68  O   UNL A   1      43.187  38.997  28.984  1.00  0.00    -0.237 OA
ATOM     69  O   UNL A   1      45.636  39.070  28.724  1.00  0.00    -0.744 OA
ENDBRANCH  62  66
ENDBRANCH  36  59
ENDBRANCH  10  11
ENDBRANCH   3   5
ENDBRANCH   2   3
ENDBRANCH   1   2
BRANCH   1  70
ATOM     70  C   UNL A   1      36.727  22.170  24.186  1.00  0.00     0.275 C 
BRANCH  70  71
ATOM     71  O   UNL A   1      35.323  21.943  24.017  1.00  0.00    -0.458 OA
BRANCH  71  72
ATOM     72  C   UNL A   1      34.576  23.017  23.638  1.00  0.00     0.343 C 
ATOM     73  O   UNL A   1      34.729  23.722  22.664  1.00  0.00    -0.246 OA
BRANCH  72  74
ATOM     74  C   UNL A   1      33.455  23.131  24.581  1.00  0.00     0.119 A 
ATOM     75  C   UNL A   1      33.549  24.149  25.539  1.00  0.00     0.139 A 
ATOM     76  C   UNL A   1      32.397  22.199  24.598  1.00  0.00     0.058 A 
ATOM     77  F   UNL A   1      34.522  25.068  25.468  1.00  0.00    -0.206 F 
ATOM     78  C   UNL A   1      32.650  24.219  26.589  1.00  0.00     0.040 A 
ATOM     79  C   UNL A   1      31.662  22.176  25.773  1.00  0.00     0.027 A 
ATOM     80  C   UNL A   1      31.733  23.192  26.734  1.00  0.00     0.005 A 
BRANCH  76  81
ATOM     81  N   UNL A   1      32.191  21.345  23.487  1.00  0.00    -0.325 N 
ATOM     82  C   UNL A   1      32.408  20.065  23.092  1.00  0.00     0.227 C 
ATOM     83  H   UNL A   1      31.744  21.843  22.765  1.00  0.00     0.169 HD
ATOM     84  O   UNL A   1      31.990  19.836  21.940  1.00  0.00    -0.274 OA
BRANCH  82  85
ATOM     85  C   UNL A   1      32.953  18.838  23.845  1.00  0.00     0.079 C 
ATOM     86  C   UNL A   1      32.274  18.316  25.094  1.00  0.00     0.013 C 
ATOM     87  C   UNL A   1      33.214  17.687  22.854  1.00  0.00     0.013 C 
ATOM     88  C   UNL A   1      33.028  17.175  25.764  1.00  0.00     0.001 C 
ATOM     89  C   UNL A   1      33.886  16.476  23.517  1.00  0.00     0.001 C 
ATOM     90  C   UNL A   1      33.160  16.020  24.779  1.00  0.00     0.000 C 
ENDBRANCH  82  85
ENDBRANCH  76  81
ENDBRANCH  72  74
ENDBRANCH  71  72
ENDBRANCH  70  71
ENDBRANCH   1  70
TORSDOF 16
ENDMDL
