MODEL 1
REMARK VINA RESULT:     -11.3      0.000      0.000
REMARK SMILES C[C@H]1[C@H](C(=O)OCCOC(=O)c2ccc(-c3c4nc(c(-c5cc(S(=O)(=O)[O-])ccc5F)c5ccc([nH]5)c(-c5cc(S(=O)(=O)[O-])ccc5F)c5nc(c(-c6cc(S(=O)(=O)[O-])ccc6F)c6ccc3[nH]6)C=C5)C=C4)cc2)CCN1S(=O)(=O)C(F)(F)F
REMARK SMILES IDX 8 1 7 2 6 3 4 4 5 5 3 6 1 7 2 8 77 9 75 10 76 11 78 12 79 13
REMARK SMILES IDX 80 14 81 15 82 16 83 17 84 18 9 19 10 20 11 21 12 22 13 23
REMARK SMILES IDX 74 24 14 25 73 26 15 27 16 28 17 29 67 30 18 31 72 32 66 33
REMARK SMILES IDX 68 34 19 35 71 36 65 37 64 38 20 40 52 41 32 42 51 43 33 44
REMARK SMILES IDX 36 45 50 46 69 47 34 48 35 49 49 51 70 52 37 53 21 54 22 55
REMARK SMILES IDX 30 56 23 57 29 58 31 59 28 60 24 61 25 62 26 63 27 64 53 65
REMARK SMILES IDX 54 66 62 67 55 68 61 69 63 70 60 71 56 72 57 73 58 74 59 75
REMARK SMILES IDX 38 76 39 77 47 78 40 79 46 80 48 81 45 82 41 83 42 84 43 85
REMARK SMILES IDX 44 86
REMARK H PARENT 68 39 36 50
REMARK Flexibility Score: inf
ROOT
ATOM      1  C   UNL A   1      36.576  20.394  25.007  1.00  0.00     0.275 C 
ENDROOT
BRANCH   1   2
ATOM      2  C   UNL A   1      35.105  20.811  24.909  1.00  0.00     0.274 C 
BRANCH   2   3
ATOM      3  O   UNL A   1      34.862  22.038  25.623  1.00  0.00    -0.462 OA
BRANCH   3   4
ATOM      4  C   UNL A   1      33.786  22.068  26.447  1.00  0.00     0.310 C 
ATOM      5  O   UNL A   1      33.662  21.377  27.453  1.00  0.00    -0.252 OA
BRANCH   4   6
ATOM      6  C   UNL A   1      32.702  23.025  25.995  1.00  0.00     0.118 C 
ATOM      7  C   UNL A   1      32.887  25.562  26.017  1.00  0.00     0.027 C 
ATOM      8  C   UNL A   1      33.185  24.277  25.239  1.00  0.00     0.084 C 
ATOM      9  N   UNL A   1      32.372  24.327  23.971  1.00  0.00    -0.190 NA
ATOM     10  C   UNL A   1      31.735  22.317  25.059  1.00  0.00     0.034 C 
ATOM     11  C   UNL A   1      31.205  23.433  24.184  1.00  0.00     0.104 C 
BRANCH   9  12
ATOM     12  S   UNL A   1      33.240  24.039  22.512  1.00  0.00     0.314 S 
ATOM     13  O   UNL A   1      34.649  24.141  22.855  1.00  0.00    -0.203 OA
ATOM     14  O   UNL A   1      32.738  22.774  21.997  1.00  0.00    -0.203 OA
BRANCH  12  15
ATOM     15  C   UNL A   1      32.738  25.428  21.363  1.00  0.00     0.511 C 
ATOM     16  F   UNL A   1      33.504  26.542  21.535  1.00  0.00    -0.155 F 
ATOM     17  F   UNL A   1      32.837  25.078  20.050  1.00  0.00    -0.155 F 
ATOM     18  F   UNL A   1      31.442  25.804  21.566  1.00  0.00    -0.155 F 
ENDBRANCH  12  15
ENDBRANCH   9  12
ENDBRANCH   4   6
ENDBRANCH   3   4
ENDBRANCH   2   3
ENDBRANCH   1   2
BRANCH   1  19
ATOM     19  O   UNL A   1      37.413  21.485  25.429  1.00  0.00    -0.458 OA
BRANCH  19  20
ATOM     20  C   UNL A   1      38.640  21.124  25.873  1.00  0.00     0.338 C 
ATOM     21  O   UNL A   1      39.187  20.046  25.723  1.00  0.00    -0.246 OA
BRANCH  20  22
ATOM     22  C   UNL A   1      39.313  22.288  26.463  1.00  0.00     0.060 A 
ATOM     23  C   UNL A   1      38.888  23.565  26.083  1.00  0.00     0.016 A 
ATOM     24  C   UNL A   1      40.405  22.127  27.315  1.00  0.00     0.016 A 
ATOM     25  C   UNL A   1      39.560  24.693  26.542  1.00  0.00     0.010 A 
ATOM     26  C   UNL A   1      41.070  23.261  27.786  1.00  0.00     0.010 A 
ATOM     27  C   UNL A   1      40.658  24.548  27.394  1.00  0.00    -0.014 A 
BRANCH  27  28
ATOM     28  C   UNL A   1      41.417  25.737  27.850  1.00  0.00     0.031 A 
ATOM     29  C   UNL A   1      40.706  26.806  28.627  1.00  0.00     0.074 A 
ATOM     30  C   UNL A   1      42.721  25.863  27.543  1.00  0.00     0.049 A 
ATOM     31  N   UNL A   1      41.104  28.013  28.930  1.00  0.00    -0.248 NA
ATOM     32  C   UNL A   1      39.363  26.467  29.119  1.00  0.00     0.031 C 
ATOM     33  C   UNL A   1      43.528  24.850  26.861  1.00  0.00     0.029 A 
ATOM     34  N   UNL A   1      43.589  26.904  27.746  1.00  0.00    -0.354 N 
ATOM     35  C   UNL A   1      40.048  28.595  29.623  1.00  0.00     0.074 A 
ATOM     36  C   UNL A   1      38.990  27.606  29.683  1.00  0.00     0.031 C 
ATOM     37  C   UNL A   1      44.769  25.331  26.682  1.00  0.00     0.029 A 
ATOM     38  C   UNL A   1      44.823  26.706  27.171  1.00  0.00     0.049 A 
ATOM     39  H   UNL A   1      43.353  27.714  28.252  1.00  0.00     0.167 HD
ATOM     40  C   UNL A   1      39.974  29.842  30.148  1.00  0.00     0.034 A 
ATOM     41  C   UNL A   1      45.855  27.555  27.005  1.00  0.00     0.034 A 
ATOM     42  C   UNL A   1      41.047  30.803  30.072  1.00  0.00     0.049 A 
ATOM     43  C   UNL A   1      45.719  28.968  27.515  1.00  0.00     0.074 A 
ATOM     44  C   UNL A   1      41.085  32.097  30.561  1.00  0.00     0.029 A 
ATOM     45  N   UNL A   1      42.274  30.574  29.461  1.00  0.00    -0.354 N 
ATOM     46  N   UNL A   1      44.699  29.530  28.122  1.00  0.00    -0.248 NA
ATOM     47  C   UNL A   1      46.865  29.862  27.311  1.00  0.00     0.031 C 
ATOM     48  C   UNL A   1      42.310  32.668  30.194  1.00  0.00     0.029 A 
ATOM     49  C   UNL A   1      43.065  31.708  29.539  1.00  0.00     0.049 A 
ATOM     50  H   UNL A   1      42.543  29.728  29.035  1.00  0.00     0.167 HD
ATOM     51  C   UNL A   1      45.095  30.834  28.401  1.00  0.00     0.074 A 
ATOM     52  C   UNL A   1      46.445  30.976  27.895  1.00  0.00     0.031 C 
ATOM     53  C   UNL A   1      44.410  31.823  29.030  1.00  0.00     0.034 A 
BRANCH  40  54
ATOM     54  C   UNL A   1      38.668  30.249  30.782  1.00  0.00     0.023 A 
ATOM     55  C   UNL A   1      37.651  30.888  30.051  1.00  0.00     0.031 A 
ATOM     56  C   UNL A   1      38.453  30.030  32.155  1.00  0.00     0.131 A 
ATOM     57  C   UNL A   1      36.499  31.345  30.709  1.00  0.00     0.055 A 
ATOM     58  C   UNL A   1      37.272  30.420  32.788  1.00  0.00     0.041 A 
ATOM     59  F   UNL A   1      39.398  29.447  32.909  1.00  0.00    -0.206 F 
ATOM     60  C   UNL A   1      36.292  31.095  32.068  1.00  0.00     0.022 A 
BRANCH  57  61
ATOM     61  S   UNL A   1      35.339  32.398  29.795  1.00  0.00     0.124 S 
ATOM     62  O   UNL A   1      34.364  32.733  30.831  1.00  0.00    -0.237 OA
ATOM     63  O   UNL A   1      36.194  33.492  29.346  1.00  0.00    -0.237 OA
ATOM     64  O   UNL A   1      34.839  31.522  28.738  1.00  0.00    -0.744 OA
ENDBRANCH  57  61
ENDBRANCH  40  54
BRANCH  41  65
ATOM     65  C   UNL A   1      47.073  27.122  26.264  1.00  0.00     0.023 A 
ATOM     66  C   UNL A   1      48.119  26.453  26.915  1.00  0.00     0.031 A 
ATOM     67  C   UNL A   1      47.219  27.400  24.892  1.00  0.00     0.131 A 
ATOM     68  C   UNL A   1      49.281  26.111  26.203  1.00  0.00     0.055 A 
ATOM     69  C   UNL A   1      48.354  27.015  24.177  1.00  0.00     0.041 A 
ATOM     70  F   UNL A   1      46.248  28.040  24.221  1.00  0.00    -0.206 F 
ATOM     71  C   UNL A   1      49.399  26.376  24.836  1.00  0.00     0.022 A 
BRANCH  68  72
ATOM     72  S   UNL A   1      50.672  25.382  27.109  1.00  0.00     0.124 S 
ATOM     73  O   UNL A   1      51.516  24.900  26.020  1.00  0.00    -0.237 OA
ATOM     74  O   UNL A   1      51.180  26.528  27.856  1.00  0.00    -0.237 OA
ATOM     75  O   UNL A   1      50.043  24.342  27.918  1.00  0.00    -0.744 OA
ENDBRANCH  68  72
ENDBRANCH  41  65
BRANCH  53  76
ATOM     76  C   UNL A   1      45.139  33.120  29.265  1.00  0.00     0.023 A 
ATOM     77  C   UNL A   1      45.163  34.144  28.304  1.00  0.00     0.031 A 
ATOM     78  C   UNL A   1      45.801  33.335  30.487  1.00  0.00     0.131 A 
ATOM     79  C   UNL A   1      45.864  35.330  28.570  1.00  0.00     0.055 A 
ATOM     80  C   UNL A   1      46.459  34.533  30.764  1.00  0.00     0.041 A 
ATOM     81  F   UNL A   1      45.806  32.385  31.436  1.00  0.00    -0.206 F 
ATOM     82  C   UNL A   1      46.498  35.537  29.800  1.00  0.00     0.022 A 
BRANCH  79  83
ATOM     83  S   UNL A   1      45.976  36.591  27.272  1.00  0.00     0.124 S 
ATOM     84  O   UNL A   1      44.760  37.366  27.497  1.00  0.00    -0.237 OA
ATOM     85  O   UNL A   1      47.230  37.264  27.594  1.00  0.00    -0.237 OA
ATOM     86  O   UNL A   1      45.995  35.811  26.036  1.00  0.00    -0.744 OA
ENDBRANCH  79  83
ENDBRANCH  53  76
ENDBRANCH  27  28
ENDBRANCH  20  22
ENDBRANCH  19  20
ENDBRANCH   1  19
TORSDOF 16
ENDMDL
MODEL 2
REMARK VINA RESULT:     -11.2      5.318     10.159
REMARK SMILES C[C@H]1[C@H](C(=O)OCCOC(=O)c2ccc(-c3c4nc(c(-c5cc(S(=O)(=O)[O-])ccc5F)c5ccc([nH]5)c(-c5cc(S(=O)(=O)[O-])ccc5F)c5nc(c(-c6cc(S(=O)(=O)[O-])ccc6F)c6ccc3[nH]6)C=C5)C=C4)cc2)CCN1S(=O)(=O)C(F)(F)F
REMARK SMILES IDX 8 1 7 2 6 3 4 4 5 5 3 6 1 7 2 8 77 9 75 10 76 11 78 12 79 13
REMARK SMILES IDX 80 14 81 15 82 16 83 17 84 18 9 19 10 20 11 21 12 22 13 23
REMARK SMILES IDX 74 24 14 25 73 26 15 27 16 28 17 29 67 30 18 31 72 32 66 33
REMARK SMILES IDX 68 34 19 35 71 36 65 37 64 38 20 40 52 41 32 42 51 43 33 44
REMARK SMILES IDX 36 45 50 46 69 47 34 48 35 49 49 51 70 52 37 53 21 54 22 55
REMARK SMILES IDX 30 56 23 57 29 58 31 59 28 60 24 61 25 62 26 63 27 64 53 65
REMARK SMILES IDX 54 66 62 67 55 68 61 69 63 70 60 71 56 72 57 73 58 74 59 75
REMARK SMILES IDX 38 76 39 77 47 78 40 79 46 80 48 81 45 82 41 83 42 84 43 85
REMARK SMILES IDX 44 86
REMARK H PARENT 68 39 36 50
REMARK Flexibility Score: inf
ROOT
ATOM      1  C   UNL A   1      31.757  30.347  26.807  1.00  0.00     0.275 C 
ENDROOT
BRANCH   1   2
ATOM      2  C   UNL A   1      31.764  28.863  27.185  1.00  0.00     0.274 C 
BRANCH   2   3
ATOM      3  O   UNL A   1      31.948  28.030  26.023  1.00  0.00    -0.462 OA
BRANCH   3   4
ATOM      4  C   UNL A   1      31.235  26.879  25.973  1.00  0.00     0.310 C 
ATOM      5  O   UNL A   1      31.011  26.157  26.938  1.00  0.00    -0.252 OA
BRANCH   4   6
ATOM      6  C   UNL A   1      30.748  26.527  24.582  1.00  0.00     0.118 C 
ATOM      7  C   UNL A   1      28.324  26.100  23.943  1.00  0.00     0.027 C 
ATOM      8  C   UNL A   1      29.409  27.158  24.159  1.00  0.00     0.084 C 
ATOM      9  N   UNL A   1      29.666  27.810  22.825  1.00  0.00    -0.190 NA
ATOM     10  C   UNL A   1      31.766  26.972  23.543  1.00  0.00     0.034 C 
ATOM     11  C   UNL A   1      30.929  27.223  22.308  1.00  0.00     0.104 C 
BRANCH   9  12
ATOM     12  S   UNL A   1      29.615  29.530  22.808  1.00  0.00     0.314 S 
ATOM     13  O   UNL A   1      30.230  29.964  24.052  1.00  0.00    -0.203 OA
ATOM     14  O   UNL A   1      30.229  29.932  21.550  1.00  0.00    -0.203 OA
BRANCH  12  15
ATOM     15  C   UNL A   1      27.796  29.966  22.785  1.00  0.00     0.511 C 
ATOM     16  F   UNL A   1      27.000  28.860  22.814  1.00  0.00    -0.155 F 
ATOM     17  F   UNL A   1      27.433  30.742  23.844  1.00  0.00    -0.155 F 
ATOM     18  F   UNL A   1      27.461  30.664  21.661  1.00  0.00    -0.155 F 
ENDBRANCH  12  15
ENDBRANCH   9  12
ENDBRANCH   4   6
ENDBRANCH   3   4
ENDBRANCH   2   3
ENDBRANCH   1   2
BRANCH   1  19
ATOM     19  O   UNL A   1      33.076  30.824  26.486  1.00  0.00    -0.458 OA
BRANCH  19  20
ATOM     20  C   UNL A   1      33.497  31.878  27.224  1.00  0.00     0.338 C 
ATOM     21  O   UNL A   1      32.874  32.894  27.476  1.00  0.00    -0.246 OA
BRANCH  20  22
ATOM     22  C   UNL A   1      34.802  31.570  27.823  1.00  0.00     0.060 A 
ATOM     23  C   UNL A   1      35.009  30.289  28.343  1.00  0.00     0.016 A 
ATOM     24  C   UNL A   1      35.781  32.554  27.948  1.00  0.00     0.016 A 
ATOM     25  C   UNL A   1      36.193  29.984  29.007  1.00  0.00     0.010 A 
ATOM     26  C   UNL A   1      36.976  32.243  28.601  1.00  0.00     0.010 A 
ATOM     27  C   UNL A   1      37.184  30.961  29.142  1.00  0.00    -0.014 A 
BRANCH  27  28
ATOM     28  C   UNL A   1      38.429  30.668  29.891  1.00  0.00     0.031 A 
ATOM     29  C   UNL A   1      39.424  29.706  29.311  1.00  0.00     0.074 A 
ATOM     30  C   UNL A   1      38.646  31.241  31.088  1.00  0.00     0.049 A 
ATOM     31  N   UNL A   1      40.455  29.139  29.877  1.00  0.00    -0.248 NA
ATOM     32  C   UNL A   1      39.218  29.328  27.905  1.00  0.00     0.031 C 
ATOM     33  C   UNL A   1      37.785  32.248  31.710  1.00  0.00     0.029 A 
ATOM     34  N   UNL A   1      39.645  31.041  32.006  1.00  0.00    -0.354 N 
ATOM     35  C   UNL A   1      41.008  28.309  28.907  1.00  0.00     0.074 A 
ATOM     36  C   UNL A   1      40.187  28.443  27.722  1.00  0.00     0.031 C 
ATOM     37  C   UNL A   1      38.283  32.562  32.917  1.00  0.00     0.029 A 
ATOM     38  C   UNL A   1      39.452  31.727  33.182  1.00  0.00     0.049 A 
ATOM     39  H   UNL A   1      40.424  30.462  31.840  1.00  0.00     0.167 HD
ATOM     40  C   UNL A   1      42.096  27.507  29.010  1.00  0.00     0.034 A 
ATOM     41  C   UNL A   1      40.106  31.648  34.357  1.00  0.00     0.034 A 
ATOM     42  C   UNL A   1      42.895  27.397  30.206  1.00  0.00     0.049 A 
ATOM     43  C   UNL A   1      41.258  30.681  34.480  1.00  0.00     0.074 A 
ATOM     44  C   UNL A   1      44.014  26.614  30.430  1.00  0.00     0.029 A 
ATOM     45  N   UNL A   1      42.654  28.092  31.386  1.00  0.00    -0.354 N 
ATOM     46  N   UNL A   1      41.743  29.859  33.578  1.00  0.00    -0.248 NA
ATOM     47  C   UNL A   1      41.941  30.623  35.778  1.00  0.00     0.031 C 
ATOM     48  C   UNL A   1      44.413  26.790  31.761  1.00  0.00     0.029 A 
ATOM     49  C   UNL A   1      43.587  27.737  32.346  1.00  0.00     0.049 A 
ATOM     50  H   UNL A   1      41.927  28.741  31.519  1.00  0.00     0.167 HD
ATOM     51  C   UNL A   1      42.812  29.212  34.191  1.00  0.00     0.074 A 
ATOM     52  C   UNL A   1      42.897  29.736  35.539  1.00  0.00     0.031 C 
ATOM     53  C   UNL A   1      43.654  28.277  33.683  1.00  0.00     0.034 A 
BRANCH  40  54
ATOM     54  C   UNL A   1      42.432  26.642  27.821  1.00  0.00     0.023 A 
ATOM     55  C   UNL A   1      41.925  25.339  27.681  1.00  0.00     0.031 A 
ATOM     56  C   UNL A   1      43.310  27.117  26.830  1.00  0.00     0.131 A 
ATOM     57  C   UNL A   1      42.352  24.533  26.614  1.00  0.00     0.055 A 
ATOM     58  C   UNL A   1      43.672  26.337  25.730  1.00  0.00     0.041 A 
ATOM     59  F   UNL A   1      43.845  28.344  26.923  1.00  0.00    -0.206 F 
ATOM     60  C   UNL A   1      43.204  25.031  25.625  1.00  0.00     0.022 A 
BRANCH  57  61
ATOM     61  S   UNL A   1      41.894  22.778  26.614  1.00  0.00     0.124 S 
ATOM     62  O   UNL A   1      40.458  22.848  26.881  1.00  0.00    -0.237 OA
ATOM     63  O   UNL A   1      42.274  22.353  25.272  1.00  0.00    -0.237 OA
ATOM     64  O   UNL A   1      42.695  22.214  27.698  1.00  0.00    -0.744 OA
ENDBRANCH  57  61
ENDBRANCH  40  54
BRANCH  41  65
ATOM     65  C   UNL A   1      39.648  32.447  35.528  1.00  0.00     0.023 A 
ATOM     66  C   UNL A   1      40.022  33.789  35.683  1.00  0.00     0.031 A 
ATOM     67  C   UNL A   1      38.847  31.864  36.528  1.00  0.00     0.131 A 
ATOM     68  C   UNL A   1      39.624  34.497  36.829  1.00  0.00     0.055 A 
ATOM     69  C   UNL A   1      38.412  32.587  37.640  1.00  0.00     0.041 A 
ATOM     70  F   UNL A   1      38.461  30.582  36.430  1.00  0.00    -0.206 F 
ATOM     71  C   UNL A   1      38.811  33.909  37.800  1.00  0.00     0.022 A 
BRANCH  68  72
ATOM     72  S   UNL A   1      40.250  36.182  37.069  1.00  0.00     0.124 S 
ATOM     73  O   UNL A   1      41.660  35.938  37.355  1.00  0.00    -0.237 OA
ATOM     74  O   UNL A   1      39.955  36.801  35.780  1.00  0.00    -0.237 OA
ATOM     75  O   UNL A   1      39.462  36.681  38.192  1.00  0.00    -0.744 OA
ENDBRANCH  68  72
ENDBRANCH  41  65
BRANCH  53  76
ATOM     76  C   UNL A   1      44.782  27.816  34.569  1.00  0.00     0.023 A 
ATOM     77  C   UNL A   1      44.623  26.764  35.487  1.00  0.00     0.031 A 
ATOM     78  C   UNL A   1      46.042  28.430  34.469  1.00  0.00     0.131 A 
ATOM     79  C   UNL A   1      45.703  26.379  36.295  1.00  0.00     0.055 A 
ATOM     80  C   UNL A   1      47.125  28.014  35.242  1.00  0.00     0.041 A 
ATOM     81  F   UNL A   1      46.242  29.439  33.605  1.00  0.00    -0.206 F 
ATOM     82  C   UNL A   1      46.957  26.987  36.166  1.00  0.00     0.022 A 
BRANCH  79  83
ATOM     83  S   UNL A   1      45.444  25.098  37.551  1.00  0.00     0.124 S 
ATOM     84  O   UNL A   1      45.262  25.893  38.762  1.00  0.00    -0.237 OA
ATOM     85  O   UNL A   1      44.258  24.408  37.057  1.00  0.00    -0.237 OA
ATOM     86  O   UNL A   1      46.678  24.315  37.503  1.00  0.00    -0.744 OA
ENDBRANCH  79  83
ENDBRANCH  53  76
ENDBRANCH  27  28
ENDBRANCH  20  22
ENDBRANCH  19  20
ENDBRANCH   1  19
TORSDOF 16
ENDMDL
MODEL 3
REMARK VINA RESULT:     -11.2      1.323      1.916
REMARK SMILES C[C@H]1[C@H](C(=O)OCCOC(=O)c2ccc(-c3c4nc(c(-c5cc(S(=O)(=O)[O-])ccc5F)c5ccc([nH]5)c(-c5cc(S(=O)(=O)[O-])ccc5F)c5nc(c(-c6cc(S(=O)(=O)[O-])ccc6F)c6ccc3[nH]6)C=C5)C=C4)cc2)CCN1S(=O)(=O)C(F)(F)F
REMARK SMILES IDX 8 1 7 2 6 3 4 4 5 5 3 6 1 7 2 8 77 9 75 10 76 11 78 12 79 13
REMARK SMILES IDX 80 14 81 15 82 16 83 17 84 18 9 19 10 20 11 21 12 22 13 23
REMARK SMILES IDX 74 24 14 25 73 26 15 27 16 28 17 29 67 30 18 31 72 32 66 33
REMARK SMILES IDX 68 34 19 35 71 36 65 37 64 38 20 40 52 41 32 42 51 43 33 44
REMARK SMILES IDX 36 45 50 46 69 47 34 48 35 49 49 51 70 52 37 53 21 54 22 55
REMARK SMILES IDX 30 56 23 57 29 58 31 59 28 60 24 61 25 62 26 63 27 64 53 65
REMARK SMILES IDX 54 66 62 67 55 68 61 69 63 70 60 71 56 72 57 73 58 74 59 75
REMARK SMILES IDX 38 76 39 77 47 78 40 79 46 80 48 81 45 82 41 83 42 84 43 85
REMARK SMILES IDX 44 86
REMARK H PARENT 68 39 36 50
REMARK Flexibility Score: inf
ROOT
ATOM      1  C   UNL A   1      36.287  20.732  25.264  1.00  0.00     0.275 C 
ENDROOT
BRANCH   1   2
ATOM      2  C   UNL A   1      35.018  21.291  24.613  1.00  0.00     0.274 C 
BRANCH   2   3
ATOM      3  O   UNL A   1      35.259  22.587  24.029  1.00  0.00    -0.462 OA
BRANCH   3   4
ATOM      4  C   UNL A   1      34.176  23.274  23.592  1.00  0.00     0.310 C 
ATOM      5  O   UNL A   1      33.258  22.785  22.943  1.00  0.00    -0.252 OA
BRANCH   4   6
ATOM      6  C   UNL A   1      34.207  24.746  23.949  1.00  0.00     0.118 C 
ATOM      7  C   UNL A   1      33.255  26.621  22.518  1.00  0.00     0.027 C 
ATOM      8  C   UNL A   1      32.951  25.555  23.574  1.00  0.00     0.084 C 
ATOM      9  N   UNL A   1      32.541  26.279  24.830  1.00  0.00    -0.190 NA
ATOM     10  C   UNL A   1      34.382  24.917  25.450  1.00  0.00     0.034 C 
ATOM     11  C   UNL A   1      33.716  26.245  25.738  1.00  0.00     0.104 C 
BRANCH   9  12
ATOM     12  S   UNL A   1      31.065  25.757  25.548  1.00  0.00     0.314 S 
ATOM     13  O   UNL A   1      31.205  24.326  25.763  1.00  0.00    -0.203 OA
ATOM     14  O   UNL A   1      30.861  26.619  26.703  1.00  0.00    -0.203 OA
BRANCH  12  15
ATOM     15  C   UNL A   1      29.748  26.105  24.266  1.00  0.00     0.511 C 
ATOM     16  F   UNL A   1      28.499  26.156  24.809  1.00  0.00    -0.155 F 
ATOM     17  F   UNL A   1      29.948  27.289  23.622  1.00  0.00    -0.155 F 
ATOM     18  F   UNL A   1      29.720  25.140  23.301  1.00  0.00    -0.155 F 
ENDBRANCH  12  15
ENDBRANCH   9  12
ENDBRANCH   4   6
ENDBRANCH   3   4
ENDBRANCH   2   3
ENDBRANCH   1   2
BRANCH   1  19
ATOM     19  O   UNL A   1      37.389  21.652  25.163  1.00  0.00    -0.458 OA
BRANCH  19  20
ATOM     20  C   UNL A   1      38.539  21.231  25.740  1.00  0.00     0.338 C 
ATOM     21  O   UNL A   1      39.025  20.115  25.681  1.00  0.00    -0.246 OA
BRANCH  20  22
ATOM     22  C   UNL A   1      39.226  22.371  26.359  1.00  0.00     0.060 A 
ATOM     23  C   UNL A   1      38.841  23.662  25.985  1.00  0.00     0.016 A 
ATOM     24  C   UNL A   1      40.294  22.174  27.233  1.00  0.00     0.016 A 
ATOM     25  C   UNL A   1      39.529  24.769  26.472  1.00  0.00     0.010 A 
ATOM     26  C   UNL A   1      40.976  23.285  27.733  1.00  0.00     0.010 A 
ATOM     27  C   UNL A   1      40.604  24.587  27.347  1.00  0.00    -0.014 A 
BRANCH  27  28
ATOM     28  C   UNL A   1      41.381  25.752  27.833  1.00  0.00     0.031 A 
ATOM     29  C   UNL A   1      40.685  26.814  28.632  1.00  0.00     0.074 A 
ATOM     30  C   UNL A   1      42.688  25.862  27.536  1.00  0.00     0.049 A 
ATOM     31  N   UNL A   1      41.102  28.007  28.965  1.00  0.00    -0.248 NA
ATOM     32  C   UNL A   1      39.334  26.487  29.111  1.00  0.00     0.031 C 
ATOM     33  C   UNL A   1      43.482  24.852  26.833  1.00  0.00     0.029 A 
ATOM     34  N   UNL A   1      43.573  26.883  27.766  1.00  0.00    -0.354 N 
ATOM     35  C   UNL A   1      40.053  28.590  29.667  1.00  0.00     0.074 A 
ATOM     36  C   UNL A   1      38.978  27.619  29.700  1.00  0.00     0.031 C 
ATOM     37  C   UNL A   1      44.732  25.315  26.671  1.00  0.00     0.029 A 
ATOM     38  C   UNL A   1      44.806  26.677  27.192  1.00  0.00     0.049 A 
ATOM     39  H   UNL A   1      43.349  27.685  28.291  1.00  0.00     0.167 HD
ATOM     40  C   UNL A   1      39.998  29.826  30.221  1.00  0.00     0.034 A 
ATOM     41  C   UNL A   1      45.854  27.512  27.051  1.00  0.00     0.034 A 
ATOM     42  C   UNL A   1      41.088  30.771  30.172  1.00  0.00     0.049 A 
ATOM     43  C   UNL A   1      45.740  28.915  27.593  1.00  0.00     0.074 A 
ATOM     44  C   UNL A   1      41.146  32.052  30.691  1.00  0.00     0.029 A 
ATOM     45  N   UNL A   1      42.314  30.534  29.561  1.00  0.00    -0.354 N 
ATOM     46  N   UNL A   1      44.726  29.480  28.208  1.00  0.00    -0.248 NA
ATOM     47  C   UNL A   1      46.902  29.794  27.415  1.00  0.00     0.031 C 
ATOM     48  C   UNL A   1      42.382  32.610  30.343  1.00  0.00     0.029 A 
ATOM     49  C   UNL A   1      43.123  31.653  29.669  1.00  0.00     0.049 A 
ATOM     50  H   UNL A   1      42.570  29.694  29.117  1.00  0.00     0.167 HD
ATOM     51  C   UNL A   1      45.144  30.771  28.519  1.00  0.00     0.074 A 
ATOM     52  C   UNL A   1      46.498  30.900  28.023  1.00  0.00     0.031 C 
ATOM     53  C   UNL A   1      44.473  31.756  29.168  1.00  0.00     0.034 A 
BRANCH  40  54
ATOM     54  C   UNL A   1      38.696  30.241  30.859  1.00  0.00     0.023 A 
ATOM     55  C   UNL A   1      37.671  30.862  30.125  1.00  0.00     0.031 A 
ATOM     56  C   UNL A   1      38.494  30.047  32.237  1.00  0.00     0.131 A 
ATOM     57  C   UNL A   1      36.522  31.328  30.784  1.00  0.00     0.055 A 
ATOM     58  C   UNL A   1      37.317  30.445  32.873  1.00  0.00     0.041 A 
ATOM     59  F   UNL A   1      39.447  29.482  32.994  1.00  0.00    -0.206 F 
ATOM     60  C   UNL A   1      36.328  31.103  32.149  1.00  0.00     0.022 A 
BRANCH  57  61
ATOM     61  S   UNL A   1      35.351  32.360  29.860  1.00  0.00     0.124 S 
ATOM     62  O   UNL A   1      36.200  33.479  29.454  1.00  0.00    -0.237 OA
ATOM     63  O   UNL A   1      34.918  31.467  28.792  1.00  0.00    -0.237 OA
ATOM     64  O   UNL A   1      34.330  32.691  30.851  1.00  0.00    -0.744 OA
ENDBRANCH  57  61
ENDBRANCH  40  54
BRANCH  41  65
ATOM     65  C   UNL A   1      47.068  27.075  26.305  1.00  0.00     0.023 A 
ATOM     66  C   UNL A   1      48.121  26.416  26.955  1.00  0.00     0.031 A 
ATOM     67  C   UNL A   1      47.202  27.339  24.930  1.00  0.00     0.131 A 
ATOM     68  C   UNL A   1      49.278  26.072  26.238  1.00  0.00     0.055 A 
ATOM     69  C   UNL A   1      48.333  26.950  24.210  1.00  0.00     0.041 A 
ATOM     70  F   UNL A   1      46.224  27.968  24.259  1.00  0.00    -0.206 F 
ATOM     71  C   UNL A   1      49.385  26.322  24.868  1.00  0.00     0.022 A 
BRANCH  68  72
ATOM     72  S   UNL A   1      50.679  25.356  27.141  1.00  0.00     0.124 S 
ATOM     73  O   UNL A   1      51.140  26.496  27.926  1.00  0.00    -0.237 OA
ATOM     74  O   UNL A   1      50.038  24.279  27.888  1.00  0.00    -0.237 OA
ATOM     75  O   UNL A   1      51.583  24.923  26.078  1.00  0.00    -0.744 OA
ENDBRANCH  68  72
ENDBRANCH  41  65
BRANCH  53  76
ATOM     76  C   UNL A   1      45.223  33.034  29.437  1.00  0.00     0.023 A 
ATOM     77  C   UNL A   1      45.175  34.124  28.551  1.00  0.00     0.031 A 
ATOM     78  C   UNL A   1      45.979  33.164  30.615  1.00  0.00     0.131 A 
ATOM     79  C   UNL A   1      45.900  35.289  28.845  1.00  0.00     0.055 A 
ATOM     80  C   UNL A   1      46.660  34.341  30.924  1.00  0.00     0.041 A 
ATOM     81  F   UNL A   1      46.054  32.149  31.492  1.00  0.00    -0.206 F 
ATOM     82  C   UNL A   1      46.628  35.410  30.033  1.00  0.00     0.022 A 
BRANCH  79  83
ATOM     83  S   UNL A   1      45.915  36.639  27.634  1.00  0.00     0.124 S 
ATOM     84  O   UNL A   1      44.789  36.288  26.775  1.00  0.00    -0.237 OA
ATOM     85  O   UNL A   1      45.733  37.818  28.474  1.00  0.00    -0.237 OA
ATOM     86  O   UNL A   1      47.231  36.525  27.009  1.00  0.00    -0.744 OA
ENDBRANCH  79  83
ENDBRANCH  53  76
ENDBRANCH  27  28
ENDBRANCH  20  22
ENDBRANCH  19  20
ENDBRANCH   1  19
TORSDOF 16
ENDMDL
