MODEL 1
REMARK VINA RESULT:     -11.6      0.000      0.000
REMARK SMILES Cc1nc2n(n1)[C@@H](c1ccc([N+](=O)[O-])o1)CC(C(=O)OCCOC(=O)c1ccc(-c3c4nc(c(-c5cc(S(=O)(=O)[O-])ccc5F)c5ccc([nH]5)c(-c5cc(S(=O)(=O)[O-])ccc5F)c5nc(c(-c6cc(S(=O)(=O)[O-])ccc6F)c6ccc3[nH]6)C=C5)C=C4)cc1)=N2
REMARK SMILES IDX 22 1 21 2 20 3 18 4 19 5 17 6 1 7 2 8 3 9 6 10 4 11 5 12
REMARK SMILES IDX 89 13 7 14 16 15 8 16 9 17 15 18 10 19 11 20 12 21 13 22
REMARK SMILES IDX 14 23 23 24 24 25 25 26 26 27 27 28 88 29 28 30 87 31 29 32
REMARK SMILES IDX 30 33 31 34 81 35 32 36 86 37 80 38 82 39 33 40 85 41 79 42
REMARK SMILES IDX 78 43 34 45 66 46 46 47 65 48 47 49 50 50 64 51 83 52 48 53
REMARK SMILES IDX 49 54 63 56 84 57 51 58 35 59 36 60 44 61 37 62 43 63 45 64
REMARK SMILES IDX 42 65 38 66 39 67 40 68 41 69 67 70 68 71 76 72 69 73 75 74
REMARK SMILES IDX 77 75 74 76 70 77 71 78 72 79 73 80 52 81 53 82 61 83 54 84
REMARK SMILES IDX 60 85 62 86 59 87 55 88 56 89 57 90 58 91
REMARK H PARENT 82 44 50 55
REMARK Flexibility Score: inf
ROOT
ATOM      1  C   UNL A   1      41.053  20.029  25.762  1.00  0.00     0.275 C 
ENDROOT
BRANCH   1   2
ATOM      2  C   UNL A   1      39.653  20.284  26.339  1.00  0.00     0.275 C 
BRANCH   2   3
ATOM      3  O   UNL A   1      38.823  20.945  25.369  1.00  0.00    -0.458 OA
BRANCH   3   4
ATOM      4  C   UNL A   1      38.231  22.090  25.763  1.00  0.00     0.353 C 
ATOM      5  O   UNL A   1      38.743  23.016  26.354  1.00  0.00    -0.245 OA
BRANCH   4   6
ATOM      6  C   UNL A   1      36.791  22.136  25.231  1.00  0.00     0.132 C 
ATOM      7  C   UNL A   1      32.785  23.624  21.317  1.00  0.00     0.092 C 
ATOM      8  C   UNL A   1      33.621  23.173  22.450  1.00  0.00     0.149 A 
ATOM      9  N   UNL A   1      34.930  23.555  22.591  1.00  0.00    -0.195 NA
ATOM     10  N   UNL A   1      33.171  22.370  23.424  1.00  0.00    -0.154 NA
ATOM     11  C   UNL A   1      35.336  22.930  23.674  1.00  0.00     0.249 A 
ATOM     12  N   UNL A   1      34.301  22.154  24.123  1.00  0.00    -0.219 N 
ATOM     13  N   UNL A   1      36.555  22.957  24.256  1.00  0.00    -0.209 NA
ATOM     14  C   UNL A   1      34.360  21.355  25.329  1.00  0.00     0.184 C 
ATOM     15  C   UNL A   1      35.795  21.186  25.845  1.00  0.00     0.100 C 
BRANCH  14  16
ATOM     16  C   UNL A   1      33.710  20.006  25.177  1.00  0.00     0.136 A 
ATOM     17  C   UNL A   1      32.483  19.452  25.509  1.00  0.00     0.056 A 
ATOM     18  O   UNL A   1      34.477  19.062  24.540  1.00  0.00    -0.404 OA
ATOM     19  C   UNL A   1      32.493  18.108  25.050  1.00  0.00     0.134 A 
ATOM     20  C   UNL A   1      33.719  17.936  24.462  1.00  0.00     0.433 A 
BRANCH  20  21
ATOM     21  N   UNL A   1      34.320  16.818  23.803  1.00  0.00     0.102 N 
ATOM     22  O   UNL A   1      34.824  15.950  24.528  1.00  0.00    -0.256 OA
ATOM     23  O   UNL A   1      34.295  16.799  22.564  1.00  0.00    -0.256 OA
ENDBRANCH  20  21
ENDBRANCH  14  16
ENDBRANCH   4   6
ENDBRANCH   3   4
ENDBRANCH   2   3
ENDBRANCH   1   2
BRANCH   1  24
ATOM     24  O   UNL A   1      41.893  21.200  25.777  1.00  0.00    -0.458 OA
BRANCH  24  25
ATOM     25  C   UNL A   1      42.093  21.711  27.014  1.00  0.00     0.338 C 
ATOM     26  O   UNL A   1      42.429  21.099  28.016  1.00  0.00    -0.246 OA
BRANCH  25  27
ATOM     27  C   UNL A   1      41.890  23.160  27.050  1.00  0.00     0.060 A 
ATOM     28  C   UNL A   1      42.532  23.924  26.077  1.00  0.00     0.016 A 
ATOM     29  C   UNL A   1      41.319  23.760  28.173  1.00  0.00     0.016 A 
ATOM     30  C   UNL A   1      42.692  25.288  26.263  1.00  0.00     0.010 A 
ATOM     31  C   UNL A   1      41.458  25.138  28.349  1.00  0.00     0.010 A 
ATOM     32  C   UNL A   1      42.180  25.894  27.414  1.00  0.00    -0.014 A 
BRANCH  32  33
ATOM     33  C   UNL A   1      42.428  27.334  27.565  1.00  0.00     0.031 A 
ATOM     34  C   UNL A   1      41.215  28.191  27.589  1.00  0.00     0.074 A 
ATOM     35  C   UNL A   1      43.568  27.796  28.123  1.00  0.00     0.049 A 
ATOM     36  N   UNL A   1      40.477  28.320  28.651  1.00  0.00    -0.248 NA
ATOM     37  C   UNL A   1      40.620  28.749  26.376  1.00  0.00     0.031 C 
ATOM     38  C   UNL A   1      44.325  27.065  29.148  1.00  0.00     0.029 A 
ATOM     39  N   UNL A   1      44.147  29.041  28.098  1.00  0.00    -0.354 N 
ATOM     40  C   UNL A   1      39.313  28.954  28.264  1.00  0.00     0.074 A 
ATOM     41  C   UNL A   1      39.445  29.199  26.843  1.00  0.00     0.031 C 
ATOM     42  C   UNL A   1      45.139  27.935  29.780  1.00  0.00     0.029 A 
ATOM     43  C   UNL A   1      45.094  29.231  29.104  1.00  0.00     0.049 A 
ATOM     44  H   UNL A   1      43.915  29.731  27.435  1.00  0.00     0.167 HD
ATOM     45  C   UNL A   1      38.307  29.243  29.129  1.00  0.00     0.034 A 
ATOM     46  C   UNL A   1      45.312  30.413  29.743  1.00  0.00     0.034 A 
ATOM     47  C   UNL A   1      38.545  28.902  30.501  1.00  0.00     0.049 A 
ATOM     48  C   UNL A   1      43.998  30.643  30.441  1.00  0.00     0.074 A 
ATOM     49  C   UNL A   1      38.264  27.853  31.350  1.00  0.00     0.029 A 
ATOM     50  N   UNL A   1      39.289  29.770  31.268  1.00  0.00    -0.354 N 
ATOM     51  N   UNL A   1      43.620  30.089  31.559  1.00  0.00    -0.248 NA
ATOM     52  C   UNL A   1      42.917  31.271  29.678  1.00  0.00     0.031 C 
ATOM     53  C   UNL A   1      39.230  27.941  32.402  1.00  0.00     0.029 A 
ATOM     54  C   UNL A   1      40.080  28.998  32.084  1.00  0.00     0.049 A 
ATOM     55  H   UNL A   1      39.259  30.753  31.238  1.00  0.00     0.167 HD
ATOM     56  C   UNL A   1      42.227  30.089  31.534  1.00  0.00     0.074 A 
ATOM     57  C   UNL A   1      41.857  30.851  30.357  1.00  0.00     0.031 C 
ATOM     58  C   UNL A   1      41.462  29.325  32.369  1.00  0.00     0.034 A 
BRANCH  45  59
ATOM     59  C   UNL A   1      37.090  29.991  28.764  1.00  0.00     0.023 A 
ATOM     60  C   UNL A   1      36.031  29.271  28.200  1.00  0.00     0.031 A 
ATOM     61  C   UNL A   1      37.028  31.388  28.767  1.00  0.00     0.131 A 
ATOM     62  C   UNL A   1      34.966  29.946  27.601  1.00  0.00     0.055 A 
ATOM     63  C   UNL A   1      35.949  32.063  28.186  1.00  0.00     0.041 A 
ATOM     64  F   UNL A   1      38.029  32.117  29.286  1.00  0.00    -0.206 F 
ATOM     65  C   UNL A   1      34.919  31.340  27.582  1.00  0.00     0.022 A 
BRANCH  62  66
ATOM     66  S   UNL A   1      33.711  28.951  26.756  1.00  0.00     0.124 S 
ATOM     67  O   UNL A   1      34.519  27.912  26.127  1.00  0.00    -0.237 OA
ATOM     68  O   UNL A   1      32.876  28.523  27.873  1.00  0.00    -0.237 OA
ATOM     69  O   UNL A   1      33.091  29.902  25.837  1.00  0.00    -0.744 OA
ENDBRANCH  62  66
ENDBRANCH  45  59
BRANCH  46  70
ATOM     70  C   UNL A   1      46.030  31.480  28.975  1.00  0.00     0.023 A 
ATOM     71  C   UNL A   1      45.380  32.075  27.870  1.00  0.00     0.031 A 
ATOM     72  C   UNL A   1      47.345  31.907  29.230  1.00  0.00     0.131 A 
ATOM     73  C   UNL A   1      46.000  33.095  27.128  1.00  0.00     0.055 A 
ATOM     74  C   UNL A   1      47.946  32.952  28.517  1.00  0.00     0.041 A 
ATOM     75  F   UNL A   1      48.092  31.335  30.183  1.00  0.00    -0.206 F 
ATOM     76  C   UNL A   1      47.270  33.560  27.467  1.00  0.00     0.022 A 
BRANCH  73  77
ATOM     77  S   UNL A   1      45.117  33.830  25.722  1.00  0.00     0.124 S 
ATOM     78  O   UNL A   1      44.630  32.651  25.017  1.00  0.00    -0.237 OA
ATOM     79  O   UNL A   1      44.102  34.648  26.378  1.00  0.00    -0.237 OA
ATOM     80  O   UNL A   1      46.157  34.587  25.025  1.00  0.00    -0.744 OA
ENDBRANCH  73  77
ENDBRANCH  46  70
BRANCH  58  81
ATOM     81  C   UNL A   1      42.214  28.603  33.448  1.00  0.00     0.023 A 
ATOM     82  C   UNL A   1      43.091  27.552  33.124  1.00  0.00     0.031 A 
ATOM     83  C   UNL A   1      42.060  28.939  34.804  1.00  0.00     0.131 A 
ATOM     84  C   UNL A   1      43.786  26.880  34.139  1.00  0.00     0.055 A 
ATOM     85  C   UNL A   1      42.788  28.298  35.807  1.00  0.00     0.041 A 
ATOM     86  F   UNL A   1      41.199  29.895  35.191  1.00  0.00    -0.206 F 
ATOM     87  C   UNL A   1      43.657  27.263  35.478  1.00  0.00     0.022 A 
BRANCH  84  88
ATOM     88  S   UNL A   1      44.881  25.501  33.702  1.00  0.00     0.124 S 
ATOM     89  O   UNL A   1      44.893  24.706  34.924  1.00  0.00    -0.237 OA
ATOM     90  O   UNL A   1      44.204  24.904  32.555  1.00  0.00    -0.237 OA
ATOM     91  O   UNL A   1      46.147  26.163  33.385  1.00  0.00    -0.744 OA
ENDBRANCH  84  88
ENDBRANCH  58  81
ENDBRANCH  32  33
ENDBRANCH  25  27
ENDBRANCH  24  25
ENDBRANCH   1  24
TORSDOF 16
ENDMDL
MODEL 2
REMARK VINA RESULT:     -11.5      1.943      3.388
REMARK SMILES Cc1nc2n(n1)[C@@H](c1ccc([N+](=O)[O-])o1)CC(C(=O)OCCOC(=O)c1ccc(-c3c4nc(c(-c5cc(S(=O)(=O)[O-])ccc5F)c5ccc([nH]5)c(-c5cc(S(=O)(=O)[O-])ccc5F)c5nc(c(-c6cc(S(=O)(=O)[O-])ccc6F)c6ccc3[nH]6)C=C5)C=C4)cc1)=N2
REMARK SMILES IDX 22 1 21 2 20 3 18 4 19 5 17 6 1 7 2 8 3 9 6 10 4 11 5 12
REMARK SMILES IDX 89 13 7 14 16 15 8 16 9 17 15 18 10 19 11 20 12 21 13 22
REMARK SMILES IDX 14 23 23 24 24 25 25 26 26 27 27 28 88 29 28 30 87 31 29 32
REMARK SMILES IDX 30 33 31 34 81 35 32 36 86 37 80 38 82 39 33 40 85 41 79 42
REMARK SMILES IDX 78 43 34 45 66 46 46 47 65 48 47 49 50 50 64 51 83 52 48 53
REMARK SMILES IDX 49 54 63 56 84 57 51 58 35 59 36 60 44 61 37 62 43 63 45 64
REMARK SMILES IDX 42 65 38 66 39 67 40 68 41 69 67 70 68 71 76 72 69 73 75 74
REMARK SMILES IDX 77 75 74 76 70 77 71 78 72 79 73 80 52 81 53 82 61 83 54 84
REMARK SMILES IDX 60 85 62 86 59 87 55 88 56 89 57 90 58 91
REMARK H PARENT 82 44 50 55
REMARK Flexibility Score: inf
ROOT
ATOM      1  C   UNL A   1      38.897  21.035  25.734  1.00  0.00     0.275 C 
ENDROOT
BRANCH   1   2
ATOM      2  C   UNL A   1      37.434  21.310  25.359  1.00  0.00     0.275 C 
BRANCH   2   3
ATOM      3  O   UNL A   1      37.284  22.655  24.873  1.00  0.00    -0.458 OA
BRANCH   3   4
ATOM      4  C   UNL A   1      36.647  23.521  25.687  1.00  0.00     0.353 C 
ATOM      5  O   UNL A   1      37.150  24.334  26.432  1.00  0.00    -0.245 OA
BRANCH   4   6
ATOM      6  C   UNL A   1      35.133  23.438  25.445  1.00  0.00     0.132 C 
ATOM      7  C   UNL A   1      29.651  22.848  27.229  1.00  0.00     0.092 C 
ATOM      8  C   UNL A   1      30.958  22.985  26.551  1.00  0.00     0.149 A 
ATOM      9  N   UNL A   1      32.146  22.797  27.210  1.00  0.00    -0.195 NA
ATOM     10  N   UNL A   1      31.087  23.291  25.254  1.00  0.00    -0.154 NA
ATOM     11  C   UNL A   1      33.063  23.041  26.301  1.00  0.00     0.249 A 
ATOM     12  N   UNL A   1      32.423  23.419  25.151  1.00  0.00    -0.219 N 
ATOM     13  N   UNL A   1      34.408  23.002  26.428  1.00  0.00    -0.209 NA
ATOM     14  C   UNL A   1      33.109  23.720  23.911  1.00  0.00     0.184 C 
ATOM     15  C   UNL A   1      34.616  23.921  24.114  1.00  0.00     0.100 C 
BRANCH  14  16
ATOM     16  C   UNL A   1      32.529  24.905  23.187  1.00  0.00     0.136 A 
ATOM     17  C   UNL A   1      31.329  25.192  22.554  1.00  0.00     0.056 A 
ATOM     18  O   UNL A   1      33.347  26.007  23.132  1.00  0.00    -0.404 OA
ATOM     19  C   UNL A   1      31.409  26.533  22.093  1.00  0.00     0.134 A 
ATOM     20  C   UNL A   1      32.647  26.976  22.484  1.00  0.00     0.433 A 
BRANCH  20  21
ATOM     21  N   UNL A   1      33.307  28.235  22.334  1.00  0.00     0.102 N 
ATOM     22  O   UNL A   1      32.728  29.226  22.796  1.00  0.00    -0.256 OA
ATOM     23  O   UNL A   1      34.404  28.244  21.756  1.00  0.00    -0.256 OA
ENDBRANCH  20  21
ENDBRANCH  14  16
ENDBRANCH   4   6
ENDBRANCH   3   4
ENDBRANCH   2   3
ENDBRANCH   1   2
BRANCH   1  24
ATOM     24  O   UNL A   1      39.482  22.081  26.534  1.00  0.00    -0.458 OA
BRANCH  24  25
ATOM     25  C   UNL A   1      40.835  22.081  26.527  1.00  0.00     0.338 C 
ATOM     26  O   UNL A   1      41.567  21.204  26.091  1.00  0.00    -0.246 OA
BRANCH  25  27
ATOM     27  C   UNL A   1      41.389  23.311  27.093  1.00  0.00     0.060 A 
ATOM     28  C   UNL A   1      40.517  24.152  27.781  1.00  0.00     0.016 A 
ATOM     29  C   UNL A   1      42.658  23.749  26.711  1.00  0.00     0.016 A 
ATOM     30  C   UNL A   1      40.869  25.472  28.013  1.00  0.00     0.010 A 
ATOM     31  C   UNL A   1      43.023  25.072  26.966  1.00  0.00     0.010 A 
ATOM     32  C   UNL A   1      42.112  25.944  27.580  1.00  0.00    -0.014 A 
BRANCH  32  33
ATOM     33  C   UNL A   1      42.396  27.365  27.820  1.00  0.00     0.031 A 
ATOM     34  C   UNL A   1      41.210  28.259  27.826  1.00  0.00     0.074 A 
ATOM     35  C   UNL A   1      43.518  27.759  28.460  1.00  0.00     0.049 A 
ATOM     36  N   UNL A   1      40.420  28.359  28.853  1.00  0.00    -0.248 NA
ATOM     37  C   UNL A   1      40.699  28.899  26.615  1.00  0.00     0.031 C 
ATOM     38  C   UNL A   1      44.196  26.952  29.483  1.00  0.00     0.029 A 
ATOM     39  N   UNL A   1      44.135  28.984  28.531  1.00  0.00    -0.354 N 
ATOM     40  C   UNL A   1      39.299  29.051  28.440  1.00  0.00     0.074 A 
ATOM     41  C   UNL A   1      39.515  29.363  27.043  1.00  0.00     0.031 C 
ATOM     42  C   UNL A   1      45.001  27.760  30.202  1.00  0.00     0.029 A 
ATOM     43  C   UNL A   1      45.032  29.091  29.593  1.00  0.00     0.049 A 
ATOM     44  H   UNL A   1      43.961  29.714  27.895  1.00  0.00     0.167 HD
ATOM     45  C   UNL A   1      38.258  29.329  29.266  1.00  0.00     0.034 A 
ATOM     46  C   UNL A   1      45.253  30.230  30.304  1.00  0.00     0.034 A 
ATOM     47  C   UNL A   1      38.411  28.910  30.628  1.00  0.00     0.049 A 
ATOM     48  C   UNL A   1      43.910  30.468  30.945  1.00  0.00     0.074 A 
ATOM     49  C   UNL A   1      38.052  27.829  31.404  1.00  0.00     0.029 A 
ATOM     50  N   UNL A   1      39.139  29.712  31.478  1.00  0.00    -0.354 N 
ATOM     51  N   UNL A   1      43.456  29.870  32.010  1.00  0.00    -0.248 NA
ATOM     52  C   UNL A   1      42.892  31.170  30.161  1.00  0.00     0.031 C 
ATOM     53  C   UNL A   1      38.963  27.830  32.509  1.00  0.00     0.029 A 
ATOM     54  C   UNL A   1      39.860  28.874  32.292  1.00  0.00     0.049 A 
ATOM     55  H   UNL A   1      39.141  30.696  31.499  1.00  0.00     0.167 HD
ATOM     56  C   UNL A   1      42.066  29.918  31.913  1.00  0.00     0.074 A 
ATOM     57  C   UNL A   1      41.784  30.751  30.760  1.00  0.00     0.031 C 
ATOM     58  C   UNL A   1      41.235  29.138  32.665  1.00  0.00     0.034 A 
BRANCH  45  59
ATOM     59  C   UNL A   1      37.086  30.135  28.878  1.00  0.00     0.023 A 
ATOM     60  C   UNL A   1      36.021  29.473  28.254  1.00  0.00     0.031 A 
ATOM     61  C   UNL A   1      37.078  31.532  28.920  1.00  0.00     0.131 A 
ATOM     62  C   UNL A   1      35.007  30.207  27.636  1.00  0.00     0.055 A 
ATOM     63  C   UNL A   1      36.050  32.266  28.319  1.00  0.00     0.041 A 
ATOM     64  F   UNL A   1      38.086  32.206  29.496  1.00  0.00    -0.206 F 
ATOM     65  C   UNL A   1      35.016  31.602  27.656  1.00  0.00     0.022 A 
BRANCH  62  66
ATOM     66  S   UNL A   1      33.748  29.288  26.716  1.00  0.00     0.124 S 
ATOM     67  O   UNL A   1      34.558  28.516  25.779  1.00  0.00    -0.237 OA
ATOM     68  O   UNL A   1      33.104  28.527  27.781  1.00  0.00    -0.237 OA
ATOM     69  O   UNL A   1      32.933  30.341  26.117  1.00  0.00    -0.744 OA
ENDBRANCH  62  66
ENDBRANCH  45  59
BRANCH  46  70
ATOM     70  C   UNL A   1      46.043  31.311  29.632  1.00  0.00     0.023 A 
ATOM     71  C   UNL A   1      45.578  31.827  28.402  1.00  0.00     0.031 A 
ATOM     72  C   UNL A   1      47.264  31.823  30.103  1.00  0.00     0.131 A 
ATOM     73  C   UNL A   1      46.270  32.856  27.740  1.00  0.00     0.055 A 
ATOM     74  C   UNL A   1      47.931  32.876  29.465  1.00  0.00     0.041 A 
ATOM     75  F   UNL A   1      47.852  31.330  31.201  1.00  0.00    -0.206 F 
ATOM     76  C   UNL A   1      47.430  33.406  28.283  1.00  0.00     0.022 A 
BRANCH  73  77
ATOM     77  S   UNL A   1      45.624  33.487  26.166  1.00  0.00     0.124 S 
ATOM     78  O   UNL A   1      46.845  33.875  25.468  1.00  0.00    -0.237 OA
ATOM     79  O   UNL A   1      44.919  32.330  25.625  1.00  0.00    -0.237 OA
ATOM     80  O   UNL A   1      44.761  34.596  26.572  1.00  0.00    -0.744 OA
ENDBRANCH  73  77
ENDBRANCH  46  70
BRANCH  58  81
ATOM     81  C   UNL A   1      41.905  28.337  33.742  1.00  0.00     0.023 A 
ATOM     82  C   UNL A   1      42.653  27.191  33.417  1.00  0.00     0.031 A 
ATOM     83  C   UNL A   1      41.800  28.693  35.098  1.00  0.00     0.131 A 
ATOM     84  C   UNL A   1      43.272  26.446  34.430  1.00  0.00     0.055 A 
ATOM     85  C   UNL A   1      42.455  27.974  36.099  1.00  0.00     0.041 A 
ATOM     86  F   UNL A   1      41.057  29.742  35.487  1.00  0.00    -0.206 F 
ATOM     87  C   UNL A   1      43.197  26.845  35.768  1.00  0.00     0.022 A 
BRANCH  84  88
ATOM     88  S   UNL A   1      44.198  24.949  33.991  1.00  0.00     0.124 S 
ATOM     89  O   UNL A   1      44.524  25.178  32.589  1.00  0.00    -0.237 OA
ATOM     90  O   UNL A   1      45.321  24.980  34.924  1.00  0.00    -0.237 OA
ATOM     91  O   UNL A   1      43.235  23.874  34.233  1.00  0.00    -0.744 OA
ENDBRANCH  84  88
ENDBRANCH  58  81
ENDBRANCH  32  33
ENDBRANCH  25  27
ENDBRANCH  24  25
ENDBRANCH   1  24
TORSDOF 16
ENDMDL
MODEL 3
REMARK VINA RESULT:     -11.5      2.354      4.012
REMARK SMILES Cc1nc2n(n1)[C@@H](c1ccc([N+](=O)[O-])o1)CC(C(=O)OCCOC(=O)c1ccc(-c3c4nc(c(-c5cc(S(=O)(=O)[O-])ccc5F)c5ccc([nH]5)c(-c5cc(S(=O)(=O)[O-])ccc5F)c5nc(c(-c6cc(S(=O)(=O)[O-])ccc6F)c6ccc3[nH]6)C=C5)C=C4)cc1)=N2
REMARK SMILES IDX 22 1 21 2 20 3 18 4 19 5 17 6 1 7 2 8 3 9 6 10 4 11 5 12
REMARK SMILES IDX 89 13 7 14 16 15 8 16 9 17 15 18 10 19 11 20 12 21 13 22
REMARK SMILES IDX 14 23 23 24 24 25 25 26 26 27 27 28 88 29 28 30 87 31 29 32
REMARK SMILES IDX 30 33 31 34 81 35 32 36 86 37 80 38 82 39 33 40 85 41 79 42
REMARK SMILES IDX 78 43 34 45 66 46 46 47 65 48 47 49 50 50 64 51 83 52 48 53
REMARK SMILES IDX 49 54 63 56 84 57 51 58 35 59 36 60 44 61 37 62 43 63 45 64
REMARK SMILES IDX 42 65 38 66 39 67 40 68 41 69 67 70 68 71 76 72 69 73 75 74
REMARK SMILES IDX 77 75 74 76 70 77 71 78 72 79 73 80 52 81 53 82 61 83 54 84
REMARK SMILES IDX 60 85 62 86 59 87 55 88 56 89 57 90 58 91
REMARK H PARENT 82 44 50 55
REMARK Flexibility Score: inf
ROOT
ATOM      1  C   UNL A   1      38.983  21.328  25.686  1.00  0.00     0.275 C 
ENDROOT
BRANCH   1   2
ATOM      2  C   UNL A   1      37.465  21.451  25.496  1.00  0.00     0.275 C 
BRANCH   2   3
ATOM      3  O   UNL A   1      37.132  22.725  24.919  1.00  0.00    -0.458 OA
BRANCH   3   4
ATOM      4  C   UNL A   1      36.701  23.677  25.770  1.00  0.00     0.353 C 
ATOM      5  O   UNL A   1      37.378  24.384  26.486  1.00  0.00    -0.245 OA
BRANCH   4   6
ATOM      6  C   UNL A   1      35.184  23.855  25.620  1.00  0.00     0.132 C 
ATOM      7  C   UNL A   1      29.694  22.866  27.191  1.00  0.00     0.092 C 
ATOM      8  C   UNL A   1      30.999  23.230  26.599  1.00  0.00     0.149 A 
ATOM      9  N   UNL A   1      32.170  22.630  26.986  1.00  0.00    -0.195 NA
ATOM     10  N   UNL A   1      31.142  24.158  25.644  1.00  0.00    -0.154 NA
ATOM     11  C   UNL A   1      33.096  23.239  26.278  1.00  0.00     0.249 A 
ATOM     12  N   UNL A   1      32.483  24.212  25.535  1.00  0.00    -0.219 N 
ATOM     13  N   UNL A   1      34.431  23.031  26.279  1.00  0.00    -0.209 NA
ATOM     14  C   UNL A   1      33.179  25.061  24.590  1.00  0.00     0.184 C 
ATOM     15  C   UNL A   1      34.702  25.003  24.770  1.00  0.00     0.100 C 
BRANCH  14  16
ATOM     16  C   UNL A   1      32.714  26.492  24.626  1.00  0.00     0.136 A 
ATOM     17  C   UNL A   1      33.086  27.639  25.309  1.00  0.00     0.056 A 
ATOM     18  O   UNL A   1      31.679  26.785  23.773  1.00  0.00    -0.404 OA
ATOM     19  C   UNL A   1      32.247  28.689  24.852  1.00  0.00     0.134 A 
ATOM     20  C   UNL A   1      31.426  28.114  23.915  1.00  0.00     0.433 A 
BRANCH  20  21
ATOM     21  N   UNL A   1      30.388  28.648  23.091  1.00  0.00     0.102 N 
ATOM     22  O   UNL A   1      30.283  28.176  21.952  1.00  0.00    -0.256 OA
ATOM     23  O   UNL A   1      29.673  29.540  23.571  1.00  0.00    -0.256 OA
ENDBRANCH  20  21
ENDBRANCH  14  16
ENDBRANCH   4   6
ENDBRANCH   3   4
ENDBRANCH   2   3
ENDBRANCH   1   2
BRANCH   1  24
ATOM     24  O   UNL A   1      39.489  22.164  26.746  1.00  0.00    -0.458 OA
BRANCH  24  25
ATOM     25  C   UNL A   1      40.835  22.117  26.881  1.00  0.00     0.338 C 
ATOM     26  O   UNL A   1      41.564  21.164  26.648  1.00  0.00    -0.246 OA
BRANCH  25  27
ATOM     27  C   UNL A   1      41.388  23.396  27.328  1.00  0.00     0.060 A 
ATOM     28  C   UNL A   1      40.583  24.198  28.135  1.00  0.00     0.016 A 
ATOM     29  C   UNL A   1      42.546  23.903  26.737  1.00  0.00     0.016 A 
ATOM     30  C   UNL A   1      40.877  25.544  28.284  1.00  0.00     0.010 A 
ATOM     31  C   UNL A   1      42.857  25.254  26.907  1.00  0.00     0.010 A 
ATOM     32  C   UNL A   1      42.000  26.082  27.646  1.00  0.00    -0.014 A 
BRANCH  32  33
ATOM     33  C   UNL A   1      42.221  27.525  27.812  1.00  0.00     0.031 A 
ATOM     34  C   UNL A   1      41.002  28.370  27.732  1.00  0.00     0.074 A 
ATOM     35  C   UNL A   1      43.307  27.999  28.461  1.00  0.00     0.049 A 
ATOM     36  N   UNL A   1      40.177  28.496  28.728  1.00  0.00    -0.248 NA
ATOM     37  C   UNL A   1      40.507  28.919  26.471  1.00  0.00     0.031 C 
ATOM     38  C   UNL A   1      43.982  27.278  29.549  1.00  0.00     0.029 A 
ATOM     39  N   UNL A   1      43.874  29.249  28.480  1.00  0.00    -0.354 N 
ATOM     40  C   UNL A   1      39.044  29.118  28.242  1.00  0.00     0.074 A 
ATOM     41  C   UNL A   1      39.292  29.360  26.837  1.00  0.00     0.031 C 
ATOM     42  C   UNL A   1      44.732  28.157  30.243  1.00  0.00     0.029 A 
ATOM     43  C   UNL A   1      44.732  29.451  29.561  1.00  0.00     0.049 A 
ATOM     44  H   UNL A   1      43.693  29.935  27.798  1.00  0.00     0.167 HD
ATOM     45  C   UNL A   1      37.967  29.400  29.020  1.00  0.00     0.034 A 
ATOM     46  C   UNL A   1      44.886  30.637  30.211  1.00  0.00     0.034 A 
ATOM     47  C   UNL A   1      38.093  29.065  30.408  1.00  0.00     0.049 A 
ATOM     48  C   UNL A   1      43.516  30.857  30.797  1.00  0.00     0.074 A 
ATOM     49  C   UNL A   1      37.751  28.016  31.234  1.00  0.00     0.029 A 
ATOM     50  N   UNL A   1      38.762  29.942  31.231  1.00  0.00    -0.354 N 
ATOM     51  N   UNL A   1      43.051  30.302  31.881  1.00  0.00    -0.248 NA
ATOM     52  C   UNL A   1      42.496  31.472  29.944  1.00  0.00     0.031 C 
ATOM     53  C   UNL A   1      38.625  28.115  32.363  1.00  0.00     0.029 A 
ATOM     54  C   UNL A   1      39.489  29.180  32.113  1.00  0.00     0.049 A 
ATOM     55  H   UNL A   1      38.726  30.925  31.195  1.00  0.00     0.167 HD
ATOM     56  C   UNL A   1      41.664  30.289  31.740  1.00  0.00     0.074 A 
ATOM     57  C   UNL A   1      41.387  31.044  30.533  1.00  0.00     0.031 C 
ATOM     58  C   UNL A   1      40.840  29.520  32.511  1.00  0.00     0.034 A 
BRANCH  45  59
ATOM     59  C   UNL A   1      36.778  30.135  28.552  1.00  0.00     0.023 A 
ATOM     60  C   UNL A   1      36.555  31.412  29.080  1.00  0.00     0.031 A 
ATOM     61  C   UNL A   1      35.776  29.544  27.776  1.00  0.00     0.131 A 
ATOM     62  C   UNL A   1      35.328  32.048  28.881  1.00  0.00     0.055 A 
ATOM     63  C   UNL A   1      34.556  30.192  27.559  1.00  0.00     0.041 A 
ATOM     64  F   UNL A   1      35.944  28.315  27.263  1.00  0.00    -0.206 F 
ATOM     65  C   UNL A   1      34.321  31.444  28.129  1.00  0.00     0.022 A 
BRANCH  62  66
ATOM     66  S   UNL A   1      35.055  33.627  29.723  1.00  0.00     0.124 S 
ATOM     67  O   UNL A   1      36.013  34.500  29.050  1.00  0.00    -0.237 OA
ATOM     68  O   UNL A   1      33.648  33.876  29.429  1.00  0.00    -0.237 OA
ATOM     69  O   UNL A   1      35.361  33.323  31.118  1.00  0.00    -0.744 OA
ENDBRANCH  62  66
ENDBRANCH  45  59
BRANCH  46  70
ATOM     70  C   UNL A   1      45.656  31.709  29.502  1.00  0.00     0.023 A 
ATOM     71  C   UNL A   1      45.196  32.154  28.242  1.00  0.00     0.031 A 
ATOM     72  C   UNL A   1      46.853  32.279  29.967  1.00  0.00     0.131 A 
ATOM     73  C   UNL A   1      45.868  33.171  27.543  1.00  0.00     0.055 A 
ATOM     74  C   UNL A   1      47.500  33.321  29.290  1.00  0.00     0.041 A 
ATOM     75  F   UNL A   1      47.437  31.854  31.095  1.00  0.00    -0.206 F 
ATOM     76  C   UNL A   1      47.002  33.781  28.078  1.00  0.00     0.022 A 
BRANCH  73  77
ATOM     77  S   UNL A   1      45.230  33.711  25.932  1.00  0.00     0.124 S 
ATOM     78  O   UNL A   1      44.113  34.565  26.316  1.00  0.00    -0.237 OA
ATOM     79  O   UNL A   1      46.382  34.390  25.346  1.00  0.00    -0.237 OA
ATOM     80  O   UNL A   1      44.859  32.458  25.276  1.00  0.00    -0.744 OA
ENDBRANCH  73  77
ENDBRANCH  46  70
BRANCH  58  81
ATOM     81  C   UNL A   1      41.505  28.808  33.651  1.00  0.00     0.023 A 
ATOM     82  C   UNL A   1      42.286  27.662  33.418  1.00  0.00     0.031 A 
ATOM     83  C   UNL A   1      41.364  29.250  34.978  1.00  0.00     0.131 A 
ATOM     84  C   UNL A   1      42.900  27.000  34.490  1.00  0.00     0.055 A 
ATOM     85  C   UNL A   1      42.014  28.615  36.038  1.00  0.00     0.041 A 
ATOM     86  F   UNL A   1      40.590  30.305  35.283  1.00  0.00    -0.206 F 
ATOM     87  C   UNL A   1      42.788  27.485  35.797  1.00  0.00     0.022 A 
BRANCH  84  88
ATOM     88  S   UNL A   1      43.869  25.500  34.169  1.00  0.00     0.124 S 
ATOM     89  O   UNL A   1      44.100  25.573  32.732  1.00  0.00    -0.237 OA
ATOM     90  O   UNL A   1      45.043  25.687  35.018  1.00  0.00    -0.237 OA
ATOM     91  O   UNL A   1      42.975  24.424  34.596  1.00  0.00    -0.744 OA
ENDBRANCH  84  88
ENDBRANCH  58  81
ENDBRANCH  32  33
ENDBRANCH  25  27
ENDBRANCH  24  25
ENDBRANCH   1  24
TORSDOF 16
ENDMDL
