MODEL 1
REMARK VINA RESULT:     -11.9      0.000      0.000
REMARK SMILES C[C@@H](Oc1ccc(-c2ccccc2)cc1)C(=O)N1CCC[C@H](C(=O)OCCOC(=O)c2ccc(-c3c4nc(c(-c5cc(S(=O)(=O)[O-])ccc5F)c5ccc([nH]5)c(-c5cc(S(=O)(=O)[O-])ccc5F)c5nc(c(-c6cc(S(=O)(=O)[O-])ccc6F)c6ccc3[nH]6)C=C5)C=C4)cc2)C1
REMARK SMILES IDX 26 1 25 2 23 3 24 4 22 5 18 6 19 7 94 8 20 9 21 10 16 11
REMARK SMILES IDX 17 12 2 13 1 14 3 15 4 16 5 17 15 18 6 19 14 20 7 21 8 22
REMARK SMILES IDX 9 23 13 24 10 25 12 26 11 27 27 28 28 29 29 30 30 31 31 32
REMARK SMILES IDX 32 33 93 34 33 35 92 36 34 37 35 38 36 39 86 40 37 41 91 42
REMARK SMILES IDX 85 43 87 44 38 45 90 46 84 47 83 48 39 50 71 51 51 52 70 53
REMARK SMILES IDX 52 54 55 55 69 56 88 57 53 58 54 59 68 61 89 62 56 63 40 64
REMARK SMILES IDX 41 65 49 66 42 67 48 68 50 69 47 70 43 71 44 72 45 73 46 74
REMARK SMILES IDX 72 75 73 76 81 77 74 78 80 79 82 80 79 81 75 82 76 83 77 84
REMARK SMILES IDX 78 85 57 86 58 87 66 88 59 89 65 90 67 91 64 92 60 93 61 94
REMARK SMILES IDX 62 95 63 96
REMARK H PARENT 87 49 55 60
REMARK Flexibility Score: inf
ROOT
ATOM      1  C   UNL A   1      38.033  21.493  25.427  1.00  0.00     0.274 C 
ENDROOT
BRANCH   1   2
ATOM      2  O   UNL A   1      36.623  21.219  25.329  1.00  0.00    -0.462 OA
BRANCH   2   3
ATOM      3  C   UNL A   1      35.777  22.028  26.012  1.00  0.00     0.310 C 
ATOM      4  O   UNL A   1      35.894  23.246  26.089  1.00  0.00    -0.252 OA
BRANCH   3   5
ATOM      5  C   UNL A   1      34.679  21.269  26.743  1.00  0.00     0.119 C 
ATOM      6  N   UNL A   1      32.897  21.690  25.121  1.00  0.00    -0.339 N 
ATOM      7  C   UNL A   1      32.063  22.417  26.073  1.00  0.00     0.119 C 
ATOM      8  C   UNL A   1      33.732  20.652  25.720  1.00  0.00     0.134 C 
ATOM      9  C   UNL A   1      32.881  23.041  27.200  1.00  0.00     0.022 C 
ATOM     10  C   UNL A   1      33.903  22.069  27.797  1.00  0.00     0.019 C 
BRANCH   6  11
ATOM     11  C   UNL A   1      32.873  22.035  23.773  1.00  0.00     0.263 C 
ATOM     12  O   UNL A   1      32.403  21.268  22.925  1.00  0.00    -0.271 OA
BRANCH  11  13
ATOM     13  C   UNL A   1      33.474  23.383  23.313  1.00  0.00     0.259 C 
ATOM     14  C   UNL A   1      34.938  23.270  22.894  1.00  0.00     0.064 C 
BRANCH  13  15
ATOM     15  O   UNL A   1      32.645  23.888  22.260  1.00  0.00    -0.481 OA
BRANCH  15  16
ATOM     16  C   UNL A   1      31.947  25.005  22.609  1.00  0.00     0.120 A 
ATOM     17  C   UNL A   1      30.830  24.893  23.431  1.00  0.00     0.047 A 
ATOM     18  C   UNL A   1      32.264  26.212  22.001  1.00  0.00     0.047 A 
ATOM     19  C   UNL A   1      30.020  26.013  23.647  1.00  0.00     0.012 A 
ATOM     20  C   UNL A   1      31.459  27.327  22.225  1.00  0.00     0.012 A 
ATOM     21  C   UNL A   1      30.311  27.244  23.034  1.00  0.00    -0.018 A 
BRANCH  21  22
ATOM     22  C   UNL A   1      29.418  28.406  23.175  1.00  0.00    -0.018 A 
ATOM     23  C   UNL A   1      29.918  29.701  23.378  1.00  0.00     0.009 A 
ATOM     24  C   UNL A   1      28.023  28.243  23.099  1.00  0.00     0.009 A 
ATOM     25  C   UNL A   1      29.053  30.796  23.489  1.00  0.00     0.001 A 
ATOM     26  C   UNL A   1      27.159  29.333  23.206  1.00  0.00     0.001 A 
ATOM     27  C   UNL A   1      27.675  30.611  23.399  1.00  0.00     0.000 A 
ENDBRANCH  21  22
ENDBRANCH  15  16
ENDBRANCH  13  15
ENDBRANCH  11  13
ENDBRANCH   6  11
ENDBRANCH   3   5
ENDBRANCH   2   3
ENDBRANCH   1   2
BRANCH   1  28
ATOM     28  C   UNL A   1      38.844  20.196  25.444  1.00  0.00     0.275 C 
BRANCH  28  29
ATOM     29  O   UNL A   1      39.731  20.157  26.575  1.00  0.00    -0.458 OA
BRANCH  29  30
ATOM     30  C   UNL A   1      41.034  19.948  26.267  1.00  0.00     0.338 C 
ATOM     31  O   UNL A   1      41.524  18.950  25.771  1.00  0.00    -0.246 OA
BRANCH  30  32
ATOM     32  C   UNL A   1      41.785  21.193  26.476  1.00  0.00     0.060 A 
ATOM     33  C   UNL A   1      42.150  21.522  27.782  1.00  0.00     0.016 A 
ATOM     34  C   UNL A   1      42.057  22.063  25.421  1.00  0.00     0.016 A 
ATOM     35  C   UNL A   1      42.787  22.728  28.049  1.00  0.00     0.010 A 
ATOM     36  C   UNL A   1      42.697  23.277  25.688  1.00  0.00     0.010 A 
ATOM     37  C   UNL A   1      43.052  23.620  27.006  1.00  0.00    -0.014 A 
BRANCH  37  38
ATOM     38  C   UNL A   1      43.624  24.952  27.318  1.00  0.00     0.031 A 
ATOM     39  C   UNL A   1      42.736  26.015  27.897  1.00  0.00     0.074 A 
ATOM     40  C   UNL A   1      44.934  25.183  27.123  1.00  0.00     0.049 A 
ATOM     41  N   UNL A   1      43.006  27.265  28.167  1.00  0.00    -0.248 NA
ATOM     42  C   UNL A   1      41.355  25.614  28.208  1.00  0.00     0.031 C 
ATOM     43  C   UNL A   1      45.899  24.201  26.626  1.00  0.00     0.029 A 
ATOM     44  N   UNL A   1      45.681  26.317  27.320  1.00  0.00    -0.354 N 
ATOM     45  C   UNL A   1      41.826  27.809  28.663  1.00  0.00     0.074 A 
ATOM     46  C   UNL A   1      40.832  26.754  28.630  1.00  0.00     0.031 C 
ATOM     47  C   UNL A   1      47.110  24.776  26.555  1.00  0.00     0.029 A 
ATOM     48  C   UNL A   1      46.998  26.177  26.950  1.00  0.00     0.049 A 
ATOM     49  H   UNL A   1      45.310  27.150  27.689  1.00  0.00     0.167 HD
ATOM     50  C   UNL A   1      41.597  29.071  29.103  1.00  0.00     0.034 A 
ATOM     51  C   UNL A   1      47.990  27.088  26.902  1.00  0.00     0.034 A 
ATOM     52  C   UNL A   1      42.605  30.104  29.125  1.00  0.00     0.049 A 
ATOM     53  C   UNL A   1      47.694  28.503  27.329  1.00  0.00     0.074 A 
ATOM     54  C   UNL A   1      42.488  31.417  29.546  1.00  0.00     0.029 A 
ATOM     55  N   UNL A   1      43.919  29.941  28.702  1.00  0.00    -0.354 N 
ATOM     56  N   UNL A   1      46.566  29.017  27.765  1.00  0.00    -0.248 NA
ATOM     57  C   UNL A   1      48.803  29.461  27.256  1.00  0.00     0.031 C 
ATOM     58  C   UNL A   1      43.710  32.062  29.320  1.00  0.00     0.029 A 
ATOM     59  C   UNL A   1      44.614  31.134  28.826  1.00  0.00     0.049 A 
ATOM     60  H   UNL A   1      44.302  29.098  28.364  1.00  0.00     0.167 HD
ATOM     61  C   UNL A   1      46.838  30.354  28.038  1.00  0.00     0.074 A 
ATOM     62  C   UNL A   1      48.240  30.560  27.734  1.00  0.00     0.031 C 
ATOM     63  C   UNL A   1      46.008  31.323  28.501  1.00  0.00     0.034 A 
BRANCH  50  64
ATOM     64  C   UNL A   1      40.189  29.407  29.530  1.00  0.00     0.023 A 
ATOM     65  C   UNL A   1      39.819  29.478  30.884  1.00  0.00     0.031 A 
ATOM     66  C   UNL A   1      39.190  29.615  28.562  1.00  0.00     0.131 A 
ATOM     67  C   UNL A   1      38.473  29.676  31.233  1.00  0.00     0.055 A 
ATOM     68  C   UNL A   1      37.867  29.890  28.916  1.00  0.00     0.041 A 
ATOM     69  F   UNL A   1      39.478  29.536  27.254  1.00  0.00    -0.206 F 
ATOM     70  C   UNL A   1      37.499  29.906  30.258  1.00  0.00     0.022 A 
BRANCH  67  71
ATOM     71  S   UNL A   1      37.989  29.487  32.970  1.00  0.00     0.124 S 
ATOM     72  O   UNL A   1      36.974  30.530  33.109  1.00  0.00    -0.237 OA
ATOM     73  O   UNL A   1      37.505  28.113  33.016  1.00  0.00    -0.237 OA
ATOM     74  O   UNL A   1      39.230  29.736  33.701  1.00  0.00    -0.744 OA
ENDBRANCH  67  71
ENDBRANCH  50  64
BRANCH  51  75
ATOM     75  C   UNL A   1      49.336  26.710  26.385  1.00  0.00     0.023 A 
ATOM     76  C   UNL A   1      49.781  27.145  25.127  1.00  0.00     0.031 A 
ATOM     77  C   UNL A   1      50.183  25.871  27.131  1.00  0.00     0.131 A 
ATOM     78  C   UNL A   1      51.022  26.708  24.636  1.00  0.00     0.055 A 
ATOM     79  C   UNL A   1      51.437  25.480  26.661  1.00  0.00     0.041 A 
ATOM     80  F   UNL A   1      49.805  25.427  28.341  1.00  0.00    -0.206 F 
ATOM     81  C   UNL A   1      51.858  25.890  25.400  1.00  0.00     0.022 A 
BRANCH  78  82
ATOM     82  S   UNL A   1      51.498  27.165  22.946  1.00  0.00     0.124 S 
ATOM     83  O   UNL A   1      51.737  28.596  23.081  1.00  0.00    -0.237 OA
ATOM     84  O   UNL A   1      52.678  26.333  22.729  1.00  0.00    -0.237 OA
ATOM     85  O   UNL A   1      50.327  26.799  22.152  1.00  0.00    -0.744 OA
ENDBRANCH  78  82
ENDBRANCH  51  75
BRANCH  63  86
ATOM     86  C   UNL A   1      46.619  32.682  28.743  1.00  0.00     0.023 A 
ATOM     87  C   UNL A   1      46.649  33.666  27.739  1.00  0.00     0.031 A 
ATOM     88  C   UNL A   1      47.198  32.985  29.987  1.00  0.00     0.131 A 
ATOM     89  C   UNL A   1      47.297  34.887  27.981  1.00  0.00     0.055 A 
ATOM     90  C   UNL A   1      47.790  34.223  30.240  1.00  0.00     0.041 A 
ATOM     91  F   UNL A   1      47.197  32.080  30.980  1.00  0.00    -0.206 F 
ATOM     92  C   UNL A   1      47.854  35.177  29.229  1.00  0.00     0.022 A 
BRANCH  89  93
ATOM     93  S   UNL A   1      47.483  36.060  26.609  1.00  0.00     0.124 S 
ATOM     94  O   UNL A   1      47.824  35.178  25.498  1.00  0.00    -0.237 OA
ATOM     95  O   UNL A   1      46.164  36.681  26.548  1.00  0.00    -0.237 OA
ATOM     96  O   UNL A   1      48.561  36.940  27.055  1.00  0.00    -0.744 OA
ENDBRANCH  89  93
ENDBRANCH  63  86
ENDBRANCH  37  38
ENDBRANCH  30  32
ENDBRANCH  29  30
ENDBRANCH  28  29
ENDBRANCH   1  28
TORSDOF 19
ENDMDL
MODEL 2
REMARK VINA RESULT:     -11.0      3.660      8.280
REMARK SMILES C[C@@H](Oc1ccc(-c2ccccc2)cc1)C(=O)N1CCC[C@H](C(=O)OCCOC(=O)c2ccc(-c3c4nc(c(-c5cc(S(=O)(=O)[O-])ccc5F)c5ccc([nH]5)c(-c5cc(S(=O)(=O)[O-])ccc5F)c5nc(c(-c6cc(S(=O)(=O)[O-])ccc6F)c6ccc3[nH]6)C=C5)C=C4)cc2)C1
REMARK SMILES IDX 26 1 25 2 23 3 24 4 22 5 18 6 19 7 94 8 20 9 21 10 16 11
REMARK SMILES IDX 17 12 2 13 1 14 3 15 4 16 5 17 15 18 6 19 14 20 7 21 8 22
REMARK SMILES IDX 9 23 13 24 10 25 12 26 11 27 27 28 28 29 29 30 30 31 31 32
REMARK SMILES IDX 32 33 93 34 33 35 92 36 34 37 35 38 36 39 86 40 37 41 91 42
REMARK SMILES IDX 85 43 87 44 38 45 90 46 84 47 83 48 39 50 71 51 51 52 70 53
REMARK SMILES IDX 52 54 55 55 69 56 88 57 53 58 54 59 68 61 89 62 56 63 40 64
REMARK SMILES IDX 41 65 49 66 42 67 48 68 50 69 47 70 43 71 44 72 45 73 46 74
REMARK SMILES IDX 72 75 73 76 81 77 74 78 80 79 82 80 79 81 75 82 76 83 77 84
REMARK SMILES IDX 78 85 57 86 58 87 66 88 59 89 65 90 67 91 64 92 60 93 61 94
REMARK SMILES IDX 62 95 63 96
REMARK H PARENT 87 49 55 60
REMARK Flexibility Score: inf
ROOT
ATOM      1  C   UNL A   1      37.699  22.878  25.743  1.00  0.00     0.274 C 
ENDROOT
BRANCH   1   2
ATOM      2  O   UNL A   1      36.698  22.440  24.806  1.00  0.00    -0.462 OA
BRANCH   2   3
ATOM      3  C   UNL A   1      35.627  21.770  25.298  1.00  0.00     0.310 C 
ATOM      4  O   UNL A   1      35.475  21.478  26.479  1.00  0.00    -0.252 OA
BRANCH   3   5
ATOM      5  C   UNL A   1      34.637  21.347  24.222  1.00  0.00     0.119 C 
ATOM      6  N   UNL A   1      32.794  22.792  24.930  1.00  0.00    -0.339 N 
ATOM      7  C   UNL A   1      31.895  21.677  25.211  1.00  0.00     0.119 C 
ATOM      8  C   UNL A   1      33.755  22.536  23.860  1.00  0.00     0.134 C 
ATOM      9  C   UNL A   1      32.650  20.390  25.532  1.00  0.00     0.022 C 
ATOM     10  C   UNL A   1      33.788  20.112  24.546  1.00  0.00     0.019 C 
BRANCH   6  11
ATOM     11  C   UNL A   1      32.710  23.958  25.683  1.00  0.00     0.263 C 
ATOM     12  O   UNL A   1      33.647  24.323  26.404  1.00  0.00    -0.271 OA
BRANCH  11  13
ATOM     13  C   UNL A   1      31.416  24.801  25.654  1.00  0.00     0.259 C 
ATOM     14  C   UNL A   1      30.282  24.180  26.466  1.00  0.00     0.064 C 
BRANCH  13  15
ATOM     15  O   UNL A   1      31.748  26.119  26.105  1.00  0.00    -0.481 OA
BRANCH  15  16
ATOM     16  C   UNL A   1      31.301  27.105  25.278  1.00  0.00     0.120 A 
ATOM     17  C   UNL A   1      31.696  28.421  25.494  1.00  0.00     0.047 A 
ATOM     18  C   UNL A   1      30.328  26.801  24.336  1.00  0.00     0.047 A 
ATOM     19  C   UNL A   1      31.105  29.449  24.752  1.00  0.00     0.012 A 
ATOM     20  C   UNL A   1      29.747  27.826  23.592  1.00  0.00     0.012 A 
ATOM     21  C   UNL A   1      30.107  29.170  23.800  1.00  0.00    -0.018 A 
BRANCH  21  22
ATOM     22  C   UNL A   1      29.408  30.246  23.078  1.00  0.00    -0.018 A 
ATOM     23  C   UNL A   1      28.996  31.421  23.725  1.00  0.00     0.009 A 
ATOM     24  C   UNL A   1      29.142  30.121  21.704  1.00  0.00     0.009 A 
ATOM     25  C   UNL A   1      28.351  32.441  23.016  1.00  0.00     0.001 A 
ATOM     26  C   UNL A   1      28.501  31.138  20.994  1.00  0.00     0.001 A 
ATOM     27  C   UNL A   1      28.108  32.300  21.651  1.00  0.00     0.000 A 
ENDBRANCH  21  22
ENDBRANCH  15  16
ENDBRANCH  13  15
ENDBRANCH  11  13
ENDBRANCH   6  11
ENDBRANCH   3   5
ENDBRANCH   2   3
ENDBRANCH   1   2
BRANCH   1  28
ATOM     28  C   UNL A   1      38.829  21.854  25.857  1.00  0.00     0.275 C 
BRANCH  28  29
ATOM     29  O   UNL A   1      39.705  22.173  26.952  1.00  0.00    -0.458 OA
BRANCH  29  30
ATOM     30  C   UNL A   1      41.001  22.361  26.606  1.00  0.00     0.338 C 
ATOM     31  O   UNL A   1      41.716  21.600  25.979  1.00  0.00    -0.246 OA
BRANCH  30  32
ATOM     32  C   UNL A   1      41.403  23.727  26.966  1.00  0.00     0.060 A 
ATOM     33  C   UNL A   1      41.794  23.965  28.284  1.00  0.00     0.016 A 
ATOM     34  C   UNL A   1      41.322  24.774  26.047  1.00  0.00     0.016 A 
ATOM     35  C   UNL A   1      42.102  25.254  28.701  1.00  0.00     0.010 A 
ATOM     36  C   UNL A   1      41.631  26.071  26.466  1.00  0.00     0.010 A 
ATOM     37  C   UNL A   1      42.010  26.318  27.799  1.00  0.00    -0.014 A 
BRANCH  37  38
ATOM     38  C   UNL A   1      42.227  27.702  28.285  1.00  0.00     0.031 A 
ATOM     39  C   UNL A   1      43.622  28.253  28.333  1.00  0.00     0.074 A 
ATOM     40  C   UNL A   1      41.175  28.464  28.634  1.00  0.00     0.049 A 
ATOM     41  N   UNL A   1      44.045  29.400  28.796  1.00  0.00    -0.248 NA
ATOM     42  C   UNL A   1      44.683  27.391  27.791  1.00  0.00     0.031 C 
ATOM     43  C   UNL A   1      39.773  28.049  28.564  1.00  0.00     0.029 A 
ATOM     44  N   UNL A   1      41.121  29.747  29.117  1.00  0.00    -0.354 N 
ATOM     45  C   UNL A   1      45.425  29.394  28.620  1.00  0.00     0.074 A 
ATOM     46  C   UNL A   1      45.766  28.115  28.030  1.00  0.00     0.031 C 
ATOM     47  C   UNL A   1      38.997  29.058  28.991  1.00  0.00     0.029 A 
ATOM     48  C   UNL A   1      39.847  30.168  29.413  1.00  0.00     0.049 A 
ATOM     49  H   UNL A   1      41.919  30.310  29.241  1.00  0.00     0.167 HD
ATOM     50  C   UNL A   1      46.320  30.366  28.923  1.00  0.00     0.034 A 
ATOM     51  C   UNL A   1      39.419  31.308  29.992  1.00  0.00     0.034 A 
ATOM     52  C   UNL A   1      45.953  31.633  29.511  1.00  0.00     0.049 A 
ATOM     53  C   UNL A   1      40.439  32.346  30.388  1.00  0.00     0.074 A 
ATOM     54  C   UNL A   1      46.773  32.691  29.864  1.00  0.00     0.029 A 
ATOM     55  N   UNL A   1      44.657  32.012  29.839  1.00  0.00    -0.354 N 
ATOM     56  N   UNL A   1      41.745  32.317  30.248  1.00  0.00    -0.248 NA
ATOM     57  C   UNL A   1      39.928  33.568  31.019  1.00  0.00     0.031 C 
ATOM     58  C   UNL A   1      45.981  33.681  30.459  1.00  0.00     0.029 A 
ATOM     59  C   UNL A   1      44.657  33.273  30.413  1.00  0.00     0.049 A 
ATOM     60  H   UNL A   1      43.853  31.463  29.684  1.00  0.00     0.167 HD
ATOM     61  C   UNL A   1      42.208  33.527  30.755  1.00  0.00     0.074 A 
ATOM     62  C   UNL A   1      41.040  34.268  31.187  1.00  0.00     0.031 C 
ATOM     63  C   UNL A   1      43.482  33.988  30.853  1.00  0.00     0.034 A 
BRANCH  50  64
ATOM     64  C   UNL A   1      47.778  30.061  28.682  1.00  0.00     0.023 A 
ATOM     65  C   UNL A   1      48.566  29.396  29.637  1.00  0.00     0.031 A 
ATOM     66  C   UNL A   1      48.400  30.487  27.495  1.00  0.00     0.131 A 
ATOM     67  C   UNL A   1      49.945  29.239  29.421  1.00  0.00     0.055 A 
ATOM     68  C   UNL A   1      49.757  30.259  27.252  1.00  0.00     0.041 A 
ATOM     69  F   UNL A   1      47.705  31.149  26.558  1.00  0.00    -0.206 F 
ATOM     70  C   UNL A   1      50.541  29.646  28.224  1.00  0.00     0.022 A 
BRANCH  67  71
ATOM     71  S   UNL A   1      50.974  28.628  30.783  1.00  0.00     0.124 S 
ATOM     72  O   UNL A   1      51.800  27.631  30.105  1.00  0.00    -0.237 OA
ATOM     73  O   UNL A   1      51.663  29.834  31.226  1.00  0.00    -0.237 OA
ATOM     74  O   UNL A   1      50.003  28.082  31.729  1.00  0.00    -0.744 OA
ENDBRANCH  67  71
ENDBRANCH  50  64
BRANCH  51  75
ATOM     75  C   UNL A   1      37.971  31.508  30.285  1.00  0.00     0.023 A 
ATOM     76  C   UNL A   1      37.123  32.144  29.365  1.00  0.00     0.031 A 
ATOM     77  C   UNL A   1      37.423  31.098  31.514  1.00  0.00     0.131 A 
ATOM     78  C   UNL A   1      35.782  32.386  29.704  1.00  0.00     0.055 A 
ATOM     79  C   UNL A   1      36.078  31.296  31.825  1.00  0.00     0.041 A 
ATOM     80  F   UNL A   1      38.191  30.484  32.428  1.00  0.00    -0.206 F 
ATOM     81  C   UNL A   1      35.251  31.954  30.921  1.00  0.00     0.022 A 
BRANCH  78  82
ATOM     82  S   UNL A   1      34.755  33.344  28.555  1.00  0.00     0.124 S 
ATOM     83  O   UNL A   1      34.431  34.519  29.355  1.00  0.00    -0.237 OA
ATOM     84  O   UNL A   1      35.671  33.560  27.438  1.00  0.00    -0.237 OA
ATOM     85  O   UNL A   1      33.634  32.451  28.274  1.00  0.00    -0.744 OA
ENDBRANCH  78  82
ENDBRANCH  51  75
BRANCH  63  86
ATOM     86  C   UNL A   1      43.659  35.377  31.414  1.00  0.00     0.023 A 
ATOM     87  C   UNL A   1      43.650  35.620  32.799  1.00  0.00     0.031 A 
ATOM     88  C   UNL A   1      43.817  36.473  30.549  1.00  0.00     0.131 A 
ATOM     89  C   UNL A   1      43.740  36.937  33.276  1.00  0.00     0.055 A 
ATOM     90  C   UNL A   1      43.964  37.775  31.032  1.00  0.00     0.041 A 
ATOM     91  F   UNL A   1      43.832  36.297  29.218  1.00  0.00    -0.206 F 
ATOM     92  C   UNL A   1      43.912  38.013  32.402  1.00  0.00     0.022 A 
BRANCH  89  93
ATOM     93  S   UNL A   1      43.537  37.234  35.054  1.00  0.00     0.124 S 
ATOM     94  O   UNL A   1      42.097  37.077  35.226  1.00  0.00    -0.237 OA
ATOM     95  O   UNL A   1      44.367  36.188  35.643  1.00  0.00    -0.237 OA
ATOM     96  O   UNL A   1      44.038  38.595  35.233  1.00  0.00    -0.744 OA
ENDBRANCH  89  93
ENDBRANCH  63  86
ENDBRANCH  37  38
ENDBRANCH  30  32
ENDBRANCH  29  30
ENDBRANCH  28  29
ENDBRANCH   1  28
TORSDOF 19
ENDMDL
MODEL 3
REMARK VINA RESULT:     -10.9      1.806      7.641
REMARK SMILES C[C@@H](Oc1ccc(-c2ccccc2)cc1)C(=O)N1CCC[C@H](C(=O)OCCOC(=O)c2ccc(-c3c4nc(c(-c5cc(S(=O)(=O)[O-])ccc5F)c5ccc([nH]5)c(-c5cc(S(=O)(=O)[O-])ccc5F)c5nc(c(-c6cc(S(=O)(=O)[O-])ccc6F)c6ccc3[nH]6)C=C5)C=C4)cc2)C1
REMARK SMILES IDX 26 1 25 2 23 3 24 4 22 5 18 6 19 7 94 8 20 9 21 10 16 11
REMARK SMILES IDX 17 12 2 13 1 14 3 15 4 16 5 17 15 18 6 19 14 20 7 21 8 22
REMARK SMILES IDX 9 23 13 24 10 25 12 26 11 27 27 28 28 29 29 30 30 31 31 32
REMARK SMILES IDX 32 33 93 34 33 35 92 36 34 37 35 38 36 39 86 40 37 41 91 42
REMARK SMILES IDX 85 43 87 44 38 45 90 46 84 47 83 48 39 50 71 51 51 52 70 53
REMARK SMILES IDX 52 54 55 55 69 56 88 57 53 58 54 59 68 61 89 62 56 63 40 64
REMARK SMILES IDX 41 65 49 66 42 67 48 68 50 69 47 70 43 71 44 72 45 73 46 74
REMARK SMILES IDX 72 75 73 76 81 77 74 78 80 79 82 80 79 81 75 82 76 83 77 84
REMARK SMILES IDX 78 85 57 86 58 87 66 88 59 89 65 90 67 91 64 92 60 93 61 94
REMARK SMILES IDX 62 95 63 96
REMARK H PARENT 87 49 55 60
REMARK Flexibility Score: inf
ROOT
ATOM      1  C   UNL A   1      38.524  21.102  25.186  1.00  0.00     0.274 C 
ENDROOT
BRANCH   1   2
ATOM      2  O   UNL A   1      37.355  21.667  25.808  1.00  0.00    -0.462 OA
BRANCH   2   3
ATOM      3  C   UNL A   1      36.578  22.485  25.057  1.00  0.00     0.310 C 
ATOM      4  O   UNL A   1      36.633  23.709  25.083  1.00  0.00    -0.252 OA
BRANCH   3   5
ATOM      5  C   UNL A   1      35.562  21.734  24.207  1.00  0.00     0.119 C 
ATOM      6  N   UNL A   1      33.566  22.852  25.073  1.00  0.00    -0.339 N 
ATOM      7  C   UNL A   1      32.985  21.623  25.604  1.00  0.00     0.119 C 
ATOM      8  C   UNL A   1      34.397  22.662  23.886  1.00  0.00     0.134 C 
ATOM      9  C   UNL A   1      34.044  20.569  25.915  1.00  0.00     0.022 C 
ATOM     10  C   UNL A   1      35.063  20.404  24.783  1.00  0.00     0.019 C 
BRANCH   6  11
ATOM     11  C   UNL A   1      33.335  24.063  25.715  1.00  0.00     0.263 C 
ATOM     12  O   UNL A   1      34.023  24.417  26.680  1.00  0.00    -0.271 OA
BRANCH  11  13
ATOM     13  C   UNL A   1      32.178  24.975  25.246  1.00  0.00     0.259 C 
ATOM     14  C   UNL A   1      31.145  25.236  26.339  1.00  0.00     0.064 C 
BRANCH  13  15
ATOM     15  O   UNL A   1      32.757  26.186  24.747  1.00  0.00    -0.481 OA
BRANCH  15  16
ATOM     16  C   UNL A   1      31.834  27.111  24.363  1.00  0.00     0.120 A 
ATOM     17  C   UNL A   1      31.060  26.886  23.228  1.00  0.00     0.047 A 
ATOM     18  C   UNL A   1      31.799  28.335  25.016  1.00  0.00     0.047 A 
ATOM     19  C   UNL A   1      30.237  27.908  22.743  1.00  0.00     0.012 A 
ATOM     20  C   UNL A   1      30.972  29.348  24.534  1.00  0.00     0.012 A 
ATOM     21  C   UNL A   1      30.193  29.162  23.377  1.00  0.00    -0.018 A 
BRANCH  21  22
ATOM     22  C   UNL A   1      29.406  30.277  22.826  1.00  0.00    -0.018 A 
ATOM     23  C   UNL A   1      28.911  31.306  23.643  1.00  0.00     0.009 A 
ATOM     24  C   UNL A   1      29.135  30.342  21.448  1.00  0.00     0.009 A 
ATOM     25  C   UNL A   1      28.183  32.369  23.096  1.00  0.00     0.001 A 
ATOM     26  C   UNL A   1      28.411  31.402  20.900  1.00  0.00     0.001 A 
ATOM     27  C   UNL A   1      27.936  32.417  21.725  1.00  0.00     0.000 A 
ENDBRANCH  21  22
ENDBRANCH  15  16
ENDBRANCH  13  15
ENDBRANCH  11  13
ENDBRANCH   6  11
ENDBRANCH   3   5
ENDBRANCH   2   3
ENDBRANCH   1   2
BRANCH   1  28
ATOM     28  C   UNL A   1      39.520  20.607  26.237  1.00  0.00     0.275 C 
BRANCH  28  29
ATOM     29  O   UNL A   1      40.354  19.564  25.705  1.00  0.00    -0.458 OA
BRANCH  29  30
ATOM     30  C   UNL A   1      41.590  19.491  26.254  1.00  0.00     0.338 C 
ATOM     31  O   UNL A   1      42.265  18.492  26.424  1.00  0.00    -0.246 OA
BRANCH  30  32
ATOM     32  C   UNL A   1      42.096  20.851  26.484  1.00  0.00     0.060 A 
ATOM     33  C   UNL A   1      42.223  21.284  27.805  1.00  0.00     0.016 A 
ATOM     34  C   UNL A   1      42.365  21.715  25.423  1.00  0.00     0.016 A 
ATOM     35  C   UNL A   1      42.616  22.588  28.079  1.00  0.00     0.010 A 
ATOM     36  C   UNL A   1      42.759  23.028  25.698  1.00  0.00     0.010 A 
ATOM     37  C   UNL A   1      42.873  23.474  27.029  1.00  0.00    -0.014 A 
BRANCH  37  38
ATOM     38  C   UNL A   1      43.175  24.892  27.333  1.00  0.00     0.031 A 
ATOM     39  C   UNL A   1      44.558  25.419  27.082  1.00  0.00     0.074 A 
ATOM     40  C   UNL A   1      42.203  25.704  27.787  1.00  0.00     0.049 A 
ATOM     41  N   UNL A   1      45.059  26.596  27.351  1.00  0.00    -0.248 NA
ATOM     42  C   UNL A   1      45.505  24.489  26.448  1.00  0.00     0.031 C 
ATOM     43  C   UNL A   1      40.810  25.312  28.004  1.00  0.00     0.029 A 
ATOM     44  N   UNL A   1      42.239  27.027  28.146  1.00  0.00    -0.354 N 
ATOM     45  C   UNL A   1      46.386  26.546  26.937  1.00  0.00     0.074 A 
ATOM     46  C   UNL A   1      46.615  25.211  26.423  1.00  0.00     0.031 C 
ATOM     47  C   UNL A   1      40.124  26.371  28.461  1.00  0.00     0.029 A 
ATOM     48  C   UNL A   1      41.037  27.500  28.619  1.00  0.00     0.049 A 
ATOM     49  H   UNL A   1      43.047  27.585  28.073  1.00  0.00     0.167 HD
ATOM     50  C   UNL A   1      47.322  27.526  26.983  1.00  0.00     0.034 A 
ATOM     51  C   UNL A   1      40.721  28.697  29.152  1.00  0.00     0.034 A 
ATOM     52  C   UNL A   1      47.068  28.849  27.501  1.00  0.00     0.049 A 
ATOM     53  C   UNL A   1      41.797  29.748  29.260  1.00  0.00     0.074 A 
ATOM     54  C   UNL A   1      47.940  29.920  27.601  1.00  0.00     0.029 A 
ATOM     55  N   UNL A   1      45.851  29.282  28.014  1.00  0.00    -0.354 N 
ATOM     56  N   UNL A   1      43.058  29.680  28.896  1.00  0.00    -0.248 NA
ATOM     57  C   UNL A   1      41.408  31.033  29.850  1.00  0.00     0.031 C 
ATOM     58  C   UNL A   1      47.268  30.977  28.228  1.00  0.00     0.029 A 
ATOM     59  C   UNL A   1      45.955  30.592  28.454  1.00  0.00     0.049 A 
ATOM     60  H   UNL A   1      45.032  28.737  28.056  1.00  0.00     0.167 HD
ATOM     61  C   UNL A   1      43.606  30.924  29.195  1.00  0.00     0.074 A 
ATOM     62  C   UNL A   1      42.534  31.725  29.752  1.00  0.00     0.031 C 
ATOM     63  C   UNL A   1      44.878  31.367  29.023  1.00  0.00     0.034 A 
BRANCH  50  64
ATOM     64  C   UNL A   1      48.714  27.172  26.521  1.00  0.00     0.023 A 
ATOM     65  C   UNL A   1      49.198  27.551  25.257  1.00  0.00     0.031 A 
ATOM     66  C   UNL A   1      49.555  26.399  27.342  1.00  0.00     0.131 A 
ATOM     67  C   UNL A   1      50.454  27.098  24.821  1.00  0.00     0.055 A 
ATOM     68  C   UNL A   1      50.835  26.017  26.934  1.00  0.00     0.041 A 
ATOM     69  F   UNL A   1      49.139  25.985  28.549  1.00  0.00    -0.206 F 
ATOM     70  C   UNL A   1      51.285  26.353  25.661  1.00  0.00     0.022 A 
BRANCH  67  71
ATOM     71  S   UNL A   1      50.926  27.375  23.092  1.00  0.00     0.124 S 
ATOM     72  O   UNL A   1      52.236  26.731  23.037  1.00  0.00    -0.237 OA
ATOM     73  O   UNL A   1      49.854  26.709  22.362  1.00  0.00    -0.237 OA
ATOM     74  O   UNL A   1      50.950  28.832  22.972  1.00  0.00    -0.744 OA
ENDBRANCH  67  71
ENDBRANCH  50  64
BRANCH  51  75
ATOM     75  C   UNL A   1      39.348  28.951  29.673  1.00  0.00     0.023 A 
ATOM     76  C   UNL A   1      38.412  29.687  28.930  1.00  0.00     0.031 A 
ATOM     77  C   UNL A   1      38.967  28.491  30.947  1.00  0.00     0.131 A 
ATOM     78  C   UNL A   1      37.154  29.976  29.483  1.00  0.00     0.055 A 
ATOM     79  C   UNL A   1      37.697  28.737  31.471  1.00  0.00     0.041 A 
ATOM     80  F   UNL A   1      39.825  27.782  31.697  1.00  0.00    -0.206 F 
ATOM     81  C   UNL A   1      36.786  29.494  30.742  1.00  0.00     0.022 A 
BRANCH  78  82
ATOM     82  S   UNL A   1      36.026  31.057  28.561  1.00  0.00     0.124 S 
ATOM     83  O   UNL A   1      34.907  31.180  29.488  1.00  0.00    -0.237 OA
ATOM     84  O   UNL A   1      36.840  32.254  28.374  1.00  0.00    -0.237 OA
ATOM     85  O   UNL A   1      35.748  30.299  27.343  1.00  0.00    -0.744 OA
ENDBRANCH  78  82
ENDBRANCH  51  75
BRANCH  63  86
ATOM     86  C   UNL A   1      45.155  32.800  29.408  1.00  0.00     0.023 A 
ATOM     87  C   UNL A   1      44.947  33.860  28.508  1.00  0.00     0.031 A 
ATOM     88  C   UNL A   1      45.654  33.103  30.686  1.00  0.00     0.131 A 
ATOM     89  C   UNL A   1      45.291  35.168  28.880  1.00  0.00     0.055 A 
ATOM     90  C   UNL A   1      45.941  34.414  31.070  1.00  0.00     0.041 A 
ATOM     91  F   UNL A   1      45.872  32.128  31.584  1.00  0.00    -0.206 F 
ATOM     92  C   UNL A   1      45.772  35.453  30.160  1.00  0.00     0.022 A 
BRANCH  89  93
ATOM     93  S   UNL A   1      45.188  36.483  27.635  1.00  0.00     0.124 S 
ATOM     94  O   UNL A   1      46.515  37.085  27.717  1.00  0.00    -0.237 OA
ATOM     95  O   UNL A   1      44.902  35.736  26.414  1.00  0.00    -0.237 OA
ATOM     96  O   UNL A   1      44.095  37.326  28.115  1.00  0.00    -0.744 OA
ENDBRANCH  89  93
ENDBRANCH  63  86
ENDBRANCH  37  38
ENDBRANCH  30  32
ENDBRANCH  29  30
ENDBRANCH  28  29
ENDBRANCH   1  28
TORSDOF 19
ENDMDL
