MODEL 1
REMARK VINA RESULT:     -12.6      0.000      0.000
REMARK SMILES COC(=O)c1ccc(-c2ccc(C(=O)OCCOC(=O)c3ccc(-c4c5nc(c(-c6cc(S(=O)(=O)[O-])ccc6F)c6ccc([nH]6)c(-c6cc(S(=O)(=O)[O-])ccc6F)c6nc(c(-c7cc(S(=O)(=O)[O-])ccc7F)c7ccc4[nH]7)C=C6)C=C5)cc3)cc2O)cc1F
REMARK SMILES IDX 16 1 15 2 13 3 14 4 12 5 9 6 10 7 85 8 11 9 84 10 8 11 5 12
REMARK SMILES IDX 6 13 88 14 7 15 87 16 89 17 3 18 4 19 2 20 1 21 86 22 17 24
REMARK SMILES IDX 18 25 19 26 20 27 21 28 22 29 83 30 23 31 82 32 24 33 25 34
REMARK SMILES IDX 26 35 76 36 27 37 81 38 75 39 77 40 28 41 80 42 74 43 73 44
REMARK SMILES IDX 29 46 61 47 41 48 60 49 42 50 45 51 59 52 78 53 43 54 44 55
REMARK SMILES IDX 58 57 79 58 46 59 30 60 31 61 39 62 32 63 38 64 40 65 37 66
REMARK SMILES IDX 33 67 34 68 35 69 36 70 62 71 63 72 71 73 64 74 70 75 72 76
REMARK SMILES IDX 69 77 65 78 66 79 67 80 68 81 47 82 48 83 56 84 49 85 55 86
REMARK SMILES IDX 57 87 54 88 50 89 51 90 52 91 53 92
REMARK H PARENT 86 23 77 45 45 56
REMARK Flexibility Score: inf
ROOT
ATOM      1  C   UNL A   1      34.882  21.601  25.342  1.00  0.00     0.275 C 
ENDROOT
BRANCH   1   2
ATOM      2  O   UNL A   1      33.892  21.197  24.372  1.00  0.00    -0.458 OA
BRANCH   2   3
ATOM      3  C   UNL A   1      32.624  21.103  24.842  1.00  0.00     0.338 C 
ATOM      4  O   UNL A   1      32.138  20.147  25.424  1.00  0.00    -0.246 OA
BRANCH   3   5
ATOM      5  C   UNL A   1      31.878  22.366  24.632  1.00  0.00     0.063 A 
ATOM      6  C   UNL A   1      30.634  24.849  24.129  1.00  0.00     0.024 A 
ATOM      7  C   UNL A   1      31.147  24.082  23.079  1.00  0.00     0.013 A 
ATOM      8  C   UNL A   1      30.746  24.336  25.437  1.00  0.00     0.124 A 
ATOM      9  C   UNL A   1      31.799  22.880  23.335  1.00  0.00     0.016 A 
ATOM     10  C   UNL A   1      31.339  23.093  25.695  1.00  0.00     0.062 A 
BRANCH   6  11
ATOM     11  C   UNL A   1      30.107  26.182  23.816  1.00  0.00    -0.012 A 
ATOM     12  C   UNL A   1      29.114  28.690  23.011  1.00  0.00     0.095 A 
ATOM     13  C   UNL A   1      28.231  27.698  23.453  1.00  0.00     0.019 A 
ATOM     14  C   UNL A   1      30.482  28.432  22.985  1.00  0.00     0.138 A 
ATOM     15  C   UNL A   1      28.727  26.450  23.844  1.00  0.00     0.010 A 
ATOM     16  C   UNL A   1      30.976  27.193  23.380  1.00  0.00     0.049 A 
ATOM     17  F   UNL A   1      31.362  29.370  22.602  1.00  0.00    -0.206 F 
BRANCH  12  18
ATOM     18  C   UNL A   1      28.574  30.004  22.626  1.00  0.00     0.340 C 
ATOM     19  O   UNL A   1      28.556  30.967  23.374  1.00  0.00    -0.246 OA
BRANCH  18  20
ATOM     20  O   UNL A   1      28.070  29.952  21.369  1.00  0.00    -0.465 OA
ATOM     21  C   UNL A   1      28.071  31.208  20.693  1.00  0.00     0.282 C 
ENDBRANCH  18  20
ENDBRANCH  12  18
ENDBRANCH   6  11
BRANCH   8  22
ATOM     22  O   UNL A   1      30.285  25.090  26.485  1.00  0.00    -0.507 OA
ATOM     23  H   UNL A   1      29.583  24.773  27.018  1.00  0.00     0.293 HD
ENDBRANCH   8  22
ENDBRANCH   3   5
ENDBRANCH   2   3
ENDBRANCH   1   2
BRANCH   1  24
ATOM     24  C   UNL A   1      36.162  20.773  25.226  1.00  0.00     0.275 C 
BRANCH  24  25
ATOM     25  O   UNL A   1      37.306  21.616  24.998  1.00  0.00    -0.458 OA
BRANCH  25  26
ATOM     26  C   UNL A   1      38.437  21.223  25.629  1.00  0.00     0.338 C 
ATOM     27  O   UNL A   1      38.961  20.122  25.583  1.00  0.00    -0.246 OA
BRANCH  26  28
ATOM     28  C   UNL A   1      39.044  22.352  26.350  1.00  0.00     0.060 A 
ATOM     29  C   UNL A   1      38.550  23.623  26.095  1.00  0.00     0.016 A 
ATOM     30  C   UNL A   1      40.212  22.196  27.090  1.00  0.00     0.016 A 
ATOM     31  C   UNL A   1      39.301  24.746  26.426  1.00  0.00     0.010 A 
ATOM     32  C   UNL A   1      40.882  23.335  27.565  1.00  0.00     0.010 A 
ATOM     33  C   UNL A   1      40.463  24.629  27.199  1.00  0.00    -0.014 A 
BRANCH  33  34
ATOM     34  C   UNL A   1      41.229  25.847  27.611  1.00  0.00     0.031 A 
ATOM     35  C   UNL A   1      40.594  26.892  28.499  1.00  0.00     0.074 A 
ATOM     36  C   UNL A   1      42.506  26.019  27.205  1.00  0.00     0.049 A 
ATOM     37  N   UNL A   1      41.017  28.098  28.788  1.00  0.00    -0.248 NA
ATOM     38  C   UNL A   1      39.312  26.545  29.132  1.00  0.00     0.031 C 
ATOM     39  C   UNL A   1      43.278  25.070  26.396  1.00  0.00     0.029 A 
ATOM     40  N   UNL A   1      43.394  27.047  27.426  1.00  0.00    -0.354 N 
ATOM     41  C   UNL A   1      40.032  28.670  29.589  1.00  0.00     0.074 A 
ATOM     42  C   UNL A   1      38.984  27.682  29.732  1.00  0.00     0.031 C 
ATOM     43  C   UNL A   1      44.529  25.526  26.246  1.00  0.00     0.029 A 
ATOM     44  C   UNL A   1      44.620  26.856  26.828  1.00  0.00     0.049 A 
ATOM     45  H   UNL A   1      43.173  27.843  27.960  1.00  0.00     0.167 HD
ATOM     46  C   UNL A   1      40.008  29.904  30.151  1.00  0.00     0.034 A 
ATOM     47  C   UNL A   1      45.685  27.673  26.699  1.00  0.00     0.034 A 
ATOM     48  C   UNL A   1      41.084  30.860  30.043  1.00  0.00     0.049 A 
ATOM     49  C   UNL A   1      45.605  29.064  27.261  1.00  0.00     0.074 A 
ATOM     50  C   UNL A   1      41.159  32.133  30.582  1.00  0.00     0.029 A 
ATOM     51  N   UNL A   1      42.275  30.646  29.363  1.00  0.00    -0.354 N 
ATOM     52  N   UNL A   1      44.624  29.624  27.926  1.00  0.00    -0.248 NA
ATOM     53  C   UNL A   1      46.762  29.939  27.035  1.00  0.00     0.031 C 
ATOM     54  C   UNL A   1      42.365  32.711  30.175  1.00  0.00     0.029 A 
ATOM     55  C   UNL A   1      43.078  31.773  29.448  1.00  0.00     0.049 A 
ATOM     56  H   UNL A   1      42.516  29.817  28.891  1.00  0.00     0.167 HD
ATOM     57  C   UNL A   1      45.051  30.916  28.212  1.00  0.00     0.074 A 
ATOM     58  C   UNL A   1      46.381  31.048  27.655  1.00  0.00     0.031 C 
ATOM     59  C   UNL A   1      44.398  31.900  28.879  1.00  0.00     0.034 A 
BRANCH  46  60
ATOM     60  C   UNL A   1      38.765  30.322  30.896  1.00  0.00     0.023 A 
ATOM     61  C   UNL A   1      37.725  31.033  30.277  1.00  0.00     0.031 A 
ATOM     62  C   UNL A   1      38.604  29.959  32.247  1.00  0.00     0.131 A 
ATOM     63  C   UNL A   1      36.585  31.389  31.016  1.00  0.00     0.055 A 
ATOM     64  C   UNL A   1      37.441  30.259  32.959  1.00  0.00     0.041 A 
ATOM     65  F   UNL A   1      39.573  29.292  32.894  1.00  0.00    -0.206 F 
ATOM     66  C   UNL A   1      36.425  30.985  32.345  1.00  0.00     0.022 A 
BRANCH  63  67
ATOM     67  S   UNL A   1      35.338  32.452  30.240  1.00  0.00     0.124 S 
ATOM     68  O   UNL A   1      36.103  33.674  29.999  1.00  0.00    -0.237 OA
ATOM     69  O   UNL A   1      34.963  31.690  29.055  1.00  0.00    -0.237 OA
ATOM     70  O   UNL A   1      34.300  32.566  31.262  1.00  0.00    -0.744 OA
ENDBRANCH  63  67
ENDBRANCH  46  60
BRANCH  47  71
ATOM     71  C   UNL A   1      46.883  27.214  25.941  1.00  0.00     0.023 A 
ATOM     72  C   UNL A   1      47.093  27.607  24.611  1.00  0.00     0.031 A 
ATOM     73  C   UNL A   1      47.850  26.390  26.548  1.00  0.00     0.131 A 
ATOM     74  C   UNL A   1      48.239  27.171  23.927  1.00  0.00     0.055 A 
ATOM     75  C   UNL A   1      49.011  25.999  25.879  1.00  0.00     0.041 A 
ATOM     76  F   UNL A   1      47.697  25.988  27.820  1.00  0.00    -0.206 F 
ATOM     77  C   UNL A   1      49.208  26.386  24.559  1.00  0.00     0.022 A 
BRANCH  74  78
ATOM     78  S   UNL A   1      48.438  27.623  22.183  1.00  0.00     0.124 S 
ATOM     79  O   UNL A   1      47.243  28.426  21.948  1.00  0.00    -0.237 OA
ATOM     80  O   UNL A   1      49.706  28.346  22.197  1.00  0.00    -0.237 OA
ATOM     81  O   UNL A   1      48.468  26.331  21.499  1.00  0.00    -0.744 OA
ENDBRANCH  74  78
ENDBRANCH  47  71
BRANCH  59  82
ATOM     82  C   UNL A   1      45.129  33.198  29.084  1.00  0.00     0.023 A 
ATOM     83  C   UNL A   1      45.046  34.245  28.150  1.00  0.00     0.031 A 
ATOM     84  C   UNL A   1      45.885  33.405  30.251  1.00  0.00     0.131 A 
ATOM     85  C   UNL A   1      45.733  35.444  28.388  1.00  0.00     0.055 A 
ATOM     86  C   UNL A   1      46.525  34.618  30.506  1.00  0.00     0.041 A 
ATOM     87  F   UNL A   1      45.994  32.435  31.173  1.00  0.00    -0.206 F 
ATOM     88  C   UNL A   1      46.455  35.644  29.568  1.00  0.00     0.022 A 
BRANCH  85  89
ATOM     89  S   UNL A   1      45.703  36.734  27.114  1.00  0.00     0.124 S 
ATOM     90  O   UNL A   1      46.519  37.778  27.723  1.00  0.00    -0.237 OA
ATOM     91  O   UNL A   1      46.291  36.056  25.964  1.00  0.00    -0.237 OA
ATOM     92  O   UNL A   1      44.283  37.054  26.983  1.00  0.00    -0.744 OA
ENDBRANCH  85  89
ENDBRANCH  59  82
ENDBRANCH  33  34
ENDBRANCH  26  28
ENDBRANCH  25  26
ENDBRANCH  24  25
ENDBRANCH   1  24
TORSDOF 18
ENDMDL
MODEL 2
REMARK VINA RESULT:     -12.2      5.201     10.704
REMARK SMILES COC(=O)c1ccc(-c2ccc(C(=O)OCCOC(=O)c3ccc(-c4c5nc(c(-c6cc(S(=O)(=O)[O-])ccc6F)c6ccc([nH]6)c(-c6cc(S(=O)(=O)[O-])ccc6F)c6nc(c(-c7cc(S(=O)(=O)[O-])ccc7F)c7ccc4[nH]7)C=C6)C=C5)cc3)cc2O)cc1F
REMARK SMILES IDX 16 1 15 2 13 3 14 4 12 5 9 6 10 7 85 8 11 9 84 10 8 11 5 12
REMARK SMILES IDX 6 13 88 14 7 15 87 16 89 17 3 18 4 19 2 20 1 21 86 22 17 24
REMARK SMILES IDX 18 25 19 26 20 27 21 28 22 29 83 30 23 31 82 32 24 33 25 34
REMARK SMILES IDX 26 35 76 36 27 37 81 38 75 39 77 40 28 41 80 42 74 43 73 44
REMARK SMILES IDX 29 46 61 47 41 48 60 49 42 50 45 51 59 52 78 53 43 54 44 55
REMARK SMILES IDX 58 57 79 58 46 59 30 60 31 61 39 62 32 63 38 64 40 65 37 66
REMARK SMILES IDX 33 67 34 68 35 69 36 70 62 71 63 72 71 73 64 74 70 75 72 76
REMARK SMILES IDX 69 77 65 78 66 79 67 80 68 81 47 82 48 83 56 84 49 85 55 86
REMARK SMILES IDX 57 87 54 88 50 89 51 90 52 91 53 92
REMARK H PARENT 86 23 77 45 45 56
REMARK Flexibility Score: inf
ROOT
ATOM      1  C   UNL A   1      31.133  29.598  24.624  1.00  0.00     0.275 C 
ENDROOT
BRANCH   1   2
ATOM      2  O   UNL A   1      31.866  28.823  23.652  1.00  0.00    -0.458 OA
BRANCH   2   3
ATOM      3  C   UNL A   1      31.104  28.098  22.796  1.00  0.00     0.338 C 
ATOM      4  O   UNL A   1      30.275  28.537  22.016  1.00  0.00    -0.246 OA
BRANCH   3   5
ATOM      5  C   UNL A   1      31.451  26.658  22.856  1.00  0.00     0.063 A 
ATOM      6  C   UNL A   1      32.049  23.919  23.179  1.00  0.00     0.024 A 
ATOM      7  C   UNL A   1      30.768  24.408  23.455  1.00  0.00     0.013 A 
ATOM      8  C   UNL A   1      33.020  24.832  22.723  1.00  0.00     0.124 A 
ATOM      9  C   UNL A   1      30.490  25.765  23.337  1.00  0.00     0.016 A 
ATOM     10  C   UNL A   1      32.726  26.190  22.535  1.00  0.00     0.062 A 
BRANCH   6  11
ATOM     11  C   UNL A   1      32.329  22.510  23.480  1.00  0.00    -0.012 A 
ATOM     12  C   UNL A   1      32.688  19.805  24.170  1.00  0.00     0.095 A 
ATOM     13  C   UNL A   1      32.202  20.145  22.902  1.00  0.00     0.019 A 
ATOM     14  C   UNL A   1      33.002  20.812  25.078  1.00  0.00     0.138 A 
ATOM     15  C   UNL A   1      32.017  21.490  22.565  1.00  0.00     0.010 A 
ATOM     16  C   UNL A   1      32.824  22.149  24.742  1.00  0.00     0.049 A 
ATOM     17  F   UNL A   1      33.504  20.527  26.290  1.00  0.00    -0.206 F 
BRANCH  12  18
ATOM     18  C   UNL A   1      32.898  18.385  24.495  1.00  0.00     0.340 C 
ATOM     19  O   UNL A   1      32.153  17.745  25.217  1.00  0.00    -0.246 OA
BRANCH  18  20
ATOM     20  O   UNL A   1      34.043  17.939  23.923  1.00  0.00    -0.465 OA
ATOM     21  C   UNL A   1      33.989  16.575  23.509  1.00  0.00     0.282 C 
ENDBRANCH  18  20
ENDBRANCH  12  18
ENDBRANCH   6  11
BRANCH   8  22
ATOM     22  O   UNL A   1      34.292  24.382  22.485  1.00  0.00    -0.507 OA
ATOM     23  H   UNL A   1      34.564  23.548  22.816  1.00  0.00     0.293 HD
ENDBRANCH   8  22
ENDBRANCH   3   5
ENDBRANCH   2   3
ENDBRANCH   1   2
BRANCH   1  24
ATOM     24  C   UNL A   1      31.780  29.532  26.009  1.00  0.00     0.275 C 
BRANCH  24  25
ATOM     25  O   UNL A   1      33.124  30.046  25.977  1.00  0.00    -0.458 OA
BRANCH  25  26
ATOM     26  C   UNL A   1      33.397  30.981  26.917  1.00  0.00     0.338 C 
ATOM     27  O   UNL A   1      32.643  31.843  27.339  1.00  0.00    -0.246 OA
BRANCH  26  28
ATOM     28  C   UNL A   1      34.748  30.784  27.463  1.00  0.00     0.060 A 
ATOM     29  C   UNL A   1      35.127  29.493  27.799  1.00  0.00     0.016 A 
ATOM     30  C   UNL A   1      35.542  31.862  27.840  1.00  0.00     0.016 A 
ATOM     31  C   UNL A   1      36.203  29.279  28.655  1.00  0.00     0.010 A 
ATOM     32  C   UNL A   1      36.720  31.627  28.567  1.00  0.00     0.010 A 
ATOM     33  C   UNL A   1      37.043  30.336  29.027  1.00  0.00    -0.014 A 
BRANCH  33  34
ATOM     34  C   UNL A   1      38.239  30.088  29.893  1.00  0.00     0.031 A 
ATOM     35  C   UNL A   1      39.399  29.263  29.385  1.00  0.00     0.074 A 
ATOM     36  C   UNL A   1      38.303  30.614  31.136  1.00  0.00     0.049 A 
ATOM     37  N   UNL A   1      40.416  28.771  30.049  1.00  0.00    -0.248 NA
ATOM     38  C   UNL A   1      39.413  28.936  27.951  1.00  0.00     0.031 C 
ATOM     39  C   UNL A   1      37.290  31.483  31.746  1.00  0.00     0.029 A 
ATOM     40  N   UNL A   1      39.265  30.511  32.113  1.00  0.00    -0.354 N 
ATOM     41  C   UNL A   1      41.156  28.034  29.128  1.00  0.00     0.074 A 
ATOM     42  C   UNL A   1      40.467  28.136  27.860  1.00  0.00     0.031 C 
ATOM     43  C   UNL A   1      37.712  31.881  32.953  1.00  0.00     0.029 A 
ATOM     44  C   UNL A   1      38.957  31.196  33.267  1.00  0.00     0.049 A 
ATOM     45  H   UNL A   1      40.096  29.995  31.998  1.00  0.00     0.167 HD
ATOM     46  C   UNL A   1      42.304  27.340  29.327  1.00  0.00     0.034 A 
ATOM     47  C   UNL A   1      39.563  31.230  34.471  1.00  0.00     0.034 A 
ATOM     48  C   UNL A   1      43.009  27.290  30.585  1.00  0.00     0.049 A 
ATOM     49  C   UNL A   1      40.789  30.390  34.691  1.00  0.00     0.074 A 
ATOM     50  C   UNL A   1      44.183  26.621  30.886  1.00  0.00     0.029 A 
ATOM     51  N   UNL A   1      42.616  27.941  31.746  1.00  0.00    -0.354 N 
ATOM     52  N   UNL A   1      41.417  29.618  33.838  1.00  0.00    -0.248 NA
ATOM     53  C   UNL A   1      41.373  30.407  36.039  1.00  0.00     0.031 C 
ATOM     54  C   UNL A   1      44.465  26.815  32.241  1.00  0.00     0.029 A 
ATOM     55  C   UNL A   1      43.511  27.668  32.769  1.00  0.00     0.049 A 
ATOM     56  H   UNL A   1      41.820  28.514  31.831  1.00  0.00     0.167 HD
ATOM     57  C   UNL A   1      42.481  29.066  34.542  1.00  0.00     0.074 A 
ATOM     58  C   UNL A   1      42.415  29.601  35.887  1.00  0.00     0.031 C 
ATOM     59  C   UNL A   1      43.429  28.197  34.109  1.00  0.00     0.034 A 
BRANCH  46  60
ATOM     60  C   UNL A   1      42.856  26.534  28.177  1.00  0.00     0.023 A 
ATOM     61  C   UNL A   1      43.994  26.935  27.460  1.00  0.00     0.031 A 
ATOM     62  C   UNL A   1      42.250  25.313  27.824  1.00  0.00     0.131 A 
ATOM     63  C   UNL A   1      44.471  26.141  26.404  1.00  0.00     0.055 A 
ATOM     64  C   UNL A   1      42.766  24.496  26.816  1.00  0.00     0.041 A 
ATOM     65  F   UNL A   1      41.150  24.887  28.465  1.00  0.00    -0.206 F 
ATOM     66  C   UNL A   1      43.880  24.913  26.095  1.00  0.00     0.022 A 
BRANCH  63  67
ATOM     67  S   UNL A   1      45.836  26.768  25.388  1.00  0.00     0.124 S 
ATOM     68  O   UNL A   1      46.206  25.576  24.627  1.00  0.00    -0.237 OA
ATOM     69  O   UNL A   1      45.201  27.838  24.628  1.00  0.00    -0.237 OA
ATOM     70  O   UNL A   1      46.825  27.203  26.372  1.00  0.00    -0.744 OA
ENDBRANCH  63  67
ENDBRANCH  46  60
BRANCH  47  71
ATOM     71  C   UNL A   1      38.968  32.033  35.577  1.00  0.00     0.023 A 
ATOM     72  C   UNL A   1      38.315  31.412  36.652  1.00  0.00     0.031 A 
ATOM     73  C   UNL A   1      39.066  33.437  35.585  1.00  0.00     0.131 A 
ATOM     74  C   UNL A   1      37.777  32.194  37.687  1.00  0.00     0.055 A 
ATOM     75  C   UNL A   1      38.573  34.206  36.639  1.00  0.00     0.041 A 
ATOM     76  F   UNL A   1      39.685  34.080  34.580  1.00  0.00    -0.206 F 
ATOM     77  C   UNL A   1      37.919  33.584  37.697  1.00  0.00     0.022 A 
BRANCH  74  78
ATOM     78  S   UNL A   1      36.860  31.369  39.016  1.00  0.00     0.124 S 
ATOM     79  O   UNL A   1      36.716  30.019  38.482  1.00  0.00    -0.237 OA
ATOM     80  O   UNL A   1      37.767  31.517  40.150  1.00  0.00    -0.237 OA
ATOM     81  O   UNL A   1      35.623  32.142  39.106  1.00  0.00    -0.744 OA
ENDBRANCH  74  78
ENDBRANCH  47  71
BRANCH  59  82
ATOM     82  C   UNL A   1      44.500  27.799  35.087  1.00  0.00     0.023 A 
ATOM     83  C   UNL A   1      44.443  26.583  35.787  1.00  0.00     0.031 A 
ATOM     84  C   UNL A   1      45.615  28.632  35.288  1.00  0.00     0.131 A 
ATOM     85  C   UNL A   1      45.471  26.245  36.680  1.00  0.00     0.055 A 
ATOM     86  C   UNL A   1      46.659  28.268  36.138  1.00  0.00     0.041 A 
ATOM     87  F   UNL A   1      45.716  29.804  34.641  1.00  0.00    -0.206 F 
ATOM     88  C   UNL A   1      46.588  27.071  36.844  1.00  0.00     0.022 A 
BRANCH  85  89
ATOM     89  S   UNL A   1      45.315  24.726  37.656  1.00  0.00     0.124 S 
ATOM     90  O   UNL A   1      46.646  24.143  37.521  1.00  0.00    -0.237 OA
ATOM     91  O   UNL A   1      44.975  25.234  38.980  1.00  0.00    -0.237 OA
ATOM     92  O   UNL A   1      44.246  23.992  36.981  1.00  0.00    -0.744 OA
ENDBRANCH  85  89
ENDBRANCH  59  82
ENDBRANCH  33  34
ENDBRANCH  26  28
ENDBRANCH  25  26
ENDBRANCH  24  25
ENDBRANCH   1  24
TORSDOF 18
ENDMDL
MODEL 3
REMARK VINA RESULT:     -12.2      1.572      1.870
REMARK SMILES COC(=O)c1ccc(-c2ccc(C(=O)OCCOC(=O)c3ccc(-c4c5nc(c(-c6cc(S(=O)(=O)[O-])ccc6F)c6ccc([nH]6)c(-c6cc(S(=O)(=O)[O-])ccc6F)c6nc(c(-c7cc(S(=O)(=O)[O-])ccc7F)c7ccc4[nH]7)C=C6)C=C5)cc3)cc2O)cc1F
REMARK SMILES IDX 16 1 15 2 13 3 14 4 12 5 9 6 10 7 85 8 11 9 84 10 8 11 5 12
REMARK SMILES IDX 6 13 88 14 7 15 87 16 89 17 3 18 4 19 2 20 1 21 86 22 17 24
REMARK SMILES IDX 18 25 19 26 20 27 21 28 22 29 83 30 23 31 82 32 24 33 25 34
REMARK SMILES IDX 26 35 76 36 27 37 81 38 75 39 77 40 28 41 80 42 74 43 73 44
REMARK SMILES IDX 29 46 61 47 41 48 60 49 42 50 45 51 59 52 78 53 43 54 44 55
REMARK SMILES IDX 58 57 79 58 46 59 30 60 31 61 39 62 32 63 38 64 40 65 37 66
REMARK SMILES IDX 33 67 34 68 35 69 36 70 62 71 63 72 71 73 64 74 70 75 72 76
REMARK SMILES IDX 69 77 65 78 66 79 67 80 68 81 47 82 48 83 56 84 49 85 55 86
REMARK SMILES IDX 57 87 54 88 50 89 51 90 52 91 53 92
REMARK H PARENT 86 23 77 45 45 56
REMARK Flexibility Score: inf
ROOT
ATOM      1  C   UNL A   1      35.080  21.057  25.247  1.00  0.00     0.275 C 
ENDROOT
BRANCH   1   2
ATOM      2  O   UNL A   1      35.154  22.344  25.895  1.00  0.00    -0.458 OA
BRANCH   2   3
ATOM      3  C   UNL A   1      34.106  22.648  26.701  1.00  0.00     0.338 C 
ATOM      4  O   UNL A   1      33.882  22.178  27.804  1.00  0.00    -0.246 OA
BRANCH   3   5
ATOM      5  C   UNL A   1      33.264  23.713  26.107  1.00  0.00     0.063 A 
ATOM      6  C   UNL A   1      31.822  25.881  25.017  1.00  0.00     0.024 A 
ATOM      7  C   UNL A   1      33.088  25.547  24.526  1.00  0.00     0.013 A 
ATOM      8  C   UNL A   1      31.289  25.094  26.057  1.00  0.00     0.124 A 
ATOM      9  C   UNL A   1      33.814  24.506  25.096  1.00  0.00     0.016 A 
ATOM     10  C   UNL A   1      31.986  24.001  26.588  1.00  0.00     0.062 A 
BRANCH   6  11
ATOM     11  C   UNL A   1      31.176  27.089  24.491  1.00  0.00    -0.012 A 
ATOM     12  C   UNL A   1      29.807  29.399  23.648  1.00  0.00     0.095 A 
ATOM     13  C   UNL A   1      31.053  29.514  24.274  1.00  0.00     0.019 A 
ATOM     14  C   UNL A   1      29.258  28.138  23.436  1.00  0.00     0.138 A 
ATOM     15  C   UNL A   1      31.727  28.365  24.699  1.00  0.00     0.010 A 
ATOM     16  C   UNL A   1      29.930  26.994  23.853  1.00  0.00     0.049 A 
ATOM     17  F   UNL A   1      28.082  27.985  22.808  1.00  0.00    -0.206 F 
BRANCH  12  18
ATOM     18  C   UNL A   1      29.125  30.620  23.187  1.00  0.00     0.340 C 
ATOM     19  O   UNL A   1      28.459  31.333  23.919  1.00  0.00    -0.246 OA
BRANCH  18  20
ATOM     20  O   UNL A   1      29.311  30.784  21.855  1.00  0.00    -0.465 OA
ATOM     21  C   UNL A   1      28.111  30.702  21.089  1.00  0.00     0.282 C 
ENDBRANCH  18  20
ENDBRANCH  12  18
ENDBRANCH   6  11
BRANCH   8  22
ATOM     22  O   UNL A   1      30.067  25.429  26.580  1.00  0.00    -0.507 OA
ATOM     23  H   UNL A   1      30.016  25.916  27.379  1.00  0.00     0.293 HD
ENDBRANCH   8  22
ENDBRANCH   3   5
ENDBRANCH   2   3
ENDBRANCH   1   2
BRANCH   1  24
ATOM     24  C   UNL A   1      36.465  20.438  25.051  1.00  0.00     0.275 C 
BRANCH  24  25
ATOM     25  O   UNL A   1      37.491  21.448  25.075  1.00  0.00    -0.458 OA
BRANCH  25  26
ATOM     26  C   UNL A   1      38.627  21.089  25.717  1.00  0.00     0.338 C 
ATOM     27  O   UNL A   1      39.168  19.995  25.701  1.00  0.00    -0.246 OA
BRANCH  26  28
ATOM     28  C   UNL A   1      39.216  22.246  26.408  1.00  0.00     0.060 A 
ATOM     29  C   UNL A   1      38.688  23.499  26.136  1.00  0.00     0.016 A 
ATOM     30  C   UNL A   1      40.397  22.132  27.134  1.00  0.00     0.016 A 
ATOM     31  C   UNL A   1      39.415  24.646  26.436  1.00  0.00     0.010 A 
ATOM     32  C   UNL A   1      41.046  23.295  27.579  1.00  0.00     0.010 A 
ATOM     33  C   UNL A   1      40.590  24.571  27.195  1.00  0.00    -0.014 A 
BRANCH  33  34
ATOM     34  C   UNL A   1      41.332  25.816  27.573  1.00  0.00     0.031 A 
ATOM     35  C   UNL A   1      40.687  26.858  28.458  1.00  0.00     0.074 A 
ATOM     36  C   UNL A   1      42.596  26.015  27.139  1.00  0.00     0.049 A 
ATOM     37  N   UNL A   1      41.084  28.078  28.721  1.00  0.00    -0.248 NA
ATOM     38  C   UNL A   1      39.427  26.487  29.121  1.00  0.00     0.031 C 
ATOM     39  C   UNL A   1      43.377  25.074  26.329  1.00  0.00     0.029 A 
ATOM     40  N   UNL A   1      43.461  27.068  27.327  1.00  0.00    -0.354 N 
ATOM     41  C   UNL A   1      40.100  28.636  29.532  1.00  0.00     0.074 A 
ATOM     42  C   UNL A   1      39.082  27.624  29.710  1.00  0.00     0.031 C 
ATOM     43  C   UNL A   1      44.612  25.559  26.148  1.00  0.00     0.029 A 
ATOM     44  C   UNL A   1      44.680  26.900  26.708  1.00  0.00     0.049 A 
ATOM     45  H   UNL A   1      43.230  27.867  27.854  1.00  0.00     0.167 HD
ATOM     46  C   UNL A   1      40.055  29.878  30.076  1.00  0.00     0.034 A 
ATOM     47  C   UNL A   1      45.720  27.743  26.545  1.00  0.00     0.034 A 
ATOM     48  C   UNL A   1      41.102  30.859  29.932  1.00  0.00     0.049 A 
ATOM     49  C   UNL A   1      45.614  29.140  27.088  1.00  0.00     0.074 A 
ATOM     50  C   UNL A   1      41.155  32.142  30.450  1.00  0.00     0.029 A 
ATOM     51  N   UNL A   1      42.286  30.667  29.232  1.00  0.00    -0.354 N 
ATOM     52  N   UNL A   1      44.632  29.684  27.764  1.00  0.00    -0.248 NA
ATOM     53  C   UNL A   1      46.743  30.041  26.827  1.00  0.00     0.031 C 
ATOM     54  C   UNL A   1      42.337  32.746  30.011  1.00  0.00     0.029 A 
ATOM     55  C   UNL A   1      43.060  31.815  29.285  1.00  0.00     0.049 A 
ATOM     56  H   UNL A   1      42.539  29.836  28.768  1.00  0.00     0.167 HD
ATOM     57  C   UNL A   1      45.030  30.990  28.022  1.00  0.00     0.074 A 
ATOM     58  C   UNL A   1      46.346  31.149  27.437  1.00  0.00     0.031 C 
ATOM     59  C   UNL A   1      44.365  31.968  28.688  1.00  0.00     0.034 A 
BRANCH  46  60
ATOM     60  C   UNL A   1      38.816  30.275  30.839  1.00  0.00     0.023 A 
ATOM     61  C   UNL A   1      37.756  30.970  30.236  1.00  0.00     0.031 A 
ATOM     62  C   UNL A   1      38.680  29.908  32.192  1.00  0.00     0.131 A 
ATOM     63  C   UNL A   1      36.621  31.307  30.993  1.00  0.00     0.055 A 
ATOM     64  C   UNL A   1      37.522  30.188  32.921  1.00  0.00     0.041 A 
ATOM     65  F   UNL A   1      39.668  29.255  32.824  1.00  0.00    -0.206 F 
ATOM     66  C   UNL A   1      36.486  30.898  32.322  1.00  0.00     0.022 A 
BRANCH  63  67
ATOM     67  S   UNL A   1      35.346  32.351  30.236  1.00  0.00     0.124 S 
ATOM     68  O   UNL A   1      36.124  33.522  29.837  1.00  0.00    -0.237 OA
ATOM     69  O   UNL A   1      34.852  31.513  29.150  1.00  0.00    -0.237 OA
ATOM     70  O   UNL A   1      34.399  32.581  31.325  1.00  0.00    -0.744 OA
ENDBRANCH  63  67
ENDBRANCH  46  60
BRANCH  47  71
ATOM     71  C   UNL A   1      46.915  27.303  25.771  1.00  0.00     0.023 A 
ATOM     72  C   UNL A   1      47.083  27.673  24.429  1.00  0.00     0.031 A 
ATOM     73  C   UNL A   1      47.919  26.523  26.373  1.00  0.00     0.131 A 
ATOM     74  C   UNL A   1      48.227  27.256  23.728  1.00  0.00     0.055 A 
ATOM     75  C   UNL A   1      49.077  26.152  25.687  1.00  0.00     0.041 A 
ATOM     76  F   UNL A   1      47.807  26.144  27.657  1.00  0.00    -0.206 F 
ATOM     77  C   UNL A   1      49.232  26.515  24.354  1.00  0.00     0.022 A 
BRANCH  74  78
ATOM     78  S   UNL A   1      48.373  27.675  21.970  1.00  0.00     0.124 S 
ATOM     79  O   UNL A   1      48.560  26.359  21.368  1.00  0.00    -0.237 OA
ATOM     80  O   UNL A   1      47.095  28.327  21.704  1.00  0.00    -0.237 OA
ATOM     81  O   UNL A   1      49.540  28.554  21.927  1.00  0.00    -0.744 OA
ENDBRANCH  74  78
ENDBRANCH  47  71
BRANCH  59  82
ATOM     82  C   UNL A   1      45.066  33.288  28.858  1.00  0.00     0.023 A 
ATOM     83  C   UNL A   1      45.952  33.519  29.924  1.00  0.00     0.031 A 
ATOM     84  C   UNL A   1      44.875  34.313  27.916  1.00  0.00     0.131 A 
ATOM     85  C   UNL A   1      46.594  34.760  30.037  1.00  0.00     0.055 A 
ATOM     86  C   UNL A   1      45.555  35.528  28.005  1.00  0.00     0.041 A 
ATOM     87  F   UNL A   1      44.039  34.140  26.879  1.00  0.00    -0.206 F 
ATOM     88  C   UNL A   1      46.416  35.758  29.074  1.00  0.00     0.022 A 
BRANCH  85  89
ATOM     89  S   UNL A   1      47.641  35.072  31.484  1.00  0.00     0.124 S 
ATOM     90  O   UNL A   1      48.951  35.263  30.872  1.00  0.00    -0.237 OA
ATOM     91  O   UNL A   1      47.030  36.263  32.065  1.00  0.00    -0.237 OA
ATOM     92  O   UNL A   1      47.498  33.854  32.280  1.00  0.00    -0.744 OA
ENDBRANCH  85  89
ENDBRANCH  59  82
ENDBRANCH  33  34
ENDBRANCH  26  28
ENDBRANCH  25  26
ENDBRANCH  24  25
ENDBRANCH   1  24
TORSDOF 18
ENDMDL
