MODEL 1
REMARK VINA RESULT:     -11.1      0.000      0.000
REMARK SMILES C[C@@H]1CCC[C@H](NC(=O)N(C)CC(=O)OCCOC(=O)c2ccc(-c3c4nc(c(-c5cc(S(=O)(=O)[O-])ccc5F)c5ccc([nH]5)c(-c5cc(S(=O)(=O)[O-])ccc5F)c5nc(c(-c6cc(S(=O)(=O)[O-])ccc6F)c6ccc3[nH]6)C=C5)C=C4)cc2)C1
REMARK SMILES IDX 16 1 15 2 13 3 14 4 12 5 10 6 11 7 8 8 7 9 9 11 6 12 1 13
REMARK SMILES IDX 2 14 3 15 84 16 4 17 5 18 17 19 18 20 19 21 20 22 21 23
REMARK SMILES IDX 22 24 83 25 23 26 82 27 24 28 25 29 26 30 76 31 27 32 81 33
REMARK SMILES IDX 75 34 77 35 28 36 80 37 74 38 73 39 29 41 61 42 41 43 60 44
REMARK SMILES IDX 42 45 45 46 59 47 78 48 43 49 44 50 58 52 79 53 46 54 30 55
REMARK SMILES IDX 31 56 39 57 32 58 38 59 40 60 37 61 33 62 34 63 35 64 36 65
REMARK SMILES IDX 62 66 63 67 71 68 64 69 70 70 72 71 69 72 65 73 66 74 67 75
REMARK SMILES IDX 68 76 47 77 48 78 56 79 49 80 55 81 57 82 54 83 50 84 51 85
REMARK SMILES IDX 52 86 53 87
REMARK H PARENT 7 10 77 40 45 51
REMARK Flexibility Score: inf
ROOT
ATOM      1  C   UNL A   1      31.223  29.310  24.414  1.00  0.00     0.274 C 
ENDROOT
BRANCH   1   2
ATOM      2  O   UNL A   1      30.926  27.906  24.287  1.00  0.00    -0.461 OA
BRANCH   2   3
ATOM      3  C   UNL A   1      30.851  27.431  23.010  1.00  0.00     0.325 C 
ATOM      4  O   UNL A   1      30.339  28.035  22.072  1.00  0.00    -0.250 OA
BRANCH   3   5
ATOM      5  C   UNL A   1      31.423  26.020  22.858  1.00  0.00     0.243 C 
BRANCH   5   6
ATOM      6  N   UNL A   1      32.850  25.933  22.519  1.00  0.00    -0.317 N 
ATOM      7  C   UNL A   1      33.464  27.177  22.106  1.00  0.00     0.149 C 
BRANCH   6   8
ATOM      8  C   UNL A   1      33.410  24.692  22.584  1.00  0.00     0.317 C 
ATOM      9  N   UNL A   1      34.070  24.225  23.654  1.00  0.00    -0.335 N 
ATOM     10  H   UNL A   1      34.428  23.321  23.499  1.00  0.00     0.165 HD
ATOM     11  O   UNL A   1      33.311  23.903  21.641  1.00  0.00    -0.249 OA
BRANCH   9  12
ATOM     12  C   UNL A   1      34.390  24.715  24.987  1.00  0.00     0.084 C 
ATOM     13  C   UNL A   1      35.394  21.547  25.030  1.00  0.00     0.008 C 
ATOM     14  C   UNL A   1      35.495  22.635  26.103  1.00  0.00    -0.012 C 
ATOM     15  C   UNL A   1      34.309  22.580  27.073  1.00  0.00     0.003 C 
ATOM     16  C   UNL A   1      35.670  24.051  25.520  1.00  0.00     0.028 C 
ATOM     17  C   UNL A   1      33.021  23.118  26.457  1.00  0.00     0.002 C 
ATOM     18  C   UNL A   1      33.201  24.542  25.943  1.00  0.00     0.025 C 
ENDBRANCH   9  12
ENDBRANCH   6   8
ENDBRANCH   5   6
ENDBRANCH   3   5
ENDBRANCH   2   3
ENDBRANCH   1   2
BRANCH   1  19
ATOM     19  C   UNL A   1      31.614  29.630  25.853  1.00  0.00     0.275 C 
BRANCH  19  20
ATOM     20  O   UNL A   1      32.859  30.345  25.849  1.00  0.00    -0.458 OA
BRANCH  20  21
ATOM     21  C   UNL A   1      33.047  31.190  26.889  1.00  0.00     0.338 C 
ATOM     22  O   UNL A   1      32.329  32.131  27.203  1.00  0.00    -0.246 OA
BRANCH  21  23
ATOM     23  C   UNL A   1      34.334  30.882  27.540  1.00  0.00     0.060 A 
ATOM     24  C   UNL A   1      34.683  29.568  27.862  1.00  0.00     0.016 A 
ATOM     25  C   UNL A   1      35.183  31.933  27.881  1.00  0.00     0.016 A 
ATOM     26  C   UNL A   1      35.847  29.308  28.585  1.00  0.00     0.010 A 
ATOM     27  C   UNL A   1      36.390  31.663  28.531  1.00  0.00     0.010 A 
ATOM     28  C   UNL A   1      36.722  30.351  28.914  1.00  0.00    -0.014 A 
BRANCH  28  29
ATOM     29  C   UNL A   1      37.960  30.090  29.695  1.00  0.00     0.031 A 
ATOM     30  C   UNL A   1      39.021  29.180  29.136  1.00  0.00     0.074 A 
ATOM     31  C   UNL A   1      38.129  30.653  30.909  1.00  0.00     0.049 A 
ATOM     32  N   UNL A   1      40.085  28.685  29.717  1.00  0.00    -0.248 NA
ATOM     33  C   UNL A   1      38.850  28.758  27.737  1.00  0.00     0.031 C 
ATOM     34  C   UNL A   1      37.197  31.586  31.545  1.00  0.00     0.029 A 
ATOM     35  N   UNL A   1      39.140  30.518  31.826  1.00  0.00    -0.354 N 
ATOM     36  C   UNL A   1      40.689  27.865  28.770  1.00  0.00     0.074 A 
ATOM     37  C   UNL A   1      39.856  27.909  27.586  1.00  0.00     0.031 C 
ATOM     38  C   UNL A   1      37.688  31.953  32.739  1.00  0.00     0.029 A 
ATOM     39  C   UNL A   1      38.928  31.224  32.987  1.00  0.00     0.049 A 
ATOM     40  H   UNL A   1      39.942  29.969  31.668  1.00  0.00     0.167 HD
ATOM     41  C   UNL A   1      41.834  27.145  28.879  1.00  0.00     0.034 A 
ATOM     42  C   UNL A   1      39.627  31.251  34.140  1.00  0.00     0.034 A 
ATOM     43  C   UNL A   1      42.664  27.132  30.062  1.00  0.00     0.049 A 
ATOM     44  C   UNL A   1      40.862  30.397  34.260  1.00  0.00     0.074 A 
ATOM     45  C   UNL A   1      43.850  26.451  30.277  1.00  0.00     0.029 A 
ATOM     46  N   UNL A   1      42.396  27.833  31.231  1.00  0.00    -0.354 N 
ATOM     47  N   UNL A   1      41.401  29.592  33.373  1.00  0.00    -0.248 NA
ATOM     48  C   UNL A   1      41.580  30.453  35.539  1.00  0.00     0.031 C 
ATOM     49  C   UNL A   1      44.265  26.693  31.592  1.00  0.00     0.029 A 
ATOM     50  C   UNL A   1      43.378  27.581  32.177  1.00  0.00     0.049 A 
ATOM     51  H   UNL A   1      41.620  28.424  31.368  1.00  0.00     0.167 HD
ATOM     52  C   UNL A   1      42.533  29.061  33.984  1.00  0.00     0.074 A 
ATOM     53  C   UNL A   1      42.609  29.652  35.304  1.00  0.00     0.031 C 
ATOM     54  C   UNL A   1      43.431  28.165  33.498  1.00  0.00     0.034 A 
BRANCH  41  55
ATOM     55  C   UNL A   1      42.221  26.273  27.707  1.00  0.00     0.023 A 
ATOM     56  C   UNL A   1      41.745  24.958  27.565  1.00  0.00     0.031 A 
ATOM     57  C   UNL A   1      43.109  26.759  26.730  1.00  0.00     0.131 A 
ATOM     58  C   UNL A   1      42.212  24.153  26.514  1.00  0.00     0.055 A 
ATOM     59  C   UNL A   1      43.510  25.980  25.644  1.00  0.00     0.041 A 
ATOM     60  F   UNL A   1      43.613  28.000  26.823  1.00  0.00    -0.206 F 
ATOM     61  C   UNL A   1      43.074  24.663  25.539  1.00  0.00     0.022 A 
BRANCH  58  62
ATOM     62  S   UNL A   1      41.788  22.389  26.511  1.00  0.00     0.124 S 
ATOM     63  O   UNL A   1      42.558  21.899  25.370  1.00  0.00    -0.237 OA
ATOM     64  O   UNL A   1      42.245  21.952  27.825  1.00  0.00    -0.237 OA
ATOM     65  O   UNL A   1      40.338  22.384  26.322  1.00  0.00    -0.744 OA
ENDBRANCH  58  62
ENDBRANCH  41  55
BRANCH  42  66
ATOM     66  C   UNL A   1      39.151  32.069  35.292  1.00  0.00     0.023 A 
ATOM     67  C   UNL A   1      38.552  31.468  36.408  1.00  0.00     0.031 A 
ATOM     68  C   UNL A   1      39.254  33.473  35.272  1.00  0.00     0.131 A 
ATOM     69  C   UNL A   1      38.043  32.268  37.443  1.00  0.00     0.055 A 
ATOM     70  C   UNL A   1      38.795  34.260  36.329  1.00  0.00     0.041 A 
ATOM     71  F   UNL A   1      39.818  34.098  34.227  1.00  0.00    -0.206 F 
ATOM     72  C   UNL A   1      38.175  33.658  37.418  1.00  0.00     0.022 A 
BRANCH  69  73
ATOM     73  S   UNL A   1      37.132  31.467  38.793  1.00  0.00     0.124 S 
ATOM     74  O   UNL A   1      36.998  30.104  38.294  1.00  0.00    -0.237 OA
ATOM     75  O   UNL A   1      38.038  31.652  39.922  1.00  0.00    -0.237 OA
ATOM     76  O   UNL A   1      35.888  32.232  38.864  1.00  0.00    -0.744 OA
ENDBRANCH  69  73
ENDBRANCH  42  66
BRANCH  54  77
ATOM     77  C   UNL A   1      44.591  27.813  34.396  1.00  0.00     0.023 A 
ATOM     78  C   UNL A   1      44.539  26.717  35.275  1.00  0.00     0.031 A 
ATOM     79  C   UNL A   1      45.752  28.605  34.394  1.00  0.00     0.131 A 
ATOM     80  C   UNL A   1      45.602  26.479  36.159  1.00  0.00     0.055 A 
ATOM     81  C   UNL A   1      46.831  28.330  35.234  1.00  0.00     0.041 A 
ATOM     82  F   UNL A   1      45.853  29.666  33.577  1.00  0.00    -0.206 F 
ATOM     83  C   UNL A   1      46.754  27.271  36.134  1.00  0.00     0.022 A 
BRANCH  80  84
ATOM     84  S   UNL A   1      45.419  25.183  37.415  1.00  0.00     0.124 S 
ATOM     85  O   UNL A   1      45.894  25.855  38.619  1.00  0.00    -0.237 OA
ATOM     86  O   UNL A   1      43.989  24.899  37.365  1.00  0.00    -0.237 OA
ATOM     87  O   UNL A   1      46.281  24.107  36.926  1.00  0.00    -0.744 OA
ENDBRANCH  80  84
ENDBRANCH  54  77
ENDBRANCH  28  29
ENDBRANCH  21  23
ENDBRANCH  20  21
ENDBRANCH  19  20
ENDBRANCH   1  19
TORSDOF 17
ENDMDL
MODEL 2
REMARK VINA RESULT:     -11.0      5.218     10.076
REMARK SMILES C[C@@H]1CCC[C@H](NC(=O)N(C)CC(=O)OCCOC(=O)c2ccc(-c3c4nc(c(-c5cc(S(=O)(=O)[O-])ccc5F)c5ccc([nH]5)c(-c5cc(S(=O)(=O)[O-])ccc5F)c5nc(c(-c6cc(S(=O)(=O)[O-])ccc6F)c6ccc3[nH]6)C=C5)C=C4)cc2)C1
REMARK SMILES IDX 16 1 15 2 13 3 14 4 12 5 10 6 11 7 8 8 7 9 9 11 6 12 1 13
REMARK SMILES IDX 2 14 3 15 84 16 4 17 5 18 17 19 18 20 19 21 20 22 21 23
REMARK SMILES IDX 22 24 83 25 23 26 82 27 24 28 25 29 26 30 76 31 27 32 81 33
REMARK SMILES IDX 75 34 77 35 28 36 80 37 74 38 73 39 29 41 61 42 41 43 60 44
REMARK SMILES IDX 42 45 45 46 59 47 78 48 43 49 44 50 58 52 79 53 46 54 30 55
REMARK SMILES IDX 31 56 39 57 32 58 38 59 40 60 37 61 33 62 34 63 35 64 36 65
REMARK SMILES IDX 62 66 63 67 71 68 64 69 70 70 72 71 69 72 65 73 66 74 67 75
REMARK SMILES IDX 68 76 47 77 48 78 56 79 49 80 55 81 57 82 54 83 50 84 51 85
REMARK SMILES IDX 52 86 53 87
REMARK H PARENT 7 10 77 40 45 51
REMARK Flexibility Score: inf
ROOT
ATOM      1  C   UNL A   1      35.008  20.902  24.653  1.00  0.00     0.274 C 
ENDROOT
BRANCH   1   2
ATOM      2  O   UNL A   1      35.036  22.334  24.804  1.00  0.00    -0.461 OA
BRANCH   2   3
ATOM      3  C   UNL A   1      34.397  22.826  25.906  1.00  0.00     0.325 C 
ATOM      4  O   UNL A   1      34.900  23.604  26.711  1.00  0.00    -0.250 OA
BRANCH   3   5
ATOM      5  C   UNL A   1      32.987  22.261  26.085  1.00  0.00     0.243 C 
BRANCH   5   6
ATOM      6  N   UNL A   1      31.891  23.069  25.533  1.00  0.00    -0.317 N 
ATOM      7  C   UNL A   1      31.517  22.755  24.170  1.00  0.00     0.149 C 
BRANCH   6   8
ATOM      8  C   UNL A   1      31.394  24.045  26.345  1.00  0.00     0.317 C 
ATOM      9  N   UNL A   1      31.755  25.335  26.273  1.00  0.00    -0.335 N 
ATOM     10  H   UNL A   1      31.312  25.880  26.962  1.00  0.00     0.165 HD
ATOM     11  O   UNL A   1      30.540  23.785  27.197  1.00  0.00    -0.249 OA
BRANCH   9  12
ATOM     12  C   UNL A   1      32.637  26.132  25.432  1.00  0.00     0.084 C 
ATOM     13  C   UNL A   1      31.572  28.270  27.743  1.00  0.00     0.008 C 
ATOM     14  C   UNL A   1      32.565  28.464  26.594  1.00  0.00    -0.012 C 
ATOM     15  C   UNL A   1      31.876  29.018  25.341  1.00  0.00     0.003 C 
ATOM     16  C   UNL A   1      33.373  27.193  26.266  1.00  0.00     0.028 C 
ATOM     17  C   UNL A   1      31.038  27.968  24.619  1.00  0.00     0.002 C 
ATOM     18  C   UNL A   1      31.872  26.746  24.250  1.00  0.00     0.025 C 
ENDBRANCH   9  12
ENDBRANCH   6   8
ENDBRANCH   5   6
ENDBRANCH   3   5
ENDBRANCH   2   3
ENDBRANCH   1   2
BRANCH   1  19
ATOM     19  C   UNL A   1      36.375  20.317  24.990  1.00  0.00     0.275 C 
BRANCH  19  20
ATOM     20  O   UNL A   1      37.123  21.283  25.743  1.00  0.00    -0.458 OA
BRANCH  20  21
ATOM     21  C   UNL A   1      38.457  21.066  25.805  1.00  0.00     0.338 C 
ATOM     22  O   UNL A   1      39.038  20.017  25.556  1.00  0.00    -0.246 OA
BRANCH  21  23
ATOM     23  C   UNL A   1      39.122  22.271  26.337  1.00  0.00     0.060 A 
ATOM     24  C   UNL A   1      38.599  23.546  26.106  1.00  0.00     0.016 A 
ATOM     25  C   UNL A   1      40.318  22.124  27.036  1.00  0.00     0.016 A 
ATOM     26  C   UNL A   1      39.303  24.678  26.513  1.00  0.00     0.010 A 
ATOM     27  C   UNL A   1      40.981  23.256  27.517  1.00  0.00     0.010 A 
ATOM     28  C   UNL A   1      40.496  24.546  27.237  1.00  0.00    -0.014 A 
BRANCH  28  29
ATOM     29  C   UNL A   1      41.264  25.745  27.666  1.00  0.00     0.031 A 
ATOM     30  C   UNL A   1      40.588  26.816  28.480  1.00  0.00     0.074 A 
ATOM     31  C   UNL A   1      42.559  25.882  27.316  1.00  0.00     0.049 A 
ATOM     32  N   UNL A   1      41.018  28.008  28.807  1.00  0.00    -0.248 NA
ATOM     33  C   UNL A   1      39.239  26.507  28.976  1.00  0.00     0.031 C 
ATOM     34  C   UNL A   1      43.341  24.897  26.567  1.00  0.00     0.029 A 
ATOM     35  N   UNL A   1      43.443  26.907  27.540  1.00  0.00    -0.354 N 
ATOM     36  C   UNL A   1      39.980  28.606  29.514  1.00  0.00     0.074 A 
ATOM     37  C   UNL A   1      38.891  27.652  29.544  1.00  0.00     0.031 C 
ATOM     38  C   UNL A   1      44.592  25.358  26.410  1.00  0.00     0.029 A 
ATOM     39  C   UNL A   1      44.680  26.700  26.976  1.00  0.00     0.049 A 
ATOM     40  H   UNL A   1      43.214  27.714  28.055  1.00  0.00     0.167 HD
ATOM     41  C   UNL A   1      39.943  29.835  30.088  1.00  0.00     0.034 A 
ATOM     42  C   UNL A   1      45.752  27.513  26.885  1.00  0.00     0.034 A 
ATOM     43  C   UNL A   1      41.049  30.764  30.068  1.00  0.00     0.049 A 
ATOM     44  C   UNL A   1      45.667  28.895  27.476  1.00  0.00     0.074 A 
ATOM     45  C   UNL A   1      41.126  32.028  30.627  1.00  0.00     0.029 A 
ATOM     46  N   UNL A   1      42.274  30.531  29.454  1.00  0.00    -0.354 N 
ATOM     47  N   UNL A   1      44.666  29.466  28.106  1.00  0.00    -0.248 NA
ATOM     48  C   UNL A   1      46.856  29.745  27.340  1.00  0.00     0.031 C 
ATOM     49  C   UNL A   1      42.371  32.580  30.302  1.00  0.00     0.029 A 
ATOM     50  C   UNL A   1      43.101  31.635  29.601  1.00  0.00     0.049 A 
ATOM     51  H   UNL A   1      42.520  29.701  28.984  1.00  0.00     0.167 HD
ATOM     52  C   UNL A   1      45.115  30.736  28.457  1.00  0.00     0.074 A 
ATOM     53  C   UNL A   1      46.481  30.838  27.988  1.00  0.00     0.031 C 
ATOM     54  C   UNL A   1      44.457  31.729  29.110  1.00  0.00     0.034 A 
BRANCH  41  55
ATOM     55  C   UNL A   1      38.646  30.261  30.736  1.00  0.00     0.023 A 
ATOM     56  C   UNL A   1      37.628  30.910  30.015  1.00  0.00     0.031 A 
ATOM     57  C   UNL A   1      38.438  30.038  32.110  1.00  0.00     0.131 A 
ATOM     58  C   UNL A   1      36.484  31.377  30.683  1.00  0.00     0.055 A 
ATOM     59  C   UNL A   1      37.265  30.435  32.753  1.00  0.00     0.041 A 
ATOM     60  F   UNL A   1      39.382  29.441  32.855  1.00  0.00    -0.206 F 
ATOM     61  C   UNL A   1      36.285  31.122  32.042  1.00  0.00     0.022 A 
BRANCH  58  62
ATOM     62  S   UNL A   1      35.321  32.438  29.782  1.00  0.00     0.124 S 
ATOM     63  O   UNL A   1      34.807  31.522  28.766  1.00  0.00    -0.237 OA
ATOM     64  O   UNL A   1      34.379  32.830  30.824  1.00  0.00    -0.237 OA
ATOM     65  O   UNL A   1      36.165  33.516  29.267  1.00  0.00    -0.744 OA
ENDBRANCH  58  62
ENDBRANCH  41  55
BRANCH  42  66
ATOM     66  C   UNL A   1      46.978  27.067  26.162  1.00  0.00     0.023 A 
ATOM     67  C   UNL A   1      48.018  26.412  26.837  1.00  0.00     0.031 A 
ATOM     68  C   UNL A   1      47.140  27.326  24.789  1.00  0.00     0.131 A 
ATOM     69  C   UNL A   1      49.194  26.074  26.148  1.00  0.00     0.055 A 
ATOM     70  C   UNL A   1      48.287  26.938  24.096  1.00  0.00     0.041 A 
ATOM     71  F   UNL A   1      46.175  27.950  24.096  1.00  0.00    -0.206 F 
ATOM     72  C   UNL A   1      49.328  26.318  24.779  1.00  0.00     0.022 A 
BRANCH  69  73
ATOM     73  S   UNL A   1      50.581  25.377  27.086  1.00  0.00     0.124 S 
ATOM     74  O   UNL A   1      50.975  26.507  27.918  1.00  0.00    -0.237 OA
ATOM     75  O   UNL A   1      49.949  24.259  27.779  1.00  0.00    -0.237 OA
ATOM     76  O   UNL A   1      51.539  25.001  26.048  1.00  0.00    -0.744 OA
ENDBRANCH  69  73
ENDBRANCH  42  66
BRANCH  54  77
ATOM     77  C   UNL A   1      45.237  32.991  29.385  1.00  0.00     0.023 A 
ATOM     78  C   UNL A   1      45.200  34.088  28.507  1.00  0.00     0.031 A 
ATOM     79  C   UNL A   1      46.053  33.083  30.526  1.00  0.00     0.131 A 
ATOM     80  C   UNL A   1      46.012  35.206  28.750  1.00  0.00     0.055 A 
ATOM     81  C   UNL A   1      46.814  34.221  30.795  1.00  0.00     0.041 A 
ATOM     82  F   UNL A   1      46.128  32.064  31.396  1.00  0.00    -0.206 F 
ATOM     83  C   UNL A   1      46.808  35.285  29.897  1.00  0.00     0.022 A 
BRANCH  80  84
ATOM     84  S   UNL A   1      46.093  36.516  27.498  1.00  0.00     0.124 S 
ATOM     85  O   UNL A   1      44.696  36.644  27.099  1.00  0.00    -0.237 OA
ATOM     86  O   UNL A   1      46.648  37.635  28.251  1.00  0.00    -0.237 OA
ATOM     87  O   UNL A   1      46.980  35.958  26.477  1.00  0.00    -0.744 OA
ENDBRANCH  80  84
ENDBRANCH  54  77
ENDBRANCH  28  29
ENDBRANCH  21  23
ENDBRANCH  20  21
ENDBRANCH  19  20
ENDBRANCH   1  19
TORSDOF 17
ENDMDL
MODEL 3
REMARK VINA RESULT:     -10.7      4.325     10.031
REMARK SMILES C[C@@H]1CCC[C@H](NC(=O)N(C)CC(=O)OCCOC(=O)c2ccc(-c3c4nc(c(-c5cc(S(=O)(=O)[O-])ccc5F)c5ccc([nH]5)c(-c5cc(S(=O)(=O)[O-])ccc5F)c5nc(c(-c6cc(S(=O)(=O)[O-])ccc6F)c6ccc3[nH]6)C=C5)C=C4)cc2)C1
REMARK SMILES IDX 16 1 15 2 13 3 14 4 12 5 10 6 11 7 8 8 7 9 9 11 6 12 1 13
REMARK SMILES IDX 2 14 3 15 84 16 4 17 5 18 17 19 18 20 19 21 20 22 21 23
REMARK SMILES IDX 22 24 83 25 23 26 82 27 24 28 25 29 26 30 76 31 27 32 81 33
REMARK SMILES IDX 75 34 77 35 28 36 80 37 74 38 73 39 29 41 61 42 41 43 60 44
REMARK SMILES IDX 42 45 45 46 59 47 78 48 43 49 44 50 58 52 79 53 46 54 30 55
REMARK SMILES IDX 31 56 39 57 32 58 38 59 40 60 37 61 33 62 34 63 35 64 36 65
REMARK SMILES IDX 62 66 63 67 71 68 64 69 70 70 72 71 69 72 65 73 66 74 67 75
REMARK SMILES IDX 68 76 47 77 48 78 56 79 49 80 55 81 57 82 54 83 50 84 51 85
REMARK SMILES IDX 52 86 53 87
REMARK H PARENT 7 10 77 40 45 51
REMARK Flexibility Score: inf
ROOT
ATOM      1  C   UNL A   1      33.760  34.024  28.631  1.00  0.00     0.274 C 
ENDROOT
BRANCH   1   2
ATOM      2  O   UNL A   1      34.251  35.378  28.674  1.00  0.00    -0.461 OA
BRANCH   2   3
ATOM      3  C   UNL A   1      33.439  36.282  29.296  1.00  0.00     0.325 C 
ATOM      4  O   UNL A   1      33.301  37.449  28.944  1.00  0.00    -0.250 OA
BRANCH   3   5
ATOM      5  C   UNL A   1      32.746  35.714  30.536  1.00  0.00     0.243 C 
BRANCH   5   6
ATOM      6  N   UNL A   1      33.526  35.739  31.781  1.00  0.00    -0.317 N 
ATOM      7  C   UNL A   1      33.956  37.051  32.215  1.00  0.00     0.149 C 
BRANCH   6   8
ATOM      8  C   UNL A   1      33.792  34.529  32.349  1.00  0.00     0.317 C 
ATOM      9  N   UNL A   1      34.987  33.921  32.289  1.00  0.00    -0.335 N 
ATOM     10  H   UNL A   1      34.975  33.042  32.731  1.00  0.00     0.165 HD
ATOM     11  O   UNL A   1      32.927  33.926  32.989  1.00  0.00    -0.249 OA
BRANCH   9  12
ATOM     12  C   UNL A   1      36.296  34.234  31.736  1.00  0.00     0.084 C 
ATOM     13  C   UNL A   1      36.646  31.161  32.952  1.00  0.00     0.008 C 
ATOM     14  C   UNL A   1      37.638  32.046  32.193  1.00  0.00    -0.012 C 
ATOM     15  C   UNL A   1      38.529  32.844  33.151  1.00  0.00     0.003 C 
ATOM     16  C   UNL A   1      36.962  32.973  31.163  1.00  0.00     0.028 C 
ATOM     17  C   UNL A   1      37.790  34.005  33.811  1.00  0.00     0.002 C 
ATOM     18  C   UNL A   1      37.182  34.941  32.772  1.00  0.00     0.025 C 
ENDBRANCH   9  12
ENDBRANCH   6   8
ENDBRANCH   5   6
ENDBRANCH   3   5
ENDBRANCH   2   3
ENDBRANCH   1   2
BRANCH   1  19
ATOM     19  C   UNL A   1      34.835  33.100  28.067  1.00  0.00     0.275 C 
BRANCH  19  20
ATOM     20  O   UNL A   1      34.920  31.928  28.890  1.00  0.00    -0.458 OA
BRANCH  20  21
ATOM     21  C   UNL A   1      35.007  30.754  28.223  1.00  0.00     0.338 C 
ATOM     22  O   UNL A   1      34.128  30.229  27.552  1.00  0.00    -0.246 OA
BRANCH  21  23
ATOM     23  C   UNL A   1      36.307  30.121  28.519  1.00  0.00     0.060 A 
ATOM     24  C   UNL A   1      36.495  29.369  29.681  1.00  0.00     0.016 A 
ATOM     25  C   UNL A   1      37.369  30.328  27.641  1.00  0.00     0.016 A 
ATOM     26  C   UNL A   1      37.761  28.880  30.003  1.00  0.00     0.010 A 
ATOM     27  C   UNL A   1      38.617  29.766  27.923  1.00  0.00     0.010 A 
ATOM     28  C   UNL A   1      38.833  29.061  29.121  1.00  0.00    -0.014 A 
BRANCH  28  29
ATOM     29  C   UNL A   1      40.191  28.555  29.457  1.00  0.00     0.031 A 
ATOM     30  C   UNL A   1      41.008  29.248  30.515  1.00  0.00     0.074 A 
ATOM     31  C   UNL A   1      40.699  27.489  28.806  1.00  0.00     0.049 A 
ATOM     32  N   UNL A   1      42.266  29.081  30.837  1.00  0.00    -0.248 NA
ATOM     33  C   UNL A   1      40.317  30.279  31.304  1.00  0.00     0.031 C 
ATOM     34  C   UNL A   1      39.993  26.703  27.791  1.00  0.00     0.029 A 
ATOM     35  N   UNL A   1      41.927  26.885  28.898  1.00  0.00    -0.354 N 
ATOM     36  C   UNL A   1      42.528  30.011  31.839  1.00  0.00     0.074 A 
ATOM     37  C   UNL A   1      41.304  30.754  32.049  1.00  0.00     0.031 C 
ATOM     38  C   UNL A   1      40.794  25.712  27.368  1.00  0.00     0.029 A 
ATOM     39  C   UNL A   1      42.093  25.837  28.022  1.00  0.00     0.049 A 
ATOM     40  H   UNL A   1      42.625  27.174  29.530  1.00  0.00     0.167 HD
ATOM     41  C   UNL A   1      43.683  30.219  32.520  1.00  0.00     0.034 A 
ATOM     42  C   UNL A   1      43.178  25.088  27.743  1.00  0.00     0.034 A 
ATOM     43  C   UNL A   1      44.888  29.450  32.312  1.00  0.00     0.049 A 
ATOM     44  C   UNL A   1      44.466  25.378  28.468  1.00  0.00     0.074 A 
ATOM     45  C   UNL A   1      46.109  29.566  32.953  1.00  0.00     0.029 A 
ATOM     46  N   UNL A   1      45.026  28.420  31.389  1.00  0.00    -0.354 N 
ATOM     47  N   UNL A   1      44.715  26.287  29.383  1.00  0.00    -0.248 NA
ATOM     48  C   UNL A   1      45.621  24.542  28.119  1.00  0.00     0.031 C 
ATOM     49  C   UNL A   1      46.999  28.650  32.380  1.00  0.00     0.029 A 
ATOM     50  C   UNL A   1      46.316  27.911  31.428  1.00  0.00     0.049 A 
ATOM     51  H   UNL A   1      44.311  28.097  30.793  1.00  0.00     0.167 HD
ATOM     52  C   UNL A   1      46.051  26.117  29.731  1.00  0.00     0.074 A 
ATOM     53  C   UNL A   1      46.548  25.007  28.944  1.00  0.00     0.031 C 
ATOM     54  C   UNL A   1      46.802  26.814  30.622  1.00  0.00     0.034 A 
BRANCH  41  55
ATOM     55  C   UNL A   1      43.708  31.358  33.513  1.00  0.00     0.023 A 
ATOM     56  C   UNL A   1      43.472  31.159  34.885  1.00  0.00     0.031 A 
ATOM     57  C   UNL A   1      43.943  32.673  33.071  1.00  0.00     0.131 A 
ATOM     58  C   UNL A   1      43.406  32.261  35.752  1.00  0.00     0.055 A 
ATOM     59  C   UNL A   1      43.953  33.757  33.950  1.00  0.00     0.041 A 
ATOM     60  F   UNL A   1      44.155  32.928  31.770  1.00  0.00    -0.206 F 
ATOM     61  C   UNL A   1      43.668  33.557  35.298  1.00  0.00     0.022 A 
BRANCH  58  62
ATOM     62  S   UNL A   1      42.839  31.998  37.455  1.00  0.00     0.124 S 
ATOM     63  O   UNL A   1      44.100  31.765  38.156  1.00  0.00    -0.237 OA
ATOM     64  O   UNL A   1      42.161  33.252  37.760  1.00  0.00    -0.237 OA
ATOM     65  O   UNL A   1      41.968  30.828  37.352  1.00  0.00    -0.744 OA
ENDBRANCH  58  62
ENDBRANCH  41  55
BRANCH  42  66
ATOM     66  C   UNL A   1      43.115  24.030  26.694  1.00  0.00     0.023 A 
ATOM     67  C   UNL A   1      42.464  22.812  26.933  1.00  0.00     0.031 A 
ATOM     68  C   UNL A   1      43.742  24.212  25.447  1.00  0.00     0.131 A 
ATOM     69  C   UNL A   1      42.487  21.803  25.956  1.00  0.00     0.055 A 
ATOM     70  C   UNL A   1      43.715  23.227  24.459  1.00  0.00     0.041 A 
ATOM     71  F   UNL A   1      44.380  25.358  25.167  1.00  0.00    -0.206 F 
ATOM     72  C   UNL A   1      43.095  22.009  24.716  1.00  0.00     0.022 A 
BRANCH  69  73
ATOM     73  S   UNL A   1      41.776  20.184  26.361  1.00  0.00     0.124 S 
ATOM     74  O   UNL A   1      42.351  19.927  27.676  1.00  0.00    -0.237 OA
ATOM     75  O   UNL A   1      40.344  20.465  26.330  1.00  0.00    -0.237 OA
ATOM     76  O   UNL A   1      42.262  19.321  25.287  1.00  0.00    -0.744 OA
ENDBRANCH  69  73
ENDBRANCH  42  66
BRANCH  54  77
ATOM     77  C   UNL A   1      48.227  26.357  30.812  1.00  0.00     0.023 A 
ATOM     78  C   UNL A   1      48.572  25.391  31.774  1.00  0.00     0.031 A 
ATOM     79  C   UNL A   1      49.259  26.921  30.041  1.00  0.00     0.131 A 
ATOM     80  C   UNL A   1      49.920  25.062  31.983  1.00  0.00     0.055 A 
ATOM     81  C   UNL A   1      50.592  26.547  30.212  1.00  0.00     0.041 A 
ATOM     82  F   UNL A   1      48.987  27.850  29.111  1.00  0.00    -0.206 F 
ATOM     83  C   UNL A   1      50.930  25.624  31.198  1.00  0.00     0.022 A 
BRANCH  80  84
ATOM     84  S   UNL A   1      50.347  23.966  33.364  1.00  0.00     0.124 S 
ATOM     85  O   UNL A   1      51.334  24.758  34.088  1.00  0.00    -0.237 OA
ATOM     86  O   UNL A   1      49.061  23.786  34.029  1.00  0.00    -0.237 OA
ATOM     87  O   UNL A   1      50.873  22.772  32.703  1.00  0.00    -0.744 OA
ENDBRANCH  80  84
ENDBRANCH  54  77
ENDBRANCH  28  29
ENDBRANCH  21  23
ENDBRANCH  20  21
ENDBRANCH  19  20
ENDBRANCH   1  19
TORSDOF 17
ENDMDL
