MODEL 1
REMARK VINA RESULT:     -10.4      0.000      0.000
REMARK SMILES C=CCN(CC(=O)OCCOC(=O)c1ccc(-c2c3nc(c(-c4cc(S(=O)(=O)[O-])ccc4F)c4ccc([nH]4)c(-c4cc(S(=O)(=O)[O-])ccc4F)c4nc(c(-c5cc(S(=O)(=O)[O-])ccc5F)c5ccc2[nH]5)C=C4)C=C3)cc1)c1ccc([N+](=O)[O-])cc1Br
REMARK SMILES IDX 9 1 8 2 6 3 7 4 5 5 4 6 3 7 2 8 1 9 77 10 78 11 85 12 79 13
REMARK SMILES IDX 84 14 86 15 80 16 81 17 82 18 83 19 10 20 11 21 12 22 13 23
REMARK SMILES IDX 14 24 15 25 76 26 16 27 75 28 17 29 18 30 19 31 69 32 20 33
REMARK SMILES IDX 74 34 68 35 70 36 21 37 73 38 67 39 66 40 22 42 54 43 34 44
REMARK SMILES IDX 53 45 35 46 38 47 52 48 71 49 36 50 37 51 51 53 72 54 39 55
REMARK SMILES IDX 23 56 24 57 32 58 25 59 31 60 33 61 30 62 26 63 27 64 28 65
REMARK SMILES IDX 29 66 55 67 56 68 64 69 57 70 63 71 65 72 62 73 58 74 59 75
REMARK SMILES IDX 60 76 61 77 40 78 41 79 49 80 42 81 48 82 50 83 47 84 43 85
REMARK SMILES IDX 44 86 45 87 46 88
REMARK H PARENT 70 41 38 52
REMARK Flexibility Score: inf
ROOT
ATOM      1  C   UNL A   1      31.497  28.696  26.732  1.00  0.00     0.274 C 
ENDROOT
BRANCH   1   2
ATOM      2  O   UNL A   1      32.571  27.780  26.445  1.00  0.00    -0.461 OA
BRANCH   2   3
ATOM      3  C   UNL A   1      32.199  26.497  26.172  1.00  0.00     0.325 C 
ATOM      4  O   UNL A   1      31.420  25.845  26.862  1.00  0.00    -0.250 OA
BRANCH   3   5
ATOM      5  C   UNL A   1      32.810  25.925  24.893  1.00  0.00     0.239 C 
BRANCH   5   6
ATOM      6  N   UNL A   1      31.889  25.791  23.758  1.00  0.00    -0.356 N 
BRANCH   6   7
ATOM      7  C   UNL A   1      31.942  24.611  22.915  1.00  0.00     0.144 C 
BRANCH   7   8
ATOM      8  C   UNL A   1      31.627  23.414  23.763  1.00  0.00    -0.014 C 
ATOM      9  C   UNL A   1      32.191  22.206  23.626  1.00  0.00     0.006 C 
ENDBRANCH   7   8
ENDBRANCH   6   7
BRANCH   6  10
ATOM     10  C   UNL A   1      31.003  26.823  23.481  1.00  0.00     0.052 A 
ATOM     11  C   UNL A   1      29.628  26.598  23.672  1.00  0.00     0.034 A 
ATOM     12  C   UNL A   1      31.400  28.084  22.975  1.00  0.00     0.048 A 
ATOM     13  C   UNL A   1      28.677  27.560  23.329  1.00  0.00     0.088 A 
ATOM     14  C   UNL A   1      30.460  29.068  22.645  1.00  0.00     0.103 A 
ATOM     15  Br  UNL A   1      33.235  28.544  22.747  1.00  0.00    -0.048 Br
ATOM     16  C   UNL A   1      29.106  28.780  22.808  1.00  0.00     0.270 A 
BRANCH  16  17
ATOM     17  N   UNL A   1      28.110  29.774  22.443  1.00  0.00     0.062 N 
ATOM     18  O   UNL A   1      28.046  30.099  21.249  1.00  0.00    -0.258 OA
ATOM     19  O   UNL A   1      27.367  30.182  23.342  1.00  0.00    -0.258 OA
ENDBRANCH  16  17
ENDBRANCH   6  10
ENDBRANCH   5   6
ENDBRANCH   3   5
ENDBRANCH   2   3
ENDBRANCH   1   2
BRANCH   1  20
ATOM     20  C   UNL A   1      31.778  30.063  26.116  1.00  0.00     0.275 C 
BRANCH  20  21
ATOM     21  O   UNL A   1      33.190  30.333  26.145  1.00  0.00    -0.458 OA
BRANCH  21  22
ATOM     22  C   UNL A   1      33.573  31.261  27.050  1.00  0.00     0.338 C 
ATOM     23  O   UNL A   1      32.983  32.294  27.340  1.00  0.00    -0.246 OA
BRANCH  22  24
ATOM     24  C   UNL A   1      34.877  30.909  27.628  1.00  0.00     0.060 A 
ATOM     25  C   UNL A   1      35.171  29.597  28.012  1.00  0.00     0.016 A 
ATOM     26  C   UNL A   1      35.774  31.944  27.890  1.00  0.00     0.016 A 
ATOM     27  C   UNL A   1      36.345  29.334  28.723  1.00  0.00     0.010 A 
ATOM     28  C   UNL A   1      36.970  31.669  28.547  1.00  0.00     0.010 A 
ATOM     29  C   UNL A   1      37.252  30.369  28.997  1.00  0.00    -0.014 A 
BRANCH  29  30
ATOM     30  C   UNL A   1      38.499  30.132  29.767  1.00  0.00     0.031 A 
ATOM     31  C   UNL A   1      39.518  29.154  29.254  1.00  0.00     0.074 A 
ATOM     32  C   UNL A   1      38.671  30.736  30.956  1.00  0.00     0.049 A 
ATOM     33  N   UNL A   1      40.556  28.640  29.863  1.00  0.00    -0.248 NA
ATOM     34  C   UNL A   1      39.336  28.684  27.872  1.00  0.00     0.031 C 
ATOM     35  C   UNL A   1      37.760  31.723  31.540  1.00  0.00     0.029 A 
ATOM     36  N   UNL A   1      39.652  30.585  31.902  1.00  0.00    -0.354 N 
ATOM     37  C   UNL A   1      41.138  27.766  28.952  1.00  0.00     0.074 A 
ATOM     38  C   UNL A   1      40.328  27.811  27.751  1.00  0.00     0.031 C 
ATOM     39  C   UNL A   1      38.217  32.074  32.753  1.00  0.00     0.029 A 
ATOM     40  C   UNL A   1      39.411  31.293  33.057  1.00  0.00     0.049 A 
ATOM     41  H   UNL A   1      40.450  30.024  31.768  1.00  0.00     0.167 HD
ATOM     42  C   UNL A   1      42.243  26.995  29.108  1.00  0.00     0.034 A 
ATOM     43  C   UNL A   1      40.048  31.275  34.243  1.00  0.00     0.034 A 
ATOM     44  C   UNL A   1      43.031  26.960  30.317  1.00  0.00     0.049 A 
ATOM     45  C   UNL A   1      41.238  30.372  34.416  1.00  0.00     0.074 A 
ATOM     46  C   UNL A   1      44.171  26.221  30.588  1.00  0.00     0.029 A 
ATOM     47  N   UNL A   1      42.757  27.697  31.463  1.00  0.00    -0.354 N 
ATOM     48  N   UNL A   1      41.761  29.525  33.559  1.00  0.00    -0.248 NA
ATOM     49  C   UNL A   1      41.922  30.420  35.713  1.00  0.00     0.031 C 
ATOM     50  C   UNL A   1      44.553  26.472  31.911  1.00  0.00     0.029 A 
ATOM     51  C   UNL A   1      43.690  27.414  32.448  1.00  0.00     0.049 A 
ATOM     52  H   UNL A   1      42.008  28.327  31.561  1.00  0.00     0.167 HD
ATOM     53  C   UNL A   1      42.850  28.954  34.209  1.00  0.00     0.074 A 
ATOM     54  C   UNL A   1      42.911  29.559  35.525  1.00  0.00     0.031 C 
ATOM     55  C   UNL A   1      43.723  28.017  33.759  1.00  0.00     0.034 A 
BRANCH  42  56
ATOM     56  C   UNL A   1      42.625  26.090  27.962  1.00  0.00     0.023 A 
ATOM     57  C   UNL A   1      42.028  24.831  27.781  1.00  0.00     0.031 A 
ATOM     58  C   UNL A   1      43.620  26.486  27.049  1.00  0.00     0.131 A 
ATOM     59  C   UNL A   1      42.468  23.989  26.747  1.00  0.00     0.055 A 
ATOM     60  C   UNL A   1      44.009  25.670  25.985  1.00  0.00     0.041 A 
ATOM     61  F   UNL A   1      44.236  27.671  27.183  1.00  0.00    -0.206 F 
ATOM     62  C   UNL A   1      43.442  24.408  25.837  1.00  0.00     0.022 A 
BRANCH  59  63
ATOM     63  S   UNL A   1      41.832  22.291  26.678  1.00  0.00     0.124 S 
ATOM     64  O   UNL A   1      42.465  21.688  27.849  1.00  0.00    -0.237 OA
ATOM     65  O   UNL A   1      40.391  22.493  26.766  1.00  0.00    -0.237 OA
ATOM     66  O   UNL A   1      42.315  21.796  25.390  1.00  0.00    -0.744 OA
ENDBRANCH  59  63
ENDBRANCH  42  56
BRANCH  43  67
ATOM     67  C   UNL A   1      39.532  32.095  35.373  1.00  0.00     0.023 A 
ATOM     68  C   UNL A   1      40.036  33.379  35.625  1.00  0.00     0.031 A 
ATOM     69  C   UNL A   1      38.522  31.600  36.216  1.00  0.00     0.131 A 
ATOM     70  C   UNL A   1      39.542  34.119  36.710  1.00  0.00     0.055 A 
ATOM     71  C   UNL A   1      38.005  32.356  37.269  1.00  0.00     0.041 A 
ATOM     72  F   UNL A   1      38.003  30.380  36.011  1.00  0.00    -0.206 F 
ATOM     73  C   UNL A   1      38.522  33.623  37.525  1.00  0.00     0.022 A 
BRANCH  70  74
ATOM     74  S   UNL A   1      40.288  35.732  37.073  1.00  0.00     0.124 S 
ATOM     75  O   UNL A   1      41.706  35.460  36.862  1.00  0.00    -0.237 OA
ATOM     76  O   UNL A   1      39.647  36.591  36.084  1.00  0.00    -0.237 OA
ATOM     77  O   UNL A   1      39.900  35.983  38.459  1.00  0.00    -0.744 OA
ENDBRANCH  70  74
ENDBRANCH  43  67
BRANCH  55  78
ATOM     78  C   UNL A   1      44.841  27.636  34.694  1.00  0.00     0.023 A 
ATOM     79  C   UNL A   1      46.063  28.329  34.701  1.00  0.00     0.031 A 
ATOM     80  C   UNL A   1      44.686  26.546  35.566  1.00  0.00     0.131 A 
ATOM     81  C   UNL A   1      47.106  27.889  35.529  1.00  0.00     0.055 A 
ATOM     82  C   UNL A   1      45.711  26.143  36.422  1.00  0.00     0.041 A 
ATOM     83  F   UNL A   1      43.538  25.851  35.595  1.00  0.00    -0.206 F 
ATOM     84  C   UNL A   1      46.933  26.808  36.399  1.00  0.00     0.022 A 
BRANCH  81  85
ATOM     85  S   UNL A   1      48.723  28.701  35.399  1.00  0.00     0.124 S 
ATOM     86  O   UNL A   1      49.085  28.883  36.801  1.00  0.00    -0.237 OA
ATOM     87  O   UNL A   1      49.509  27.718  34.659  1.00  0.00    -0.237 OA
ATOM     88  O   UNL A   1      48.430  29.933  34.670  1.00  0.00    -0.744 OA
ENDBRANCH  81  85
ENDBRANCH  55  78
ENDBRANCH  29  30
ENDBRANCH  22  24
ENDBRANCH  21  22
ENDBRANCH  20  21
ENDBRANCH   1  20
TORSDOF 19
ENDMDL
MODEL 2
REMARK VINA RESULT:     -10.3      2.280      3.695
REMARK SMILES C=CCN(CC(=O)OCCOC(=O)c1ccc(-c2c3nc(c(-c4cc(S(=O)(=O)[O-])ccc4F)c4ccc([nH]4)c(-c4cc(S(=O)(=O)[O-])ccc4F)c4nc(c(-c5cc(S(=O)(=O)[O-])ccc5F)c5ccc2[nH]5)C=C4)C=C3)cc1)c1ccc([N+](=O)[O-])cc1Br
REMARK SMILES IDX 9 1 8 2 6 3 7 4 5 5 4 6 3 7 2 8 1 9 77 10 78 11 85 12 79 13
REMARK SMILES IDX 84 14 86 15 80 16 81 17 82 18 83 19 10 20 11 21 12 22 13 23
REMARK SMILES IDX 14 24 15 25 76 26 16 27 75 28 17 29 18 30 19 31 69 32 20 33
REMARK SMILES IDX 74 34 68 35 70 36 21 37 73 38 67 39 66 40 22 42 54 43 34 44
REMARK SMILES IDX 53 45 35 46 38 47 52 48 71 49 36 50 37 51 51 53 72 54 39 55
REMARK SMILES IDX 23 56 24 57 32 58 25 59 31 60 33 61 30 62 26 63 27 64 28 65
REMARK SMILES IDX 29 66 55 67 56 68 64 69 57 70 63 71 65 72 62 73 58 74 59 75
REMARK SMILES IDX 60 76 61 77 40 78 41 79 49 80 42 81 48 82 50 83 47 84 43 85
REMARK SMILES IDX 44 86 45 87 46 88
REMARK H PARENT 70 41 38 52
REMARK Flexibility Score: inf
ROOT
ATOM      1  C   UNL A   1      32.011  28.116  24.649  1.00  0.00     0.274 C 
ENDROOT
BRANCH   1   2
ATOM      2  O   UNL A   1      31.028  27.121  24.992  1.00  0.00    -0.461 OA
BRANCH   2   3
ATOM      3  C   UNL A   1      31.514  25.968  25.532  1.00  0.00     0.325 C 
ATOM      4  O   UNL A   1      32.070  25.901  26.626  1.00  0.00    -0.250 OA
BRANCH   3   5
ATOM      5  C   UNL A   1      31.283  24.725  24.673  1.00  0.00     0.239 C 
BRANCH   5   6
ATOM      6  N   UNL A   1      32.495  24.090  24.142  1.00  0.00    -0.356 N 
BRANCH   6   7
ATOM      7  C   UNL A   1      33.541  24.904  23.550  1.00  0.00     0.144 C 
BRANCH   7   8
ATOM      8  C   UNL A   1      32.974  25.590  22.342  1.00  0.00    -0.014 C 
ATOM      9  C   UNL A   1      32.819  25.021  21.139  1.00  0.00     0.006 C 
ENDBRANCH   7   8
ENDBRANCH   6   7
BRANCH   6  10
ATOM     10  C   UNL A   1      32.604  22.707  24.175  1.00  0.00     0.052 A 
ATOM     11  C   UNL A   1      32.199  21.974  23.045  1.00  0.00     0.034 A 
ATOM     12  C   UNL A   1      33.064  21.981  25.300  1.00  0.00     0.048 A 
ATOM     13  C   UNL A   1      32.198  20.578  23.043  1.00  0.00     0.088 A 
ATOM     14  C   UNL A   1      33.089  20.581  25.307  1.00  0.00     0.103 A 
ATOM     15  Br  UNL A   1      33.717  22.856  26.861  1.00  0.00    -0.048 Br
ATOM     16  C   UNL A   1      32.633  19.899  24.180  1.00  0.00     0.270 A 
BRANCH  16  17
ATOM     17  N   UNL A   1      32.620  18.446  24.175  1.00  0.00     0.062 N 
ATOM     18  O   UNL A   1      33.352  17.876  23.353  1.00  0.00    -0.258 OA
ATOM     19  O   UNL A   1      31.919  17.887  25.025  1.00  0.00    -0.258 OA
ENDBRANCH  16  17
ENDBRANCH   6  10
ENDBRANCH   5   6
ENDBRANCH   3   5
ENDBRANCH   2   3
ENDBRANCH   1   2
BRANCH   1  20
ATOM     20  C   UNL A   1      31.850  29.354  25.526  1.00  0.00     0.275 C 
BRANCH  20  21
ATOM     21  O   UNL A   1      33.142  29.902  25.843  1.00  0.00    -0.458 OA
BRANCH  21  22
ATOM     22  C   UNL A   1      33.128  30.898  26.755  1.00  0.00     0.338 C 
ATOM     23  O   UNL A   1      32.282  31.775  26.876  1.00  0.00    -0.246 OA
BRANCH  22  24
ATOM     24  C   UNL A   1      34.337  30.850  27.588  1.00  0.00     0.060 A 
ATOM     25  C   UNL A   1      35.145  31.978  27.762  1.00  0.00     0.016 A 
ATOM     26  C   UNL A   1      34.721  29.614  28.109  1.00  0.00     0.016 A 
ATOM     27  C   UNL A   1      36.378  31.850  28.406  1.00  0.00     0.010 A 
ATOM     28  C   UNL A   1      35.924  29.503  28.802  1.00  0.00     0.010 A 
ATOM     29  C   UNL A   1      36.777  30.611  28.929  1.00  0.00    -0.014 A 
BRANCH  29  30
ATOM     30  C   UNL A   1      38.088  30.432  29.602  1.00  0.00     0.031 A 
ATOM     31  C   UNL A   1      39.119  29.522  28.997  1.00  0.00     0.074 A 
ATOM     32  C   UNL A   1      38.313  31.025  30.788  1.00  0.00     0.049 A 
ATOM     33  N   UNL A   1      40.225  29.057  29.518  1.00  0.00    -0.248 NA
ATOM     34  C   UNL A   1      38.863  29.065  27.622  1.00  0.00     0.031 C 
ATOM     35  C   UNL A   1      37.395  31.949  31.457  1.00  0.00     0.029 A 
ATOM     36  N   UNL A   1      39.367  30.913  31.658  1.00  0.00    -0.354 N 
ATOM     37  C   UNL A   1      40.786  28.232  28.549  1.00  0.00     0.074 A 
ATOM     38  C   UNL A   1      39.889  28.252  27.412  1.00  0.00     0.031 C 
ATOM     39  C   UNL A   1      37.919  32.305  32.640  1.00  0.00     0.029 A 
ATOM     40  C   UNL A   1      39.173  31.587  32.841  1.00  0.00     0.049 A 
ATOM     41  H   UNL A   1      40.184  30.400  31.455  1.00  0.00     0.167 HD
ATOM     42  C   UNL A   1      41.940  27.523  28.609  1.00  0.00     0.034 A 
ATOM     43  C   UNL A   1      39.896  31.585  33.977  1.00  0.00     0.034 A 
ATOM     44  C   UNL A   1      42.816  27.512  29.758  1.00  0.00     0.049 A 
ATOM     45  C   UNL A   1      41.143  30.748  34.045  1.00  0.00     0.074 A 
ATOM     46  C   UNL A   1      44.011  26.833  29.930  1.00  0.00     0.029 A 
ATOM     47  N   UNL A   1      42.587  28.212  30.936  1.00  0.00    -0.354 N 
ATOM     48  N   UNL A   1      41.648  29.947  33.135  1.00  0.00    -0.248 NA
ATOM     49  C   UNL A   1      41.916  30.813  35.290  1.00  0.00     0.031 C 
ATOM     50  C   UNL A   1      44.475  27.083  31.227  1.00  0.00     0.029 A 
ATOM     51  C   UNL A   1      43.603  27.966  31.845  1.00  0.00     0.049 A 
ATOM     52  H   UNL A   1      41.812  28.798  31.100  1.00  0.00     0.167 HD
ATOM     53  C   UNL A   1      42.810  29.426  33.693  1.00  0.00     0.074 A 
ATOM     54  C   UNL A   1      42.935  30.012  35.013  1.00  0.00     0.031 C 
ATOM     55  C   UNL A   1      43.699  28.548  33.162  1.00  0.00     0.034 A 
BRANCH  42  56
ATOM     56  C   UNL A   1      42.287  26.660  27.421  1.00  0.00     0.023 A 
ATOM     57  C   UNL A   1      41.914  25.306  27.353  1.00  0.00     0.031 A 
ATOM     58  C   UNL A   1      43.020  27.196  26.347  1.00  0.00     0.131 A 
ATOM     59  C   UNL A   1      42.323  24.520  26.264  1.00  0.00     0.055 A 
ATOM     60  C   UNL A   1      43.371  26.425  25.236  1.00  0.00     0.041 A 
ATOM     61  F   UNL A   1      43.417  28.479  26.364  1.00  0.00    -0.206 F 
ATOM     62  C   UNL A   1      43.034  25.076  25.197  1.00  0.00     0.022 A 
BRANCH  59  63
ATOM     63  S   UNL A   1      42.015  22.733  26.316  1.00  0.00     0.124 S 
ATOM     64  O   UNL A   1      42.616  22.290  25.061  1.00  0.00    -0.237 OA
ATOM     65  O   UNL A   1      42.712  22.331  27.533  1.00  0.00    -0.237 OA
ATOM     66  O   UNL A   1      40.557  22.638  26.372  1.00  0.00    -0.744 OA
ENDBRANCH  59  63
ENDBRANCH  42  56
BRANCH  43  67
ATOM     67  C   UNL A   1      39.420  32.356  35.158  1.00  0.00     0.023 A 
ATOM     68  C   UNL A   1      39.854  33.669  35.389  1.00  0.00     0.031 A 
ATOM     69  C   UNL A   1      38.518  31.784  36.073  1.00  0.00     0.131 A 
ATOM     70  C   UNL A   1      39.402  34.362  36.523  1.00  0.00     0.055 A 
ATOM     71  C   UNL A   1      38.039  32.491  37.176  1.00  0.00     0.041 A 
ATOM     72  F   UNL A   1      38.068  30.532  35.891  1.00  0.00    -0.206 F 
ATOM     73  C   UNL A   1      38.488  33.788  37.410  1.00  0.00     0.022 A 
BRANCH  70  74
ATOM     74  S   UNL A   1      40.064  36.019  36.849  1.00  0.00     0.124 S 
ATOM     75  O   UNL A   1      41.483  35.741  37.040  1.00  0.00    -0.237 OA
ATOM     76  O   UNL A   1      39.708  36.733  35.628  1.00  0.00    -0.237 OA
ATOM     77  O   UNL A   1      39.344  36.443  38.048  1.00  0.00    -0.744 OA
ENDBRANCH  70  74
ENDBRANCH  43  67
BRANCH  55  78
ATOM     78  C   UNL A   1      44.901  28.215  34.005  1.00  0.00     0.023 A 
ATOM     79  C   UNL A   1      44.896  27.129  34.898  1.00  0.00     0.031 A 
ATOM     80  C   UNL A   1      46.053  29.014  33.932  1.00  0.00     0.131 A 
ATOM     81  C   UNL A   1      46.007  26.904  35.724  1.00  0.00     0.055 A 
ATOM     82  C   UNL A   1      47.174  28.756  34.722  1.00  0.00     0.041 A 
ATOM     83  F   UNL A   1      46.106  30.063  33.096  1.00  0.00    -0.206 F 
ATOM     84  C   UNL A   1      47.150  27.703  35.633  1.00  0.00     0.022 A 
BRANCH  81  85
ATOM     85  S   UNL A   1      45.910  25.598  36.978  1.00  0.00     0.124 S 
ATOM     86  O   UNL A   1      47.158  25.786  37.711  1.00  0.00    -0.237 OA
ATOM     87  O   UNL A   1      44.688  25.944  37.698  1.00  0.00    -0.237 OA
ATOM     88  O   UNL A   1      45.834  24.370  36.189  1.00  0.00    -0.744 OA
ENDBRANCH  81  85
ENDBRANCH  55  78
ENDBRANCH  29  30
ENDBRANCH  22  24
ENDBRANCH  21  22
ENDBRANCH  20  21
ENDBRANCH   1  20
TORSDOF 19
ENDMDL
MODEL 3
REMARK VINA RESULT:     -10.3      4.979      9.591
REMARK SMILES C=CCN(CC(=O)OCCOC(=O)c1ccc(-c2c3nc(c(-c4cc(S(=O)(=O)[O-])ccc4F)c4ccc([nH]4)c(-c4cc(S(=O)(=O)[O-])ccc4F)c4nc(c(-c5cc(S(=O)(=O)[O-])ccc5F)c5ccc2[nH]5)C=C4)C=C3)cc1)c1ccc([N+](=O)[O-])cc1Br
REMARK SMILES IDX 9 1 8 2 6 3 7 4 5 5 4 6 3 7 2 8 1 9 77 10 78 11 85 12 79 13
REMARK SMILES IDX 84 14 86 15 80 16 81 17 82 18 83 19 10 20 11 21 12 22 13 23
REMARK SMILES IDX 14 24 15 25 76 26 16 27 75 28 17 29 18 30 19 31 69 32 20 33
REMARK SMILES IDX 74 34 68 35 70 36 21 37 73 38 67 39 66 40 22 42 54 43 34 44
REMARK SMILES IDX 53 45 35 46 38 47 52 48 71 49 36 50 37 51 51 53 72 54 39 55
REMARK SMILES IDX 23 56 24 57 32 58 25 59 31 60 33 61 30 62 26 63 27 64 28 65
REMARK SMILES IDX 29 66 55 67 56 68 64 69 57 70 63 71 65 72 62 73 58 74 59 75
REMARK SMILES IDX 60 76 61 77 40 78 41 79 49 80 42 81 48 82 50 83 47 84 43 85
REMARK SMILES IDX 44 86 45 87 46 88
REMARK H PARENT 70 41 38 52
REMARK Flexibility Score: inf
ROOT
ATOM      1  C   UNL A   1      34.332  21.056  26.185  1.00  0.00     0.274 C 
ENDROOT
BRANCH   1   2
ATOM      2  O   UNL A   1      33.894  22.427  26.257  1.00  0.00    -0.461 OA
BRANCH   2   3
ATOM      3  C   UNL A   1      32.572  22.614  26.530  1.00  0.00     0.325 C 
ATOM      4  O   UNL A   1      32.151  23.202  27.523  1.00  0.00    -0.250 OA
BRANCH   3   5
ATOM      5  C   UNL A   1      31.625  22.056  25.467  1.00  0.00     0.239 C 
BRANCH   5   6
ATOM      6  N   UNL A   1      31.863  22.531  24.098  1.00  0.00    -0.356 N 
BRANCH   6   7
ATOM      7  C   UNL A   1      32.255  21.593  23.063  1.00  0.00     0.144 C 
BRANCH   7   8
ATOM      8  C   UNL A   1      32.298  20.219  23.665  1.00  0.00    -0.014 C 
ATOM      9  C   UNL A   1      32.358  19.077  22.968  1.00  0.00     0.006 C 
ENDBRANCH   7   8
ENDBRANCH   6   7
BRANCH   6  10
ATOM     10  C   UNL A   1      31.750  23.886  23.824  1.00  0.00     0.052 A 
ATOM     11  C   UNL A   1      30.474  24.477  23.871  1.00  0.00     0.034 A 
ATOM     12  C   UNL A   1      32.843  24.707  23.457  1.00  0.00     0.048 A 
ATOM     13  C   UNL A   1      30.276  25.813  23.519  1.00  0.00     0.088 A 
ATOM     14  C   UNL A   1      32.664  26.055  23.121  1.00  0.00     0.103 A 
ATOM     15  Br  UNL A   1      34.631  24.050  23.434  1.00  0.00    -0.048 Br
ATOM     16  C   UNL A   1      31.374  26.583  23.137  1.00  0.00     0.270 A 
BRANCH  16  17
ATOM     17  N   UNL A   1      31.160  27.970  22.762  1.00  0.00     0.062 N 
ATOM     18  O   UNL A   1      30.265  28.201  21.937  1.00  0.00    -0.258 OA
ATOM     19  O   UNL A   1      31.852  28.820  23.332  1.00  0.00    -0.258 OA
ENDBRANCH  16  17
ENDBRANCH   6  10
ENDBRANCH   5   6
ENDBRANCH   3   5
ENDBRANCH   2   3
ENDBRANCH   1   2
BRANCH   1  20
ATOM     20  C   UNL A   1      35.624  20.947  25.381  1.00  0.00     0.275 C 
BRANCH  20  21
ATOM     21  O   UNL A   1      36.637  21.785  25.965  1.00  0.00    -0.458 OA
BRANCH  21  22
ATOM     22  C   UNL A   1      37.906  21.386  25.734  1.00  0.00     0.338 C 
ATOM     23  O   UNL A   1      38.273  20.285  25.341  1.00  0.00    -0.246 OA
BRANCH  22  24
ATOM     24  C   UNL A   1      38.854  22.451  26.088  1.00  0.00     0.060 A 
ATOM     25  C   UNL A   1      40.005  22.182  26.835  1.00  0.00     0.016 A 
ATOM     26  C   UNL A   1      38.514  23.763  25.754  1.00  0.00     0.016 A 
ATOM     27  C   UNL A   1      40.783  23.242  27.307  1.00  0.00     0.010 A 
ATOM     28  C   UNL A   1      39.325  24.813  26.176  1.00  0.00     0.010 A 
ATOM     29  C   UNL A   1      40.448  24.565  26.982  1.00  0.00    -0.014 A 
BRANCH  29  30
ATOM     30  C   UNL A   1      41.239  25.717  27.482  1.00  0.00     0.031 A 
ATOM     31  C   UNL A   1      40.585  26.747  28.360  1.00  0.00     0.074 A 
ATOM     32  C   UNL A   1      42.513  25.872  27.081  1.00  0.00     0.049 A 
ATOM     33  N   UNL A   1      41.020  27.926  28.722  1.00  0.00    -0.248 NA
ATOM     34  C   UNL A   1      39.257  26.405  28.891  1.00  0.00     0.031 C 
ATOM     35  C   UNL A   1      43.258  24.922  26.252  1.00  0.00     0.029 A 
ATOM     36  N   UNL A   1      43.398  26.899  27.290  1.00  0.00    -0.354 N 
ATOM     37  C   UNL A   1      40.012  28.481  29.502  1.00  0.00     0.074 A 
ATOM     38  C   UNL A   1      38.936  27.511  29.549  1.00  0.00     0.031 C 
ATOM     39  C   UNL A   1      44.480  25.421  26.007  1.00  0.00     0.029 A 
ATOM     40  C   UNL A   1      44.581  26.748  26.605  1.00  0.00     0.049 A 
ATOM     41  H   UNL A   1      43.204  27.670  27.872  1.00  0.00     0.167 HD
ATOM     42  C   UNL A   1      39.987  29.690  30.116  1.00  0.00     0.034 A 
ATOM     43  C   UNL A   1      45.608  27.602  26.436  1.00  0.00     0.034 A 
ATOM     44  C   UNL A   1      41.068  30.645  30.049  1.00  0.00     0.049 A 
ATOM     45  C   UNL A   1      45.539  28.960  27.077  1.00  0.00     0.074 A 
ATOM     46  C   UNL A   1      41.155  31.899  30.632  1.00  0.00     0.029 A 
ATOM     47  N   UNL A   1      42.253  30.453  29.349  1.00  0.00    -0.354 N 
ATOM     48  N   UNL A   1      44.567  29.488  27.786  1.00  0.00    -0.248 NA
ATOM     49  C   UNL A   1      46.701  29.838  26.896  1.00  0.00     0.031 C 
ATOM     50  C   UNL A   1      42.368  32.481  30.243  1.00  0.00     0.029 A 
ATOM     51  C   UNL A   1      43.066  31.569  29.467  1.00  0.00     0.049 A 
ATOM     52  H   UNL A   1      42.482  29.641  28.841  1.00  0.00     0.167 HD
ATOM     53  C   UNL A   1      45.011  30.754  28.152  1.00  0.00     0.074 A 
ATOM     54  C   UNL A   1      46.340  30.905  27.593  1.00  0.00     0.031 C 
ATOM     55  C   UNL A   1      44.380  31.705  28.888  1.00  0.00     0.034 A 
BRANCH  42  56
ATOM     56  C   UNL A   1      38.730  30.064  30.863  1.00  0.00     0.023 A 
ATOM     57  C   UNL A   1      37.706  30.816  30.262  1.00  0.00     0.031 A 
ATOM     58  C   UNL A   1      38.564  29.679  32.206  1.00  0.00     0.131 A 
ATOM     59  C   UNL A   1      36.588  31.207  31.017  1.00  0.00     0.055 A 
ATOM     60  C   UNL A   1      37.422  30.018  32.934  1.00  0.00     0.041 A 
ATOM     61  F   UNL A   1      39.517  28.974  32.836  1.00  0.00    -0.206 F 
ATOM     62  C   UNL A   1      36.431  30.797  32.343  1.00  0.00     0.022 A 
BRANCH  59  63
ATOM     63  S   UNL A   1      35.398  32.357  30.275  1.00  0.00     0.124 S 
ATOM     64  O   UNL A   1      36.251  33.493  29.937  1.00  0.00    -0.237 OA
ATOM     65  O   UNL A   1      34.882  31.590  29.148  1.00  0.00    -0.237 OA
ATOM     66  O   UNL A   1      34.441  32.602  31.353  1.00  0.00    -0.744 OA
ENDBRANCH  59  63
ENDBRANCH  42  56
BRANCH  43  67
ATOM     67  C   UNL A   1      46.757  27.216  25.572  1.00  0.00     0.023 A 
ATOM     68  C   UNL A   1      46.950  27.805  24.315  1.00  0.00     0.031 A 
ATOM     69  C   UNL A   1      47.683  26.247  26.001  1.00  0.00     0.131 A 
ATOM     70  C   UNL A   1      48.032  27.404  23.517  1.00  0.00     0.055 A 
ATOM     71  C   UNL A   1      48.781  25.882  25.222  1.00  0.00     0.041 A 
ATOM     72  F   UNL A   1      47.546  25.660  27.200  1.00  0.00    -0.206 F 
ATOM     73  C   UNL A   1      48.955  26.457  23.966  1.00  0.00     0.022 A 
BRANCH  70  74
ATOM     74  S   UNL A   1      48.192  28.107  21.852  1.00  0.00     0.124 S 
ATOM     75  O   UNL A   1      47.117  29.093  21.841  1.00  0.00    -0.237 OA
ATOM     76  O   UNL A   1      49.549  28.640  21.879  1.00  0.00    -0.237 OA
ATOM     77  O   UNL A   1      47.993  26.956  20.975  1.00  0.00    -0.744 OA
ENDBRANCH  70  74
ENDBRANCH  43  67
BRANCH  55  78
ATOM     78  C   UNL A   1      45.155  32.968  29.159  1.00  0.00     0.023 A 
ATOM     79  C   UNL A   1      44.979  34.122  28.376  1.00  0.00     0.031 A 
ATOM     80  C   UNL A   1      46.100  33.004  30.197  1.00  0.00     0.131 A 
ATOM     81  C   UNL A   1      45.779  35.250  28.611  1.00  0.00     0.055 A 
ATOM     82  C   UNL A   1      46.859  34.145  30.457  1.00  0.00     0.041 A 
ATOM     83  F   UNL A   1      46.305  31.926  30.971  1.00  0.00    -0.206 F 
ATOM     84  C   UNL A   1      46.710  35.272  29.654  1.00  0.00     0.022 A 
BRANCH  81  85
ATOM     85  S   UNL A   1      45.644  36.664  27.483  1.00  0.00     0.124 S 
ATOM     86  O   UNL A   1      44.443  36.333  26.723  1.00  0.00    -0.237 OA
ATOM     87  O   UNL A   1      45.526  37.790  28.405  1.00  0.00    -0.237 OA
ATOM     88  O   UNL A   1      46.892  36.617  26.724  1.00  0.00    -0.744 OA
ENDBRANCH  81  85
ENDBRANCH  55  78
ENDBRANCH  29  30
ENDBRANCH  22  24
ENDBRANCH  21  22
ENDBRANCH  20  21
ENDBRANCH   1  20
TORSDOF 19
ENDMDL
