MODEL 1
REMARK VINA RESULT:      -9.6      0.000      0.000
REMARK SMILES O=C(COc1ccccc1/C=N/N1[C@@H](S)N=N[C@H]1[C@@H]1C=C(c2ccccc2)N=N1)OCCOC(=O)c1ccc(-c2c3nc(c(-c4cc(S(=O)(=O)[O-])ccc4F)c4ccc([nH]4)c(-c4cc(S(=O)(=O)[O-])ccc4F)c4nc(c(-c5cc(S(=O)(=O)[O-])ccc5F)c5ccc2[nH]5)C=C4)C=C3)cc1
REMARK SMILES IDX 30 1 2 2 1 3 3 4 4 5 5 6 6 7 10 8 7 9 9 10 8 11 11 12 12 13
REMARK SMILES IDX 13 14 14 15 18 16 16 17 17 18 15 19 19 21 20 22 29 23 21 24
REMARK SMILES IDX 28 25 22 26 23 27 27 28 24 29 26 30 25 31 31 32 32 33 33 34
REMARK SMILES IDX 34 35 35 36 36 37 37 38 98 39 38 40 97 41 39 42 40 43 41 44
REMARK SMILES IDX 91 45 42 46 96 47 90 48 92 49 43 50 95 51 89 52 88 53 44 55
REMARK SMILES IDX 76 56 56 57 75 58 57 59 60 60 74 61 93 62 58 63 59 64 73 66
REMARK SMILES IDX 94 67 61 68 45 69 46 70 54 71 47 72 53 73 55 74 52 75 48 76
REMARK SMILES IDX 49 77 50 78 51 79 77 80 78 81 86 82 79 83 85 84 87 85 84 86
REMARK SMILES IDX 80 87 81 88 82 89 83 90 62 91 63 92 71 93 64 94 70 95 72 96
REMARK SMILES IDX 69 97 65 98 66 99 67 100 68 101
REMARK H PARENT 15 20 92 54 60 65
REMARK Flexibility Score: inf
ROOT
ATOM      1  O   UNL A   1      45.785  34.494  27.498  1.00  0.00    -0.460 OA
ENDROOT
BRANCH   1   2
ATOM      2  C   UNL A   1      46.328  33.419  26.547  1.00  0.00     0.344 C 
ATOM      3  O   UNL A   1      47.304  33.603  25.818  1.00  0.00    -0.248 OA
BRANCH   2   4
ATOM      4  C   UNL A   1      45.472  32.168  26.431  1.00  0.00     0.352 C 
BRANCH   4   5
ATOM      5  O   UNL A   1      45.671  31.156  27.380  1.00  0.00    -0.481 OA
BRANCH   5   6
ATOM      6  C   UNL A   1      44.584  30.792  28.125  1.00  0.00     0.129 A 
ATOM      7  C   UNL A   1      44.437  31.609  29.253  1.00  0.00     0.047 A 
ATOM      8  C   UNL A   1      43.910  29.559  28.051  1.00  0.00     0.037 A 
ATOM      9  C   UNL A   1      43.687  31.174  30.339  1.00  0.00     0.004 A 
ATOM     10  C   UNL A   1      43.111  29.154  29.124  1.00  0.00     0.013 A 
ATOM     11  C   UNL A   1      43.028  29.947  30.274  1.00  0.00     0.001 A 
BRANCH   8  12
ATOM     12  C   UNL A   1      44.290  28.488  27.101  1.00  0.00     0.145 C 
ATOM     13  N   UNL A   1      44.811  28.744  25.949  1.00  0.00    -0.180 NA
BRANCH  13  14
ATOM     14  N   UNL A   1      45.286  27.736  25.137  1.00  0.00    -0.233 NA
ATOM     15  C   UNL A   1      46.767  27.625  24.977  1.00  0.00     0.298 C 
ATOM     16  C   UNL A   1      44.912  26.302  24.931  1.00  0.00     0.274 C 
ATOM     17  N   UNL A   1      47.158  26.206  24.866  1.00  0.00    -0.153 NA
ATOM     18  N   UNL A   1      46.147  25.475  24.866  1.00  0.00    -0.161 NA
BRANCH  15  19
ATOM     19  S   UNL A   1      47.735  28.586  26.186  1.00  0.00    -0.128 SA
ATOM     20  H   UNL A   1      46.939  29.528  26.760  1.00  0.00     0.106 HD
ENDBRANCH  15  19
BRANCH  16  21
ATOM     21  C   UNL A   1      43.772  25.311  25.417  1.00  0.00     0.202 C 
ATOM     22  C   UNL A   1      42.099  26.301  25.788  1.00  0.00     0.037 C 
ATOM     23  N   UNL A   1      43.960  24.283  27.144  1.00  0.00    -0.177 NA
ATOM     24  C   UNL A   1      41.642  26.083  27.284  1.00  0.00     0.091 C 
ATOM     25  N   UNL A   1      42.659  24.850  28.164  1.00  0.00    -0.155 NA
BRANCH  24  26
ATOM     26  C   UNL A   1      40.470  26.672  27.928  1.00  0.00     0.002 A 
ATOM     27  C   UNL A   1      39.959  27.875  27.454  1.00  0.00     0.010 A 
ATOM     28  C   UNL A   1      39.866  26.088  29.036  1.00  0.00     0.010 A 
ATOM     29  C   UNL A   1      39.061  28.627  28.203  1.00  0.00     0.001 A 
ATOM     30  C   UNL A   1      38.901  26.799  29.756  1.00  0.00     0.001 A 
ATOM     31  C   UNL A   1      38.552  28.096  29.377  1.00  0.00     0.000 A 
ENDBRANCH  24  26
ENDBRANCH  16  21
ENDBRANCH  13  14
ENDBRANCH   8  12
ENDBRANCH   5   6
ENDBRANCH   4   5
ENDBRANCH   2   4
ENDBRANCH   1   2
BRANCH   1  32
ATOM     32  C   UNL A   1      43.881  35.261  28.049  1.00  0.00     0.274 C 
BRANCH  32  33
ATOM     33  C   UNL A   1      43.606  36.971  28.492  1.00  0.00     0.275 C 
BRANCH  33  34
ATOM     34  O   UNL A   1      43.307  37.308  29.864  1.00  0.00    -0.458 OA
BRANCH  34  35
ATOM     35  C   UNL A   1      44.333  37.799  30.623  1.00  0.00     0.338 C 
ATOM     36  O   UNL A   1      44.999  38.796  30.392  1.00  0.00    -0.246 OA
BRANCH  35  37
ATOM     37  C   UNL A   1      44.536  36.928  31.808  1.00  0.00     0.060 A 
ATOM     38  C   UNL A   1      45.154  35.702  31.566  1.00  0.00     0.016 A 
ATOM     39  C   UNL A   1      43.583  37.049  32.809  1.00  0.00     0.016 A 
ATOM     40  C   UNL A   1      44.408  34.571  31.831  1.00  0.00     0.010 A 
ATOM     41  C   UNL A   1      42.872  35.920  33.109  1.00  0.00     0.010 A 
ATOM     42  C   UNL A   1      43.153  34.737  32.421  1.00  0.00    -0.014 A 
BRANCH  42  43
ATOM     43  C   UNL A   1      42.226  33.624  32.594  1.00  0.00     0.031 A 
ATOM     44  C   UNL A   1      41.094  33.859  31.664  1.00  0.00     0.074 A 
ATOM     45  C   UNL A   1      42.435  32.527  33.372  1.00  0.00     0.049 A 
ATOM     46  N   UNL A   1      40.051  34.582  31.933  1.00  0.00    -0.248 NA
ATOM     47  C   UNL A   1      41.313  33.686  30.210  1.00  0.00     0.031 C 
ATOM     48  C   UNL A   1      43.582  32.163  34.214  1.00  0.00     0.029 A 
ATOM     49  N   UNL A   1      41.615  31.436  33.545  1.00  0.00    -0.354 N 
ATOM     50  C   UNL A   1      39.340  34.592  30.745  1.00  0.00     0.074 A 
ATOM     51  C   UNL A   1      40.323  34.437  29.720  1.00  0.00     0.031 C 
ATOM     52  C   UNL A   1      43.488  30.861  34.603  1.00  0.00     0.029 A 
ATOM     53  C   UNL A   1      42.220  30.307  34.155  1.00  0.00     0.049 A 
ATOM     54  H   UNL A   1      40.671  31.437  33.263  1.00  0.00     0.167 HD
ATOM     55  C   UNL A   1      38.033  34.209  30.736  1.00  0.00     0.034 A 
ATOM     56  C   UNL A   1      41.679  29.042  34.265  1.00  0.00     0.034 A 
ATOM     57  C   UNL A   1      37.515  34.208  32.091  1.00  0.00     0.049 A 
ATOM     58  C   UNL A   1      40.205  29.232  34.132  1.00  0.00     0.074 A 
ATOM     59  C   UNL A   1      37.404  35.156  33.089  1.00  0.00     0.029 A 
ATOM     60  N   UNL A   1      37.444  32.983  32.718  1.00  0.00    -0.354 N 
ATOM     61  N   UNL A   1      39.506  29.884  35.023  1.00  0.00    -0.248 NA
ATOM     62  C   UNL A   1      39.675  29.259  32.775  1.00  0.00     0.031 C 
ATOM     63  C   UNL A   1      37.740  34.466  34.292  1.00  0.00     0.029 A 
ATOM     64  C   UNL A   1      37.891  33.108  34.010  1.00  0.00     0.049 A 
ATOM     65  H   UNL A   1      37.123  32.149  32.305  1.00  0.00     0.167 HD
ATOM     66  C   UNL A   1      38.744  30.778  34.283  1.00  0.00     0.074 A 
ATOM     67  C   UNL A   1      38.871  30.323  32.894  1.00  0.00     0.031 C 
ATOM     68  C   UNL A   1      38.372  31.988  34.802  1.00  0.00     0.034 A 
BRANCH  55  69
ATOM     69  C   UNL A   1      37.392  33.375  29.641  1.00  0.00     0.023 A 
ATOM     70  C   UNL A   1      36.182  33.869  29.127  1.00  0.00     0.031 A 
ATOM     71  C   UNL A   1      37.709  32.043  29.276  1.00  0.00     0.131 A 
ATOM     72  C   UNL A   1      35.309  33.038  28.405  1.00  0.00     0.055 A 
ATOM     73  C   UNL A   1      36.863  31.239  28.507  1.00  0.00     0.041 A 
ATOM     74  F   UNL A   1      38.802  31.396  29.689  1.00  0.00    -0.206 F 
ATOM     75  C   UNL A   1      35.640  31.725  28.092  1.00  0.00     0.022 A 
BRANCH  72  76
ATOM     76  S   UNL A   1      33.657  33.667  28.030  1.00  0.00     0.124 S 
ATOM     77  O   UNL A   1      32.999  32.466  27.530  1.00  0.00    -0.237 OA
ATOM     78  O   UNL A   1      33.219  34.150  29.335  1.00  0.00    -0.237 OA
ATOM     79  O   UNL A   1      33.913  34.705  27.035  1.00  0.00    -0.744 OA
ENDBRANCH  72  76
ENDBRANCH  55  69
BRANCH  56  80
ATOM     80  C   UNL A   1      42.327  27.687  34.039  1.00  0.00     0.023 A 
ATOM     81  C   UNL A   1      43.250  27.361  32.993  1.00  0.00     0.031 A 
ATOM     82  C   UNL A   1      42.236  26.740  35.081  1.00  0.00     0.131 A 
ATOM     83  C   UNL A   1      44.009  26.147  33.036  1.00  0.00     0.055 A 
ATOM     84  C   UNL A   1      43.001  25.569  35.128  1.00  0.00     0.041 A 
ATOM     85  F   UNL A   1      41.457  26.963  36.148  1.00  0.00    -0.206 F 
ATOM     86  C   UNL A   1      43.895  25.272  34.115  1.00  0.00     0.022 A 
BRANCH  83  87
ATOM     87  S   UNL A   1      45.212  25.665  31.725  1.00  0.00     0.124 S 
ATOM     88  O   UNL A   1      44.706  24.367  31.292  1.00  0.00    -0.237 OA
ATOM     89  O   UNL A   1      45.105  26.758  30.767  1.00  0.00    -0.237 OA
ATOM     90  O   UNL A   1      46.493  25.607  32.435  1.00  0.00    -0.744 OA
ENDBRANCH  83  87
ENDBRANCH  56  80
BRANCH  68  91
ATOM     91  C   UNL A   1      38.556  32.230  36.290  1.00  0.00     0.023 A 
ATOM     92  C   UNL A   1      37.703  31.787  37.333  1.00  0.00     0.031 A 
ATOM     93  C   UNL A   1      39.751  32.872  36.659  1.00  0.00     0.131 A 
ATOM     94  C   UNL A   1      38.065  32.017  38.681  1.00  0.00     0.055 A 
ATOM     95  C   UNL A   1      40.119  33.063  37.987  1.00  0.00     0.041 A 
ATOM     96  F   UNL A   1      40.607  33.301  35.717  1.00  0.00    -0.206 F 
ATOM     97  C   UNL A   1      39.275  32.643  39.004  1.00  0.00     0.022 A 
BRANCH  94  98
ATOM     98  S   UNL A   1      36.950  31.566  40.057  1.00  0.00     0.124 S 
ATOM     99  O   UNL A   1      35.684  31.293  39.387  1.00  0.00    -0.237 OA
ATOM    100  O   UNL A   1      37.623  30.412  40.646  1.00  0.00    -0.237 OA
ATOM    101  O   UNL A   1      36.947  32.764  40.899  1.00  0.00    -0.744 OA
ENDBRANCH  94  98
ENDBRANCH  68  91
ENDBRANCH  42  43
ENDBRANCH  35  37
ENDBRANCH  34  35
ENDBRANCH  33  34
ENDBRANCH  32  33
ENDBRANCH   1  32
TORSDOF 21
ENDMDL
MODEL 2
REMARK VINA RESULT:      -9.5      3.705      8.668
REMARK SMILES O=C(COc1ccccc1/C=N/N1[C@@H](S)N=N[C@H]1[C@@H]1C=C(c2ccccc2)N=N1)OCCOC(=O)c1ccc(-c2c3nc(c(-c4cc(S(=O)(=O)[O-])ccc4F)c4ccc([nH]4)c(-c4cc(S(=O)(=O)[O-])ccc4F)c4nc(c(-c5cc(S(=O)(=O)[O-])ccc5F)c5ccc2[nH]5)C=C4)C=C3)cc1
REMARK SMILES IDX 30 1 2 2 1 3 3 4 4 5 5 6 6 7 10 8 7 9 9 10 8 11 11 12 12 13
REMARK SMILES IDX 13 14 14 15 18 16 16 17 17 18 15 19 19 21 20 22 29 23 21 24
REMARK SMILES IDX 28 25 22 26 23 27 27 28 24 29 26 30 25 31 31 32 32 33 33 34
REMARK SMILES IDX 34 35 35 36 36 37 37 38 98 39 38 40 97 41 39 42 40 43 41 44
REMARK SMILES IDX 91 45 42 46 96 47 90 48 92 49 43 50 95 51 89 52 88 53 44 55
REMARK SMILES IDX 76 56 56 57 75 58 57 59 60 60 74 61 93 62 58 63 59 64 73 66
REMARK SMILES IDX 94 67 61 68 45 69 46 70 54 71 47 72 53 73 55 74 52 75 48 76
REMARK SMILES IDX 49 77 50 78 51 79 77 80 78 81 86 82 79 83 85 84 87 85 84 86
REMARK SMILES IDX 80 87 81 88 82 89 83 90 62 91 63 92 71 93 64 94 70 95 72 96
REMARK SMILES IDX 69 97 65 98 66 99 67 100 68 101
REMARK H PARENT 15 20 92 54 60 65
REMARK Flexibility Score: inf
ROOT
ATOM      1  O   UNL A   1      44.533  24.873  31.930  1.00  0.00    -0.460 OA
ENDROOT
BRANCH   1   2
ATOM      2  C   UNL A   1      45.031  25.060  30.491  1.00  0.00     0.344 C 
ATOM      3  O   UNL A   1      45.451  26.137  30.064  1.00  0.00    -0.248 OA
BRANCH   2   4
ATOM      4  C   UNL A   1      44.808  23.870  29.572  1.00  0.00     0.352 C 
BRANCH   4   5
ATOM      5  O   UNL A   1      44.411  24.134  28.254  1.00  0.00    -0.481 OA
BRANCH   5   6
ATOM      6  C   UNL A   1      45.366  23.990  27.286  1.00  0.00     0.129 A 
ATOM      7  C   UNL A   1      46.121  25.158  27.130  1.00  0.00     0.047 A 
ATOM      8  C   UNL A   1      45.384  22.996  26.289  1.00  0.00     0.037 A 
ATOM      9  C   UNL A   1      46.833  25.379  25.957  1.00  0.00     0.004 A 
ATOM     10  C   UNL A   1      46.149  23.201  25.138  1.00  0.00     0.013 A 
ATOM     11  C   UNL A   1      46.844  24.403  24.962  1.00  0.00     0.001 A 
BRANCH   8  12
ATOM     12  C   UNL A   1      44.357  21.933  26.191  1.00  0.00     0.145 C 
ATOM     13  N   UNL A   1      44.109  21.317  25.086  1.00  0.00    -0.180 NA
BRANCH  13  14
ATOM     14  N   UNL A   1      43.251  20.238  25.044  1.00  0.00    -0.233 NA
ATOM     15  C   UNL A   1      43.863  18.878  24.962  1.00  0.00     0.298 C 
ATOM     16  C   UNL A   1      41.981  19.890  25.755  1.00  0.00     0.274 C 
ATOM     17  N   UNL A   1      43.051  17.912  25.728  1.00  0.00    -0.153 NA
ATOM     18  N   UNL A   1      42.032  18.467  26.187  1.00  0.00    -0.161 NA
BRANCH  15  19
ATOM     19  S   UNL A   1      45.648  18.825  25.327  1.00  0.00    -0.128 SA
ATOM     20  H   UNL A   1      46.020  19.981  25.941  1.00  0.00     0.106 HD
ENDBRANCH  15  19
BRANCH  16  21
ATOM     21  C   UNL A   1      40.974  20.594  26.759  1.00  0.00     0.202 C 
ATOM     22  C   UNL A   1      39.161  20.695  25.972  1.00  0.00     0.037 C 
ATOM     23  N   UNL A   1      41.228  22.521  27.301  1.00  0.00    -0.177 NA
ATOM     24  C   UNL A   1      38.673  22.195  25.889  1.00  0.00     0.091 C 
ATOM     25  N   UNL A   1      39.815  23.359  26.707  1.00  0.00    -0.155 NA
BRANCH  24  26
ATOM     26  C   UNL A   1      37.400  22.663  25.345  1.00  0.00     0.002 A 
ATOM     27  C   UNL A   1      37.018  22.280  24.064  1.00  0.00     0.010 A 
ATOM     28  C   UNL A   1      36.567  23.523  26.053  1.00  0.00     0.010 A 
ATOM     29  C   UNL A   1      35.994  22.932  23.388  1.00  0.00     0.001 A 
ATOM     30  C   UNL A   1      35.484  24.127  25.409  1.00  0.00     0.001 A 
ATOM     31  C   UNL A   1      35.241  23.882  24.057  1.00  0.00     0.000 A 
ENDBRANCH  24  26
ENDBRANCH  16  21
ENDBRANCH  13  14
ENDBRANCH   8  12
ENDBRANCH   5   6
ENDBRANCH   4   5
ENDBRANCH   2   4
ENDBRANCH   1   2
BRANCH   1  32
ATOM     32  C   UNL A   1      43.769  23.281  33.115  1.00  0.00     0.274 C 
BRANCH  32  33
ATOM     33  C   UNL A   1      42.823  23.541  34.608  1.00  0.00     0.275 C 
BRANCH  33  34
ATOM     34  O   UNL A   1      43.056  24.728  35.397  1.00  0.00    -0.458 OA
BRANCH  34  35
ATOM     35  C   UNL A   1      42.247  25.804  35.159  1.00  0.00     0.338 C 
ATOM     36  O   UNL A   1      41.034  25.845  35.283  1.00  0.00    -0.246 OA
BRANCH  35  37
ATOM     37  C   UNL A   1      43.070  26.957  34.715  1.00  0.00     0.060 A 
ATOM     38  C   UNL A   1      43.491  27.829  35.718  1.00  0.00     0.016 A 
ATOM     39  C   UNL A   1      42.797  27.431  33.441  1.00  0.00     0.016 A 
ATOM     40  C   UNL A   1      43.027  29.128  35.642  1.00  0.00     0.010 A 
ATOM     41  C   UNL A   1      42.382  28.731  33.353  1.00  0.00     0.010 A 
ATOM     42  C   UNL A   1      42.278  29.491  34.520  1.00  0.00    -0.014 A 
BRANCH  42  43
ATOM     43  C   UNL A   1      41.611  30.785  34.421  1.00  0.00     0.031 A 
ATOM     44  C   UNL A   1      42.679  31.811  34.320  1.00  0.00     0.074 A 
ATOM     45  C   UNL A   1      40.269  30.984  34.315  1.00  0.00     0.049 A 
ATOM     46  N   UNL A   1      43.278  32.359  35.331  1.00  0.00    -0.248 NA
ATOM     47  C   UNL A   1      43.459  31.913  33.066  1.00  0.00     0.031 C 
ATOM     48  C   UNL A   1      39.165  30.017  34.276  1.00  0.00     0.029 A 
ATOM     49  N   UNL A   1      39.591  32.174  34.184  1.00  0.00    -0.354 N 
ATOM     50  C   UNL A   1      44.249  33.156  34.748  1.00  0.00     0.074 A 
ATOM     51  C   UNL A   1      44.565  32.515  33.511  1.00  0.00     0.031 C 
ATOM     52  C   UNL A   1      38.011  30.633  33.896  1.00  0.00     0.029 A 
ATOM     53  C   UNL A   1      38.236  32.065  33.779  1.00  0.00     0.049 A 
ATOM     54  H   UNL A   1      40.018  33.045  34.359  1.00  0.00     0.167 HD
ATOM     55  C   UNL A   1      44.317  34.479  35.063  1.00  0.00     0.034 A 
ATOM     56  C   UNL A   1      37.406  33.098  33.394  1.00  0.00     0.034 A 
ATOM     57  C   UNL A   1      43.555  34.733  36.271  1.00  0.00     0.049 A 
ATOM     58  C   UNL A   1      38.003  34.327  33.995  1.00  0.00     0.074 A 
ATOM     59  C   UNL A   1      43.596  34.252  37.564  1.00  0.00     0.029 A 
ATOM     60  N   UNL A   1      42.292  35.259  36.098  1.00  0.00    -0.354 N 
ATOM     61  N   UNL A   1      38.055  34.512  35.287  1.00  0.00    -0.248 NA
ATOM     62  C   UNL A   1      39.052  34.982  33.223  1.00  0.00     0.031 C 
ATOM     63  C   UNL A   1      42.229  34.091  37.943  1.00  0.00     0.029 A 
ATOM     64  C   UNL A   1      41.416  34.618  36.938  1.00  0.00     0.049 A 
ATOM     65  H   UNL A   1      42.056  35.981  35.473  1.00  0.00     0.167 HD
ATOM     66  C   UNL A   1      39.369  34.886  35.534  1.00  0.00     0.074 A 
ATOM     67  C   UNL A   1      39.930  35.186  34.212  1.00  0.00     0.031 C 
ATOM     68  C   UNL A   1      39.978  34.586  36.721  1.00  0.00     0.034 A 
BRANCH  55  69
ATOM     69  C   UNL A   1      44.611  35.584  34.064  1.00  0.00     0.023 A 
ATOM     70  C   UNL A   1      45.631  36.479  34.427  1.00  0.00     0.031 A 
ATOM     71  C   UNL A   1      43.814  35.984  32.962  1.00  0.00     0.131 A 
ATOM     72  C   UNL A   1      45.749  37.732  33.802  1.00  0.00     0.055 A 
ATOM     73  C   UNL A   1      43.975  37.206  32.306  1.00  0.00     0.041 A 
ATOM     74  F   UNL A   1      42.784  35.276  32.491  1.00  0.00    -0.206 F 
ATOM     75  C   UNL A   1      44.928  38.104  32.744  1.00  0.00     0.022 A 
BRANCH  72  76
ATOM     76  S   UNL A   1      46.896  38.930  34.518  1.00  0.00     0.124 S 
ATOM     77  O   UNL A   1      47.286  39.695  33.340  1.00  0.00    -0.237 OA
ATOM     78  O   UNL A   1      46.045  39.617  35.484  1.00  0.00    -0.237 OA
ATOM     79  O   UNL A   1      47.941  38.088  35.097  1.00  0.00    -0.744 OA
ENDBRANCH  72  76
ENDBRANCH  55  69
BRANCH  56  80
ATOM     80  C   UNL A   1      36.432  33.178  32.232  1.00  0.00     0.023 A 
ATOM     81  C   UNL A   1      35.289  34.038  32.149  1.00  0.00     0.031 A 
ATOM     82  C   UNL A   1      36.813  32.563  31.021  1.00  0.00     0.131 A 
ATOM     83  C   UNL A   1      34.605  34.234  30.906  1.00  0.00     0.055 A 
ATOM     84  C   UNL A   1      36.155  32.780  29.804  1.00  0.00     0.041 A 
ATOM     85  F   UNL A   1      37.905  31.788  30.954  1.00  0.00    -0.206 F 
ATOM     86  C   UNL A   1      35.058  33.621  29.738  1.00  0.00     0.022 A 
BRANCH  83  87
ATOM     87  S   UNL A   1      33.129  35.324  30.730  1.00  0.00     0.124 S 
ATOM     88  O   UNL A   1      32.359  35.011  31.927  1.00  0.00    -0.237 OA
ATOM     89  O   UNL A   1      33.715  36.657  30.660  1.00  0.00    -0.237 OA
ATOM     90  O   UNL A   1      32.512  34.870  29.480  1.00  0.00    -0.744 OA
ENDBRANCH  83  87
ENDBRANCH  56  80
BRANCH  68  91
ATOM     91  C   UNL A   1      39.122  34.093  37.875  1.00  0.00     0.023 A 
ATOM     92  C   UNL A   1      38.490  32.828  37.982  1.00  0.00     0.031 A 
ATOM     93  C   UNL A   1      39.043  34.952  38.984  1.00  0.00     0.131 A 
ATOM     94  C   UNL A   1      37.801  32.486  39.169  1.00  0.00     0.055 A 
ATOM     95  C   UNL A   1      38.395  34.596  40.163  1.00  0.00     0.041 A 
ATOM     96  F   UNL A   1      39.634  36.158  38.950  1.00  0.00    -0.206 F 
ATOM     97  C   UNL A   1      37.764  33.364  40.257  1.00  0.00     0.022 A 
BRANCH  94  98
ATOM     98  S   UNL A   1      36.877  30.916  39.315  1.00  0.00     0.124 S 
ATOM     99  O   UNL A   1      35.493  31.351  39.454  1.00  0.00    -0.237 OA
ATOM    100  O   UNL A   1      37.209  30.235  38.067  1.00  0.00    -0.237 OA
ATOM    101  O   UNL A   1      37.445  30.297  40.515  1.00  0.00    -0.744 OA
ENDBRANCH  94  98
ENDBRANCH  68  91
ENDBRANCH  42  43
ENDBRANCH  35  37
ENDBRANCH  34  35
ENDBRANCH  33  34
ENDBRANCH  32  33
ENDBRANCH   1  32
TORSDOF 21
ENDMDL
MODEL 3
REMARK VINA RESULT:      -9.5      3.444     10.366
REMARK SMILES O=C(COc1ccccc1/C=N/N1[C@@H](S)N=N[C@H]1[C@@H]1C=C(c2ccccc2)N=N1)OCCOC(=O)c1ccc(-c2c3nc(c(-c4cc(S(=O)(=O)[O-])ccc4F)c4ccc([nH]4)c(-c4cc(S(=O)(=O)[O-])ccc4F)c4nc(c(-c5cc(S(=O)(=O)[O-])ccc5F)c5ccc2[nH]5)C=C4)C=C3)cc1
REMARK SMILES IDX 30 1 2 2 1 3 3 4 4 5 5 6 6 7 10 8 7 9 9 10 8 11 11 12 12 13
REMARK SMILES IDX 13 14 14 15 18 16 16 17 17 18 15 19 19 21 20 22 29 23 21 24
REMARK SMILES IDX 28 25 22 26 23 27 27 28 24 29 26 30 25 31 31 32 32 33 33 34
REMARK SMILES IDX 34 35 35 36 36 37 37 38 98 39 38 40 97 41 39 42 40 43 41 44
REMARK SMILES IDX 91 45 42 46 96 47 90 48 92 49 43 50 95 51 89 52 88 53 44 55
REMARK SMILES IDX 76 56 56 57 75 58 57 59 60 60 74 61 93 62 58 63 59 64 73 66
REMARK SMILES IDX 94 67 61 68 45 69 46 70 54 71 47 72 53 73 55 74 52 75 48 76
REMARK SMILES IDX 49 77 50 78 51 79 77 80 78 81 86 82 79 83 85 84 87 85 84 86
REMARK SMILES IDX 80 87 81 88 82 89 83 90 62 91 63 92 71 93 64 94 70 95 72 96
REMARK SMILES IDX 69 97 65 98 66 99 67 100 68 101
REMARK H PARENT 15 20 92 54 60 65
REMARK Flexibility Score: inf
ROOT
ATOM      1  O   UNL A   1      37.322  34.181  30.587  1.00  0.00    -0.460 OA
ENDROOT
BRANCH   1   2
ATOM      2  C   UNL A   1      38.803  34.506  30.349  1.00  0.00     0.344 C 
ATOM      3  O   UNL A   1      39.240  34.865  29.253  1.00  0.00    -0.248 OA
BRANCH   2   4
ATOM      4  C   UNL A   1      39.729  34.187  31.511  1.00  0.00     0.352 C 
BRANCH   4   5
ATOM      5  O   UNL A   1      40.694  33.190  31.316  1.00  0.00    -0.481 OA
BRANCH   5   6
ATOM      6  C   UNL A   1      41.937  33.608  30.930  1.00  0.00     0.129 A 
ATOM      7  C   UNL A   1      42.223  33.226  29.614  1.00  0.00     0.047 A 
ATOM      8  C   UNL A   1      42.975  34.011  31.792  1.00  0.00     0.037 A 
ATOM      9  C   UNL A   1      43.540  33.168  29.172  1.00  0.00     0.004 A 
ATOM     10  C   UNL A   1      44.291  34.006  31.322  1.00  0.00     0.013 A 
ATOM     11  C   UNL A   1      44.571  33.555  30.027  1.00  0.00     0.001 A 
BRANCH   8  12
ATOM     12  C   UNL A   1      42.825  34.066  33.264  1.00  0.00     0.145 C 
ATOM     13  N   UNL A   1      43.827  34.267  34.050  1.00  0.00    -0.180 NA
BRANCH  13  14
ATOM     14  N   UNL A   1      43.650  34.454  35.406  1.00  0.00    -0.233 NA
ATOM     15  C   UNL A   1      43.482  35.858  35.888  1.00  0.00     0.298 C 
ATOM     16  C   UNL A   1      42.864  33.740  36.460  1.00  0.00     0.274 C 
ATOM     17  N   UNL A   1      42.533  35.894  37.018  1.00  0.00    -0.153 NA
ATOM     18  N   UNL A   1      42.171  34.739  37.319  1.00  0.00    -0.161 NA
BRANCH  15  19
ATOM     19  S   UNL A   1      43.144  37.077  34.575  1.00  0.00    -0.128 SA
ATOM     20  H   UNL A   1      44.280  37.302  33.861  1.00  0.00     0.106 HD
ENDBRANCH  15  19
BRANCH  16  21
ATOM     21  C   UNL A   1      41.994  32.418  36.574  1.00  0.00     0.202 C 
ATOM     22  C   UNL A   1      40.700  32.303  35.082  1.00  0.00     0.037 C 
ATOM     23  N   UNL A   1      40.752  32.126  38.138  1.00  0.00    -0.177 NA
ATOM     24  C   UNL A   1      39.222  32.215  35.631  1.00  0.00     0.091 C 
ATOM     25  N   UNL A   1      39.149  32.049  37.447  1.00  0.00    -0.155 NA
BRANCH  24  26
ATOM     26  C   UNL A   1      38.002  32.143  34.830  1.00  0.00     0.002 A 
ATOM     27  C   UNL A   1      37.831  31.095  33.933  1.00  0.00     0.010 A 
ATOM     28  C   UNL A   1      37.014  33.119  34.902  1.00  0.00     0.010 A 
ATOM     29  C   UNL A   1      36.860  31.142  32.940  1.00  0.00     0.001 A 
ATOM     30  C   UNL A   1      35.983  33.134  33.959  1.00  0.00     0.001 A 
ATOM     31  C   UNL A   1      35.949  32.185  32.937  1.00  0.00     0.000 A 
ENDBRANCH  24  26
ENDBRANCH  16  21
ENDBRANCH  13  14
ENDBRANCH   8  12
ENDBRANCH   5   6
ENDBRANCH   4   5
ENDBRANCH   2   4
ENDBRANCH   1   2
BRANCH   1  32
ATOM     32  C   UNL A   1      35.551  34.061  29.419  1.00  0.00     0.274 C 
BRANCH  32  33
ATOM     33  C   UNL A   1      34.983  32.548  28.656  1.00  0.00     0.275 C 
BRANCH  33  34
ATOM     34  O   UNL A   1      35.800  31.914  27.648  1.00  0.00    -0.458 OA
BRANCH  34  35
ATOM     35  C   UNL A   1      36.226  30.639  27.902  1.00  0.00     0.338 C 
ATOM     36  O   UNL A   1      36.076  29.665  27.183  1.00  0.00    -0.246 OA
BRANCH  35  37
ATOM     37  C   UNL A   1      36.919  30.598  29.214  1.00  0.00     0.060 A 
ATOM     38  C   UNL A   1      38.087  31.353  29.312  1.00  0.00     0.016 A 
ATOM     39  C   UNL A   1      36.787  29.414  29.923  1.00  0.00     0.016 A 
ATOM     40  C   UNL A   1      39.255  30.656  29.549  1.00  0.00     0.010 A 
ATOM     41  C   UNL A   1      37.944  28.741  30.202  1.00  0.00     0.010 A 
ATOM     42  C   UNL A   1      39.162  29.282  29.783  1.00  0.00    -0.014 A 
BRANCH  42  43
ATOM     43  C   UNL A   1      40.344  28.432  29.885  1.00  0.00     0.031 A 
ATOM     44  C   UNL A   1      40.676  28.330  31.328  1.00  0.00     0.074 A 
ATOM     45  C   UNL A   1      40.938  27.768  28.856  1.00  0.00     0.049 A 
ATOM     46  N   UNL A   1      41.407  29.178  31.981  1.00  0.00    -0.248 NA
ATOM     47  C   UNL A   1      39.800  27.526  32.209  1.00  0.00     0.031 C 
ATOM     48  C   UNL A   1      40.590  27.716  27.430  1.00  0.00     0.029 A 
ATOM     49  N   UNL A   1      42.028  26.929  28.900  1.00  0.00    -0.354 N 
ATOM     50  C   UNL A   1      41.345  28.728  33.290  1.00  0.00     0.074 A 
ATOM     51  C   UNL A   1      40.084  28.066  33.398  1.00  0.00     0.031 C 
ATOM     52  C   UNL A   1      41.287  26.724  26.810  1.00  0.00     0.029 A 
ATOM     53  C   UNL A   1      42.233  26.133  27.744  1.00  0.00     0.049 A 
ATOM     54  H   UNL A   1      42.626  26.884  29.682  1.00  0.00     0.167 HD
ATOM     55  C   UNL A   1      42.495  28.485  33.977  1.00  0.00     0.034 A 
ATOM     56  C   UNL A   1      43.127  25.089  27.612  1.00  0.00     0.034 A 
ATOM     57  C   UNL A   1      43.612  29.114  33.297  1.00  0.00     0.049 A 
ATOM     58  C   UNL A   1      44.159  25.319  28.663  1.00  0.00     0.074 A 
ATOM     59  C   UNL A   1      43.915  30.406  32.916  1.00  0.00     0.029 A 
ATOM     60  N   UNL A   1      44.391  28.291  32.511  1.00  0.00    -0.354 N 
ATOM     61  N   UNL A   1      44.966  26.346  28.631  1.00  0.00    -0.248 NA
ATOM     62  C   UNL A   1      43.861  24.797  29.991  1.00  0.00     0.031 C 
ATOM     63  C   UNL A   1      44.500  30.283  31.621  1.00  0.00     0.029 A 
ATOM     64  C   UNL A   1      44.672  28.929  31.328  1.00  0.00     0.049 A 
ATOM     65  H   UNL A   1      44.697  27.390  32.758  1.00  0.00     0.167 HD
ATOM     66  C   UNL A   1      44.893  26.889  29.907  1.00  0.00     0.074 A 
ATOM     67  C   UNL A   1      44.214  25.867  30.712  1.00  0.00     0.031 C 
ATOM     68  C   UNL A   1      45.067  28.229  30.116  1.00  0.00     0.034 A 
BRANCH  55  69
ATOM     69  C   UNL A   1      42.699  27.313  34.920  1.00  0.00     0.023 A 
ATOM     70  C   UNL A   1      43.502  26.269  34.431  1.00  0.00     0.031 A 
ATOM     71  C   UNL A   1      41.968  27.018  36.098  1.00  0.00     0.131 A 
ATOM     72  C   UNL A   1      43.467  24.994  35.019  1.00  0.00     0.055 A 
ATOM     73  C   UNL A   1      41.984  25.764  36.713  1.00  0.00     0.041 A 
ATOM     74  F   UNL A   1      41.134  27.875  36.693  1.00  0.00    -0.206 F 
ATOM     75  C   UNL A   1      42.713  24.732  36.157  1.00  0.00     0.022 A 
BRANCH  72  76
ATOM     76  S   UNL A   1      44.304  23.642  34.161  1.00  0.00     0.124 S 
ATOM     77  O   UNL A   1      45.475  24.324  33.623  1.00  0.00    -0.237 OA
ATOM     78  O   UNL A   1      44.546  22.702  35.250  1.00  0.00    -0.237 OA
ATOM     79  O   UNL A   1      43.318  23.212  33.173  1.00  0.00    -0.744 OA
ENDBRANCH  72  76
ENDBRANCH  55  69
BRANCH  56  80
ATOM     80  C   UNL A   1      42.934  23.723  26.976  1.00  0.00     0.023 A 
ATOM     81  C   UNL A   1      43.909  23.007  26.207  1.00  0.00     0.031 A 
ATOM     82  C   UNL A   1      41.815  22.968  27.384  1.00  0.00     0.131 A 
ATOM     83  C   UNL A   1      43.725  21.622  25.895  1.00  0.00     0.055 A 
ATOM     84  C   UNL A   1      41.654  21.607  27.096  1.00  0.00     0.041 A 
ATOM     85  F   UNL A   1      40.866  23.507  28.163  1.00  0.00    -0.206 F 
ATOM     86  C   UNL A   1      42.610  20.927  26.361  1.00  0.00     0.022 A 
BRANCH  83  87
ATOM     87  S   UNL A   1      44.937  20.643  24.910  1.00  0.00     0.124 S 
ATOM     88  O   UNL A   1      44.569  20.970  23.538  1.00  0.00    -0.237 OA
ATOM     89  O   UNL A   1      46.221  21.147  25.380  1.00  0.00    -0.237 OA
ATOM     90  O   UNL A   1      44.655  19.256  25.296  1.00  0.00    -0.744 OA
ENDBRANCH  83  87
ENDBRANCH  56  80
BRANCH  68  91
ATOM     91  C   UNL A   1      45.621  29.078  28.984  1.00  0.00     0.023 A 
ATOM     92  C   UNL A   1      46.982  29.208  28.610  1.00  0.00     0.031 A 
ATOM     93  C   UNL A   1      44.662  29.711  28.175  1.00  0.00     0.131 A 
ATOM     94  C   UNL A   1      47.326  29.969  27.468  1.00  0.00     0.055 A 
ATOM     95  C   UNL A   1      45.004  30.428  27.032  1.00  0.00     0.041 A 
ATOM     96  F   UNL A   1      43.355  29.613  28.469  1.00  0.00    -0.206 F 
ATOM     97  C   UNL A   1      46.338  30.566  26.678  1.00  0.00     0.022 A 
BRANCH  94  98
ATOM     98  S   UNL A   1      49.071  30.258  27.007  1.00  0.00     0.124 S 
ATOM     99  O   UNL A   1      49.332  29.224  26.013  1.00  0.00    -0.237 OA
ATOM    100  O   UNL A   1      49.044  31.631  26.509  1.00  0.00    -0.237 OA
ATOM    101  O   UNL A   1      49.790  30.084  28.271  1.00  0.00    -0.744 OA
ENDBRANCH  94  98
ENDBRANCH  68  91
ENDBRANCH  42  43
ENDBRANCH  35  37
ENDBRANCH  34  35
ENDBRANCH  33  34
ENDBRANCH  32  33
ENDBRANCH   1  32
TORSDOF 21
ENDMDL
