MODEL 1
REMARK VINA RESULT:     -11.8      0.000      0.000
REMARK SMILES COc1cc2c(cc1OC)[C@@H](CC(=O)OCCOC(=O)c1ccc(-c3c4nc(c(-c5cc(S(=O)(=O)[O-])ccc5F)c5ccc([nH]5)c(-c5cc(S(=O)(=O)[O-])ccc5F)c5nc(c(-c6cc(S(=O)(=O)[O-])ccc6F)c6ccc3[nH]6)C=C5)C=C4)cc1)N(C(=O)Nc1ccc(Cl)cc1)CC2
REMARK SMILES IDX 16 1 15 2 13 3 14 4 12 5 11 6 3 7 4 8 8 9 5 10 7 11 6 12
REMARK SMILES IDX 96 13 95 14 84 15 2 16 1 17 9 18 10 19 85 20 86 21 87 22
REMARK SMILES IDX 88 24 89 25 94 26 90 27 93 28 91 29 92 30 17 31 18 32 19 33
REMARK SMILES IDX 20 34 21 35 22 36 83 37 23 38 82 39 24 40 25 41 26 42 76 43
REMARK SMILES IDX 27 44 81 45 75 46 77 47 28 48 80 49 74 50 73 51 29 53 61 54
REMARK SMILES IDX 41 55 60 56 42 57 45 58 59 59 78 60 43 61 44 62 58 64 79 65
REMARK SMILES IDX 46 66 30 67 31 68 39 69 32 70 38 71 40 72 37 73 33 74 34 75
REMARK SMILES IDX 35 76 36 77 62 78 63 79 71 80 64 81 70 82 72 83 69 84 65 85
REMARK SMILES IDX 66 86 67 87 68 88 47 89 48 90 56 91 49 92 55 93 57 94 54 95
REMARK SMILES IDX 50 96 51 97 52 98 53 99
REMARK H PARENT 87 23 77 52 45 63
REMARK Flexibility Score: inf
ROOT
ATOM      1  C   UNL A   1      36.420  21.199  24.678  1.00  0.00     0.274 C 
ENDROOT
BRANCH   1   2
ATOM      2  O   UNL A   1      36.047  22.074  25.759  1.00  0.00    -0.462 OA
BRANCH   2   3
ATOM      3  C   UNL A   1      35.904  23.386  25.461  1.00  0.00     0.308 C 
ATOM      4  O   UNL A   1      36.564  23.975  24.609  1.00  0.00    -0.252 OA
BRANCH   3   5
ATOM      5  C   UNL A   1      34.834  24.107  26.257  1.00  0.00     0.152 C 
BRANCH   5   6
ATOM      6  C   UNL A   1      33.400  24.202  25.686  1.00  0.00     0.128 C 
ATOM      7  C   UNL A   1      31.825  28.285  25.302  1.00  0.00     0.161 A 
ATOM      8  C   UNL A   1      31.032  27.173  25.039  1.00  0.00     0.054 A 
ATOM      9  C   UNL A   1      33.168  28.123  25.660  1.00  0.00     0.161 A 
ATOM     10  C   UNL A   1      31.571  25.887  25.151  1.00  0.00    -0.037 A 
ATOM     11  C   UNL A   1      33.695  26.822  25.778  1.00  0.00     0.056 A 
ATOM     12  C   UNL A   1      32.908  25.677  25.546  1.00  0.00    -0.018 A 
ATOM     13  C   UNL A   1      30.709  24.681  24.953  1.00  0.00     0.057 C 
ATOM     14  C   UNL A   1      30.943  23.784  26.157  1.00  0.00     0.127 C 
ATOM     15  N   UNL A   1      32.333  23.335  26.325  1.00  0.00    -0.317 N 
BRANCH   7  16
ATOM     16  O   UNL A   1      31.175  29.493  25.305  1.00  0.00    -0.493 OA
ATOM     17  C   UNL A   1      30.629  29.816  24.028  1.00  0.00     0.278 C 
ENDBRANCH   7  16
BRANCH   9  18
ATOM     18  O   UNL A   1      33.873  29.263  25.946  1.00  0.00    -0.493 OA
ATOM     19  C   UNL A   1      34.619  29.276  27.159  1.00  0.00     0.278 C 
ENDBRANCH   9  18
BRANCH  15  20
ATOM     20  C   UNL A   1      32.676  22.282  27.140  1.00  0.00     0.322 C 
ATOM     21  O   UNL A   1      32.519  22.297  28.364  1.00  0.00    -0.248 OA
ATOM     22  N   UNL A   1      33.329  21.177  26.674  1.00  0.00    -0.308 N 
ATOM     23  H   UNL A   1      34.096  20.874  27.212  1.00  0.00     0.171 HD
BRANCH  22  24
ATOM     24  C   UNL A   1      33.052  20.421  25.534  1.00  0.00     0.042 A 
ATOM     25  C   UNL A   1      33.065  19.031  25.656  1.00  0.00     0.028 A 
ATOM     26  C   UNL A   1      32.807  21.027  24.300  1.00  0.00     0.028 A 
ATOM     27  C   UNL A   1      32.721  18.239  24.564  1.00  0.00     0.022 A 
ATOM     28  C   UNL A   1      32.446  20.232  23.210  1.00  0.00     0.022 A 
ATOM     29  C   UNL A   1      32.390  18.843  23.352  1.00  0.00     0.041 A 
ATOM     30  Cl  UNL A   1      31.890  17.865  22.029  1.00  0.00    -0.084 Cl
ENDBRANCH  22  24
ENDBRANCH  15  20
ENDBRANCH   5   6
ENDBRANCH   3   5
ENDBRANCH   2   3
ENDBRANCH   1   2
BRANCH   1  31
ATOM     31  C   UNL A   1      37.829  20.651  24.899  1.00  0.00     0.275 C 
BRANCH  31  32
ATOM     32  O   UNL A   1      38.294  20.956  26.224  1.00  0.00    -0.458 OA
BRANCH  32  33
ATOM     33  C   UNL A   1      39.633  20.867  26.388  1.00  0.00     0.338 C 
ATOM     34  O   UNL A   1      40.360  19.931  26.081  1.00  0.00    -0.246 OA
BRANCH  33  35
ATOM     35  C   UNL A   1      40.147  22.158  26.860  1.00  0.00     0.060 A 
ATOM     36  C   UNL A   1      39.729  23.314  26.196  1.00  0.00     0.016 A 
ATOM     37  C   UNL A   1      41.067  22.226  27.908  1.00  0.00     0.016 A 
ATOM     38  C   UNL A   1      40.236  24.553  26.573  1.00  0.00     0.010 A 
ATOM     39  C   UNL A   1      41.579  23.470  28.282  1.00  0.00     0.010 A 
ATOM     40  C   UNL A   1      41.175  24.637  27.609  1.00  0.00    -0.014 A 
BRANCH  40  41
ATOM     41  C   UNL A   1      41.797  25.940  27.936  1.00  0.00     0.031 A 
ATOM     42  C   UNL A   1      40.989  26.979  28.658  1.00  0.00     0.074 A 
ATOM     43  C   UNL A   1      43.076  26.180  27.594  1.00  0.00     0.049 A 
ATOM     44  N   UNL A   1      41.298  28.215  28.950  1.00  0.00    -0.248 NA
ATOM     45  C   UNL A   1      39.650  26.567  29.106  1.00  0.00     0.031 C 
ATOM     46  C   UNL A   1      43.964  25.220  26.936  1.00  0.00     0.029 A 
ATOM     47  N   UNL A   1      43.847  27.303  27.744  1.00  0.00    -0.354 N 
ATOM     48  C   UNL A   1      40.186  28.738  29.601  1.00  0.00     0.074 A 
ATOM     49  C   UNL A   1      39.188  27.689  29.637  1.00  0.00     0.031 C 
ATOM     50  C   UNL A   1      45.159  25.801  26.733  1.00  0.00     0.029 A 
ATOM     51  C   UNL A   1      45.103  27.185  27.198  1.00  0.00     0.049 A 
ATOM     52  H   UNL A   1      43.530  28.117  28.200  1.00  0.00     0.167 HD
ATOM     53  C   UNL A   1      40.020  29.979  30.124  1.00  0.00     0.034 A 
ATOM     54  C   UNL A   1      46.079  28.102  27.055  1.00  0.00     0.034 A 
ATOM     55  C   UNL A   1      41.029  31.010  30.069  1.00  0.00     0.049 A 
ATOM     56  C   UNL A   1      45.842  29.499  27.570  1.00  0.00     0.074 A 
ATOM     57  C   UNL A   1      40.975  32.301  30.564  1.00  0.00     0.029 A 
ATOM     58  N   UNL A   1      42.277  30.868  29.471  1.00  0.00    -0.354 N 
ATOM     59  N   UNL A   1      44.781  29.991  28.170  1.00  0.00    -0.248 NA
ATOM     60  C   UNL A   1      46.933  30.465  27.390  1.00  0.00     0.031 C 
ATOM     61  C   UNL A   1      42.159  32.958  30.212  1.00  0.00     0.029 A 
ATOM     62  C   UNL A   1      42.987  32.057  29.562  1.00  0.00     0.049 A 
ATOM     63  H   UNL A   1      42.609  30.045  29.048  1.00  0.00     0.167 HD
ATOM     64  C   UNL A   1      45.088  31.317  28.458  1.00  0.00     0.074 A 
ATOM     65  C   UNL A   1      46.438  31.542  27.982  1.00  0.00     0.031 C 
ATOM     66  C   UNL A   1      44.328  32.264  29.065  1.00  0.00     0.034 A 
BRANCH  53  67
ATOM     67  C   UNL A   1      38.678  30.296  30.737  1.00  0.00     0.023 A 
ATOM     68  C   UNL A   1      37.735  31.105  30.081  1.00  0.00     0.031 A 
ATOM     69  C   UNL A   1      38.356  29.816  32.019  1.00  0.00     0.131 A 
ATOM     70  C   UNL A   1      36.547  31.469  30.736  1.00  0.00     0.055 A 
ATOM     71  C   UNL A   1      37.138  30.118  32.634  1.00  0.00     0.041 A 
ATOM     72  F   UNL A   1      39.226  29.059  32.705  1.00  0.00    -0.206 F 
ATOM     73  C   UNL A   1      36.233  30.962  31.999  1.00  0.00     0.022 A 
BRANCH  70  74
ATOM     74  S   UNL A   1      35.488  32.731  29.976  1.00  0.00     0.124 S 
ATOM     75  O   UNL A   1      35.061  33.500  31.142  1.00  0.00    -0.237 OA
ATOM     76  O   UNL A   1      36.406  33.406  29.066  1.00  0.00    -0.237 OA
ATOM     77  O   UNL A   1      34.433  31.951  29.333  1.00  0.00    -0.744 OA
ENDBRANCH  70  74
ENDBRANCH  53  67
BRANCH  54  78
ATOM     78  C   UNL A   1      47.347  27.751  26.353  1.00  0.00     0.023 A 
ATOM     79  C   UNL A   1      47.467  27.879  24.962  1.00  0.00     0.031 A 
ATOM     80  C   UNL A   1      48.447  27.240  27.067  1.00  0.00     0.131 A 
ATOM     81  C   UNL A   1      48.645  27.463  24.321  1.00  0.00     0.055 A 
ATOM     82  C   UNL A   1      49.634  26.877  26.431  1.00  0.00     0.041 A 
ATOM     83  F   UNL A   1      48.385  27.096  28.401  1.00  0.00    -0.206 F 
ATOM     84  C   UNL A   1      49.734  26.976  25.047  1.00  0.00     0.022 A 
BRANCH  81  85
ATOM     85  S   UNL A   1      48.704  27.494  22.508  1.00  0.00     0.124 S 
ATOM     86  O   UNL A   1      48.682  26.072  22.185  1.00  0.00    -0.237 OA
ATOM     87  O   UNL A   1      47.497  28.245  22.180  1.00  0.00    -0.237 OA
ATOM     88  O   UNL A   1      49.961  28.182  22.220  1.00  0.00    -0.744 OA
ENDBRANCH  81  85
ENDBRANCH  54  78
BRANCH  66  89
ATOM     89  C   UNL A   1      44.966  33.614  29.278  1.00  0.00     0.023 A 
ATOM     90  C   UNL A   1      44.914  34.620  28.297  1.00  0.00     0.031 A 
ATOM     91  C   UNL A   1      45.649  33.891  30.476  1.00  0.00     0.131 A 
ATOM     92  C   UNL A   1      45.583  35.835  28.509  1.00  0.00     0.055 A 
ATOM     93  C   UNL A   1      46.264  35.122  30.703  1.00  0.00     0.041 A 
ATOM     94  F   UNL A   1      45.729  32.965  31.445  1.00  0.00    -0.206 F 
ATOM     95  C   UNL A   1      46.244  36.098  29.711  1.00  0.00     0.022 A 
BRANCH  92  96
ATOM     96  S   UNL A   1      45.654  37.038  27.152  1.00  0.00     0.124 S 
ATOM     97  O   UNL A   1      46.555  38.051  27.692  1.00  0.00    -0.237 OA
ATOM     98  O   UNL A   1      46.181  36.237  26.052  1.00  0.00    -0.237 OA
ATOM     99  O   UNL A   1      44.264  37.463  26.998  1.00  0.00    -0.744 OA
ENDBRANCH  92  96
ENDBRANCH  66  89
ENDBRANCH  40  41
ENDBRANCH  33  35
ENDBRANCH  32  33
ENDBRANCH  31  32
ENDBRANCH   1  31
TORSDOF 19
ENDMDL
MODEL 2
REMARK VINA RESULT:     -11.5      4.930      9.976
REMARK SMILES COc1cc2c(cc1OC)[C@@H](CC(=O)OCCOC(=O)c1ccc(-c3c4nc(c(-c5cc(S(=O)(=O)[O-])ccc5F)c5ccc([nH]5)c(-c5cc(S(=O)(=O)[O-])ccc5F)c5nc(c(-c6cc(S(=O)(=O)[O-])ccc6F)c6ccc3[nH]6)C=C5)C=C4)cc1)N(C(=O)Nc1ccc(Cl)cc1)CC2
REMARK SMILES IDX 16 1 15 2 13 3 14 4 12 5 11 6 3 7 4 8 8 9 5 10 7 11 6 12
REMARK SMILES IDX 96 13 95 14 84 15 2 16 1 17 9 18 10 19 85 20 86 21 87 22
REMARK SMILES IDX 88 24 89 25 94 26 90 27 93 28 91 29 92 30 17 31 18 32 19 33
REMARK SMILES IDX 20 34 21 35 22 36 83 37 23 38 82 39 24 40 25 41 26 42 76 43
REMARK SMILES IDX 27 44 81 45 75 46 77 47 28 48 80 49 74 50 73 51 29 53 61 54
REMARK SMILES IDX 41 55 60 56 42 57 45 58 59 59 78 60 43 61 44 62 58 64 79 65
REMARK SMILES IDX 46 66 30 67 31 68 39 69 32 70 38 71 40 72 37 73 33 74 34 75
REMARK SMILES IDX 35 76 36 77 62 78 63 79 71 80 64 81 70 82 72 83 69 84 65 85
REMARK SMILES IDX 66 86 67 87 68 88 47 89 48 90 56 91 49 92 55 93 57 94 54 95
REMARK SMILES IDX 50 96 51 97 52 98 53 99
REMARK H PARENT 87 23 77 52 45 63
REMARK Flexibility Score: inf
ROOT
ATOM      1  C   UNL A   1      31.988  28.690  25.245  1.00  0.00     0.274 C 
ENDROOT
BRANCH   1   2
ATOM      2  O   UNL A   1      33.223  28.292  24.622  1.00  0.00    -0.462 OA
BRANCH   2   3
ATOM      3  C   UNL A   1      33.865  27.231  25.163  1.00  0.00     0.308 C 
ATOM      4  O   UNL A   1      34.160  27.136  26.351  1.00  0.00    -0.252 OA
BRANCH   3   5
ATOM      5  C   UNL A   1      34.195  26.120  24.185  1.00  0.00     0.152 C 
BRANCH   5   6
ATOM      6  C   UNL A   1      33.160  25.000  23.932  1.00  0.00     0.128 C 
ATOM      7  C   UNL A   1      34.514  20.954  24.975  1.00  0.00     0.161 A 
ATOM      8  C   UNL A   1      33.290  21.172  24.354  1.00  0.00     0.054 A 
ATOM      9  C   UNL A   1      35.332  22.037  25.321  1.00  0.00     0.161 A 
ATOM     10  C   UNL A   1      32.880  22.475  24.054  1.00  0.00    -0.037 A 
ATOM     11  C   UNL A   1      34.910  23.343  25.005  1.00  0.00     0.056 A 
ATOM     12  C   UNL A   1      33.688  23.591  24.349  1.00  0.00    -0.018 A 
ATOM     13  C   UNL A   1      31.604  22.719  23.312  1.00  0.00     0.057 C 
ATOM     14  C   UNL A   1      31.950  23.648  22.160  1.00  0.00     0.127 C 
ATOM     15  N   UNL A   1      32.502  24.948  22.567  1.00  0.00    -0.317 N 
BRANCH   7  16
ATOM     16  O   UNL A   1      34.895  19.641  25.100  1.00  0.00    -0.493 OA
ATOM     17  C   UNL A   1      34.030  18.759  24.389  1.00  0.00     0.278 C 
ENDBRANCH   7  16
BRANCH   9  18
ATOM     18  O   UNL A   1      36.542  21.740  25.890  1.00  0.00    -0.493 OA
ATOM     19  C   UNL A   1      37.606  22.659  25.665  1.00  0.00     0.278 C 
ENDBRANCH   9  18
BRANCH  15  20
ATOM     20  C   UNL A   1      32.568  26.023  21.713  1.00  0.00     0.322 C 
ATOM     21  O   UNL A   1      33.243  26.024  20.679  1.00  0.00    -0.248 OA
ATOM     22  N   UNL A   1      31.985  27.225  22.000  1.00  0.00    -0.308 N 
ATOM     23  H   UNL A   1      32.545  28.020  21.849  1.00  0.00     0.171 HD
BRANCH  22  24
ATOM     24  C   UNL A   1      30.698  27.472  22.478  1.00  0.00     0.042 A 
ATOM     25  C   UNL A   1      30.107  28.694  22.155  1.00  0.00     0.028 A 
ATOM     26  C   UNL A   1      30.032  26.548  23.287  1.00  0.00     0.028 A 
ATOM     27  C   UNL A   1      28.797  28.952  22.548  1.00  0.00     0.022 A 
ATOM     28  C   UNL A   1      28.711  26.802  23.666  1.00  0.00     0.022 A 
ATOM     29  C   UNL A   1      28.096  27.996  23.281  1.00  0.00     0.041 A 
ATOM     30  Cl  UNL A   1      26.452  28.287  23.697  1.00  0.00    -0.084 Cl
ENDBRANCH  22  24
ENDBRANCH  15  20
ENDBRANCH   5   6
ENDBRANCH   3   5
ENDBRANCH   2   3
ENDBRANCH   1   2
BRANCH   1  31
ATOM     31  C   UNL A   1      32.024  30.176  25.600  1.00  0.00     0.275 C 
BRANCH  31  32
ATOM     32  O   UNL A   1      32.429  30.364  26.966  1.00  0.00    -0.458 OA
BRANCH  32  33
ATOM     33  C   UNL A   1      33.030  31.549  27.219  1.00  0.00     0.338 C 
ATOM     34  O   UNL A   1      32.534  32.666  27.142  1.00  0.00    -0.246 OA
BRANCH  33  35
ATOM     35  C   UNL A   1      34.366  31.303  27.772  1.00  0.00     0.060 A 
ATOM     36  C   UNL A   1      34.670  30.009  28.206  1.00  0.00     0.016 A 
ATOM     37  C   UNL A   1      35.290  32.340  27.911  1.00  0.00     0.016 A 
ATOM     38  C   UNL A   1      35.904  29.744  28.790  1.00  0.00     0.010 A 
ATOM     39  C   UNL A   1      36.526  32.074  28.503  1.00  0.00     0.010 A 
ATOM     40  C   UNL A   1      36.834  30.778  28.955  1.00  0.00    -0.014 A 
BRANCH  40  41
ATOM     41  C   UNL A   1      38.102  30.520  29.676  1.00  0.00     0.031 A 
ATOM     42  C   UNL A   1      39.147  29.654  29.036  1.00  0.00     0.074 A 
ATOM     43  C   UNL A   1      38.309  31.069  30.887  1.00  0.00     0.049 A 
ATOM     44  N   UNL A   1      40.276  29.217  29.529  1.00  0.00    -0.248 NA
ATOM     45  C   UNL A   1      38.877  29.218  27.658  1.00  0.00     0.031 C 
ATOM     46  C   UNL A   1      37.381  31.967  31.574  1.00  0.00     0.029 A 
ATOM     47  N   UNL A   1      39.363  30.945  31.755  1.00  0.00    -0.354 N 
ATOM     48  C   UNL A   1      40.848  28.439  28.527  1.00  0.00     0.074 A 
ATOM     49  C   UNL A   1      39.925  28.446  27.412  1.00  0.00     0.031 C 
ATOM     50  C   UNL A   1      37.904  32.307  32.764  1.00  0.00     0.029 A 
ATOM     51  C   UNL A   1      39.176  31.612  32.943  1.00  0.00     0.049 A 
ATOM     52  H   UNL A   1      40.175  30.427  31.548  1.00  0.00     0.167 HD
ATOM     53  C   UNL A   1      42.036  27.785  28.542  1.00  0.00     0.034 A 
ATOM     54  C   UNL A   1      39.929  31.627  34.060  1.00  0.00     0.034 A 
ATOM     55  C   UNL A   1      42.935  27.788  29.671  1.00  0.00     0.049 A 
ATOM     56  C   UNL A   1      41.206  30.825  34.083  1.00  0.00     0.074 A 
ATOM     57  C   UNL A   1      44.164  27.164  29.800  1.00  0.00     0.029 A 
ATOM     58  N   UNL A   1      42.697  28.442  30.875  1.00  0.00    -0.354 N 
ATOM     59  N   UNL A   1      41.732  30.078  33.139  1.00  0.00    -0.248 NA
ATOM     60  C   UNL A   1      41.993  30.869  35.323  1.00  0.00     0.031 C 
ATOM     61  C   UNL A   1      44.637  27.387  31.098  1.00  0.00     0.029 A 
ATOM     62  C   UNL A   1      43.741  28.212  31.758  1.00  0.00     0.049 A 
ATOM     63  H   UNL A   1      41.903  28.989  31.070  1.00  0.00     0.167 HD
ATOM     64  C   UNL A   1      42.921  29.583  33.664  1.00  0.00     0.074 A 
ATOM     65  C   UNL A   1      43.043  30.129  35.001  1.00  0.00     0.031 C 
ATOM     66  C   UNL A   1      43.834  28.755  33.094  1.00  0.00     0.034 A 
BRANCH  53  67
ATOM     67  C   UNL A   1      42.389  26.967  27.323  1.00  0.00     0.023 A 
ATOM     68  C   UNL A   1      42.101  25.593  27.243  1.00  0.00     0.031 A 
ATOM     69  C   UNL A   1      43.063  27.562  26.243  1.00  0.00     0.131 A 
ATOM     70  C   UNL A   1      42.549  24.846  26.142  1.00  0.00     0.055 A 
ATOM     71  C   UNL A   1      43.438  26.829  25.114  1.00  0.00     0.041 A 
ATOM     72  F   UNL A   1      43.387  28.865  26.272  1.00  0.00    -0.206 F 
ATOM     73  C   UNL A   1      43.195  25.460  25.066  1.00  0.00     0.022 A 
BRANCH  70  74
ATOM     74  S   UNL A   1      42.406  23.039  26.202  1.00  0.00     0.124 S 
ATOM     75  O   UNL A   1      42.833  22.663  24.856  1.00  0.00    -0.237 OA
ATOM     76  O   UNL A   1      43.317  22.687  27.285  1.00  0.00    -0.237 OA
ATOM     77  O   UNL A   1      40.989  22.816  26.482  1.00  0.00    -0.744 OA
ENDBRANCH  70  74
ENDBRANCH  53  67
BRANCH  54  78
ATOM     78  C   UNL A   1      39.477  32.379  35.265  1.00  0.00     0.023 A 
ATOM     79  C   UNL A   1      39.827  33.725  35.455  1.00  0.00     0.031 A 
ATOM     80  C   UNL A   1      38.721  31.745  36.268  1.00  0.00     0.131 A 
ATOM     81  C   UNL A   1      39.456  34.382  36.639  1.00  0.00     0.055 A 
ATOM     82  C   UNL A   1      38.311  32.418  37.419  1.00  0.00     0.041 A 
ATOM     83  F   UNL A   1      38.361  30.458  36.137  1.00  0.00    -0.206 F 
ATOM     84  C   UNL A   1      38.689  33.743  37.615  1.00  0.00     0.022 A 
BRANCH  81  85
ATOM     85  S   UNL A   1      40.061  36.069  36.921  1.00  0.00     0.124 S 
ATOM     86  O   UNL A   1      39.292  36.470  38.094  1.00  0.00    -0.237 OA
ATOM     87  O   UNL A   1      41.487  35.847  37.134  1.00  0.00    -0.237 OA
ATOM     88  O   UNL A   1      39.720  36.764  35.681  1.00  0.00    -0.744 OA
ENDBRANCH  81  85
ENDBRANCH  54  78
BRANCH  66  89
ATOM     89  C   UNL A   1      45.061  28.430  33.911  1.00  0.00     0.023 A 
ATOM     90  C   UNL A   1      45.103  27.319  34.771  1.00  0.00     0.031 A 
ATOM     91  C   UNL A   1      46.196  29.256  33.838  1.00  0.00     0.131 A 
ATOM     92  C   UNL A   1      46.238  27.097  35.566  1.00  0.00     0.055 A 
ATOM     93  C   UNL A   1      47.343  28.996  34.588  1.00  0.00     0.041 A 
ATOM     94  F   UNL A   1      46.208  30.331  33.033  1.00  0.00    -0.206 F 
ATOM     95  C   UNL A   1      47.363  27.918  35.468  1.00  0.00     0.022 A 
BRANCH  92  96
ATOM     96  S   UNL A   1      46.191  25.765  36.798  1.00  0.00     0.124 S 
ATOM     97  O   UNL A   1      45.642  24.656  36.024  1.00  0.00    -0.237 OA
ATOM     98  O   UNL A   1      47.594  25.643  37.179  1.00  0.00    -0.237 OA
ATOM     99  O   UNL A   1      45.310  26.291  37.839  1.00  0.00    -0.744 OA
ENDBRANCH  92  96
ENDBRANCH  66  89
ENDBRANCH  40  41
ENDBRANCH  33  35
ENDBRANCH  32  33
ENDBRANCH  31  32
ENDBRANCH   1  31
TORSDOF 19
ENDMDL
MODEL 3
REMARK VINA RESULT:     -11.3      4.843      9.977
REMARK SMILES COc1cc2c(cc1OC)[C@@H](CC(=O)OCCOC(=O)c1ccc(-c3c4nc(c(-c5cc(S(=O)(=O)[O-])ccc5F)c5ccc([nH]5)c(-c5cc(S(=O)(=O)[O-])ccc5F)c5nc(c(-c6cc(S(=O)(=O)[O-])ccc6F)c6ccc3[nH]6)C=C5)C=C4)cc1)N(C(=O)Nc1ccc(Cl)cc1)CC2
REMARK SMILES IDX 16 1 15 2 13 3 14 4 12 5 11 6 3 7 4 8 8 9 5 10 7 11 6 12
REMARK SMILES IDX 96 13 95 14 84 15 2 16 1 17 9 18 10 19 85 20 86 21 87 22
REMARK SMILES IDX 88 24 89 25 94 26 90 27 93 28 91 29 92 30 17 31 18 32 19 33
REMARK SMILES IDX 20 34 21 35 22 36 83 37 23 38 82 39 24 40 25 41 26 42 76 43
REMARK SMILES IDX 27 44 81 45 75 46 77 47 28 48 80 49 74 50 73 51 29 53 61 54
REMARK SMILES IDX 41 55 60 56 42 57 45 58 59 59 78 60 43 61 44 62 58 64 79 65
REMARK SMILES IDX 46 66 30 67 31 68 39 69 32 70 38 71 40 72 37 73 33 74 34 75
REMARK SMILES IDX 35 76 36 77 62 78 63 79 71 80 64 81 70 82 72 83 69 84 65 85
REMARK SMILES IDX 66 86 67 87 68 88 47 89 48 90 56 91 49 92 55 93 57 94 54 95
REMARK SMILES IDX 50 96 51 97 52 98 53 99
REMARK H PARENT 87 23 77 52 45 63
REMARK Flexibility Score: inf
ROOT
ATOM      1  C   UNL A   1      31.903  28.502  26.493  1.00  0.00     0.274 C 
ENDROOT
BRANCH   1   2
ATOM      2  O   UNL A   1      32.462  27.654  25.473  1.00  0.00    -0.462 OA
BRANCH   2   3
ATOM      3  C   UNL A   1      33.678  27.115  25.726  1.00  0.00     0.308 C 
ATOM      4  O   UNL A   1      34.403  27.458  26.656  1.00  0.00    -0.252 OA
BRANCH   3   5
ATOM      5  C   UNL A   1      34.097  26.014  24.773  1.00  0.00     0.152 C 
BRANCH   5   6
ATOM      6  C   UNL A   1      33.034  25.025  24.242  1.00  0.00     0.128 C 
ATOM      7  C   UNL A   1      33.983  20.779  24.851  1.00  0.00     0.161 A 
ATOM      8  C   UNL A   1      32.866  21.176  24.126  1.00  0.00     0.054 A 
ATOM      9  C   UNL A   1      34.816  21.736  25.443  1.00  0.00     0.161 A 
ATOM     10  C   UNL A   1      32.581  22.537  23.968  1.00  0.00    -0.037 A 
ATOM     11  C   UNL A   1      34.522  23.103  25.268  1.00  0.00     0.056 A 
ATOM     12  C   UNL A   1      33.413  23.535  24.514  1.00  0.00    -0.018 A 
ATOM     13  C   UNL A   1      31.430  22.980  23.122  1.00  0.00     0.057 C 
ATOM     14  C   UNL A   1      31.980  24.024  22.164  1.00  0.00     0.127 C 
ATOM     15  N   UNL A   1      32.557  25.209  22.814  1.00  0.00    -0.317 N 
BRANCH   7  16
ATOM     16  O   UNL A   1      34.260  19.435  24.832  1.00  0.00    -0.493 OA
ATOM     17  C   UNL A   1      33.129  18.646  25.196  1.00  0.00     0.278 C 
ENDBRANCH   7  16
BRANCH   9  18
ATOM     18  O   UNL A   1      35.921  21.270  26.104  1.00  0.00    -0.493 OA
ATOM     19  C   UNL A   1      37.173  21.383  25.434  1.00  0.00     0.278 C 
ENDBRANCH   9  18
BRANCH  15  20
ATOM     20  C   UNL A   1      32.801  26.379  22.137  1.00  0.00     0.322 C 
ATOM     21  O   UNL A   1      33.653  26.480  21.249  1.00  0.00    -0.248 OA
ATOM     22  N   UNL A   1      32.200  27.560  22.471  1.00  0.00    -0.308 N 
ATOM     23  H   UNL A   1      32.795  28.342  22.530  1.00  0.00     0.171 HD
BRANCH  22  24
ATOM     24  C   UNL A   1      30.853  27.802  22.741  1.00  0.00     0.042 A 
ATOM     25  C   UNL A   1      30.335  29.051  22.396  1.00  0.00     0.028 A 
ATOM     26  C   UNL A   1      30.052  26.846  23.369  1.00  0.00     0.028 A 
ATOM     27  C   UNL A   1      28.979  29.310  22.578  1.00  0.00     0.022 A 
ATOM     28  C   UNL A   1      28.689  27.101  23.536  1.00  0.00     0.022 A 
ATOM     29  C   UNL A   1      28.157  28.326  23.125  1.00  0.00     0.041 A 
ATOM     30  Cl  UNL A   1      26.469  28.621  23.275  1.00  0.00    -0.084 Cl
ENDBRANCH  22  24
ENDBRANCH  15  20
ENDBRANCH   5   6
ENDBRANCH   3   5
ENDBRANCH   2   3
ENDBRANCH   1   2
BRANCH   1  31
ATOM     31  C   UNL A   1      31.940  29.964  26.051  1.00  0.00     0.275 C 
BRANCH  31  32
ATOM     32  O   UNL A   1      33.276  30.487  26.133  1.00  0.00    -0.458 OA
BRANCH  32  33
ATOM     33  C   UNL A   1      33.441  31.475  27.042  1.00  0.00     0.338 C 
ATOM     34  O   UNL A   1      32.700  32.428  27.248  1.00  0.00    -0.246 OA
BRANCH  33  35
ATOM     35  C   UNL A   1      34.594  31.159  27.892  1.00  0.00     0.060 A 
ATOM     36  C   UNL A   1      35.611  32.112  28.001  1.00  0.00     0.016 A 
ATOM     37  C   UNL A   1      34.699  29.923  28.532  1.00  0.00     0.016 A 
ATOM     38  C   UNL A   1      36.749  31.831  28.750  1.00  0.00     0.010 A 
ATOM     39  C   UNL A   1      35.844  29.640  29.279  1.00  0.00     0.010 A 
ATOM     40  C   UNL A   1      36.879  30.588  29.382  1.00  0.00    -0.014 A 
BRANCH  40  41
ATOM     41  C   UNL A   1      38.136  30.247  30.085  1.00  0.00     0.031 A 
ATOM     42  C   UNL A   1      39.099  29.290  29.445  1.00  0.00     0.074 A 
ATOM     43  C   UNL A   1      38.409  30.800  31.281  1.00  0.00     0.049 A 
ATOM     44  N   UNL A   1      40.201  28.776  29.926  1.00  0.00    -0.248 NA
ATOM     45  C   UNL A   1      38.770  28.851  28.081  1.00  0.00     0.031 C 
ATOM     46  C   UNL A   1      37.566  31.781  31.966  1.00  0.00     0.029 A 
ATOM     47  N   UNL A   1      39.466  30.612  32.133  1.00  0.00    -0.354 N 
ATOM     48  C   UNL A   1      40.692  27.938  28.931  1.00  0.00     0.074 A 
ATOM     49  C   UNL A   1      39.751  27.995  27.831  1.00  0.00     0.031 C 
ATOM     50  C   UNL A   1      38.137  32.102  33.139  1.00  0.00     0.029 A 
ATOM     51  C   UNL A   1      39.355  31.314  33.310  1.00  0.00     0.049 A 
ATOM     52  H   UNL A   1      40.232  30.030  31.921  1.00  0.00     0.167 HD
ATOM     53  C   UNL A   1      41.826  27.194  28.937  1.00  0.00     0.034 A 
ATOM     54  C   UNL A   1      40.128  31.292  34.413  1.00  0.00     0.034 A 
ATOM     55  C   UNL A   1      42.745  27.149  30.050  1.00  0.00     0.049 A 
ATOM     56  C   UNL A   1      41.340  30.395  34.429  1.00  0.00     0.074 A 
ATOM     57  C   UNL A   1      43.924  26.435  30.169  1.00  0.00     0.029 A 
ATOM     58  N   UNL A   1      42.580  27.843  31.244  1.00  0.00    -0.354 N 
ATOM     59  N   UNL A   1      41.788  29.591  33.491  1.00  0.00    -0.248 NA
ATOM     60  C   UNL A   1      42.151  30.401  35.654  1.00  0.00     0.031 C 
ATOM     61  C   UNL A   1      44.438  26.646  31.454  1.00  0.00     0.029 A 
ATOM     62  C   UNL A   1      43.621  27.550  32.113  1.00  0.00     0.049 A 
ATOM     63  H   UNL A   1      41.835  28.453  31.442  1.00  0.00     0.167 HD
ATOM     64  C   UNL A   1      42.946  29.016  34.004  1.00  0.00     0.074 A 
ATOM     65  C   UNL A   1      43.136  29.576  35.328  1.00  0.00     0.031 C 
ATOM     66  C   UNL A   1      43.782  28.109  33.436  1.00  0.00     0.034 A 
BRANCH  53  67
ATOM     67  C   UNL A   1      42.091  26.328  27.730  1.00  0.00     0.023 A 
ATOM     68  C   UNL A   1      41.683  24.984  27.676  1.00  0.00     0.031 A 
ATOM     69  C   UNL A   1      42.803  26.844  26.632  1.00  0.00     0.131 A 
ATOM     70  C   UNL A   1      42.050  24.183  26.583  1.00  0.00     0.055 A 
ATOM     71  C   UNL A   1      43.098  26.062  25.512  1.00  0.00     0.041 A 
ATOM     72  F   UNL A   1      43.240  28.113  26.635  1.00  0.00    -0.206 F 
ATOM     73  C   UNL A   1      42.735  24.719  25.491  1.00  0.00     0.022 A 
BRANCH  70  74
ATOM     74  S   UNL A   1      41.750  22.397  26.676  1.00  0.00     0.124 S 
ATOM     75  O   UNL A   1      42.606  22.010  27.794  1.00  0.00    -0.237 OA
ATOM     76  O   UNL A   1      40.313  22.331  26.919  1.00  0.00    -0.237 OA
ATOM     77  O   UNL A   1      42.184  21.907  25.370  1.00  0.00    -0.744 OA
ENDBRANCH  70  74
ENDBRANCH  53  67
BRANCH  54  78
ATOM     78  C   UNL A   1      39.759  32.100  35.610  1.00  0.00     0.023 A 
ATOM     79  C   UNL A   1      38.876  31.601  36.579  1.00  0.00     0.031 A 
ATOM     80  C   UNL A   1      40.255  33.406  35.778  1.00  0.00     0.131 A 
ATOM     81  C   UNL A   1      38.484  32.417  37.652  1.00  0.00     0.055 A 
ATOM     82  C   UNL A   1      39.902  34.194  36.873  1.00  0.00     0.041 A 
ATOM     83  F   UNL A   1      41.102  33.932  34.879  1.00  0.00    -0.206 F 
ATOM     84  C   UNL A   1      39.001  33.704  37.813  1.00  0.00     0.022 A 
BRANCH  81  85
ATOM     85  S   UNL A   1      37.220  31.797  38.796  1.00  0.00     0.124 S 
ATOM     86  O   UNL A   1      37.028  30.433  38.317  1.00  0.00    -0.237 OA
ATOM     87  O   UNL A   1      37.886  31.935  40.087  1.00  0.00    -0.237 OA
ATOM     88  O   UNL A   1      36.092  32.701  38.580  1.00  0.00    -0.744 OA
ENDBRANCH  81  85
ENDBRANCH  54  78
BRANCH  66  89
ATOM     89  C   UNL A   1      44.995  27.706  34.237  1.00  0.00     0.023 A 
ATOM     90  C   UNL A   1      46.207  28.413  34.149  1.00  0.00     0.031 A 
ATOM     91  C   UNL A   1      44.939  26.588  35.088  1.00  0.00     0.131 A 
ATOM     92  C   UNL A   1      47.330  27.960  34.856  1.00  0.00     0.055 A 
ATOM     93  C   UNL A   1      46.045  26.177  35.833  1.00  0.00     0.041 A 
ATOM     94  F   UNL A   1      43.806  25.877  35.208  1.00  0.00    -0.206 F 
ATOM     95  C   UNL A   1      47.253  26.856  35.710  1.00  0.00     0.022 A 
BRANCH  92  96
ATOM     96  S   UNL A   1      48.924  28.782  34.579  1.00  0.00     0.124 S 
ATOM     97  O   UNL A   1      49.869  27.690  34.790  1.00  0.00    -0.237 OA
ATOM     98  O   UNL A   1      48.795  29.257  33.205  1.00  0.00    -0.237 OA
ATOM     99  O   UNL A   1      48.950  29.832  35.596  1.00  0.00    -0.744 OA
ENDBRANCH  92  96
ENDBRANCH  66  89
ENDBRANCH  40  41
ENDBRANCH  33  35
ENDBRANCH  32  33
ENDBRANCH  31  32
ENDBRANCH   1  31
TORSDOF 19
ENDMDL
