MODEL 1
REMARK VINA RESULT:     -10.5      0.000      0.000
REMARK SMILES CCNC(=O)N1CC[C@@H](C(=O)OCCOC(=O)c2ccc(-c3c4nc(c(-c5cc(S(=O)(=O)[O-])ccc5F)c5ccc([nH]5)c(-c5cc(S(=O)(=O)[O-])ccc5F)c5nc(c(-c6cc(S(=O)(=O)[O-])ccc6F)c6ccc3[nH]6)C=C5)C=C4)cc2)[C@H]1C
REMARK SMILES IDX 14 1 13 2 12 3 10 4 11 5 9 6 6 7 7 8 81 9 8 10 82 11 4 12
REMARK SMILES IDX 3 13 5 15 2 16 1 17 15 18 16 19 17 20 18 21 19 22 80 23
REMARK SMILES IDX 20 24 79 25 21 26 22 27 23 28 73 29 24 30 78 31 72 32 74 33
REMARK SMILES IDX 25 34 77 35 71 36 70 37 26 39 58 40 38 41 57 42 39 43 42 44
REMARK SMILES IDX 56 45 75 46 40 47 41 48 55 50 76 51 43 52 27 53 28 54 36 55
REMARK SMILES IDX 29 56 35 57 37 58 34 59 30 60 31 61 32 62 33 63 59 64 60 65
REMARK SMILES IDX 68 66 61 67 67 68 69 69 66 70 62 71 63 72 64 73 65 74 44 75
REMARK SMILES IDX 45 76 53 77 46 78 52 79 54 80 51 81 47 82 48 83 49 84 50 85
REMARK H PARENT 3 14 74 38 42 49
REMARK Flexibility Score: inf
ROOT
ATOM      1  C   UNL A   1      31.721  30.055  25.522  1.00  0.00     0.275 C 
ENDROOT
BRANCH   1   2
ATOM      2  C   UNL A   1      31.403  28.601  25.897  1.00  0.00     0.274 C 
BRANCH   2   3
ATOM      3  O   UNL A   1      31.227  27.783  24.722  1.00  0.00    -0.462 OA
BRANCH   3   4
ATOM      4  C   UNL A   1      32.297  27.057  24.329  1.00  0.00     0.311 C 
ATOM      5  O   UNL A   1      32.926  27.271  23.299  1.00  0.00    -0.252 OA
BRANCH   4   6
ATOM      6  C   UNL A   1      32.637  25.906  25.250  1.00  0.00     0.123 C 
ATOM      7  N   UNL A   1      32.781  23.596  25.800  1.00  0.00    -0.321 N 
ATOM      8  C   UNL A   1      34.079  24.223  25.998  1.00  0.00     0.122 C 
ATOM      9  C   UNL A   1      31.802  24.600  25.291  1.00  0.00     0.098 C 
ATOM     10  C   UNL A   1      34.070  25.424  25.076  1.00  0.00     0.039 C 
ATOM     11  C   UNL A   1      31.145  24.182  23.984  1.00  0.00     0.032 C 
BRANCH   7  12
ATOM     12  C   UNL A   1      32.459  22.560  26.642  1.00  0.00     0.317 C 
ATOM     13  N   UNL A   1      32.152  21.350  26.121  1.00  0.00    -0.338 N 
ATOM     14  H   UNL A   1      31.523  20.805  26.647  1.00  0.00     0.165 HD
ATOM     15  O   UNL A   1      32.501  22.664  27.868  1.00  0.00    -0.249 OA
BRANCH  13  16
ATOM     16  C   UNL A   1      32.629  20.750  24.894  1.00  0.00     0.114 C 
ATOM     17  C   UNL A   1      34.090  20.350  24.988  1.00  0.00     0.027 C 
ENDBRANCH  13  16
ENDBRANCH   7  12
ENDBRANCH   4   6
ENDBRANCH   3   4
ENDBRANCH   2   3
ENDBRANCH   1   2
BRANCH   1  18
ATOM     18  O   UNL A   1      33.081  30.402  25.853  1.00  0.00    -0.458 OA
BRANCH  18  19
ATOM     19  C   UNL A   1      33.245  31.282  26.866  1.00  0.00     0.338 C 
ATOM     20  O   UNL A   1      32.437  32.115  27.260  1.00  0.00    -0.246 OA
BRANCH  19  21
ATOM     21  C   UNL A   1      34.507  31.013  27.562  1.00  0.00     0.060 A 
ATOM     22  C   UNL A   1      34.749  29.711  28.007  1.00  0.00     0.016 A 
ATOM     23  C   UNL A   1      35.412  32.038  27.835  1.00  0.00     0.016 A 
ATOM     24  C   UNL A   1      35.909  29.418  28.713  1.00  0.00     0.010 A 
ATOM     25  C   UNL A   1      36.579  31.743  28.546  1.00  0.00     0.010 A 
ATOM     26  C   UNL A   1      36.833  30.433  28.988  1.00  0.00    -0.014 A 
BRANCH  26  27
ATOM     27  C   UNL A   1      38.053  30.117  29.768  1.00  0.00     0.031 A 
ATOM     28  C   UNL A   1      39.080  29.185  29.198  1.00  0.00     0.074 A 
ATOM     29  C   UNL A   1      38.235  30.687  30.973  1.00  0.00     0.049 A 
ATOM     30  N   UNL A   1      40.162  28.705  29.752  1.00  0.00    -0.248 NA
ATOM     31  C   UNL A   1      38.852  28.729  27.818  1.00  0.00     0.031 C 
ATOM     32  C   UNL A   1      37.325  31.652  31.594  1.00  0.00     0.029 A 
ATOM     33  N   UNL A   1      39.242  30.538  31.891  1.00  0.00    -0.354 N 
ATOM     34  C   UNL A   1      40.740  27.875  28.798  1.00  0.00     0.074 A 
ATOM     35  C   UNL A   1      39.872  27.902  27.639  1.00  0.00     0.031 C 
ATOM     36  C   UNL A   1      37.815  32.005  32.793  1.00  0.00     0.029 A 
ATOM     37  C   UNL A   1      39.040  31.253  33.049  1.00  0.00     0.049 A 
ATOM     38  H   UNL A   1      40.033  29.973  31.737  1.00  0.00     0.167 HD
ATOM     39  C   UNL A   1      41.888  27.159  28.888  1.00  0.00     0.034 A 
ATOM     40  C   UNL A   1      39.743  31.269  34.197  1.00  0.00     0.034 A 
ATOM     41  C   UNL A   1      42.733  27.148  30.060  1.00  0.00     0.049 A 
ATOM     42  C   UNL A   1      40.975  30.407  34.302  1.00  0.00     0.074 A 
ATOM     43  C   UNL A   1      43.919  26.463  30.264  1.00  0.00     0.029 A 
ATOM     44  N   UNL A   1      42.477  27.850  31.232  1.00  0.00    -0.354 N 
ATOM     45  N   UNL A   1      41.498  29.603  33.406  1.00  0.00    -0.248 NA
ATOM     46  C   UNL A   1      41.708  30.453  35.573  1.00  0.00     0.031 C 
ATOM     47  C   UNL A   1      44.343  26.701  31.578  1.00  0.00     0.029 A 
ATOM     48  C   UNL A   1      43.463  27.592  32.172  1.00  0.00     0.049 A 
ATOM     49  H   UNL A   1      41.705  28.446  31.374  1.00  0.00     0.167 HD
ATOM     50  C   UNL A   1      42.636  29.063  33.998  1.00  0.00     0.074 A 
ATOM     51  C   UNL A   1      42.728  29.645  35.322  1.00  0.00     0.031 C 
ATOM     52  C   UNL A   1      43.525  28.168  33.495  1.00  0.00     0.034 A 
BRANCH  39  53
ATOM     53  C   UNL A   1      42.251  26.283  27.713  1.00  0.00     0.023 A 
ATOM     54  C   UNL A   1      41.778  24.964  27.592  1.00  0.00     0.031 A 
ATOM     55  C   UNL A   1      43.123  26.763  26.719  1.00  0.00     0.131 A 
ATOM     56  C   UNL A   1      42.236  24.150  26.543  1.00  0.00     0.055 A 
ATOM     57  C   UNL A   1      43.514  25.973  25.637  1.00  0.00     0.041 A 
ATOM     58  F   UNL A   1      43.626  28.006  26.794  1.00  0.00    -0.206 F 
ATOM     59  C   UNL A   1      43.081  24.653  25.552  1.00  0.00     0.022 A 
BRANCH  56  60
ATOM     60  S   UNL A   1      41.825  22.383  26.571  1.00  0.00     0.124 S 
ATOM     61  O   UNL A   1      42.519  21.899  25.380  1.00  0.00    -0.237 OA
ATOM     62  O   UNL A   1      42.374  21.952  27.851  1.00  0.00    -0.237 OA
ATOM     63  O   UNL A   1      40.365  22.369  26.481  1.00  0.00    -0.744 OA
ENDBRANCH  56  60
ENDBRANCH  39  53
BRANCH  40  64
ATOM     64  C   UNL A   1      39.271  32.079  35.356  1.00  0.00     0.023 A 
ATOM     65  C   UNL A   1      39.715  33.394  35.556  1.00  0.00     0.031 A 
ATOM     66  C   UNL A   1      38.386  31.528  36.303  1.00  0.00     0.131 A 
ATOM     67  C   UNL A   1      39.300  34.106  36.693  1.00  0.00     0.055 A 
ATOM     68  C   UNL A   1      37.937  32.258  37.404  1.00  0.00     0.041 A 
ATOM     69  F   UNL A   1      37.932  30.273  36.159  1.00  0.00    -0.206 F 
ATOM     70  C   UNL A   1      38.404  33.551  37.611  1.00  0.00     0.022 A 
BRANCH  67  71
ATOM     71  S   UNL A   1      40.004  35.749  36.997  1.00  0.00     0.124 S 
ATOM     72  O   UNL A   1      39.649  36.456  35.772  1.00  0.00    -0.237 OA
ATOM     73  O   UNL A   1      39.299  36.163  38.205  1.00  0.00    -0.237 OA
ATOM     74  O   UNL A   1      41.431  35.483  37.172  1.00  0.00    -0.744 OA
ENDBRANCH  67  71
ENDBRANCH  40  64
BRANCH  52  75
ATOM     75  C   UNL A   1      44.690  27.804  34.379  1.00  0.00     0.023 A 
ATOM     76  C   UNL A   1      44.648  26.689  35.236  1.00  0.00     0.031 A 
ATOM     77  C   UNL A   1      45.852  28.596  34.378  1.00  0.00     0.131 A 
ATOM     78  C   UNL A   1      45.725  26.430  36.097  1.00  0.00     0.055 A 
ATOM     79  C   UNL A   1      46.943  28.300  35.196  1.00  0.00     0.041 A 
ATOM     80  F   UNL A   1      45.944  29.672  33.580  1.00  0.00    -0.206 F 
ATOM     81  C   UNL A   1      46.878  27.219  36.071  1.00  0.00     0.022 A 
BRANCH  78  82
ATOM     82  S   UNL A   1      45.565  25.095  37.314  1.00  0.00     0.124 S 
ATOM     83  O   UNL A   1      44.158  24.731  37.184  1.00  0.00    -0.237 OA
ATOM     84  O   UNL A   1      46.526  24.111  36.827  1.00  0.00    -0.237 OA
ATOM     85  O   UNL A   1      45.924  25.737  38.577  1.00  0.00    -0.744 OA
ENDBRANCH  78  82
ENDBRANCH  52  75
ENDBRANCH  26  27
ENDBRANCH  19  21
ENDBRANCH  18  19
ENDBRANCH   1  18
TORSDOF 16
ENDMDL
MODEL 2
REMARK VINA RESULT:     -10.4      5.242     10.169
REMARK SMILES CCNC(=O)N1CC[C@@H](C(=O)OCCOC(=O)c2ccc(-c3c4nc(c(-c5cc(S(=O)(=O)[O-])ccc5F)c5ccc([nH]5)c(-c5cc(S(=O)(=O)[O-])ccc5F)c5nc(c(-c6cc(S(=O)(=O)[O-])ccc6F)c6ccc3[nH]6)C=C5)C=C4)cc2)[C@H]1C
REMARK SMILES IDX 14 1 13 2 12 3 10 4 11 5 9 6 6 7 7 8 81 9 8 10 82 11 4 12
REMARK SMILES IDX 3 13 5 15 2 16 1 17 15 18 16 19 17 20 18 21 19 22 80 23
REMARK SMILES IDX 20 24 79 25 21 26 22 27 23 28 73 29 24 30 78 31 72 32 74 33
REMARK SMILES IDX 25 34 77 35 71 36 70 37 26 39 58 40 38 41 57 42 39 43 42 44
REMARK SMILES IDX 56 45 75 46 40 47 41 48 55 50 76 51 43 52 27 53 28 54 36 55
REMARK SMILES IDX 29 56 35 57 37 58 34 59 30 60 31 61 32 62 33 63 59 64 60 65
REMARK SMILES IDX 68 66 61 67 67 68 69 69 66 70 62 71 63 72 64 73 65 74 44 75
REMARK SMILES IDX 45 76 53 77 46 78 52 79 54 80 51 81 47 82 48 83 49 84 50 85
REMARK H PARENT 3 14 74 38 42 49
REMARK Flexibility Score: inf
ROOT
ATOM      1  C   UNL A   1      36.041  20.769  25.017  1.00  0.00     0.275 C 
ENDROOT
BRANCH   1   2
ATOM      2  C   UNL A   1      34.565  21.079  25.299  1.00  0.00     0.274 C 
BRANCH   2   3
ATOM      3  O   UNL A   1      33.823  21.255  24.076  1.00  0.00    -0.462 OA
BRANCH   3   4
ATOM      4  C   UNL A   1      33.747  22.516  23.593  1.00  0.00     0.311 C 
ATOM      5  O   UNL A   1      34.564  22.999  22.817  1.00  0.00    -0.252 OA
BRANCH   4   6
ATOM      6  C   UNL A   1      32.583  23.317  24.132  1.00  0.00     0.123 C 
ATOM      7  N   UNL A   1      31.626  25.190  25.243  1.00  0.00    -0.321 N 
ATOM      8  C   UNL A   1      30.993  25.022  23.943  1.00  0.00     0.122 C 
ATOM      9  C   UNL A   1      32.681  24.153  25.434  1.00  0.00     0.098 C 
ATOM     10  C   UNL A   1      32.022  24.292  23.106  1.00  0.00     0.039 C 
ATOM     11  C   UNL A   1      34.046  24.746  25.750  1.00  0.00     0.032 C 
BRANCH   7  12
ATOM     12  C   UNL A   1      30.841  25.690  26.253  1.00  0.00     0.317 C 
ATOM     13  N   UNL A   1      31.295  26.723  26.999  1.00  0.00    -0.338 N 
ATOM     14  H   UNL A   1      30.969  26.756  27.928  1.00  0.00     0.165 HD
ATOM     15  O   UNL A   1      29.701  25.280  26.472  1.00  0.00    -0.249 OA
BRANCH  13  16
ATOM     16  C   UNL A   1      32.194  27.787  26.611  1.00  0.00     0.114 C 
ATOM     17  C   UNL A   1      31.791  29.120  27.214  1.00  0.00     0.027 C 
ENDBRANCH  13  16
ENDBRANCH   7  12
ENDBRANCH   4   6
ENDBRANCH   3   4
ENDBRANCH   2   3
ENDBRANCH   1   2
BRANCH   1  18
ATOM     18  O   UNL A   1      36.910  21.428  25.959  1.00  0.00    -0.458 OA
BRANCH  18  19
ATOM     19  C   UNL A   1      38.235  21.201  25.813  1.00  0.00     0.338 C 
ATOM     20  O   UNL A   1      38.767  20.187  25.376  1.00  0.00    -0.246 OA
BRANCH  19  21
ATOM     21  C   UNL A   1      38.988  22.421  26.119  1.00  0.00     0.060 A 
ATOM     22  C   UNL A   1      40.191  22.295  26.816  1.00  0.00     0.016 A 
ATOM     23  C   UNL A   1      38.488  23.679  25.786  1.00  0.00     0.016 A 
ATOM     24  C   UNL A   1      40.916  23.426  27.170  1.00  0.00     0.010 A 
ATOM     25  C   UNL A   1      39.216  24.817  26.143  1.00  0.00     0.010 A 
ATOM     26  C   UNL A   1      40.434  24.696  26.836  1.00  0.00    -0.014 A 
BRANCH  26  27
ATOM     27  C   UNL A   1      41.198  25.898  27.245  1.00  0.00     0.031 A 
ATOM     28  C   UNL A   1      40.550  26.929  28.120  1.00  0.00     0.074 A 
ATOM     29  C   UNL A   1      42.474  26.041  26.843  1.00  0.00     0.049 A 
ATOM     30  N   UNL A   1      41.006  28.091  28.509  1.00  0.00    -0.248 NA
ATOM     31  C   UNL A   1      39.204  26.609  28.618  1.00  0.00     0.031 C 
ATOM     32  C   UNL A   1      43.216  25.069  26.037  1.00  0.00     0.029 A 
ATOM     33  N   UNL A   1      43.370  27.057  27.052  1.00  0.00    -0.354 N 
ATOM     34  C   UNL A   1      39.999  28.652  29.285  1.00  0.00     0.074 A 
ATOM     35  C   UNL A   1      38.899  27.710  29.290  1.00  0.00     0.031 C 
ATOM     36  C   UNL A   1      44.455  25.539  25.819  1.00  0.00     0.029 A 
ATOM     37  C   UNL A   1      44.576  26.864  26.418  1.00  0.00     0.049 A 
ATOM     38  H   UNL A   1      43.170  27.849  27.602  1.00  0.00     0.167 HD
ATOM     39  C   UNL A   1      39.998  29.845  29.931  1.00  0.00     0.034 A 
ATOM     40  C   UNL A   1      45.641  27.681  26.303  1.00  0.00     0.034 A 
ATOM     41  C   UNL A   1      41.108  30.768  29.905  1.00  0.00     0.049 A 
ATOM     42  C   UNL A   1      45.587  29.034  26.966  1.00  0.00     0.074 A 
ATOM     43  C   UNL A   1      41.221  32.002  30.523  1.00  0.00     0.029 A 
ATOM     44  N   UNL A   1      42.299  30.561  29.219  1.00  0.00    -0.354 N 
ATOM     45  N   UNL A   1      44.620  29.569  27.674  1.00  0.00    -0.248 NA
ATOM     46  C   UNL A   1      46.768  29.892  26.813  1.00  0.00     0.031 C 
ATOM     47  C   UNL A   1      42.450  32.567  30.157  1.00  0.00     0.029 A 
ATOM     48  C   UNL A   1      43.137  31.655  29.370  1.00  0.00     0.049 A 
ATOM     49  H   UNL A   1      42.516  29.753  28.699  1.00  0.00     0.167 HD
ATOM     50  C   UNL A   1      45.084  30.820  28.069  1.00  0.00     0.074 A 
ATOM     51  C   UNL A   1      46.424  30.951  27.532  1.00  0.00     0.031 C 
ATOM     52  C   UNL A   1      44.463  31.774  28.808  1.00  0.00     0.034 A 
BRANCH  39  53
ATOM     53  C   UNL A   1      38.733  30.238  30.656  1.00  0.00     0.023 A 
ATOM     54  C   UNL A   1      37.686  30.922  30.013  1.00  0.00     0.031 A 
ATOM     55  C   UNL A   1      38.594  29.962  32.029  1.00  0.00     0.131 A 
ATOM     56  C   UNL A   1      36.581  31.369  30.756  1.00  0.00     0.055 A 
ATOM     57  C   UNL A   1      37.457  30.342  32.745  1.00  0.00     0.041 A 
ATOM     58  F   UNL A   1      39.570  29.334  32.702  1.00  0.00    -0.206 F 
ATOM     59  C   UNL A   1      36.449  31.063  32.112  1.00  0.00     0.022 A 
BRANCH  56  60
ATOM     60  S   UNL A   1      35.388  32.478  29.958  1.00  0.00     0.124 S 
ATOM     61  O   UNL A   1      36.231  33.621  29.615  1.00  0.00    -0.237 OA
ATOM     62  O   UNL A   1      34.910  31.676  28.839  1.00  0.00    -0.237 OA
ATOM     63  O   UNL A   1      34.403  32.734  31.008  1.00  0.00    -0.744 OA
ENDBRANCH  56  60
ENDBRANCH  39  53
BRANCH  40  64
ATOM     64  C   UNL A   1      46.817  27.272  25.486  1.00  0.00     0.023 A 
ATOM     65  C   UNL A   1      47.001  27.752  24.181  1.00  0.00     0.031 A 
ATOM     66  C   UNL A   1      47.763  26.362  25.995  1.00  0.00     0.131 A 
ATOM     67  C   UNL A   1      48.086  27.295  23.416  1.00  0.00     0.055 A 
ATOM     68  C   UNL A   1      48.868  25.950  25.248  1.00  0.00     0.041 A 
ATOM     69  F   UNL A   1      47.633  25.871  27.238  1.00  0.00    -0.206 F 
ATOM     70  C   UNL A   1      49.028  26.409  23.946  1.00  0.00     0.022 A 
BRANCH  67  71
ATOM     71  S   UNL A   1      48.216  27.824  21.685  1.00  0.00     0.124 S 
ATOM     72  O   UNL A   1      48.281  26.545  20.988  1.00  0.00    -0.237 OA
ATOM     73  O   UNL A   1      46.986  28.589  21.509  1.00  0.00    -0.237 OA
ATOM     74  O   UNL A   1      49.446  28.612  21.660  1.00  0.00    -0.744 OA
ENDBRANCH  67  71
ENDBRANCH  40  64
BRANCH  52  75
ATOM     75  C   UNL A   1      45.255  33.023  29.102  1.00  0.00     0.023 A 
ATOM     76  C   UNL A   1      45.210  34.143  28.253  1.00  0.00     0.031 A 
ATOM     77  C   UNL A   1      46.080  33.084  30.239  1.00  0.00     0.131 A 
ATOM     78  C   UNL A   1      46.021  35.256  28.524  1.00  0.00     0.055 A 
ATOM     79  C   UNL A   1      46.841  34.216  30.534  1.00  0.00     0.041 A 
ATOM     80  F   UNL A   1      46.160  32.042  31.082  1.00  0.00    -0.206 F 
ATOM     81  C   UNL A   1      46.824  35.306  29.667  1.00  0.00     0.022 A 
BRANCH  78  82
ATOM     82  S   UNL A   1      46.077  36.608  27.316  1.00  0.00     0.124 S 
ATOM     83  O   UNL A   1      44.784  37.253  27.522  1.00  0.00    -0.237 OA
ATOM     84  O   UNL A   1      47.244  37.368  27.751  1.00  0.00    -0.237 OA
ATOM     85  O   UNL A   1      46.228  35.919  26.036  1.00  0.00    -0.744 OA
ENDBRANCH  78  82
ENDBRANCH  52  75
ENDBRANCH  26  27
ENDBRANCH  19  21
ENDBRANCH  18  19
ENDBRANCH   1  18
TORSDOF 16
ENDMDL
MODEL 3
REMARK VINA RESULT:     -10.3      4.554      7.242
REMARK SMILES CCNC(=O)N1CC[C@@H](C(=O)OCCOC(=O)c2ccc(-c3c4nc(c(-c5cc(S(=O)(=O)[O-])ccc5F)c5ccc([nH]5)c(-c5cc(S(=O)(=O)[O-])ccc5F)c5nc(c(-c6cc(S(=O)(=O)[O-])ccc6F)c6ccc3[nH]6)C=C5)C=C4)cc2)[C@H]1C
REMARK SMILES IDX 14 1 13 2 12 3 10 4 11 5 9 6 6 7 7 8 81 9 8 10 82 11 4 12
REMARK SMILES IDX 3 13 5 15 2 16 1 17 15 18 16 19 17 20 18 21 19 22 80 23
REMARK SMILES IDX 20 24 79 25 21 26 22 27 23 28 73 29 24 30 78 31 72 32 74 33
REMARK SMILES IDX 25 34 77 35 71 36 70 37 26 39 58 40 38 41 57 42 39 43 42 44
REMARK SMILES IDX 56 45 75 46 40 47 41 48 55 50 76 51 43 52 27 53 28 54 36 55
REMARK SMILES IDX 29 56 35 57 37 58 34 59 30 60 31 61 32 62 33 63 59 64 60 65
REMARK SMILES IDX 68 66 61 67 67 68 69 69 66 70 62 71 63 72 64 73 65 74 44 75
REMARK SMILES IDX 45 76 53 77 46 78 52 79 54 80 51 81 47 82 48 83 49 84 50 85
REMARK H PARENT 3 14 74 38 42 49
REMARK Flexibility Score: inf
ROOT
ATOM      1  C   UNL A   1      37.828  20.383  25.177  1.00  0.00     0.275 C 
ENDROOT
BRANCH   1   2
ATOM      2  C   UNL A   1      36.372  20.818  24.966  1.00  0.00     0.274 C 
BRANCH   2   3
ATOM      3  O   UNL A   1      36.269  22.247  24.807  1.00  0.00    -0.462 OA
BRANCH   3   4
ATOM      4  C   UNL A   1      35.303  22.692  23.972  1.00  0.00     0.311 C 
ATOM      5  O   UNL A   1      35.505  23.015  22.806  1.00  0.00    -0.252 OA
BRANCH   4   6
ATOM      6  C   UNL A   1      33.937  22.808  24.610  1.00  0.00     0.123 C 
ATOM      7  N   UNL A   1      32.081  24.039  25.448  1.00  0.00    -0.321 N 
ATOM      8  C   UNL A   1      31.615  23.060  24.476  1.00  0.00     0.122 C 
ATOM      9  C   UNL A   1      33.566  23.965  25.574  1.00  0.00     0.098 C 
ATOM     10  C   UNL A   1      32.812  22.804  23.585  1.00  0.00     0.039 C 
ATOM     11  C   UNL A   1      34.251  25.299  25.316  1.00  0.00     0.032 C 
BRANCH   7  12
ATOM     12  C   UNL A   1      31.231  24.334  26.485  1.00  0.00     0.317 C 
ATOM     13  N   UNL A   1      30.672  25.564  26.558  1.00  0.00    -0.338 N 
ATOM     14  H   UNL A   1      30.468  25.888  27.465  1.00  0.00     0.165 HD
ATOM     15  O   UNL A   1      30.898  23.500  27.327  1.00  0.00    -0.249 OA
BRANCH  13  16
ATOM     16  C   UNL A   1      30.333  26.464  25.478  1.00  0.00     0.114 C 
ATOM     17  C   UNL A   1      31.301  27.629  25.384  1.00  0.00     0.027 C 
ENDBRANCH  13  16
ENDBRANCH   7  12
ENDBRANCH   4   6
ENDBRANCH   3   4
ENDBRANCH   2   3
ENDBRANCH   1   2
BRANCH   1  18
ATOM     18  O   UNL A   1      38.687  21.512  25.433  1.00  0.00    -0.458 OA
BRANCH  18  19
ATOM     19  C   UNL A   1      39.548  21.386  26.468  1.00  0.00     0.338 C 
ATOM     20  O   UNL A   1      39.997  20.346  26.934  1.00  0.00    -0.246 OA
BRANCH  19  21
ATOM     21  C   UNL A   1      40.014  22.710  26.893  1.00  0.00     0.060 A 
ATOM     22  C   UNL A   1      39.539  23.828  26.204  1.00  0.00     0.016 A 
ATOM     23  C   UNL A   1      40.957  22.850  27.910  1.00  0.00     0.016 A 
ATOM     24  C   UNL A   1      39.988  25.099  26.540  1.00  0.00     0.010 A 
ATOM     25  C   UNL A   1      41.410  24.128  28.248  1.00  0.00     0.010 A 
ATOM     26  C   UNL A   1      40.927  25.258  27.565  1.00  0.00    -0.014 A 
BRANCH  26  27
ATOM     27  C   UNL A   1      41.424  26.615  27.896  1.00  0.00     0.031 A 
ATOM     28  C   UNL A   1      42.827  27.002  27.535  1.00  0.00     0.074 A 
ATOM     29  C   UNL A   1      40.602  27.494  28.498  1.00  0.00     0.049 A 
ATOM     30  N   UNL A   1      43.484  28.096  27.818  1.00  0.00    -0.248 NA
ATOM     31  C   UNL A   1      43.594  26.020  26.754  1.00  0.00     0.031 C 
ATOM     32  C   UNL A   1      39.201  27.237  28.841  1.00  0.00     0.029 A 
ATOM     33  N   UNL A   1      40.823  28.775  28.932  1.00  0.00    -0.354 N 
ATOM     34  C   UNL A   1      44.749  27.931  27.267  1.00  0.00     0.074 A 
ATOM     35  C   UNL A   1      44.771  26.619  26.652  1.00  0.00     0.031 C 
ATOM     36  C   UNL A   1      38.690  28.327  29.435  1.00  0.00     0.029 A 
ATOM     37  C   UNL A   1      39.738  29.335  29.565  1.00  0.00     0.049 A 
ATOM     38  H   UNL A   1      41.677  29.248  28.804  1.00  0.00     0.167 HD
ATOM     39  C   UNL A   1      45.792  28.798  27.276  1.00  0.00     0.034 A 
ATOM     40  C   UNL A   1      39.616  30.511  30.210  1.00  0.00     0.034 A 
ATOM     41  C   UNL A   1      45.744  30.100  27.901  1.00  0.00     0.049 A 
ATOM     42  C   UNL A   1      40.813  31.427  30.273  1.00  0.00     0.074 A 
ATOM     43  C   UNL A   1      46.736  31.062  27.971  1.00  0.00     0.029 A 
ATOM     44  N   UNL A   1      44.643  30.619  28.571  1.00  0.00    -0.354 N 
ATOM     45  N   UNL A   1      42.014  31.251  29.774  1.00  0.00    -0.248 NA
ATOM     46  C   UNL A   1      40.636  32.697  30.988  1.00  0.00     0.031 C 
ATOM     47  C   UNL A   1      46.257  32.133  28.737  1.00  0.00     0.029 A 
ATOM     48  C   UNL A   1      44.940  31.873  29.083  1.00  0.00     0.049 A 
ATOM     49  H   UNL A   1      43.775  30.162  28.667  1.00  0.00     0.167 HD
ATOM     50  C   UNL A   1      42.731  32.399  30.097  1.00  0.00     0.074 A 
ATOM     51  C   UNL A   1      41.822  33.265  30.820  1.00  0.00     0.031 C 
ATOM     52  C   UNL A   1      44.023  32.712  29.821  1.00  0.00     0.034 A 
BRANCH  39  53
ATOM     53  C   UNL A   1      47.085  28.331  26.651  1.00  0.00     0.023 A 
ATOM     54  C   UNL A   1      47.268  28.292  25.257  1.00  0.00     0.031 A 
ATOM     55  C   UNL A   1      48.137  27.874  27.465  1.00  0.00     0.131 A 
ATOM     56  C   UNL A   1      48.442  27.741  24.720  1.00  0.00     0.055 A 
ATOM     57  C   UNL A   1      49.334  27.399  26.926  1.00  0.00     0.041 A 
ATOM     58  F   UNL A   1      48.012  27.865  28.802  1.00  0.00    -0.206 F 
ATOM     59  C   UNL A   1      49.486  27.317  25.545  1.00  0.00     0.022 A 
BRANCH  56  60
ATOM     60  S   UNL A   1      48.530  27.454  22.931  1.00  0.00     0.124 S 
ATOM     61  O   UNL A   1      48.431  25.999  22.859  1.00  0.00    -0.237 OA
ATOM     62  O   UNL A   1      47.380  28.200  22.435  1.00  0.00    -0.237 OA
ATOM     63  O   UNL A   1      49.835  28.001  22.560  1.00  0.00    -0.744 OA
ENDBRANCH  56  60
ENDBRANCH  39  53
BRANCH  40  64
ATOM     64  C   UNL A   1      38.341  30.865  30.894  1.00  0.00     0.023 A 
ATOM     65  C   UNL A   1      37.328  31.572  30.230  1.00  0.00     0.031 A 
ATOM     66  C   UNL A   1      38.133  30.523  32.245  1.00  0.00     0.131 A 
ATOM     67  C   UNL A   1      36.166  31.945  30.925  1.00  0.00     0.055 A 
ATOM     68  C   UNL A   1      36.955  30.852  32.915  1.00  0.00     0.041 A 
ATOM     69  F   UNL A   1      39.072  29.848  32.927  1.00  0.00    -0.206 F 
ATOM     70  C   UNL A   1      35.967  31.577  32.258  1.00  0.00     0.022 A 
BRANCH  67  71
ATOM     71  S   UNL A   1      34.941  32.981  30.079  1.00  0.00     0.124 S 
ATOM     72  O   UNL A   1      35.774  34.052  29.546  1.00  0.00    -0.237 OA
ATOM     73  O   UNL A   1      34.382  32.054  29.101  1.00  0.00    -0.237 OA
ATOM     74  O   UNL A   1      34.029  33.375  31.152  1.00  0.00    -0.744 OA
ENDBRANCH  67  71
ENDBRANCH  40  64
BRANCH  52  75
ATOM     75  C   UNL A   1      44.503  34.066  30.277  1.00  0.00     0.023 A 
ATOM     76  C   UNL A   1      45.102  34.252  31.535  1.00  0.00     0.031 A 
ATOM     77  C   UNL A   1      44.340  35.189  29.447  1.00  0.00     0.131 A 
ATOM     78  C   UNL A   1      45.465  35.542  31.950  1.00  0.00     0.055 A 
ATOM     79  C   UNL A   1      44.755  36.462  29.843  1.00  0.00     0.041 A 
ATOM     80  F   UNL A   1      43.773  35.067  28.235  1.00  0.00    -0.206 F 
ATOM     81  C   UNL A   1      45.310  36.645  31.106  1.00  0.00     0.022 A 
BRANCH  78  82
ATOM     82  S   UNL A   1      46.067  35.775  33.646  1.00  0.00     0.124 S 
ATOM     83  O   UNL A   1      47.491  36.013  33.432  1.00  0.00    -0.237 OA
ATOM     84  O   UNL A   1      45.290  36.923  34.100  1.00  0.00    -0.237 OA
ATOM     85  O   UNL A   1      45.743  34.510  34.302  1.00  0.00    -0.744 OA
ENDBRANCH  78  82
ENDBRANCH  52  75
ENDBRANCH  26  27
ENDBRANCH  19  21
ENDBRANCH  18  19
ENDBRANCH   1  18
TORSDOF 16
ENDMDL
