MODEL 1
REMARK VINA RESULT:     -11.2      0.000      0.000
REMARK SMILES CCCCNC(=O)c1c(Cl)c(Cl)c(Cl)c(Cl)c1C(=O)OCCOC(=O)c1ccc(-c2c3nc(c(-c4cc(S(=O)(=O)[O-])ccc4F)c4ccc([nH]4)c(-c4cc(S(=O)(=O)[O-])ccc4F)c4nc(c(-c5cc(S(=O)(=O)[O-])ccc5F)c5ccc2[nH]5)C=C4)C=C3)cc1
REMARK SMILES IDX 21 1 20 2 18 3 19 4 17 5 8 6 9 7 10 8 11 9 15 10 12 11 13 12
REMARK SMILES IDX 16 13 14 14 6 15 5 16 7 18 4 19 3 20 2 21 1 22 22 23 23 24
REMARK SMILES IDX 24 25 25 26 26 27 27 28 88 29 28 30 87 31 29 32 30 33 31 34
REMARK SMILES IDX 81 35 32 36 86 37 80 38 82 39 33 40 85 41 79 42 78 43 34 45
REMARK SMILES IDX 66 46 46 47 65 48 47 49 50 50 64 51 83 52 48 53 49 54 63 56
REMARK SMILES IDX 84 57 51 58 35 59 36 60 44 61 37 62 43 63 45 64 42 65 38 66
REMARK SMILES IDX 39 67 40 68 41 69 67 70 68 71 76 72 69 73 75 74 77 75 74 76
REMARK SMILES IDX 70 77 71 78 72 79 73 80 52 81 53 82 61 83 54 84 60 85 62 86
REMARK SMILES IDX 59 87 55 88 56 89 57 90 58 91
REMARK H PARENT 5 17 82 44 50 55
REMARK Flexibility Score: inf
ROOT
ATOM      1  C   UNL A   1      33.001  29.244  25.233  1.00  0.00     0.275 C 
ENDROOT
BRANCH   1   2
ATOM      2  O   UNL A   1      32.347  27.951  25.251  1.00  0.00    -0.458 OA
BRANCH   2   3
ATOM      3  C   UNL A   1      33.175  26.886  25.187  1.00  0.00     0.340 C 
ATOM      4  O   UNL A   1      34.333  26.833  25.574  1.00  0.00    -0.246 OA
BRANCH   3   5
ATOM      5  C   UNL A   1      32.603  25.747  24.443  1.00  0.00     0.094 A 
ATOM      6  C   UNL A   1      32.794  25.680  23.060  1.00  0.00     0.076 A 
ATOM      7  C   UNL A   1      32.726  24.456  22.380  1.00  0.00     0.074 A 
ATOM      8  Cl  UNL A   1      33.036  24.401  20.669  1.00  0.00    -0.082 Cl
ATOM      9  C   UNL A   1      32.410  23.286  23.089  1.00  0.00     0.080 A 
ATOM     10  C   UNL A   1      32.175  24.601  25.124  1.00  0.00     0.076 A 
ATOM     11  Cl  UNL A   1      32.346  21.756  22.262  1.00  0.00    -0.081 Cl
ATOM     12  C   UNL A   1      32.100  23.363  24.458  1.00  0.00     0.080 A 
ATOM     13  Cl  UNL A   1      31.566  24.733  26.732  1.00  0.00    -0.082 Cl
ATOM     14  Cl  UNL A   1      31.645  21.927  25.333  1.00  0.00    -0.081 Cl
BRANCH   6  15
ATOM     15  C   UNL A   1      32.918  26.939  22.312  1.00  0.00     0.253 C 
ATOM     16  N   UNL A   1      31.773  27.677  22.127  1.00  0.00    -0.352 N 
ATOM     17  H   UNL A   1      31.894  28.573  21.738  1.00  0.00     0.163 HD
ATOM     18  O   UNL A   1      34.013  27.314  21.917  1.00  0.00    -0.269 OA
BRANCH  16  19
ATOM     19  C   UNL A   1      30.401  27.292  22.435  1.00  0.00     0.116 C 
BRANCH  19  20
ATOM     20  C   UNL A   1      29.616  28.355  23.197  1.00  0.00     0.021 C 
BRANCH  20  21
ATOM     21  C   UNL A   1      29.923  29.804  22.816  1.00  0.00    -0.002 C 
ATOM     22  C   UNL A   1      29.006  30.366  21.742  1.00  0.00     0.004 C 
ENDBRANCH  20  21
ENDBRANCH  19  20
ENDBRANCH  16  19
ENDBRANCH   6  15
ENDBRANCH   3   5
ENDBRANCH   2   3
ENDBRANCH   1   2
BRANCH   1  23
ATOM     23  C   UNL A   1      32.263  30.269  26.089  1.00  0.00     0.275 C 
BRANCH  23  24
ATOM     24  O   UNL A   1      32.871  30.355  27.387  1.00  0.00    -0.458 OA
BRANCH  24  25
ATOM     25  C   UNL A   1      33.596  31.477  27.593  1.00  0.00     0.338 C 
ATOM     26  O   UNL A   1      33.194  32.627  27.592  1.00  0.00    -0.246 OA
BRANCH  25  27
ATOM     27  C   UNL A   1      34.990  31.117  27.883  1.00  0.00     0.060 A 
ATOM     28  C   UNL A   1      35.282  29.813  28.270  1.00  0.00     0.016 A 
ATOM     29  C   UNL A   1      35.958  32.113  27.976  1.00  0.00     0.016 A 
ATOM     30  C   UNL A   1      36.485  29.541  28.914  1.00  0.00     0.010 A 
ATOM     31  C   UNL A   1      37.222  31.792  28.480  1.00  0.00     0.010 A 
ATOM     32  C   UNL A   1      37.487  30.514  29.007  1.00  0.00    -0.014 A 
BRANCH  32  33
ATOM     33  C   UNL A   1      38.797  30.224  29.664  1.00  0.00     0.031 A 
ATOM     34  C   UNL A   1      39.758  29.254  29.025  1.00  0.00     0.074 A 
ATOM     35  C   UNL A   1      39.119  30.795  30.844  1.00  0.00     0.049 A 
ATOM     36  N   UNL A   1      40.754  28.596  29.562  1.00  0.00    -0.248 NA
ATOM     37  C   UNL A   1      39.551  28.967  27.597  1.00  0.00     0.031 C 
ATOM     38  C   UNL A   1      38.336  31.820  31.539  1.00  0.00     0.029 A 
ATOM     39  N   UNL A   1      40.187  30.580  31.680  1.00  0.00    -0.354 N 
ATOM     40  C   UNL A   1      41.243  27.759  28.560  1.00  0.00     0.074 A 
ATOM     41  C   UNL A   1      40.430  27.998  27.385  1.00  0.00     0.031 C 
ATOM     42  C   UNL A   1      38.960  32.162  32.673  1.00  0.00     0.029 A 
ATOM     43  C   UNL A   1      40.104  31.283  32.861  1.00  0.00     0.049 A 
ATOM     44  H   UNL A   1      40.939  29.985  31.457  1.00  0.00     0.167 HD
ATOM     45  C   UNL A   1      42.266  26.870  28.632  1.00  0.00     0.034 A 
ATOM     46  C   UNL A   1      40.802  31.175  34.008  1.00  0.00     0.034 A 
ATOM     47  C   UNL A   1      43.087  26.698  29.808  1.00  0.00     0.049 A 
ATOM     48  C   UNL A   1      41.879  30.130  34.099  1.00  0.00     0.074 A 
ATOM     49  C   UNL A   1      44.156  25.838  29.998  1.00  0.00     0.029 A 
ATOM     50  N   UNL A   1      42.941  27.409  30.994  1.00  0.00    -0.354 N 
ATOM     51  N   UNL A   1      42.267  29.265  33.192  1.00  0.00    -0.248 NA
ATOM     52  C   UNL A   1      42.603  30.037  35.372  1.00  0.00     0.031 C 
ATOM     53  C   UNL A   1      44.606  25.978  31.315  1.00  0.00     0.029 A 
ATOM     54  C   UNL A   1      43.880  26.990  31.923  1.00  0.00     0.049 A 
ATOM     55  H   UNL A   1      42.266  28.109  31.150  1.00  0.00     0.167 HD
ATOM     56  C   UNL A   1      43.303  28.544  33.774  1.00  0.00     0.074 A 
ATOM     57  C   UNL A   1      43.482  29.080  35.109  1.00  0.00     0.031 C 
ATOM     58  C   UNL A   1      44.045  27.537  33.250  1.00  0.00     0.034 A 
BRANCH  45  59
ATOM     59  C   UNL A   1      42.503  25.965  27.442  1.00  0.00     0.023 A 
ATOM     60  C   UNL A   1      41.977  24.664  27.361  1.00  0.00     0.031 A 
ATOM     61  C   UNL A   1      43.293  26.417  26.366  1.00  0.00     0.131 A 
ATOM     62  C   UNL A   1      42.305  23.841  26.271  1.00  0.00     0.055 A 
ATOM     63  C   UNL A   1      43.544  25.624  25.245  1.00  0.00     0.041 A 
ATOM     64  F   UNL A   1      43.845  27.641  26.391  1.00  0.00    -0.206 F 
ATOM     65  C   UNL A   1      43.062  24.321  25.199  1.00  0.00     0.022 A 
BRANCH  62  66
ATOM     66  S   UNL A   1      41.851  22.085  26.338  1.00  0.00     0.124 S 
ATOM     67  O   UNL A   1      42.255  21.726  27.696  1.00  0.00    -0.237 OA
ATOM     68  O   UNL A   1      40.416  22.119  26.086  1.00  0.00    -0.237 OA
ATOM     69  O   UNL A   1      42.657  21.480  25.279  1.00  0.00    -0.744 OA
ENDBRANCH  62  66
ENDBRANCH  45  59
BRANCH  46  70
ATOM     70  C   UNL A   1      40.435  32.014  35.186  1.00  0.00     0.023 A 
ATOM     71  C   UNL A   1      39.414  31.623  36.063  1.00  0.00     0.031 A 
ATOM     72  C   UNL A   1      41.101  33.227  35.449  1.00  0.00     0.131 A 
ATOM     73  C   UNL A   1      39.068  32.449  37.143  1.00  0.00     0.055 A 
ATOM     74  C   UNL A   1      40.797  34.012  36.561  1.00  0.00     0.041 A 
ATOM     75  F   UNL A   1      42.085  33.652  34.640  1.00  0.00    -0.206 F 
ATOM     76  C   UNL A   1      39.765  33.630  37.411  1.00  0.00     0.022 A 
BRANCH  73  77
ATOM     77  S   UNL A   1      37.630  32.000  38.152  1.00  0.00     0.124 S 
ATOM     78  O   UNL A   1      36.638  32.972  37.704  1.00  0.00    -0.237 OA
ATOM     79  O   UNL A   1      37.399  30.616  37.753  1.00  0.00    -0.237 OA
ATOM     80  O   UNL A   1      38.106  32.180  39.523  1.00  0.00    -0.744 OA
ENDBRANCH  73  77
ENDBRANCH  46  70
BRANCH  58  81
ATOM     81  C   UNL A   1      45.172  27.007  34.099  1.00  0.00     0.023 A 
ATOM     82  C   UNL A   1      44.995  25.941  34.997  1.00  0.00     0.031 A 
ATOM     83  C   UNL A   1      46.450  27.589  34.002  1.00  0.00     0.131 A 
ATOM     84  C   UNL A   1      46.066  25.521  35.798  1.00  0.00     0.055 A 
ATOM     85  C   UNL A   1      47.526  27.127  34.759  1.00  0.00     0.041 A 
ATOM     86  F   UNL A   1      46.672  28.614  33.164  1.00  0.00    -0.206 F 
ATOM     87  C   UNL A   1      47.335  26.094  35.672  1.00  0.00     0.022 A 
BRANCH  84  88
ATOM     88  S   UNL A   1      45.765  24.264  37.072  1.00  0.00     0.124 S 
ATOM     89  O   UNL A   1      44.451  24.652  37.574  1.00  0.00    -0.237 OA
ATOM     90  O   UNL A   1      45.813  23.024  36.306  1.00  0.00    -0.237 OA
ATOM     91  O   UNL A   1      46.868  24.455  38.011  1.00  0.00    -0.744 OA
ENDBRANCH  84  88
ENDBRANCH  58  81
ENDBRANCH  32  33
ENDBRANCH  25  27
ENDBRANCH  24  25
ENDBRANCH  23  24
ENDBRANCH   1  23
TORSDOF 18
ENDMDL
MODEL 2
REMARK VINA RESULT:     -11.0      1.759      2.620
REMARK SMILES CCCCNC(=O)c1c(Cl)c(Cl)c(Cl)c(Cl)c1C(=O)OCCOC(=O)c1ccc(-c2c3nc(c(-c4cc(S(=O)(=O)[O-])ccc4F)c4ccc([nH]4)c(-c4cc(S(=O)(=O)[O-])ccc4F)c4nc(c(-c5cc(S(=O)(=O)[O-])ccc5F)c5ccc2[nH]5)C=C4)C=C3)cc1
REMARK SMILES IDX 21 1 20 2 18 3 19 4 17 5 8 6 9 7 10 8 11 9 15 10 12 11 13 12
REMARK SMILES IDX 16 13 14 14 6 15 5 16 7 18 4 19 3 20 2 21 1 22 22 23 23 24
REMARK SMILES IDX 24 25 25 26 26 27 27 28 88 29 28 30 87 31 29 32 30 33 31 34
REMARK SMILES IDX 81 35 32 36 86 37 80 38 82 39 33 40 85 41 79 42 78 43 34 45
REMARK SMILES IDX 66 46 46 47 65 48 47 49 50 50 64 51 83 52 48 53 49 54 63 56
REMARK SMILES IDX 84 57 51 58 35 59 36 60 44 61 37 62 43 63 45 64 42 65 38 66
REMARK SMILES IDX 39 67 40 68 41 69 67 70 68 71 76 72 69 73 75 74 77 75 74 76
REMARK SMILES IDX 70 77 71 78 72 79 73 80 52 81 53 82 61 83 54 84 60 85 62 86
REMARK SMILES IDX 59 87 55 88 56 89 57 90 58 91
REMARK H PARENT 5 17 82 44 50 55
REMARK Flexibility Score: inf
ROOT
ATOM      1  C   UNL A   1      30.958  29.469  25.062  1.00  0.00     0.275 C 
ENDROOT
BRANCH   1   2
ATOM      2  O   UNL A   1      31.581  29.155  23.793  1.00  0.00    -0.458 OA
BRANCH   2   3
ATOM      3  C   UNL A   1      31.039  28.112  23.128  1.00  0.00     0.340 C 
ATOM      4  O   UNL A   1      30.377  28.161  22.102  1.00  0.00    -0.246 OA
BRANCH   3   5
ATOM      5  C   UNL A   1      31.188  26.826  23.838  1.00  0.00     0.094 A 
ATOM      6  C   UNL A   1      32.472  26.317  24.046  1.00  0.00     0.076 A 
ATOM      7  C   UNL A   1      32.730  25.411  25.085  1.00  0.00     0.074 A 
ATOM      8  Cl  UNL A   1      34.354  24.849  25.357  1.00  0.00    -0.082 Cl
ATOM      9  C   UNL A   1      31.673  24.969  25.897  1.00  0.00     0.080 A 
ATOM     10  C   UNL A   1      30.121  26.296  24.573  1.00  0.00     0.076 A 
ATOM     11  Cl  UNL A   1      31.983  23.865  27.206  1.00  0.00    -0.081 Cl
ATOM     12  C   UNL A   1      30.360  25.386  25.619  1.00  0.00     0.080 A 
ATOM     13  Cl  UNL A   1      28.498  26.615  24.084  1.00  0.00    -0.082 Cl
ATOM     14  Cl  UNL A   1      29.034  24.794  26.582  1.00  0.00    -0.081 Cl
BRANCH   6  15
ATOM     15  C   UNL A   1      33.516  26.631  23.061  1.00  0.00     0.253 C 
ATOM     16  N   UNL A   1      33.558  25.863  21.921  1.00  0.00    -0.352 N 
ATOM     17  H   UNL A   1      34.177  26.167  21.218  1.00  0.00     0.163 HD
ATOM     18  O   UNL A   1      34.276  27.570  23.250  1.00  0.00    -0.269 OA
BRANCH  16  19
ATOM     19  C   UNL A   1      32.800  24.654  21.629  1.00  0.00     0.116 C 
BRANCH  19  20
ATOM     20  C   UNL A   1      33.549  23.362  21.939  1.00  0.00     0.021 C 
BRANCH  20  21
ATOM     21  C   UNL A   1      32.830  22.388  22.874  1.00  0.00    -0.002 C 
ATOM     22  C   UNL A   1      31.373  22.740  23.128  1.00  0.00     0.004 C 
ENDBRANCH  20  21
ENDBRANCH  19  20
ENDBRANCH  16  19
ENDBRANCH   6  15
ENDBRANCH   3   5
ENDBRANCH   2   3
ENDBRANCH   1   2
BRANCH   1  23
ATOM     23  C   UNL A   1      31.510  30.757  25.666  1.00  0.00     0.275 C 
BRANCH  23  24
ATOM     24  O   UNL A   1      32.572  30.455  26.585  1.00  0.00    -0.458 OA
BRANCH  24  25
ATOM     25  C   UNL A   1      33.107  31.534  27.198  1.00  0.00     0.338 C 
ATOM     26  O   UNL A   1      32.550  32.585  27.462  1.00  0.00    -0.246 OA
BRANCH  25  27
ATOM     27  C   UNL A   1      34.498  31.249  27.571  1.00  0.00     0.060 A 
ATOM     28  C   UNL A   1      34.852  29.946  27.904  1.00  0.00     0.016 A 
ATOM     29  C   UNL A   1      35.385  32.299  27.793  1.00  0.00     0.016 A 
ATOM     30  C   UNL A   1      36.023  29.714  28.620  1.00  0.00     0.010 A 
ATOM     31  C   UNL A   1      36.629  32.032  28.371  1.00  0.00     0.010 A 
ATOM     32  C   UNL A   1      36.945  30.744  28.843  1.00  0.00    -0.014 A 
BRANCH  32  33
ATOM     33  C   UNL A   1      38.222  30.501  29.579  1.00  0.00     0.031 A 
ATOM     34  C   UNL A   1      39.275  29.603  28.979  1.00  0.00     0.074 A 
ATOM     35  C   UNL A   1      38.433  31.048  30.795  1.00  0.00     0.049 A 
ATOM     36  N   UNL A   1      40.267  28.980  29.563  1.00  0.00    -0.248 NA
ATOM     37  C   UNL A   1      39.179  29.354  27.533  1.00  0.00     0.031 C 
ATOM     38  C   UNL A   1      37.552  32.008  31.464  1.00  0.00     0.029 A 
ATOM     39  N   UNL A   1      39.454  30.862  31.695  1.00  0.00    -0.354 N 
ATOM     40  C   UNL A   1      40.866  28.204  28.573  1.00  0.00     0.074 A 
ATOM     41  C   UNL A   1      40.121  28.439  27.353  1.00  0.00     0.031 C 
ATOM     42  C   UNL A   1      38.080  32.345  32.648  1.00  0.00     0.029 A 
ATOM     43  C   UNL A   1      39.255  31.520  32.887  1.00  0.00     0.049 A 
ATOM     44  H   UNL A   1      40.250  30.314  31.506  1.00  0.00     0.167 HD
ATOM     45  C   UNL A   1      41.928  27.367  28.688  1.00  0.00     0.034 A 
ATOM     46  C   UNL A   1      39.879  31.411  34.076  1.00  0.00     0.034 A 
ATOM     47  C   UNL A   1      42.677  27.199  29.912  1.00  0.00     0.049 A 
ATOM     48  C   UNL A   1      41.003  30.421  34.210  1.00  0.00     0.074 A 
ATOM     49  C   UNL A   1      43.776  26.390  30.149  1.00  0.00     0.029 A 
ATOM     50  N   UNL A   1      42.414  27.862  31.105  1.00  0.00    -0.354 N 
ATOM     51  N   UNL A   1      41.496  29.607  33.305  1.00  0.00    -0.248 NA
ATOM     52  C   UNL A   1      41.645  30.324  35.526  1.00  0.00     0.031 C 
ATOM     53  C   UNL A   1      44.130  26.510  31.497  1.00  0.00     0.029 A 
ATOM     54  C   UNL A   1      43.311  27.462  32.084  1.00  0.00     0.049 A 
ATOM     55  H   UNL A   1      41.694  28.521  31.235  1.00  0.00     0.167 HD
ATOM     56  C   UNL A   1      42.529  28.923  33.936  1.00  0.00     0.074 A 
ATOM     57  C   UNL A   1      42.589  29.423  35.295  1.00  0.00     0.031 C 
ATOM     58  C   UNL A   1      43.357  27.973  33.434  1.00  0.00     0.034 A 
BRANCH  45  59
ATOM     59  C   UNL A   1      42.292  26.515  27.490  1.00  0.00     0.023 A 
ATOM     60  C   UNL A   1      41.889  25.175  27.362  1.00  0.00     0.031 A 
ATOM     61  C   UNL A   1      43.081  27.061  26.458  1.00  0.00     0.131 A 
ATOM     62  C   UNL A   1      42.331  24.410  26.270  1.00  0.00     0.055 A 
ATOM     63  C   UNL A   1      43.447  26.320  25.333  1.00  0.00     0.041 A 
ATOM     64  F   UNL A   1      43.520  28.328  26.531  1.00  0.00    -0.206 F 
ATOM     65  C   UNL A   1      43.085  24.981  25.241  1.00  0.00     0.022 A 
BRANCH  62  66
ATOM     66  S   UNL A   1      42.034  22.620  26.282  1.00  0.00     0.124 S 
ATOM     67  O   UNL A   1      42.740  22.211  27.495  1.00  0.00    -0.237 OA
ATOM     68  O   UNL A   1      40.580  22.541  26.331  1.00  0.00    -0.237 OA
ATOM     69  O   UNL A   1      42.643  22.161  25.035  1.00  0.00    -0.744 OA
ENDBRANCH  62  66
ENDBRANCH  45  59
BRANCH  46  70
ATOM     70  C   UNL A   1      39.391  32.191  35.250  1.00  0.00     0.023 A 
ATOM     71  C   UNL A   1      39.812  33.510  35.467  1.00  0.00     0.031 A 
ATOM     72  C   UNL A   1      38.496  31.624  36.178  1.00  0.00     0.131 A 
ATOM     73  C   UNL A   1      39.362  34.208  36.599  1.00  0.00     0.055 A 
ATOM     74  C   UNL A   1      38.002  32.343  37.265  1.00  0.00     0.041 A 
ATOM     75  F   UNL A   1      38.062  30.362  36.021  1.00  0.00    -0.206 F 
ATOM     76  C   UNL A   1      38.445  33.643  37.487  1.00  0.00     0.022 A 
BRANCH  73  77
ATOM     77  S   UNL A   1      40.062  35.845  36.941  1.00  0.00     0.124 S 
ATOM     78  O   UNL A   1      39.313  36.246  38.127  1.00  0.00    -0.237 OA
ATOM     79  O   UNL A   1      41.473  35.536  37.146  1.00  0.00    -0.237 OA
ATOM     80  O   UNL A   1      39.762  36.604  35.728  1.00  0.00    -0.744 OA
ENDBRANCH  73  77
ENDBRANCH  46  70
BRANCH  58  81
ATOM     81  C   UNL A   1      44.453  27.474  34.342  1.00  0.00     0.023 A 
ATOM     82  C   UNL A   1      44.285  26.351  35.168  1.00  0.00     0.031 A 
ATOM     83  C   UNL A   1      45.689  28.146  34.376  1.00  0.00     0.131 A 
ATOM     84  C   UNL A   1      45.321  25.960  36.030  1.00  0.00     0.055 A 
ATOM     85  C   UNL A   1      46.735  27.718  35.192  1.00  0.00     0.041 A 
ATOM     86  F   UNL A   1      45.899  29.229  33.611  1.00  0.00    -0.206 F 
ATOM     87  C   UNL A   1      46.551  26.625  36.034  1.00  0.00     0.022 A 
BRANCH  84  88
ATOM     88  S   UNL A   1      45.016  24.617  37.211  1.00  0.00     0.124 S 
ATOM     89  O   UNL A   1      46.273  24.574  37.952  1.00  0.00    -0.237 OA
ATOM     90  O   UNL A   1      43.857  25.107  37.950  1.00  0.00    -0.237 OA
ATOM     91  O   UNL A   1      44.761  23.460  36.356  1.00  0.00    -0.744 OA
ENDBRANCH  84  88
ENDBRANCH  58  81
ENDBRANCH  32  33
ENDBRANCH  25  27
ENDBRANCH  24  25
ENDBRANCH  23  24
ENDBRANCH   1  23
TORSDOF 18
ENDMDL
MODEL 3
REMARK VINA RESULT:     -11.0      1.798      2.230
REMARK SMILES CCCCNC(=O)c1c(Cl)c(Cl)c(Cl)c(Cl)c1C(=O)OCCOC(=O)c1ccc(-c2c3nc(c(-c4cc(S(=O)(=O)[O-])ccc4F)c4ccc([nH]4)c(-c4cc(S(=O)(=O)[O-])ccc4F)c4nc(c(-c5cc(S(=O)(=O)[O-])ccc5F)c5ccc2[nH]5)C=C4)C=C3)cc1
REMARK SMILES IDX 21 1 20 2 18 3 19 4 17 5 8 6 9 7 10 8 11 9 15 10 12 11 13 12
REMARK SMILES IDX 16 13 14 14 6 15 5 16 7 18 4 19 3 20 2 21 1 22 22 23 23 24
REMARK SMILES IDX 24 25 25 26 26 27 27 28 88 29 28 30 87 31 29 32 30 33 31 34
REMARK SMILES IDX 81 35 32 36 86 37 80 38 82 39 33 40 85 41 79 42 78 43 34 45
REMARK SMILES IDX 66 46 46 47 65 48 47 49 50 50 64 51 83 52 48 53 49 54 63 56
REMARK SMILES IDX 84 57 51 58 35 59 36 60 44 61 37 62 43 63 45 64 42 65 38 66
REMARK SMILES IDX 39 67 40 68 41 69 67 70 68 71 76 72 69 73 75 74 77 75 74 76
REMARK SMILES IDX 70 77 71 78 72 79 73 80 52 81 53 82 61 83 54 84 60 85 62 86
REMARK SMILES IDX 59 87 55 88 56 89 57 90 58 91
REMARK H PARENT 5 17 82 44 50 55
REMARK Flexibility Score: inf
ROOT
ATOM      1  C   UNL A   1      33.054  29.389  24.825  1.00  0.00     0.275 C 
ENDROOT
BRANCH   1   2
ATOM      2  O   UNL A   1      32.605  28.342  23.932  1.00  0.00    -0.458 OA
BRANCH   2   3
ATOM      3  C   UNL A   1      33.588  27.634  23.335  1.00  0.00     0.340 C 
ATOM      4  O   UNL A   1      34.376  28.039  22.494  1.00  0.00    -0.246 OA
BRANCH   3   5
ATOM      5  C   UNL A   1      33.568  26.199  23.682  1.00  0.00     0.094 A 
ATOM      6  C   UNL A   1      33.228  25.272  22.693  1.00  0.00     0.076 A 
ATOM      7  C   UNL A   1      33.643  23.935  22.784  1.00  0.00     0.074 A 
ATOM      8  Cl  UNL A   1      33.260  22.824  21.502  1.00  0.00    -0.082 Cl
ATOM      9  C   UNL A   1      34.368  23.509  23.910  1.00  0.00     0.080 A 
ATOM     10  C   UNL A   1      34.187  25.746  24.853  1.00  0.00     0.076 A 
ATOM     11  Cl  UNL A   1      34.911  21.860  24.024  1.00  0.00    -0.081 Cl
ATOM     12  C   UNL A   1      34.610  24.408  24.962  1.00  0.00     0.080 A 
ATOM     13  Cl  UNL A   1      34.271  26.775  26.234  1.00  0.00    -0.082 Cl
ATOM     14  Cl  UNL A   1      35.453  23.874  26.391  1.00  0.00    -0.081 Cl
BRANCH   6  15
ATOM     15  C   UNL A   1      32.300  25.689  21.634  1.00  0.00     0.253 C 
ATOM     16  N   UNL A   1      30.959  25.700  21.940  1.00  0.00    -0.352 N 
ATOM     17  H   UNL A   1      30.365  26.102  21.266  1.00  0.00     0.163 HD
ATOM     18  O   UNL A   1      32.729  26.048  20.547  1.00  0.00    -0.269 OA
BRANCH  16  19
ATOM     19  C   UNL A   1      30.311  25.188  23.141  1.00  0.00     0.116 C 
BRANCH  19  20
ATOM     20  C   UNL A   1      29.811  26.274  24.086  1.00  0.00     0.021 C 
BRANCH  20  21
ATOM     21  C   UNL A   1      30.507  26.341  25.446  1.00  0.00    -0.002 C 
ATOM     22  C   UNL A   1      30.696  24.987  26.109  1.00  0.00     0.004 C 
ENDBRANCH  20  21
ENDBRANCH  19  20
ENDBRANCH  16  19
ENDBRANCH   6  15
ENDBRANCH   3   5
ENDBRANCH   2   3
ENDBRANCH   1   2
BRANCH   1  23
ATOM     23  C   UNL A   1      31.915  29.937  25.681  1.00  0.00     0.275 C 
BRANCH  23  24
ATOM     24  O   UNL A   1      32.362  30.127  27.032  1.00  0.00    -0.458 OA
BRANCH  24  25
ATOM     25  C   UNL A   1      32.978  31.308  27.258  1.00  0.00     0.338 C 
ATOM     26  O   UNL A   1      32.480  32.419  27.226  1.00  0.00    -0.246 OA
BRANCH  25  27
ATOM     27  C   UNL A   1      34.382  31.071  27.617  1.00  0.00     0.060 A 
ATOM     28  C   UNL A   1      34.771  29.793  28.005  1.00  0.00     0.016 A 
ATOM     29  C   UNL A   1      35.250  32.149  27.769  1.00  0.00     0.016 A 
ATOM     30  C   UNL A   1      35.960  29.621  28.708  1.00  0.00     0.010 A 
ATOM     31  C   UNL A   1      36.510  31.936  28.335  1.00  0.00     0.010 A 
ATOM     32  C   UNL A   1      36.863  30.680  28.862  1.00  0.00    -0.014 A 
BRANCH  32  33
ATOM     33  C   UNL A   1      38.159  30.499  29.584  1.00  0.00     0.031 A 
ATOM     34  C   UNL A   1      39.237  29.630  28.985  1.00  0.00     0.074 A 
ATOM     35  C   UNL A   1      38.367  31.079  30.785  1.00  0.00     0.049 A 
ATOM     36  N   UNL A   1      40.260  29.057  29.566  1.00  0.00    -0.248 NA
ATOM     37  C   UNL A   1      39.130  29.348  27.546  1.00  0.00     0.031 C 
ATOM     38  C   UNL A   1      37.460  32.017  31.449  1.00  0.00     0.029 A 
ATOM     39  N   UNL A   1      39.408  30.949  31.673  1.00  0.00    -0.354 N 
ATOM     40  C   UNL A   1      40.873  28.283  28.582  1.00  0.00     0.074 A 
ATOM     41  C   UNL A   1      40.103  28.466  27.369  1.00  0.00     0.031 C 
ATOM     42  C   UNL A   1      37.992  32.398  32.618  1.00  0.00     0.029 A 
ATOM     43  C   UNL A   1      39.200  31.623  32.855  1.00  0.00     0.049 A 
ATOM     44  H   UNL A   1      40.221  30.427  31.483  1.00  0.00     0.167 HD
ATOM     45  C   UNL A   1      41.968  27.489  28.697  1.00  0.00     0.034 A 
ATOM     46  C   UNL A   1      39.846  31.561  34.036  1.00  0.00     0.034 A 
ATOM     47  C   UNL A   1      42.741  27.374  29.913  1.00  0.00     0.049 A 
ATOM     48  C   UNL A   1      41.008  30.617  34.172  1.00  0.00     0.074 A 
ATOM     49  C   UNL A   1      43.872  26.612  30.149  1.00  0.00     0.029 A 
ATOM     50  N   UNL A   1      42.470  28.051  31.097  1.00  0.00    -0.354 N 
ATOM     51  N   UNL A   1      41.519  29.804  33.276  1.00  0.00    -0.248 NA
ATOM     52  C   UNL A   1      41.672  30.570  35.480  1.00  0.00     0.031 C 
ATOM     53  C   UNL A   1      44.241  26.772  31.489  1.00  0.00     0.029 A 
ATOM     54  C   UNL A   1      43.395  27.705  32.069  1.00  0.00     0.049 A 
ATOM     55  H   UNL A   1      41.727  28.685  31.225  1.00  0.00     0.167 HD
ATOM     56  C   UNL A   1      42.585  29.172  33.904  1.00  0.00     0.074 A 
ATOM     57  C   UNL A   1      42.646  29.701  35.252  1.00  0.00     0.031 C 
ATOM     58  C   UNL A   1      43.442  28.244  33.409  1.00  0.00     0.034 A 
BRANCH  45  59
ATOM     59  C   UNL A   1      42.347  26.628  27.511  1.00  0.00     0.023 A 
ATOM     60  C   UNL A   1      41.942  25.289  27.387  1.00  0.00     0.031 A 
ATOM     61  C   UNL A   1      43.151  27.164  26.486  1.00  0.00     0.131 A 
ATOM     62  C   UNL A   1      42.398  24.515  26.306  1.00  0.00     0.055 A 
ATOM     63  C   UNL A   1      43.531  26.415  25.371  1.00  0.00     0.041 A 
ATOM     64  F   UNL A   1      43.592  28.431  26.556  1.00  0.00    -0.206 F 
ATOM     65  C   UNL A   1      43.167  25.076  25.284  1.00  0.00     0.022 A 
BRANCH  62  66
ATOM     66  S   UNL A   1      42.096  22.725  26.327  1.00  0.00     0.124 S 
ATOM     67  O   UNL A   1      42.671  22.313  25.048  1.00  0.00    -0.237 OA
ATOM     68  O   UNL A   1      42.818  22.296  27.519  1.00  0.00    -0.237 OA
ATOM     69  O   UNL A   1      40.640  22.622  26.407  1.00  0.00    -0.744 OA
ENDBRANCH  62  66
ENDBRANCH  45  59
BRANCH  46  70
ATOM     70  C   UNL A   1      39.345  32.345  35.202  1.00  0.00     0.023 A 
ATOM     71  C   UNL A   1      39.804  33.647  35.448  1.00  0.00     0.031 A 
ATOM     72  C   UNL A   1      38.400  31.800  36.093  1.00  0.00     0.131 A 
ATOM     73  C   UNL A   1      39.341  34.348  36.572  1.00  0.00     0.055 A 
ATOM     74  C   UNL A   1      37.895  32.525  37.171  1.00  0.00     0.041 A 
ATOM     75  F   UNL A   1      37.929  30.556  35.907  1.00  0.00    -0.206 F 
ATOM     76  C   UNL A   1      38.375  33.806  37.423  1.00  0.00     0.022 A 
BRANCH  73  77
ATOM     77  S   UNL A   1      40.085  35.956  36.956  1.00  0.00     0.124 S 
ATOM     78  O   UNL A   1      39.761  36.726  35.760  1.00  0.00    -0.237 OA
ATOM     79  O   UNL A   1      39.379  36.335  38.175  1.00  0.00    -0.237 OA
ATOM     80  O   UNL A   1      41.503  35.642  37.131  1.00  0.00    -0.744 OA
ENDBRANCH  73  77
ENDBRANCH  46  70
BRANCH  58  81
ATOM     81  C   UNL A   1      44.568  27.805  34.309  1.00  0.00     0.023 A 
ATOM     82  C   UNL A   1      44.445  26.711  35.181  1.00  0.00     0.031 A 
ATOM     83  C   UNL A   1      45.789  28.505  34.289  1.00  0.00     0.131 A 
ATOM     84  C   UNL A   1      45.508  26.377  36.034  1.00  0.00     0.055 A 
ATOM     85  C   UNL A   1      46.863  28.131  35.096  1.00  0.00     0.041 A 
ATOM     86  F   UNL A   1      45.957  29.561  33.478  1.00  0.00    -0.206 F 
ATOM     87  C   UNL A   1      46.722  27.067  35.983  1.00  0.00     0.022 A 
BRANCH  84  88
ATOM     88  S   UNL A   1      45.260  25.074  37.271  1.00  0.00     0.124 S 
ATOM     89  O   UNL A   1      46.199  24.049  36.824  1.00  0.00    -0.237 OA
ATOM     90  O   UNL A   1      45.605  25.754  38.515  1.00  0.00    -0.237 OA
ATOM     91  O   UNL A   1      43.848  24.726  37.126  1.00  0.00    -0.744 OA
ENDBRANCH  84  88
ENDBRANCH  58  81
ENDBRANCH  32  33
ENDBRANCH  25  27
ENDBRANCH  24  25
ENDBRANCH  23  24
ENDBRANCH   1  23
TORSDOF 18
ENDMDL
