MODEL 1
REMARK VINA RESULT:     -12.5      0.000      0.000
REMARK SMILES COC(=O)c1ccc(C)c(NC(=O)[C@H]2CC=CC[C@H]2C(=O)OCCOC(=O)c2ccc(-c3c4nc(c(-c5cc(S(=O)(=O)[O-])ccc5F)c5ccc([nH]5)c(-c5cc(S(=O)(=O)[O-])ccc5F)c5nc(c(-c6cc(S(=O)(=O)[O-])ccc6F)c6ccc3[nH]6)C=C5)C=C4)cc2)c1
REMARK SMILES IDX 23 1 22 2 20 3 21 4 19 5 14 6 15 7 16 8 18 9 17 10 12 11
REMARK SMILES IDX 11 12 13 14 10 15 5 16 6 17 91 18 7 19 8 20 9 21 3 22 4 23
REMARK SMILES IDX 2 24 1 25 24 26 25 27 26 28 27 29 28 30 29 31 90 32 30 33
REMARK SMILES IDX 89 34 31 35 32 36 33 37 83 38 34 39 88 40 82 41 84 42 35 43
REMARK SMILES IDX 87 44 81 45 80 46 36 48 68 49 48 50 67 51 49 52 52 53 66 54
REMARK SMILES IDX 85 55 50 56 51 57 65 59 86 60 53 61 37 62 38 63 46 64 39 65
REMARK SMILES IDX 45 66 47 67 44 68 40 69 41 70 42 71 43 72 69 73 70 74 78 75
REMARK SMILES IDX 71 76 77 77 79 78 76 79 72 80 73 81 74 82 75 83 54 84 55 85
REMARK SMILES IDX 63 86 56 87 62 88 64 89 61 90 57 91 58 92 59 93 60 94
REMARK H PARENT 11 13 84 47 52 58
REMARK Flexibility Score: inf
ROOT
ATOM      1  C   UNL A   1      34.174  29.175  25.957  1.00  0.00     0.274 C 
ENDROOT
BRANCH   1   2
ATOM      2  O   UNL A   1      34.085  27.862  25.391  1.00  0.00    -0.462 OA
BRANCH   2   3
ATOM      3  C   UNL A   1      32.846  27.293  25.314  1.00  0.00     0.310 C 
ATOM      4  O   UNL A   1      31.818  27.829  25.653  1.00  0.00    -0.252 OA
BRANCH   3   5
ATOM      5  C   UNL A   1      32.999  25.872  24.766  1.00  0.00     0.116 C 
ATOM      6  C   UNL A   1      32.658  25.781  23.263  1.00  0.00     0.097 C 
ATOM      7  C   UNL A   1      33.344  24.677  22.447  1.00  0.00     0.041 C 
ATOM      8  C   UNL A   1      34.367  23.854  23.156  1.00  0.00    -0.030 C 
ATOM      9  C   UNL A   1      34.329  25.259  25.219  1.00  0.00     0.043 C 
ATOM     10  C   UNL A   1      34.803  24.108  24.393  1.00  0.00    -0.030 C 
BRANCH   6  11
ATOM     11  C   UNL A   1      32.698  27.099  22.530  1.00  0.00     0.228 C 
ATOM     12  N   UNL A   1      31.659  27.970  22.439  1.00  0.00    -0.326 N 
ATOM     13  H   UNL A   1      31.976  28.808  22.030  1.00  0.00     0.169 HD
ATOM     14  O   UNL A   1      33.769  27.497  22.050  1.00  0.00    -0.274 OA
BRANCH  12  15
ATOM     15  C   UNL A   1      30.272  28.092  22.729  1.00  0.00     0.044 A 
ATOM     16  C   UNL A   1      28.481  29.824  22.657  1.00  0.00     0.062 A 
ATOM     17  C   UNL A   1      27.559  28.921  23.150  1.00  0.00     0.016 A 
ATOM     18  C   UNL A   1      29.800  29.392  22.416  1.00  0.00     0.042 A 
ATOM     19  C   UNL A   1      27.986  27.630  23.448  1.00  0.00     0.006 A 
ATOM     20  C   UNL A   1      29.334  27.197  23.274  1.00  0.00    -0.027 A 
ATOM     21  C   UNL A   1      29.575  25.813  23.800  1.00  0.00     0.046 C 
BRANCH  16  22
ATOM     22  C   UNL A   1      28.069  31.246  22.492  1.00  0.00     0.337 C 
ATOM     23  O   UNL A   1      27.283  31.834  23.213  1.00  0.00    -0.246 OA
BRANCH  22  24
ATOM     24  O   UNL A   1      28.715  31.814  21.443  1.00  0.00    -0.465 OA
ATOM     25  C   UNL A   1      27.820  32.421  20.516  1.00  0.00     0.282 C 
ENDBRANCH  22  24
ENDBRANCH  16  22
ENDBRANCH  12  15
ENDBRANCH   6  11
ENDBRANCH   3   5
ENDBRANCH   2   3
ENDBRANCH   1   2
BRANCH   1  26
ATOM     26  C   UNL A   1      34.717  29.116  27.402  1.00  0.00     0.275 C 
BRANCH  26  27
ATOM     27  O   UNL A   1      35.255  30.361  27.988  1.00  0.00    -0.458 OA
BRANCH  27  28
ATOM     28  C   UNL A   1      35.945  30.613  29.145  1.00  0.00     0.338 C 
ATOM     29  O   UNL A   1      35.497  31.290  30.063  1.00  0.00    -0.246 OA
BRANCH  28  30
ATOM     30  C   UNL A   1      37.216  29.910  29.314  1.00  0.00     0.060 A 
ATOM     31  C   UNL A   1      37.518  29.015  30.353  1.00  0.00     0.016 A 
ATOM     32  C   UNL A   1      38.091  30.081  28.278  1.00  0.00     0.016 A 
ATOM     33  C   UNL A   1      38.677  28.241  30.242  1.00  0.00     0.010 A 
ATOM     34  C   UNL A   1      38.873  29.029  27.956  1.00  0.00     0.010 A 
ATOM     35  C   UNL A   1      39.333  28.255  29.010  1.00  0.00    -0.014 A 
BRANCH  35  36
ATOM     36  C   UNL A   1      40.675  27.790  28.688  1.00  0.00     0.031 A 
ATOM     37  C   UNL A   1      40.827  26.392  28.303  1.00  0.00     0.074 A 
ATOM     38  C   UNL A   1      41.568  28.806  28.563  1.00  0.00     0.049 A 
ATOM     39  N   UNL A   1      41.371  25.455  29.005  1.00  0.00    -0.248 NA
ATOM     40  C   UNL A   1      40.196  25.913  27.069  1.00  0.00     0.031 C 
ATOM     41  C   UNL A   1      42.908  28.903  28.028  1.00  0.00     0.029 A 
ATOM     42  N   UNL A   1      41.337  30.107  29.006  1.00  0.00    -0.354 N 
ATOM     43  C   UNL A   1      41.581  24.442  28.085  1.00  0.00     0.074 A 
ATOM     44  C   UNL A   1      40.570  24.630  27.064  1.00  0.00     0.031 C 
ATOM     45  C   UNL A   1      43.462  30.061  28.464  1.00  0.00     0.029 A 
ATOM     46  C   UNL A   1      42.507  30.766  29.315  1.00  0.00     0.049 A 
ATOM     47  H   UNL A   1      40.442  30.508  29.088  1.00  0.00     0.167 HD
ATOM     48  C   UNL A   1      42.851  23.987  27.841  1.00  0.00     0.034 A 
ATOM     49  C   UNL A   1      42.603  31.118  30.632  1.00  0.00     0.034 A 
ATOM     50  C   UNL A   1      43.837  24.907  28.419  1.00  0.00     0.049 A 
ATOM     51  C   UNL A   1      43.328  30.008  31.365  1.00  0.00     0.074 A 
ATOM     52  C   UNL A   1      44.663  25.856  27.838  1.00  0.00     0.029 A 
ATOM     53  N   UNL A   1      43.823  25.190  29.777  1.00  0.00    -0.354 N 
ATOM     54  N   UNL A   1      43.619  28.850  30.835  1.00  0.00    -0.248 NA
ATOM     55  C   UNL A   1      43.817  30.133  32.728  1.00  0.00     0.031 C 
ATOM     56  C   UNL A   1      45.104  26.742  28.861  1.00  0.00     0.029 A 
ATOM     57  C   UNL A   1      44.543  26.336  30.061  1.00  0.00     0.049 A 
ATOM     58  H   UNL A   1      43.361  24.643  30.454  1.00  0.00     0.167 HD
ATOM     59  C   UNL A   1      44.295  28.077  31.727  1.00  0.00     0.074 A 
ATOM     60  C   UNL A   1      44.440  28.952  32.885  1.00  0.00     0.031 C 
ATOM     61  C   UNL A   1      44.667  26.789  31.441  1.00  0.00     0.034 A 
BRANCH  48  62
ATOM     62  C   UNL A   1      43.192  22.994  26.748  1.00  0.00     0.023 A 
ATOM     63  C   UNL A   1      42.859  21.633  26.906  1.00  0.00     0.031 A 
ATOM     64  C   UNL A   1      43.771  23.338  25.507  1.00  0.00     0.131 A 
ATOM     65  C   UNL A   1      43.170  20.679  25.920  1.00  0.00     0.055 A 
ATOM     66  C   UNL A   1      44.114  22.383  24.538  1.00  0.00     0.041 A 
ATOM     67  F   UNL A   1      43.996  24.618  25.172  1.00  0.00    -0.206 F 
ATOM     68  C   UNL A   1      43.819  21.043  24.743  1.00  0.00     0.022 A 
BRANCH  65  69
ATOM     69  S   UNL A   1      42.670  18.956  26.184  1.00  0.00     0.124 S 
ATOM     70  O   UNL A   1      43.726  18.221  25.497  1.00  0.00    -0.237 OA
ATOM     71  O   UNL A   1      42.654  18.856  27.640  1.00  0.00    -0.237 OA
ATOM     72  O   UNL A   1      41.353  18.882  25.550  1.00  0.00    -0.744 OA
ENDBRANCH  65  69
ENDBRANCH  48  62
BRANCH  49  73
ATOM     73  C   UNL A   1      41.333  31.813  31.103  1.00  0.00     0.023 A 
ATOM     74  C   UNL A   1      40.488  31.068  31.967  1.00  0.00     0.031 A 
ATOM     75  C   UNL A   1      41.160  33.207  31.095  1.00  0.00     0.131 A 
ATOM     76  C   UNL A   1      39.672  31.713  32.914  1.00  0.00     0.055 A 
ATOM     77  C   UNL A   1      40.274  33.842  31.985  1.00  0.00     0.041 A 
ATOM     78  F   UNL A   1      41.920  33.990  30.317  1.00  0.00    -0.206 F 
ATOM     79  C   UNL A   1      39.562  33.101  32.930  1.00  0.00     0.022 A 
BRANCH  76  80
ATOM     80  S   UNL A   1      39.046  30.756  34.336  1.00  0.00     0.124 S 
ATOM     81  O   UNL A   1      38.454  29.592  33.690  1.00  0.00    -0.237 OA
ATOM     82  O   UNL A   1      40.256  30.513  35.116  1.00  0.00    -0.237 OA
ATOM     83  O   UNL A   1      38.113  31.686  34.970  1.00  0.00    -0.744 OA
ENDBRANCH  76  80
ENDBRANCH  49  73
BRANCH  61  84
ATOM     84  C   UNL A   1      45.282  25.846  32.441  1.00  0.00     0.023 A 
ATOM     85  C   UNL A   1      44.521  24.920  33.151  1.00  0.00     0.031 A 
ATOM     86  C   UNL A   1      46.674  25.836  32.708  1.00  0.00     0.131 A 
ATOM     87  C   UNL A   1      45.078  24.198  34.209  1.00  0.00     0.055 A 
ATOM     88  C   UNL A   1      47.255  24.993  33.654  1.00  0.00     0.041 A 
ATOM     89  F   UNL A   1      47.529  26.653  32.076  1.00  0.00    -0.206 F 
ATOM     90  C   UNL A   1      46.448  24.199  34.450  1.00  0.00     0.022 A 
BRANCH  87  91
ATOM     91  S   UNL A   1      43.924  23.425  35.366  1.00  0.00     0.124 S 
ATOM     92  O   UNL A   1      44.163  24.201  36.581  1.00  0.00    -0.237 OA
ATOM     93  O   UNL A   1      42.634  23.648  34.721  1.00  0.00    -0.237 OA
ATOM     94  O   UNL A   1      44.370  22.035  35.416  1.00  0.00    -0.744 OA
ENDBRANCH  87  91
ENDBRANCH  61  84
ENDBRANCH  35  36
ENDBRANCH  28  30
ENDBRANCH  27  28
ENDBRANCH  26  27
ENDBRANCH   1  26
TORSDOF 18
ENDMDL
MODEL 2
REMARK VINA RESULT:     -12.3      1.694      3.594
REMARK SMILES COC(=O)c1ccc(C)c(NC(=O)[C@H]2CC=CC[C@H]2C(=O)OCCOC(=O)c2ccc(-c3c4nc(c(-c5cc(S(=O)(=O)[O-])ccc5F)c5ccc([nH]5)c(-c5cc(S(=O)(=O)[O-])ccc5F)c5nc(c(-c6cc(S(=O)(=O)[O-])ccc6F)c6ccc3[nH]6)C=C5)C=C4)cc2)c1
REMARK SMILES IDX 23 1 22 2 20 3 21 4 19 5 14 6 15 7 16 8 18 9 17 10 12 11
REMARK SMILES IDX 11 12 13 14 10 15 5 16 6 17 91 18 7 19 8 20 9 21 3 22 4 23
REMARK SMILES IDX 2 24 1 25 24 26 25 27 26 28 27 29 28 30 29 31 90 32 30 33
REMARK SMILES IDX 89 34 31 35 32 36 33 37 83 38 34 39 88 40 82 41 84 42 35 43
REMARK SMILES IDX 87 44 81 45 80 46 36 48 68 49 48 50 67 51 49 52 52 53 66 54
REMARK SMILES IDX 85 55 50 56 51 57 65 59 86 60 53 61 37 62 38 63 46 64 39 65
REMARK SMILES IDX 45 66 47 67 44 68 40 69 41 70 42 71 43 72 69 73 70 74 78 75
REMARK SMILES IDX 71 76 77 77 79 78 76 79 72 80 73 81 74 82 75 83 54 84 55 85
REMARK SMILES IDX 63 86 56 87 62 88 64 89 61 90 57 91 58 92 59 93 60 94
REMARK H PARENT 11 13 84 47 52 58
REMARK Flexibility Score: inf
ROOT
ATOM      1  C   UNL A   1      33.235  29.983  27.233  1.00  0.00     0.274 C 
ENDROOT
BRANCH   1   2
ATOM      2  O   UNL A   1      32.612  28.736  27.564  1.00  0.00    -0.462 OA
BRANCH   2   3
ATOM      3  C   UNL A   1      32.720  27.719  26.659  1.00  0.00     0.310 C 
ATOM      4  O   UNL A   1      33.714  27.057  26.479  1.00  0.00    -0.252 OA
BRANCH   3   5
ATOM      5  C   UNL A   1      31.392  27.597  25.908  1.00  0.00     0.116 C 
ATOM      6  C   UNL A   1      31.473  28.163  24.475  1.00  0.00     0.097 C 
ATOM      7  C   UNL A   1      30.524  27.567  23.424  1.00  0.00     0.041 C 
ATOM      8  C   UNL A   1      29.680  26.416  23.856  1.00  0.00    -0.030 C 
ATOM      9  C   UNL A   1      30.807  26.190  26.072  1.00  0.00     0.043 C 
ATOM     10  C   UNL A   1      29.800  25.804  25.037  1.00  0.00    -0.030 C 
BRANCH   6  11
ATOM     11  C   UNL A   1      32.873  28.288  23.927  1.00  0.00     0.228 C 
ATOM     12  N   UNL A   1      33.578  27.276  23.356  1.00  0.00    -0.326 N 
ATOM     13  H   UNL A   1      34.402  27.642  22.960  1.00  0.00     0.169 HD
ATOM     14  O   UNL A   1      33.412  29.403  23.883  1.00  0.00    -0.274 OA
BRANCH  12  15
ATOM     15  C   UNL A   1      33.539  25.872  23.133  1.00  0.00     0.044 A 
ATOM     16  C   UNL A   1      34.282  23.769  24.245  1.00  0.00     0.062 A 
ATOM     17  C   UNL A   1      33.776  23.015  23.205  1.00  0.00     0.016 A 
ATOM     18  C   UNL A   1      34.123  25.168  24.217  1.00  0.00     0.042 A 
ATOM     19  C   UNL A   1      33.177  23.674  22.135  1.00  0.00     0.006 A 
ATOM     20  C   UNL A   1      33.069  25.094  22.059  1.00  0.00    -0.027 A 
ATOM     21  C   UNL A   1      32.518  25.569  20.747  1.00  0.00     0.046 C 
BRANCH  16  22
ATOM     22  C   UNL A   1      35.066  23.081  25.309  1.00  0.00     0.337 C 
ATOM     23  O   UNL A   1      36.063  23.532  25.845  1.00  0.00    -0.246 OA
BRANCH  22  24
ATOM     24  O   UNL A   1      34.500  21.890  25.627  1.00  0.00    -0.465 OA
ATOM     25  C   UNL A   1      34.389  21.698  27.035  1.00  0.00     0.282 C 
ENDBRANCH  22  24
ENDBRANCH  16  22
ENDBRANCH  12  15
ENDBRANCH   6  11
ENDBRANCH   3   5
ENDBRANCH   2   3
ENDBRANCH   1   2
BRANCH   1  26
ATOM     26  C   UNL A   1      34.771  29.883  27.363  1.00  0.00     0.275 C 
BRANCH  26  27
ATOM     27  O   UNL A   1      35.385  30.302  28.640  1.00  0.00    -0.458 OA
BRANCH  27  28
ATOM     28  C   UNL A   1      36.313  29.709  29.455  1.00  0.00     0.338 C 
ATOM     29  O   UNL A   1      36.105  29.448  30.635  1.00  0.00    -0.246 OA
BRANCH  28  30
ATOM     30  C   UNL A   1      37.549  29.256  28.818  1.00  0.00     0.060 A 
ATOM     31  C   UNL A   1      37.998  29.648  27.547  1.00  0.00     0.016 A 
ATOM     32  C   UNL A   1      38.346  28.493  29.624  1.00  0.00     0.016 A 
ATOM     33  C   UNL A   1      39.309  29.324  27.180  1.00  0.00     0.010 A 
ATOM     34  C   UNL A   1      39.680  28.634  29.476  1.00  0.00     0.010 A 
ATOM     35  C   UNL A   1      40.142  28.828  28.184  1.00  0.00    -0.014 A 
BRANCH  35  36
ATOM     36  C   UNL A   1      41.429  28.159  28.050  1.00  0.00     0.031 A 
ATOM     37  C   UNL A   1      41.415  26.731  27.758  1.00  0.00     0.074 A 
ATOM     38  C   UNL A   1      42.469  29.029  27.979  1.00  0.00     0.049 A 
ATOM     39  N   UNL A   1      41.735  25.777  28.569  1.00  0.00    -0.248 NA
ATOM     40  C   UNL A   1      40.861  26.261  26.484  1.00  0.00     0.031 C 
ATOM     41  C   UNL A   1      43.860  28.901  27.604  1.00  0.00     0.029 A 
ATOM     42  N   UNL A   1      42.385  30.377  28.323  1.00  0.00    -0.354 N 
ATOM     43  C   UNL A   1      41.894  24.684  27.734  1.00  0.00     0.074 A 
ATOM     44  C   UNL A   1      41.042  24.941  26.591  1.00  0.00     0.031 C 
ATOM     45  C   UNL A   1      44.527  29.998  28.041  1.00  0.00     0.029 A 
ATOM     46  C   UNL A   1      43.597  30.887  28.734  1.00  0.00     0.049 A 
ATOM     47  H   UNL A   1      41.555  30.905  28.276  1.00  0.00     0.167 HD
ATOM     48  C   UNL A   1      43.103  24.041  27.667  1.00  0.00     0.034 A 
ATOM     49  C   UNL A   1      43.597  31.311  30.033  1.00  0.00     0.034 A 
ATOM     50  C   UNL A   1      44.143  24.851  28.310  1.00  0.00     0.049 A 
ATOM     51  C   UNL A   1      44.067  30.163  30.904  1.00  0.00     0.074 A 
ATOM     52  C   UNL A   1      45.159  25.633  27.784  1.00  0.00     0.029 A 
ATOM     53  N   UNL A   1      44.021  25.226  29.640  1.00  0.00    -0.354 N 
ATOM     54  N   UNL A   1      44.241  28.943  30.474  1.00  0.00    -0.248 NA
ATOM     55  C   UNL A   1      44.415  30.313  32.308  1.00  0.00     0.031 C 
ATOM     56  C   UNL A   1      45.609  26.517  28.804  1.00  0.00     0.029 A 
ATOM     57  C   UNL A   1      44.866  26.277  29.947  1.00  0.00     0.049 A 
ATOM     58  H   UNL A   1      43.412  24.797  30.284  1.00  0.00     0.167 HD
ATOM     59  C   UNL A   1      44.694  28.145  31.480  1.00  0.00     0.074 A 
ATOM     60  C   UNL A   1      44.836  29.069  32.599  1.00  0.00     0.031 C 
ATOM     61  C   UNL A   1      44.902  26.802  31.308  1.00  0.00     0.034 A 
BRANCH  48  62
ATOM     62  C   UNL A   1      43.413  22.937  26.676  1.00  0.00     0.023 A 
ATOM     63  C   UNL A   1      42.877  21.648  26.869  1.00  0.00     0.031 A 
ATOM     64  C   UNL A   1      44.163  23.113  25.492  1.00  0.00     0.131 A 
ATOM     65  C   UNL A   1      43.151  20.594  25.978  1.00  0.00     0.055 A 
ATOM     66  C   UNL A   1      44.467  22.055  24.622  1.00  0.00     0.041 A 
ATOM     67  F   UNL A   1      44.600  24.324  25.116  1.00  0.00    -0.206 F 
ATOM     68  C   UNL A   1      43.965  20.785  24.865  1.00  0.00     0.022 A 
BRANCH  65  69
ATOM     69  S   UNL A   1      42.388  18.976  26.277  1.00  0.00     0.124 S 
ATOM     70  O   UNL A   1      41.035  19.178  25.771  1.00  0.00    -0.237 OA
ATOM     71  O   UNL A   1      43.241  18.081  25.504  1.00  0.00    -0.237 OA
ATOM     72  O   UNL A   1      42.487  18.817  27.728  1.00  0.00    -0.744 OA
ENDBRANCH  65  69
ENDBRANCH  48  62
BRANCH  49  73
ATOM     73  C   UNL A   1      42.399  32.207  30.313  1.00  0.00     0.023 A 
ATOM     74  C   UNL A   1      41.306  31.608  30.993  1.00  0.00     0.031 A 
ATOM     75  C   UNL A   1      42.464  33.610  30.332  1.00  0.00     0.131 A 
ATOM     76  C   UNL A   1      40.458  32.372  31.814  1.00  0.00     0.055 A 
ATOM     77  C   UNL A   1      41.557  34.377  31.086  1.00  0.00     0.041 A 
ATOM     78  F   UNL A   1      43.467  34.261  29.724  1.00  0.00    -0.206 F 
ATOM     79  C   UNL A   1      40.581  33.759  31.868  1.00  0.00     0.022 A 
BRANCH  76  80
ATOM     80  S   UNL A   1      39.447  31.520  33.072  1.00  0.00     0.124 S 
ATOM     81  O   UNL A   1      38.109  32.019  32.782  1.00  0.00    -0.237 OA
ATOM     82  O   UNL A   1      39.686  30.111  32.775  1.00  0.00    -0.237 OA
ATOM     83  O   UNL A   1      40.044  31.968  34.329  1.00  0.00    -0.744 OA
ENDBRANCH  76  80
ENDBRANCH  49  73
BRANCH  61  84
ATOM     84  C   UNL A   1      45.258  25.853  32.421  1.00  0.00     0.023 A 
ATOM     85  C   UNL A   1      44.313  25.407  33.344  1.00  0.00     0.031 A 
ATOM     86  C   UNL A   1      46.571  25.347  32.587  1.00  0.00     0.131 A 
ATOM     87  C   UNL A   1      44.705  24.691  34.478  1.00  0.00     0.055 A 
ATOM     88  C   UNL A   1      46.924  24.495  33.632  1.00  0.00     0.041 A 
ATOM     89  F   UNL A   1      47.571  25.668  31.755  1.00  0.00    -0.206 F 
ATOM     90  C   UNL A   1      45.998  24.199  34.618  1.00  0.00     0.022 A 
BRANCH  87  91
ATOM     91  S   UNL A   1      43.517  24.602  35.837  1.00  0.00     0.124 S 
ATOM     92  O   UNL A   1      44.321  23.986  36.890  1.00  0.00    -0.237 OA
ATOM     93  O   UNL A   1      43.173  26.005  36.047  1.00  0.00    -0.237 OA
ATOM     94  O   UNL A   1      42.447  23.766  35.301  1.00  0.00    -0.744 OA
ENDBRANCH  87  91
ENDBRANCH  61  84
ENDBRANCH  35  36
ENDBRANCH  28  30
ENDBRANCH  27  28
ENDBRANCH  26  27
ENDBRANCH   1  26
TORSDOF 18
ENDMDL
MODEL 3
REMARK VINA RESULT:     -12.3      4.706     10.246
REMARK SMILES COC(=O)c1ccc(C)c(NC(=O)[C@H]2CC=CC[C@H]2C(=O)OCCOC(=O)c2ccc(-c3c4nc(c(-c5cc(S(=O)(=O)[O-])ccc5F)c5ccc([nH]5)c(-c5cc(S(=O)(=O)[O-])ccc5F)c5nc(c(-c6cc(S(=O)(=O)[O-])ccc6F)c6ccc3[nH]6)C=C5)C=C4)cc2)c1
REMARK SMILES IDX 23 1 22 2 20 3 21 4 19 5 14 6 15 7 16 8 18 9 17 10 12 11
REMARK SMILES IDX 11 12 13 14 10 15 5 16 6 17 91 18 7 19 8 20 9 21 3 22 4 23
REMARK SMILES IDX 2 24 1 25 24 26 25 27 26 28 27 29 28 30 29 31 90 32 30 33
REMARK SMILES IDX 89 34 31 35 32 36 33 37 83 38 34 39 88 40 82 41 84 42 35 43
REMARK SMILES IDX 87 44 81 45 80 46 36 48 68 49 48 50 67 51 49 52 52 53 66 54
REMARK SMILES IDX 85 55 50 56 51 57 65 59 86 60 53 61 37 62 38 63 46 64 39 65
REMARK SMILES IDX 45 66 47 67 44 68 40 69 41 70 42 71 43 72 69 73 70 74 78 75
REMARK SMILES IDX 71 76 77 77 79 78 76 79 72 80 73 81 74 82 75 83 54 84 55 85
REMARK SMILES IDX 63 86 56 87 62 88 64 89 61 90 57 91 58 92 59 93 60 94
REMARK H PARENT 11 13 84 47 52 58
REMARK Flexibility Score: inf
ROOT
ATOM      1  C   UNL A   1      37.105  22.947  26.392  1.00  0.00     0.274 C 
ENDROOT
BRANCH   1   2
ATOM      2  O   UNL A   1      36.369  23.775  25.485  1.00  0.00    -0.462 OA
BRANCH   2   3
ATOM      3  C   UNL A   1      35.401  23.177  24.730  1.00  0.00     0.310 C 
ATOM      4  O   UNL A   1      35.556  22.171  24.081  1.00  0.00    -0.252 OA
BRANCH   3   5
ATOM      5  C   UNL A   1      34.125  24.016  24.826  1.00  0.00     0.116 C 
ATOM      6  C   UNL A   1      32.976  23.261  25.529  1.00  0.00     0.097 C 
ATOM      7  C   UNL A   1      31.922  24.101  26.264  1.00  0.00     0.041 C 
ATOM      8  C   UNL A   1      32.159  25.573  26.326  1.00  0.00    -0.030 C 
ATOM      9  C   UNL A   1      34.444  25.428  25.330  1.00  0.00     0.043 C 
ATOM     10  C   UNL A   1      33.280  26.167  25.906  1.00  0.00    -0.030 C 
BRANCH   6  11
ATOM     11  C   UNL A   1      33.418  22.092  26.373  1.00  0.00     0.228 C 
ATOM     12  N   UNL A   1      33.424  20.796  25.963  1.00  0.00    -0.326 N 
ATOM     13  H   UNL A   1      33.880  20.246  26.642  1.00  0.00     0.169 HD
ATOM     14  O   UNL A   1      33.914  22.299  27.489  1.00  0.00    -0.274 OA
BRANCH  12  15
ATOM     15  C   UNL A   1      33.000  19.957  24.896  1.00  0.00     0.044 A 
ATOM     16  C   UNL A   1      32.879  17.529  24.345  1.00  0.00     0.062 A 
ATOM     17  C   UNL A   1      32.345  17.816  23.104  1.00  0.00     0.016 A 
ATOM     18  C   UNL A   1      33.158  18.588  25.231  1.00  0.00     0.042 A 
ATOM     19  C   UNL A   1      32.158  19.150  22.753  1.00  0.00     0.006 A 
ATOM     20  C   UNL A   1      32.498  20.236  23.612  1.00  0.00    -0.027 A 
ATOM     21  C   UNL A   1      32.339  21.574  22.953  1.00  0.00     0.046 C 
BRANCH  16  22
ATOM     22  C   UNL A   1      33.233  16.117  24.660  1.00  0.00     0.337 C 
ATOM     23  O   UNL A   1      32.491  15.313  25.194  1.00  0.00    -0.246 OA
BRANCH  22  24
ATOM     24  O   UNL A   1      34.493  15.834  24.243  1.00  0.00    -0.465 OA
ATOM     25  C   UNL A   1      35.440  15.867  25.307  1.00  0.00     0.282 C 
ENDBRANCH  22  24
ENDBRANCH  16  22
ENDBRANCH  12  15
ENDBRANCH   6  11
ENDBRANCH   3   5
ENDBRANCH   2   3
ENDBRANCH   1   2
BRANCH   1  26
ATOM     26  C   UNL A   1      38.624  23.070  26.142  1.00  0.00     0.275 C 
BRANCH  26  27
ATOM     27  O   UNL A   1      39.187  24.425  25.964  1.00  0.00    -0.458 OA
BRANCH  27  28
ATOM     28  C   UNL A   1      40.130  25.131  26.663  1.00  0.00     0.338 C 
ATOM     29  O   UNL A   1      41.324  25.117  26.387  1.00  0.00    -0.246 OA
BRANCH  28  30
ATOM     30  C   UNL A   1      39.633  26.041  27.695  1.00  0.00     0.060 A 
ATOM     31  C   UNL A   1      39.060  25.649  28.916  1.00  0.00     0.016 A 
ATOM     32  C   UNL A   1      39.891  27.360  27.449  1.00  0.00     0.016 A 
ATOM     33  C   UNL A   1      38.862  26.626  29.896  1.00  0.00     0.010 A 
ATOM     34  C   UNL A   1      40.159  28.141  28.516  1.00  0.00     0.010 A 
ATOM     35  C   UNL A   1      39.445  27.875  29.673  1.00  0.00    -0.014 A 
BRANCH  35  36
ATOM     36  C   UNL A   1      39.185  29.135  30.355  1.00  0.00     0.031 A 
ATOM     37  C   UNL A   1      38.291  30.081  29.697  1.00  0.00     0.074 A 
ATOM     38  C   UNL A   1      39.632  29.143  31.637  1.00  0.00     0.049 A 
ATOM     39  N   UNL A   1      38.628  31.198  29.140  1.00  0.00    -0.248 NA
ATOM     40  C   UNL A   1      36.885  29.721  29.492  1.00  0.00     0.031 C 
ATOM     41  C   UNL A   1      39.409  30.011  32.772  1.00  0.00     0.029 A 
ATOM     42  N   UNL A   1      40.524  28.207  32.158  1.00  0.00    -0.354 N 
ATOM     43  C   UNL A   1      37.422  31.861  28.991  1.00  0.00     0.074 A 
ATOM     44  C   UNL A   1      36.417  30.820  28.894  1.00  0.00     0.031 C 
ATOM     45  C   UNL A   1      40.364  29.758  33.701  1.00  0.00     0.029 A 
ATOM     46  C   UNL A   1      41.261  28.717  33.204  1.00  0.00     0.049 A 
ATOM     47  H   UNL A   1      40.616  27.288  31.818  1.00  0.00     0.167 HD
ATOM     48  C   UNL A   1      37.223  33.072  29.601  1.00  0.00     0.034 A 
ATOM     49  C   UNL A   1      42.603  28.768  32.952  1.00  0.00     0.034 A 
ATOM     50  C   UNL A   1      38.278  33.319  30.590  1.00  0.00     0.049 A 
ATOM     51  C   UNL A   1      42.925  30.136  32.385  1.00  0.00     0.074 A 
ATOM     52  C   UNL A   1      38.279  33.249  31.974  1.00  0.00     0.029 A 
ATOM     53  N   UNL A   1      39.611  33.337  30.206  1.00  0.00    -0.354 N 
ATOM     54  N   UNL A   1      42.024  31.012  32.032  1.00  0.00    -0.248 NA
ATOM     55  C   UNL A   1      44.281  30.635  32.216  1.00  0.00     0.031 C 
ATOM     56  C   UNL A   1      39.631  33.174  32.411  1.00  0.00     0.029 A 
ATOM     57  C   UNL A   1      40.451  33.193  31.296  1.00  0.00     0.049 A 
ATOM     58  H   UNL A   1      39.920  33.440  29.277  1.00  0.00     0.167 HD
ATOM     59  C   UNL A   1      42.619  32.153  31.589  1.00  0.00     0.074 A 
ATOM     60  C   UNL A   1      44.039  31.882  31.775  1.00  0.00     0.031 C 
ATOM     61  C   UNL A   1      41.896  33.210  31.101  1.00  0.00     0.034 A 
BRANCH  48  62
ATOM     62  C   UNL A   1      35.890  33.795  29.620  1.00  0.00     0.023 A 
ATOM     63  C   UNL A   1      35.354  34.247  30.842  1.00  0.00     0.031 A 
ATOM     64  C   UNL A   1      35.147  34.131  28.467  1.00  0.00     0.131 A 
ATOM     65  C   UNL A   1      34.115  34.911  30.902  1.00  0.00     0.055 A 
ATOM     66  C   UNL A   1      33.894  34.760  28.529  1.00  0.00     0.041 A 
ATOM     67  F   UNL A   1      35.621  33.891  27.235  1.00  0.00    -0.206 F 
ATOM     68  C   UNL A   1      33.368  35.150  29.752  1.00  0.00     0.022 A 
BRANCH  65  69
ATOM     69  S   UNL A   1      33.516  35.497  32.511  1.00  0.00     0.124 S 
ATOM     70  O   UNL A   1      34.690  36.176  33.047  1.00  0.00    -0.237 OA
ATOM     71  O   UNL A   1      32.392  36.348  32.134  1.00  0.00    -0.237 OA
ATOM     72  O   UNL A   1      33.145  34.264  33.205  1.00  0.00    -0.744 OA
ENDBRANCH  65  69
ENDBRANCH  48  62
BRANCH  49  73
ATOM     73  C   UNL A   1      43.104  27.438  32.405  1.00  0.00     0.023 A 
ATOM     74  C   UNL A   1      43.188  27.327  30.992  1.00  0.00     0.031 A 
ATOM     75  C   UNL A   1      43.854  26.520  33.158  1.00  0.00     0.131 A 
ATOM     76  C   UNL A   1      44.134  26.480  30.388  1.00  0.00     0.055 A 
ATOM     77  C   UNL A   1      44.736  25.612  32.543  1.00  0.00     0.041 A 
ATOM     78  F   UNL A   1      43.842  26.557  34.498  1.00  0.00    -0.206 F 
ATOM     79  C   UNL A   1      44.914  25.621  31.159  1.00  0.00     0.022 A 
BRANCH  76  80
ATOM     80  S   UNL A   1      44.588  26.766  28.644  1.00  0.00     0.124 S 
ATOM     81  O   UNL A   1      43.680  27.839  28.261  1.00  0.00    -0.237 OA
ATOM     82  O   UNL A   1      46.002  27.122  28.735  1.00  0.00    -0.237 OA
ATOM     83  O   UNL A   1      44.346  25.464  28.026  1.00  0.00    -0.744 OA
ENDBRANCH  76  80
ENDBRANCH  49  73
BRANCH  61  84
ATOM     84  C   UNL A   1      42.509  34.429  30.464  1.00  0.00     0.023 A 
ATOM     85  C   UNL A   1      42.587  34.581  29.081  1.00  0.00     0.031 A 
ATOM     86  C   UNL A   1      43.028  35.499  31.234  1.00  0.00     0.131 A 
ATOM     87  C   UNL A   1      43.333  35.619  28.517  1.00  0.00     0.055 A 
ATOM     88  C   UNL A   1      43.628  36.620  30.660  1.00  0.00     0.041 A 
ATOM     89  F   UNL A   1      42.991  35.501  32.573  1.00  0.00    -0.206 F 
ATOM     90  C   UNL A   1      43.829  36.663  29.291  1.00  0.00     0.022 A 
BRANCH  87  91
ATOM     91  S   UNL A   1      43.790  35.444  26.777  1.00  0.00     0.124 S 
ATOM     92  O   UNL A   1      42.706  36.166  26.115  1.00  0.00    -0.237 OA
ATOM     93  O   UNL A   1      45.098  36.090  26.729  1.00  0.00    -0.237 OA
ATOM     94  O   UNL A   1      43.795  33.999  26.569  1.00  0.00    -0.744 OA
ENDBRANCH  87  91
ENDBRANCH  61  84
ENDBRANCH  35  36
ENDBRANCH  28  30
ENDBRANCH  27  28
ENDBRANCH  26  27
ENDBRANCH   1  26
TORSDOF 18
ENDMDL
