MODEL 1
REMARK VINA RESULT:     -12.2      0.000      0.000
REMARK SMILES O=C(OCCOC(=O)[C@@H]1CN(C(=O)[C@H]2CC=CCC2)c2ccccc2O1)c1ccc(-c2c3nc(c(-c4cc(S(=O)(=O)[O-])ccc4F)c4ccc([nH]4)c(-c4cc(S(=O)(=O)[O-])ccc4F)c4nc(c(-c5cc(S(=O)(=O)[O-])ccc5F)c5ccc2[nH]5)C=C4)C=C3)cc1
REMARK SMILES IDX 4 1 3 2 2 3 1 4 27 5 28 6 89 7 29 8 88 9 30 10 31 11 32 12
REMARK SMILES IDX 82 13 33 14 87 15 81 16 83 17 34 18 86 19 80 20 79 21 35 23
REMARK SMILES IDX 67 24 47 25 66 26 48 27 51 28 65 29 84 30 49 31 50 32 64 34
REMARK SMILES IDX 85 35 52 36 36 37 37 38 45 39 38 40 44 41 46 42 43 43 39 44
REMARK SMILES IDX 40 45 41 46 42 47 68 48 69 49 77 50 70 51 76 52 78 53 75 54
REMARK SMILES IDX 71 55 72 56 73 57 74 58 53 59 54 60 62 61 55 62 61 63 63 64
REMARK SMILES IDX 60 65 56 66 57 67 58 68 59 69 5 70 6 71 7 72 8 73 9 74 10 75
REMARK SMILES IDX 26 76 11 77 25 78 20 79 24 80 21 81 23 82 22 83 12 84 13 85
REMARK SMILES IDX 14 86 15 87 19 88 16 89 18 90 17 91
REMARK H PARENT 83 22 51 33
REMARK Flexibility Score: inf
ROOT
ATOM      1  C   UNL A   1      32.690  29.131  27.227  1.00  0.00     0.275 C 
ENDROOT
BRANCH   1   2
ATOM      2  O   UNL A   1      34.088  29.235  26.913  1.00  0.00    -0.458 OA
BRANCH   2   3
ATOM      3  C   UNL A   1      34.766  30.253  27.483  1.00  0.00     0.338 C 
ATOM      4  O   UNL A   1      34.310  31.383  27.539  1.00  0.00    -0.246 OA
BRANCH   3   5
ATOM      5  C   UNL A   1      36.137  29.902  27.954  1.00  0.00     0.060 A 
ATOM      6  C   UNL A   1      37.309  30.111  27.236  1.00  0.00     0.016 A 
ATOM      7  C   UNL A   1      36.218  29.370  29.236  1.00  0.00     0.016 A 
ATOM      8  C   UNL A   1      38.538  29.769  27.813  1.00  0.00     0.010 A 
ATOM      9  C   UNL A   1      37.426  29.086  29.851  1.00  0.00     0.010 A 
ATOM     10  C   UNL A   1      38.593  29.236  29.112  1.00  0.00    -0.014 A 
BRANCH  10  11
ATOM     11  C   UNL A   1      39.833  28.644  29.638  1.00  0.00     0.031 A 
ATOM     12  C   UNL A   1      40.406  29.214  30.901  1.00  0.00     0.074 A 
ATOM     13  C   UNL A   1      40.473  27.681  28.956  1.00  0.00     0.049 A 
ATOM     14  N   UNL A   1      41.327  28.732  31.687  1.00  0.00    -0.248 NA
ATOM     15  C   UNL A   1      39.890  30.531  31.313  1.00  0.00     0.031 C 
ATOM     16  C   UNL A   1      40.101  27.193  27.628  1.00  0.00     0.029 A 
ATOM     17  N   UNL A   1      41.574  26.942  29.293  1.00  0.00    -0.354 N 
ATOM     18  C   UNL A   1      41.472  29.664  32.709  1.00  0.00     0.074 A 
ATOM     19  C   UNL A   1      40.631  30.791  32.376  1.00  0.00     0.031 C 
ATOM     20  C   UNL A   1      40.942  26.205  27.278  1.00  0.00     0.029 A 
ATOM     21  C   UNL A   1      41.876  25.968  28.375  1.00  0.00     0.049 A 
ATOM     22  H   UNL A   1      42.097  27.094  30.113  1.00  0.00     0.167 HD
ATOM     23  C   UNL A   1      42.202  29.555  33.846  1.00  0.00     0.034 A 
ATOM     24  C   UNL A   1      42.760  24.955  28.458  1.00  0.00     0.034 A 
ATOM     25  C   UNL A   1      43.048  28.417  34.104  1.00  0.00     0.049 A 
ATOM     26  C   UNL A   1      43.486  24.766  29.765  1.00  0.00     0.074 A 
ATOM     27  C   UNL A   1      43.794  28.112  35.227  1.00  0.00     0.029 A 
ATOM     28  N   UNL A   1      43.268  27.391  33.189  1.00  0.00    -0.354 N 
ATOM     29  N   UNL A   1      43.486  25.539  30.830  1.00  0.00    -0.248 NA
ATOM     30  C   UNL A   1      44.273  23.537  29.909  1.00  0.00     0.031 C 
ATOM     31  C   UNL A   1      44.495  26.924  34.973  1.00  0.00     0.029 A 
ATOM     32  C   UNL A   1      44.142  26.457  33.714  1.00  0.00     0.049 A 
ATOM     33  H   UNL A   1      42.859  27.337  32.296  1.00  0.00     0.167 HD
ATOM     34  C   UNL A   1      44.242  24.870  31.786  1.00  0.00     0.074 A 
ATOM     35  C   UNL A   1      44.672  23.627  31.171  1.00  0.00     0.031 C 
ATOM     36  C   UNL A   1      44.550  25.236  33.058  1.00  0.00     0.034 A 
BRANCH  23  37
ATOM     37  C   UNL A   1      42.094  30.684  34.847  1.00  0.00     0.023 A 
ATOM     38  C   UNL A   1      40.952  30.828  35.660  1.00  0.00     0.031 A 
ATOM     39  C   UNL A   1      43.085  31.673  34.941  1.00  0.00     0.131 A 
ATOM     40  C   UNL A   1      40.773  31.986  36.431  1.00  0.00     0.055 A 
ATOM     41  C   UNL A   1      42.947  32.778  35.788  1.00  0.00     0.041 A 
ATOM     42  F   UNL A   1      44.193  31.608  34.184  1.00  0.00    -0.206 F 
ATOM     43  C   UNL A   1      41.775  32.952  36.520  1.00  0.00     0.022 A 
BRANCH  40  44
ATOM     44  S   UNL A   1      39.137  32.295  37.152  1.00  0.00     0.124 S 
ATOM     45  O   UNL A   1      38.452  31.034  36.877  1.00  0.00    -0.237 OA
ATOM     46  O   UNL A   1      39.453  32.557  38.551  1.00  0.00    -0.237 OA
ATOM     47  O   UNL A   1      38.641  33.444  36.397  1.00  0.00    -0.744 OA
ENDBRANCH  40  44
ENDBRANCH  23  37
BRANCH  24  48
ATOM     48  C   UNL A   1      42.872  23.979  27.342  1.00  0.00     0.023 A 
ATOM     49  C   UNL A   1      42.166  22.766  27.374  1.00  0.00     0.031 A 
ATOM     50  C   UNL A   1      43.644  24.265  26.204  1.00  0.00     0.131 A 
ATOM     51  C   UNL A   1      42.262  21.870  26.298  1.00  0.00     0.055 A 
ATOM     52  C   UNL A   1      43.718  23.382  25.124  1.00  0.00     0.041 A 
ATOM     53  F   UNL A   1      44.315  25.424  26.114  1.00  0.00    -0.206 F 
ATOM     54  C   UNL A   1      43.028  22.173  25.170  1.00  0.00     0.022 A 
BRANCH  51  55
ATOM     55  S   UNL A   1      41.381  20.288  26.404  1.00  0.00     0.124 S 
ATOM     56  O   UNL A   1      42.026  19.513  25.350  1.00  0.00    -0.237 OA
ATOM     57  O   UNL A   1      41.669  19.876  27.773  1.00  0.00    -0.237 OA
ATOM     58  O   UNL A   1      39.991  20.657  26.147  1.00  0.00    -0.744 OA
ENDBRANCH  51  55
ENDBRANCH  24  48
BRANCH  36  59
ATOM     59  C   UNL A   1      45.365  24.258  33.860  1.00  0.00     0.023 A 
ATOM     60  C   UNL A   1      46.762  24.369  33.946  1.00  0.00     0.031 A 
ATOM     61  C   UNL A   1      44.735  23.199  34.534  1.00  0.00     0.131 A 
ATOM     62  C   UNL A   1      47.494  23.399  34.642  1.00  0.00     0.055 A 
ATOM     63  C   UNL A   1      45.464  22.267  35.272  1.00  0.00     0.041 A 
ATOM     64  F   UNL A   1      43.401  23.053  34.483  1.00  0.00    -0.206 F 
ATOM     65  C   UNL A   1      46.853  22.356  35.318  1.00  0.00     0.022 A 
BRANCH  62  66
ATOM     66  S   UNL A   1      49.304  23.468  34.573  1.00  0.00     0.124 S 
ATOM     67  O   UNL A   1      49.661  23.437  35.987  1.00  0.00    -0.237 OA
ATOM     68  O   UNL A   1      49.632  22.271  33.805  1.00  0.00    -0.237 OA
ATOM     69  O   UNL A   1      49.572  24.733  33.893  1.00  0.00    -0.744 OA
ENDBRANCH  62  66
ENDBRANCH  36  59
ENDBRANCH  10  11
ENDBRANCH   3   5
ENDBRANCH   2   3
ENDBRANCH   1   2
BRANCH   1  70
ATOM     70  C   UNL A   1      31.858  28.226  26.304  1.00  0.00     0.274 C 
BRANCH  70  71
ATOM     71  O   UNL A   1      31.268  27.073  26.958  1.00  0.00    -0.459 OA
BRANCH  71  72
ATOM     72  C   UNL A   1      31.794  25.899  26.505  1.00  0.00     0.349 C 
ATOM     73  O   UNL A   1      33.009  25.770  26.350  1.00  0.00    -0.248 OA
BRANCH  72  74
ATOM     74  C   UNL A   1      30.744  24.813  26.093  1.00  0.00     0.302 C 
ATOM     75  C   UNL A   1      31.148  23.403  25.611  1.00  0.00     0.183 C 
ATOM     76  O   UNL A   1      29.968  25.350  24.994  1.00  0.00    -0.475 OA
ATOM     77  N   UNL A   1      32.084  23.426  24.487  1.00  0.00    -0.304 N 
ATOM     78  C   UNL A   1      30.778  25.453  23.875  1.00  0.00     0.144 A 
ATOM     79  C   UNL A   1      31.868  24.578  23.619  1.00  0.00     0.086 A 
ATOM     80  C   UNL A   1      30.509  26.570  23.079  1.00  0.00     0.049 A 
ATOM     81  C   UNL A   1      32.682  24.906  22.531  1.00  0.00     0.030 A 
ATOM     82  C   UNL A   1      31.357  26.880  22.027  1.00  0.00     0.004 A 
ATOM     83  C   UNL A   1      32.442  26.053  21.758  1.00  0.00     0.002 A 
BRANCH  77  84
ATOM     84  C   UNL A   1      33.087  22.471  24.273  1.00  0.00     0.230 C 
ATOM     85  O   UNL A   1      32.911  21.504  23.517  1.00  0.00    -0.274 OA
BRANCH  84  86
ATOM     86  C   UNL A   1      34.471  22.478  25.002  1.00  0.00     0.083 C 
ATOM     87  C   UNL A   1      35.074  21.146  25.461  1.00  0.00     0.040 C 
ATOM     88  C   UNL A   1      35.498  23.528  24.564  1.00  0.00     0.018 C 
ATOM     89  C   UNL A   1      36.468  20.854  24.981  1.00  0.00    -0.030 C 
ATOM     90  C   UNL A   1      36.686  23.011  23.756  1.00  0.00     0.028 C 
ATOM     91  C   UNL A   1      37.184  21.678  24.209  1.00  0.00    -0.031 C 
ENDBRANCH  84  86
ENDBRANCH  77  84
ENDBRANCH  72  74
ENDBRANCH  71  72
ENDBRANCH  70  71
ENDBRANCH   1  70
TORSDOF 16
ENDMDL
MODEL 2
REMARK VINA RESULT:     -12.1      2.431      3.216
REMARK SMILES O=C(OCCOC(=O)[C@@H]1CN(C(=O)[C@H]2CC=CCC2)c2ccccc2O1)c1ccc(-c2c3nc(c(-c4cc(S(=O)(=O)[O-])ccc4F)c4ccc([nH]4)c(-c4cc(S(=O)(=O)[O-])ccc4F)c4nc(c(-c5cc(S(=O)(=O)[O-])ccc5F)c5ccc2[nH]5)C=C4)C=C3)cc1
REMARK SMILES IDX 4 1 3 2 2 3 1 4 27 5 28 6 89 7 29 8 88 9 30 10 31 11 32 12
REMARK SMILES IDX 82 13 33 14 87 15 81 16 83 17 34 18 86 19 80 20 79 21 35 23
REMARK SMILES IDX 67 24 47 25 66 26 48 27 51 28 65 29 84 30 49 31 50 32 64 34
REMARK SMILES IDX 85 35 52 36 36 37 37 38 45 39 38 40 44 41 46 42 43 43 39 44
REMARK SMILES IDX 40 45 41 46 42 47 68 48 69 49 77 50 70 51 76 52 78 53 75 54
REMARK SMILES IDX 71 55 72 56 73 57 74 58 53 59 54 60 62 61 55 62 61 63 63 64
REMARK SMILES IDX 60 65 56 66 57 67 58 68 59 69 5 70 6 71 7 72 8 73 9 74 10 75
REMARK SMILES IDX 26 76 11 77 25 78 20 79 24 80 21 81 23 82 22 83 12 84 13 85
REMARK SMILES IDX 14 86 15 87 19 88 16 89 18 90 17 91
REMARK H PARENT 83 22 51 33
REMARK Flexibility Score: inf
ROOT
ATOM      1  C   UNL A   1      31.798  29.509  26.758  1.00  0.00     0.275 C 
ENDROOT
BRANCH   1   2
ATOM      2  O   UNL A   1      32.898  30.327  26.327  1.00  0.00    -0.458 OA
BRANCH   2   3
ATOM      3  C   UNL A   1      33.430  31.163  27.242  1.00  0.00     0.338 C 
ATOM      4  O   UNL A   1      32.878  32.200  27.570  1.00  0.00    -0.246 OA
BRANCH   3   5
ATOM      5  C   UNL A   1      34.774  30.760  27.747  1.00  0.00     0.060 A 
ATOM      6  C   UNL A   1      35.191  29.451  27.959  1.00  0.00     0.016 A 
ATOM      7  C   UNL A   1      35.674  31.798  27.965  1.00  0.00     0.016 A 
ATOM      8  C   UNL A   1      36.498  29.210  28.401  1.00  0.00     0.010 A 
ATOM      9  C   UNL A   1      36.990  31.578  28.337  1.00  0.00     0.010 A 
ATOM     10  C   UNL A   1      37.389  30.276  28.610  1.00  0.00    -0.014 A 
BRANCH  10  11
ATOM     11  C   UNL A   1      38.671  30.070  29.303  1.00  0.00     0.031 A 
ATOM     12  C   UNL A   1      38.837  30.665  30.670  1.00  0.00     0.074 A 
ATOM     13  C   UNL A   1      39.686  29.442  28.689  1.00  0.00     0.049 A 
ATOM     14  N   UNL A   1      39.750  30.433  31.571  1.00  0.00    -0.248 NA
ATOM     15  C   UNL A   1      37.856  31.693  31.055  1.00  0.00     0.031 C 
ATOM     16  C   UNL A   1      39.687  28.995  27.295  1.00  0.00     0.029 A 
ATOM     17  N   UNL A   1      40.913  29.071  29.165  1.00  0.00    -0.354 N 
ATOM     18  C   UNL A   1      39.428  31.253  32.647  1.00  0.00     0.074 A 
ATOM     19  C   UNL A   1      38.311  32.072  32.237  1.00  0.00     0.031 C 
ATOM     20  C   UNL A   1      40.852  28.375  27.040  1.00  0.00     0.029 A 
ATOM     21  C   UNL A   1      41.650  28.347  28.262  1.00  0.00     0.049 A 
ATOM     22  H   UNL A   1      41.236  29.302  30.066  1.00  0.00     0.167 HD
ATOM     23  C   UNL A   1      39.989  31.274  33.882  1.00  0.00     0.034 A 
ATOM     24  C   UNL A   1      42.803  27.673  28.440  1.00  0.00     0.034 A 
ATOM     25  C   UNL A   1      41.125  30.453  34.219  1.00  0.00     0.049 A 
ATOM     26  C   UNL A   1      43.363  27.600  29.837  1.00  0.00     0.074 A 
ATOM     27  C   UNL A   1      41.767  30.296  35.433  1.00  0.00     0.029 A 
ATOM     28  N   UNL A   1      41.802  29.652  33.303  1.00  0.00    -0.354 N 
ATOM     29  N   UNL A   1      42.955  28.220  30.924  1.00  0.00    -0.248 NA
ATOM     30  C   UNL A   1      44.490  26.687  30.048  1.00  0.00     0.031 C 
ATOM     31  C   UNL A   1      42.855  29.433  35.239  1.00  0.00     0.029 A 
ATOM     32  C   UNL A   1      42.858  29.006  33.918  1.00  0.00     0.049 A 
ATOM     33  H   UNL A   1      41.562  29.559  32.353  1.00  0.00     0.167 HD
ATOM     34  C   UNL A   1      43.753  27.741  31.958  1.00  0.00     0.074 A 
ATOM     35  C   UNL A   1      44.657  26.774  31.361  1.00  0.00     0.031 C 
ATOM     36  C   UNL A   1      43.740  28.057  33.279  1.00  0.00     0.034 A 
BRANCH  23  37
ATOM     37  C   UNL A   1      39.370  32.199  34.905  1.00  0.00     0.023 A 
ATOM     38  C   UNL A   1      39.846  33.515  35.078  1.00  0.00     0.031 A 
ATOM     39  C   UNL A   1      38.361  31.756  35.775  1.00  0.00     0.131 A 
ATOM     40  C   UNL A   1      39.407  34.290  36.162  1.00  0.00     0.055 A 
ATOM     41  C   UNL A   1      37.856  32.570  36.794  1.00  0.00     0.041 A 
ATOM     42  F   UNL A   1      37.873  30.509  35.678  1.00  0.00    -0.206 F 
ATOM     43  C   UNL A   1      38.396  33.836  37.008  1.00  0.00     0.022 A 
BRANCH  40  44
ATOM     44  S   UNL A   1      40.317  35.809  36.557  1.00  0.00     0.124 S 
ATOM     45  O   UNL A   1      39.907  36.046  37.940  1.00  0.00    -0.237 OA
ATOM     46  O   UNL A   1      41.705  35.405  36.363  1.00  0.00    -0.237 OA
ATOM     47  O   UNL A   1      39.806  36.776  35.588  1.00  0.00    -0.744 OA
ENDBRANCH  40  44
ENDBRANCH  23  37
BRANCH  24  48
ATOM     48  C   UNL A   1      43.391  26.905  27.311  1.00  0.00     0.023 A 
ATOM     49  C   UNL A   1      43.026  25.568  27.084  1.00  0.00     0.031 A 
ATOM     50  C   UNL A   1      44.285  27.507  26.411  1.00  0.00     0.131 A 
ATOM     51  C   UNL A   1      43.570  24.868  25.996  1.00  0.00     0.055 A 
ATOM     52  C   UNL A   1      44.805  26.815  25.315  1.00  0.00     0.041 A 
ATOM     53  F   UNL A   1      44.642  28.792  26.569  1.00  0.00    -0.206 F 
ATOM     54  C   UNL A   1      44.452  25.484  25.106  1.00  0.00     0.022 A 
BRANCH  51  55
ATOM     55  S   UNL A   1      43.118  23.125  25.773  1.00  0.00     0.124 S 
ATOM     56  O   UNL A   1      44.024  22.458  26.702  1.00  0.00    -0.237 OA
ATOM     57  O   UNL A   1      41.708  23.131  26.143  1.00  0.00    -0.237 OA
ATOM     58  O   UNL A   1      43.387  22.884  24.357  1.00  0.00    -0.744 OA
ENDBRANCH  51  55
ENDBRANCH  24  48
BRANCH  36  59
ATOM     59  C   UNL A   1      44.719  27.322  34.155  1.00  0.00     0.023 A 
ATOM     60  C   UNL A   1      44.417  26.057  34.684  1.00  0.00     0.031 A 
ATOM     61  C   UNL A   1      45.959  27.901  34.470  1.00  0.00     0.131 A 
ATOM     62  C   UNL A   1      45.321  25.434  35.553  1.00  0.00     0.055 A 
ATOM     63  C   UNL A   1      46.879  27.251  35.291  1.00  0.00     0.041 A 
ATOM     64  F   UNL A   1      46.293  29.108  33.986  1.00  0.00    -0.206 F 
ATOM     65  C   UNL A   1      46.557  26.016  35.849  1.00  0.00     0.022 A 
BRANCH  62  66
ATOM     66  S   UNL A   1      44.819  23.893  36.364  1.00  0.00     0.124 S 
ATOM     67  O   UNL A   1      46.005  23.061  36.193  1.00  0.00    -0.237 OA
ATOM     68  O   UNL A   1      44.540  24.335  37.726  1.00  0.00    -0.237 OA
ATOM     69  O   UNL A   1      43.649  23.469  35.598  1.00  0.00    -0.744 OA
ENDBRANCH  62  66
ENDBRANCH  36  59
ENDBRANCH  10  11
ENDBRANCH   3   5
ENDBRANCH   2   3
ENDBRANCH   1   2
BRANCH   1  70
ATOM     70  C   UNL A   1      32.117  28.024  26.998  1.00  0.00     0.274 C 
BRANCH  70  71
ATOM     71  O   UNL A   1      31.027  27.115  26.696  1.00  0.00    -0.459 OA
BRANCH  71  72
ATOM     72  C   UNL A   1      31.462  25.973  26.091  1.00  0.00     0.349 C 
ATOM     73  O   UNL A   1      32.552  25.480  26.382  1.00  0.00    -0.248 OA
BRANCH  72  74
ATOM     74  C   UNL A   1      30.544  25.435  24.942  1.00  0.00     0.302 C 
ATOM     75  C   UNL A   1      31.017  24.376  23.924  1.00  0.00     0.183 C 
ATOM     76  O   UNL A   1      30.163  26.566  24.121  1.00  0.00    -0.475 OA
ATOM     77  N   UNL A   1      32.251  24.751  23.234  1.00  0.00    -0.304 N 
ATOM     78  C   UNL A   1      31.280  27.032  23.446  1.00  0.00     0.144 A 
ATOM     79  C   UNL A   1      32.359  26.194  23.054  1.00  0.00     0.086 A 
ATOM     80  C   UNL A   1      31.314  28.421  23.293  1.00  0.00     0.049 A 
ATOM     81  C   UNL A   1      33.479  26.838  22.520  1.00  0.00     0.030 A 
ATOM     82  C   UNL A   1      32.455  29.025  22.789  1.00  0.00     0.004 A 
ATOM     83  C   UNL A   1      33.535  28.236  22.408  1.00  0.00     0.002 A 
BRANCH  77  84
ATOM     84  C   UNL A   1      33.231  23.842  22.814  1.00  0.00     0.230 C 
ATOM     85  O   UNL A   1      33.374  23.549  21.618  1.00  0.00    -0.274 OA
BRANCH  84  86
ATOM     86  C   UNL A   1      34.173  23.060  23.788  1.00  0.00     0.083 C 
ATOM     87  C   UNL A   1      34.952  23.842  24.852  1.00  0.00     0.040 C 
ATOM     88  C   UNL A   1      33.742  21.653  24.216  1.00  0.00     0.018 C 
ATOM     89  C   UNL A   1      34.776  23.378  26.270  1.00  0.00    -0.030 C 
ATOM     90  C   UNL A   1      33.251  21.508  25.654  1.00  0.00     0.028 C 
ATOM     91  C   UNL A   1      34.006  22.346  26.633  1.00  0.00    -0.031 C 
ENDBRANCH  84  86
ENDBRANCH  77  84
ENDBRANCH  72  74
ENDBRANCH  71  72
ENDBRANCH  70  71
ENDBRANCH   1  70
TORSDOF 16
ENDMDL
MODEL 3
REMARK VINA RESULT:     -12.0      1.946      2.783
REMARK SMILES O=C(OCCOC(=O)[C@@H]1CN(C(=O)[C@H]2CC=CCC2)c2ccccc2O1)c1ccc(-c2c3nc(c(-c4cc(S(=O)(=O)[O-])ccc4F)c4ccc([nH]4)c(-c4cc(S(=O)(=O)[O-])ccc4F)c4nc(c(-c5cc(S(=O)(=O)[O-])ccc5F)c5ccc2[nH]5)C=C4)C=C3)cc1
REMARK SMILES IDX 4 1 3 2 2 3 1 4 27 5 28 6 89 7 29 8 88 9 30 10 31 11 32 12
REMARK SMILES IDX 82 13 33 14 87 15 81 16 83 17 34 18 86 19 80 20 79 21 35 23
REMARK SMILES IDX 67 24 47 25 66 26 48 27 51 28 65 29 84 30 49 31 50 32 64 34
REMARK SMILES IDX 85 35 52 36 36 37 37 38 45 39 38 40 44 41 46 42 43 43 39 44
REMARK SMILES IDX 40 45 41 46 42 47 68 48 69 49 77 50 70 51 76 52 78 53 75 54
REMARK SMILES IDX 71 55 72 56 73 57 74 58 53 59 54 60 62 61 55 62 61 63 63 64
REMARK SMILES IDX 60 65 56 66 57 67 58 68 59 69 5 70 6 71 7 72 8 73 9 74 10 75
REMARK SMILES IDX 26 76 11 77 25 78 20 79 24 80 21 81 23 82 22 83 12 84 13 85
REMARK SMILES IDX 14 86 15 87 19 88 16 89 18 90 17 91
REMARK H PARENT 83 22 51 33
REMARK Flexibility Score: inf
ROOT
ATOM      1  C   UNL A   1      34.008  28.013  26.164  1.00  0.00     0.275 C 
ENDROOT
BRANCH   1   2
ATOM      2  O   UNL A   1      33.833  28.785  27.363  1.00  0.00    -0.458 OA
BRANCH   2   3
ATOM      3  C   UNL A   1      34.589  29.896  27.487  1.00  0.00     0.338 C 
ATOM      4  O   UNL A   1      34.164  31.003  27.201  1.00  0.00    -0.246 OA
BRANCH   3   5
ATOM      5  C   UNL A   1      35.996  29.647  27.913  1.00  0.00     0.060 A 
ATOM      6  C   UNL A   1      37.121  29.849  27.122  1.00  0.00     0.016 A 
ATOM      7  C   UNL A   1      36.164  29.228  29.229  1.00  0.00     0.016 A 
ATOM      8  C   UNL A   1      38.391  29.611  27.661  1.00  0.00     0.010 A 
ATOM      9  C   UNL A   1      37.412  29.052  29.802  1.00  0.00     0.010 A 
ATOM     10  C   UNL A   1      38.534  29.192  28.994  1.00  0.00    -0.014 A 
BRANCH  10  11
ATOM     11  C   UNL A   1      39.825  28.702  29.503  1.00  0.00     0.031 A 
ATOM     12  C   UNL A   1      40.453  29.433  30.651  1.00  0.00     0.074 A 
ATOM     13  C   UNL A   1      40.457  27.685  28.896  1.00  0.00     0.049 A 
ATOM     14  N   UNL A   1      41.439  29.074  31.425  1.00  0.00    -0.248 NA
ATOM     15  C   UNL A   1      39.917  30.773  30.941  1.00  0.00     0.031 C 
ATOM     16  C   UNL A   1      40.021  27.033  27.660  1.00  0.00     0.029 A 
ATOM     17  N   UNL A   1      41.602  27.023  29.243  1.00  0.00    -0.354 N 
ATOM     18  C   UNL A   1      41.612  30.123  32.321  1.00  0.00     0.074 A 
ATOM     19  C   UNL A   1      40.711  31.178  31.916  1.00  0.00     0.031 C 
ATOM     20  C   UNL A   1      40.875  26.036  27.372  1.00  0.00     0.029 A 
ATOM     21  C   UNL A   1      41.883  25.957  28.425  1.00  0.00     0.049 A 
ATOM     22  H   UNL A   1      42.169  27.285  30.003  1.00  0.00     0.167 HD
ATOM     23  C   UNL A   1      42.415  30.170  33.412  1.00  0.00     0.034 A 
ATOM     24  C   UNL A   1      42.806  24.987  28.567  1.00  0.00     0.034 A 
ATOM     25  C   UNL A   1      43.317  29.095  33.744  1.00  0.00     0.049 A 
ATOM     26  C   UNL A   1      43.618  24.974  29.836  1.00  0.00     0.074 A 
ATOM     27  C   UNL A   1      44.141  28.946  34.843  1.00  0.00     0.029 A 
ATOM     28  N   UNL A   1      43.517  27.975  32.941  1.00  0.00    -0.354 N 
ATOM     29  N   UNL A   1      43.656  25.867  30.802  1.00  0.00    -0.248 NA
ATOM     30  C   UNL A   1      44.457  23.794  30.068  1.00  0.00     0.031 C 
ATOM     31  C   UNL A   1      44.868  27.758  34.682  1.00  0.00     0.029 A 
ATOM     32  C   UNL A   1      44.455  27.136  33.512  1.00  0.00     0.049 A 
ATOM     33  H   UNL A   1      43.056  27.805  32.088  1.00  0.00     0.167 HD
ATOM     34  C   UNL A   1      44.494  25.337  31.777  1.00  0.00     0.074 A 
ATOM     35  C   UNL A   1      44.930  24.043  31.283  1.00  0.00     0.031 C 
ATOM     36  C   UNL A   1      44.866  25.859  32.976  1.00  0.00     0.034 A 
BRANCH  23  37
ATOM     37  C   UNL A   1      42.328  31.405  34.281  1.00  0.00     0.023 A 
ATOM     38  C   UNL A   1      41.483  31.443  35.409  1.00  0.00     0.031 A 
ATOM     39  C   UNL A   1      43.017  32.582  33.948  1.00  0.00     0.131 A 
ATOM     40  C   UNL A   1      41.255  32.652  36.082  1.00  0.00     0.055 A 
ATOM     41  C   UNL A   1      42.862  33.761  34.685  1.00  0.00     0.041 A 
ATOM     42  F   UNL A   1      43.826  32.622  32.877  1.00  0.00    -0.206 F 
ATOM     43  C   UNL A   1      41.958  33.807  35.744  1.00  0.00     0.022 A 
BRANCH  40  44
ATOM     44  S   UNL A   1      39.886  32.728  37.272  1.00  0.00     0.124 S 
ATOM     45  O   UNL A   1      39.038  31.629  36.815  1.00  0.00    -0.237 OA
ATOM     46  O   UNL A   1      40.565  32.522  38.547  1.00  0.00    -0.237 OA
ATOM     47  O   UNL A   1      39.329  34.063  37.068  1.00  0.00    -0.744 OA
ENDBRANCH  40  44
ENDBRANCH  23  37
BRANCH  24  48
ATOM     48  C   UNL A   1      42.885  23.890  27.565  1.00  0.00     0.023 A 
ATOM     49  C   UNL A   1      43.895  23.878  26.590  1.00  0.00     0.031 A 
ATOM     50  C   UNL A   1      41.985  22.812  27.599  1.00  0.00     0.131 A 
ATOM     51  C   UNL A   1      43.969  22.820  25.672  1.00  0.00     0.055 A 
ATOM     52  C   UNL A   1      42.078  21.748  26.699  1.00  0.00     0.041 A 
ATOM     53  F   UNL A   1      41.019  22.764  28.530  1.00  0.00    -0.206 F 
ATOM     54  C   UNL A   1      43.072  21.751  25.724  1.00  0.00     0.022 A 
BRANCH  51  55
ATOM     55  S   UNL A   1      45.253  22.872  24.391  1.00  0.00     0.124 S 
ATOM     56  O   UNL A   1      44.545  22.337  23.233  1.00  0.00    -0.237 OA
ATOM     57  O   UNL A   1      45.575  24.293  24.347  1.00  0.00    -0.237 OA
ATOM     58  O   UNL A   1      46.306  22.013  24.932  1.00  0.00    -0.744 OA
ENDBRANCH  51  55
ENDBRANCH  24  48
BRANCH  36  59
ATOM     59  C   UNL A   1      45.765  25.006  33.830  1.00  0.00     0.023 A 
ATOM     60  C   UNL A   1      47.158  25.017  33.661  1.00  0.00     0.031 A 
ATOM     61  C   UNL A   1      45.216  24.166  34.813  1.00  0.00     0.131 A 
ATOM     62  C   UNL A   1      47.957  24.156  34.425  1.00  0.00     0.055 A 
ATOM     63  C   UNL A   1      46.021  23.353  35.610  1.00  0.00     0.041 A 
ATOM     64  F   UNL A   1      43.888  24.123  35.013  1.00  0.00    -0.206 F 
ATOM     65  C   UNL A   1      47.399  23.334  35.408  1.00  0.00     0.022 A 
BRANCH  62  66
ATOM     66  S   UNL A   1      49.727  24.060  34.049  1.00  0.00     0.124 S 
ATOM     67  O   UNL A   1      50.323  24.613  35.261  1.00  0.00    -0.237 OA
ATOM     68  O   UNL A   1      49.923  22.629  33.837  1.00  0.00    -0.237 OA
ATOM     69  O   UNL A   1      49.869  24.889  32.854  1.00  0.00    -0.744 OA
ENDBRANCH  62  66
ENDBRANCH  36  59
ENDBRANCH  10  11
ENDBRANCH   3   5
ENDBRANCH   2   3
ENDBRANCH   1   2
BRANCH   1  70
ATOM     70  C   UNL A   1      33.131  26.756  26.039  1.00  0.00     0.274 C 
BRANCH  70  71
ATOM     71  O   UNL A   1      33.729  25.674  25.278  1.00  0.00    -0.459 OA
BRANCH  71  72
ATOM     72  C   UNL A   1      33.125  24.476  25.525  1.00  0.00     0.349 C 
ATOM     73  O   UNL A   1      33.149  23.978  26.651  1.00  0.00    -0.248 OA
BRANCH  72  74
ATOM     74  C   UNL A   1      32.533  23.756  24.267  1.00  0.00     0.302 C 
ATOM     75  C   UNL A   1      32.086  22.279  24.286  1.00  0.00     0.183 C 
ATOM     76  O   UNL A   1      33.535  23.806  23.222  1.00  0.00    -0.475 OA
ATOM     77  N   UNL A   1      33.132  21.367  24.747  1.00  0.00    -0.304 N 
ATOM     78  C   UNL A   1      34.602  22.999  23.580  1.00  0.00     0.144 A 
ATOM     79  C   UNL A   1      34.464  21.834  24.382  1.00  0.00     0.086 A 
ATOM     80  C   UNL A   1      35.848  23.497  23.187  1.00  0.00     0.049 A 
ATOM     81  C   UNL A   1      35.651  21.215  24.783  1.00  0.00     0.030 A 
ATOM     82  C   UNL A   1      37.004  22.873  23.630  1.00  0.00     0.004 A 
ATOM     83  C   UNL A   1      36.905  21.739  24.429  1.00  0.00     0.002 A 
BRANCH  77  84
ATOM     84  C   UNL A   1      32.894  20.193  25.474  1.00  0.00     0.230 C 
ATOM     85  O   UNL A   1      33.103  20.133  26.695  1.00  0.00    -0.274 OA
BRANCH  84  86
ATOM     86  C   UNL A   1      32.425  18.846  24.831  1.00  0.00     0.083 C 
ATOM     87  C   UNL A   1      32.481  18.693  23.306  1.00  0.00     0.040 C 
ATOM     88  C   UNL A   1      32.694  17.555  25.613  1.00  0.00     0.018 C 
ATOM     89  C   UNL A   1      33.240  17.505  22.791  1.00  0.00    -0.030 C 
ATOM     90  C   UNL A   1      33.796  16.653  25.064  1.00  0.00     0.028 C 
ATOM     91  C   UNL A   1      33.841  16.600  23.572  1.00  0.00    -0.031 C 
ENDBRANCH  84  86
ENDBRANCH  77  84
ENDBRANCH  72  74
ENDBRANCH  71  72
ENDBRANCH  70  71
ENDBRANCH   1  70
TORSDOF 16
ENDMDL
