MODEL 1
REMARK VINA RESULT:     -12.7      0.000      0.000
REMARK SMILES C[C@@H](C(=O)OCCOC(=O)c1ccc(-c2c3nc(c(-c4cc(S(=O)(=O)[O-])ccc4F)c4ccc([nH]4)c(-c4cc(S(=O)(=O)[O-])ccc4F)c4nc(c(-c5cc(S(=O)(=O)[O-])ccc5F)c5ccc2[nH]5)C=C4)C=C3)cc1)[N@@H+]1CCc2n[nH]c(C(c3ccccc3)c3ccccc3)c2C1
REMARK SMILES IDX 6 1 5 2 3 3 4 4 2 5 1 6 74 7 75 8 95 9 76 11 94 12 77 13
REMARK SMILES IDX 80 14 78 15 79 16 81 18 82 19 83 20 87 21 84 22 86 23 85 24
REMARK SMILES IDX 88 25 89 26 93 27 90 28 92 29 91 30 7 31 8 32 9 33 10 34
REMARK SMILES IDX 11 35 12 36 73 37 13 38 72 39 14 40 15 41 16 42 66 43 17 44
REMARK SMILES IDX 71 45 65 46 67 47 18 48 70 49 64 50 63 51 19 53 51 54 31 55
REMARK SMILES IDX 50 56 32 57 35 58 49 59 68 60 33 61 34 62 48 64 69 65 36 66
REMARK SMILES IDX 20 67 21 68 29 69 22 70 28 71 30 72 27 73 23 74 24 75 25 76
REMARK SMILES IDX 26 77 52 78 53 79 61 80 54 81 60 82 62 83 59 84 55 85 56 86
REMARK SMILES IDX 57 87 58 88 37 89 38 90 46 91 39 92 45 93 47 94 44 95 40 96
REMARK SMILES IDX 41 97 42 98 43 99
REMARK H PARENT 74 10 79 17 67 52 35 63
REMARK Flexibility Score: inf
ROOT
ATOM      1  C   UNL A   1      34.137  21.535  26.913  1.00  0.00     0.274 C 
ENDROOT
BRANCH   1   2
ATOM      2  O   UNL A   1      32.838  21.846  26.292  1.00  0.00    -0.458 OA
BRANCH   2   3
ATOM      3  C   UNL A   1      32.113  22.893  26.833  1.00  0.00     0.364 C 
ATOM      4  O   UNL A   1      31.733  22.883  28.000  1.00  0.00    -0.245 OA
BRANCH   3   5
ATOM      5  C   UNL A   1      31.865  24.137  25.850  1.00  0.00     0.292 C 
ATOM      6  C   UNL A   1      30.461  24.721  25.972  1.00  0.00     0.088 C 
BRANCH   5   7
ATOM      7  N   UNL A   1      32.373  23.923  24.467  1.00  0.00    -0.319 N 
ATOM      8  C   UNL A   1      33.822  24.039  24.110  1.00  0.00     0.269 C 
ATOM      9  C   UNL A   1      31.610  24.663  23.510  1.00  0.00     0.303 C 
ATOM     10  H   UNL A   1      32.247  22.911  24.439  1.00  0.00     0.349 HD
ATOM     11  C   UNL A   1      34.167  24.827  22.747  1.00  0.00     0.120 C 
ATOM     12  C   UNL A   1      32.096  26.080  23.423  1.00  0.00     0.052 A 
ATOM     13  C   UNL A   1      33.215  25.990  22.548  1.00  0.00     0.077 A 
ATOM     14  C   UNL A   1      31.502  27.242  22.954  1.00  0.00     0.056 A 
ATOM     15  N   UNL A   1      32.765  26.364  21.324  1.00  0.00    -0.180 NA
ATOM     16  N   UNL A   1      31.568  26.963  21.606  1.00  0.00    -0.281 N 
ATOM     17  H   UNL A   1      30.863  27.162  20.948  1.00  0.00     0.190 HD
BRANCH  14  18
ATOM     18  C   UNL A   1      31.359  28.688  23.440  1.00  0.00     0.098 C 
BRANCH  18  19
ATOM     19  C   UNL A   1      29.897  29.214  23.451  1.00  0.00    -0.035 A 
ATOM     20  C   UNL A   1      28.815  28.377  23.127  1.00  0.00     0.005 A 
ATOM     21  C   UNL A   1      29.601  30.580  23.632  1.00  0.00     0.005 A 
ATOM     22  C   UNL A   1      27.521  28.905  22.974  1.00  0.00     0.000 A 
ATOM     23  C   UNL A   1      28.321  31.106  23.487  1.00  0.00     0.000 A 
ATOM     24  C   UNL A   1      27.278  30.268  23.145  1.00  0.00     0.000 A 
ENDBRANCH  18  19
BRANCH  18  25
ATOM     25  C   UNL A   1      32.029  28.809  24.825  1.00  0.00    -0.035 A 
ATOM     26  C   UNL A   1      31.367  28.370  25.987  1.00  0.00     0.005 A 
ATOM     27  C   UNL A   1      33.387  29.151  24.929  1.00  0.00     0.005 A 
ATOM     28  C   UNL A   1      32.053  28.169  27.179  1.00  0.00     0.000 A 
ATOM     29  C   UNL A   1      34.076  28.950  26.130  1.00  0.00     0.000 A 
ATOM     30  C   UNL A   1      33.415  28.434  27.244  1.00  0.00     0.000 A 
ENDBRANCH  18  25
ENDBRANCH  14  18
ENDBRANCH   5   7
ENDBRANCH   3   5
ENDBRANCH   2   3
ENDBRANCH   1   2
BRANCH   1  31
ATOM     31  C   UNL A   1      35.283  21.154  25.895  1.00  0.00     0.275 C 
BRANCH  31  32
ATOM     32  O   UNL A   1      36.383  22.112  25.867  1.00  0.00    -0.458 OA
BRANCH  32  33
ATOM     33  C   UNL A   1      37.663  21.635  25.745  1.00  0.00     0.338 C 
ATOM     34  O   UNL A   1      37.966  20.556  25.246  1.00  0.00    -0.246 OA
BRANCH  33  35
ATOM     35  C   UNL A   1      38.680  22.662  26.174  1.00  0.00     0.060 A 
ATOM     36  C   UNL A   1      38.613  23.965  25.673  1.00  0.00     0.016 A 
ATOM     37  C   UNL A   1      39.785  22.325  26.973  1.00  0.00     0.016 A 
ATOM     38  C   UNL A   1      39.646  24.876  25.894  1.00  0.00     0.010 A 
ATOM     39  C   UNL A   1      40.725  23.310  27.353  1.00  0.00     0.010 A 
ATOM     40  C   UNL A   1      40.626  24.620  26.859  1.00  0.00    -0.014 A 
BRANCH  40  41
ATOM     41  C   UNL A   1      41.330  25.783  27.495  1.00  0.00     0.031 A 
ATOM     42  C   UNL A   1      40.629  26.798  28.355  1.00  0.00     0.074 A 
ATOM     43  C   UNL A   1      42.650  25.937  27.231  1.00  0.00     0.049 A 
ATOM     44  N   UNL A   1      41.053  27.972  28.757  1.00  0.00    -0.248 NA
ATOM     45  C   UNL A   1      39.280  26.458  28.824  1.00  0.00     0.031 C 
ATOM     46  C   UNL A   1      43.468  25.008  26.439  1.00  0.00     0.029 A 
ATOM     47  N   UNL A   1      43.548  26.914  27.587  1.00  0.00    -0.354 N 
ATOM     48  C   UNL A   1      40.011  28.536  29.488  1.00  0.00     0.074 A 
ATOM     49  C   UNL A   1      38.933  27.563  29.474  1.00  0.00     0.031 C 
ATOM     50  C   UNL A   1      44.736  25.422  26.417  1.00  0.00     0.029 A 
ATOM     51  C   UNL A   1      44.800  26.730  27.042  1.00  0.00     0.049 A 
ATOM     52  H   UNL A   1      43.319  27.673  28.174  1.00  0.00     0.167 HD
ATOM     53  C   UNL A   1      39.964  29.754  30.092  1.00  0.00     0.034 A 
ATOM     54  C   UNL A   1      45.869  27.542  26.952  1.00  0.00     0.034 A 
ATOM     55  C   UNL A   1      41.067  30.697  30.087  1.00  0.00     0.049 A 
ATOM     56  C   UNL A   1      45.764  28.912  27.547  1.00  0.00     0.074 A 
ATOM     57  C   UNL A   1      41.130  31.960  30.653  1.00  0.00     0.029 A 
ATOM     58  N   UNL A   1      42.302  30.479  29.483  1.00  0.00    -0.354 N 
ATOM     59  N   UNL A   1      44.745  29.460  28.166  1.00  0.00    -0.248 NA
ATOM     60  C   UNL A   1      46.941  29.773  27.425  1.00  0.00     0.031 C 
ATOM     61  C   UNL A   1      42.367  32.530  30.331  1.00  0.00     0.029 A 
ATOM     62  C   UNL A   1      43.118  31.593  29.641  1.00  0.00     0.049 A 
ATOM     63  H   UNL A   1      42.561  29.655  29.012  1.00  0.00     0.167 HD
ATOM     64  C   UNL A   1      45.167  30.732  28.527  1.00  0.00     0.074 A 
ATOM     65  C   UNL A   1      46.541  30.856  28.075  1.00  0.00     0.031 C 
ATOM     66  C   UNL A   1      44.481  31.707  29.173  1.00  0.00     0.034 A 
BRANCH  53  67
ATOM     67  C   UNL A   1      38.658  30.171  30.740  1.00  0.00     0.023 A 
ATOM     68  C   UNL A   1      37.643  30.832  30.026  1.00  0.00     0.031 A 
ATOM     69  C   UNL A   1      38.434  29.922  32.109  1.00  0.00     0.131 A 
ATOM     70  C   UNL A   1      36.496  31.293  30.697  1.00  0.00     0.055 A 
ATOM     71  C   UNL A   1      37.252  30.306  32.751  1.00  0.00     0.041 A 
ATOM     72  F   UNL A   1      39.365  29.308  32.855  1.00  0.00    -0.206 F 
ATOM     73  C   UNL A   1      36.283  31.013  32.048  1.00  0.00     0.022 A 
BRANCH  70  74
ATOM     74  S   UNL A   1      35.364  32.404  29.815  1.00  0.00     0.124 S 
ATOM     75  O   UNL A   1      36.247  33.520  29.482  1.00  0.00    -0.237 OA
ATOM     76  O   UNL A   1      34.923  31.582  28.695  1.00  0.00    -0.237 OA
ATOM     77  O   UNL A   1      34.337  32.708  30.810  1.00  0.00    -0.744 OA
ENDBRANCH  70  74
ENDBRANCH  53  67
BRANCH  54  78
ATOM     78  C   UNL A   1      47.078  27.110  26.187  1.00  0.00     0.023 A 
ATOM     79  C   UNL A   1      47.284  27.523  24.864  1.00  0.00     0.031 A 
ATOM     80  C   UNL A   1      48.049  26.273  26.775  1.00  0.00     0.131 A 
ATOM     81  C   UNL A   1      48.416  27.076  24.163  1.00  0.00     0.055 A 
ATOM     82  C   UNL A   1      49.205  25.889  26.097  1.00  0.00     0.041 A 
ATOM     83  F   UNL A   1      47.903  25.846  28.040  1.00  0.00    -0.206 F 
ATOM     84  C   UNL A   1      49.388  26.282  24.775  1.00  0.00     0.022 A 
BRANCH  81  85
ATOM     85  S   UNL A   1      48.558  27.480  22.401  1.00  0.00     0.124 S 
ATOM     86  O   UNL A   1      47.316  28.206  22.163  1.00  0.00    -0.237 OA
ATOM     87  O   UNL A   1      49.781  28.274  22.371  1.00  0.00    -0.237 OA
ATOM     88  O   UNL A   1      48.649  26.171  21.758  1.00  0.00    -0.744 OA
ENDBRANCH  81  85
ENDBRANCH  54  78
BRANCH  66  89
ATOM     89  C   UNL A   1      45.244  32.973  29.474  1.00  0.00     0.023 A 
ATOM     90  C   UNL A   1      45.265  34.057  28.578  1.00  0.00     0.031 A 
ATOM     91  C   UNL A   1      45.999  33.074  30.655  1.00  0.00     0.131 A 
ATOM     92  C   UNL A   1      46.080  35.166  28.846  1.00  0.00     0.055 A 
ATOM     93  C   UNL A   1      46.751  34.211  30.950  1.00  0.00     0.041 A 
ATOM     94  F   UNL A   1      46.024  32.064  31.539  1.00  0.00    -0.206 F 
ATOM     95  C   UNL A   1      46.807  35.259  30.036  1.00  0.00     0.022 A 
BRANCH  92  96
ATOM     96  S   UNL A   1      46.269  36.434  27.563  1.00  0.00     0.124 S 
ATOM     97  O   UNL A   1      45.470  37.529  28.102  1.00  0.00    -0.237 OA
ATOM     98  O   UNL A   1      47.713  36.646  27.544  1.00  0.00    -0.237 OA
ATOM     99  O   UNL A   1      45.722  35.796  26.368  1.00  0.00    -0.744 OA
ENDBRANCH  92  96
ENDBRANCH  66  89
ENDBRANCH  40  41
ENDBRANCH  33  35
ENDBRANCH  32  33
ENDBRANCH  31  32
ENDBRANCH   1  31
TORSDOF 18
ENDMDL
MODEL 2
REMARK VINA RESULT:     -12.1      1.892      2.177
REMARK SMILES C[C@@H](C(=O)OCCOC(=O)c1ccc(-c2c3nc(c(-c4cc(S(=O)(=O)[O-])ccc4F)c4ccc([nH]4)c(-c4cc(S(=O)(=O)[O-])ccc4F)c4nc(c(-c5cc(S(=O)(=O)[O-])ccc5F)c5ccc2[nH]5)C=C4)C=C3)cc1)[N@@H+]1CCc2n[nH]c(C(c3ccccc3)c3ccccc3)c2C1
REMARK SMILES IDX 6 1 5 2 3 3 4 4 2 5 1 6 74 7 75 8 95 9 76 11 94 12 77 13
REMARK SMILES IDX 80 14 78 15 79 16 81 18 82 19 83 20 87 21 84 22 86 23 85 24
REMARK SMILES IDX 88 25 89 26 93 27 90 28 92 29 91 30 7 31 8 32 9 33 10 34
REMARK SMILES IDX 11 35 12 36 73 37 13 38 72 39 14 40 15 41 16 42 66 43 17 44
REMARK SMILES IDX 71 45 65 46 67 47 18 48 70 49 64 50 63 51 19 53 51 54 31 55
REMARK SMILES IDX 50 56 32 57 35 58 49 59 68 60 33 61 34 62 48 64 69 65 36 66
REMARK SMILES IDX 20 67 21 68 29 69 22 70 28 71 30 72 27 73 23 74 24 75 25 76
REMARK SMILES IDX 26 77 52 78 53 79 61 80 54 81 60 82 62 83 59 84 55 85 56 86
REMARK SMILES IDX 57 87 58 88 37 89 38 90 46 91 39 92 45 93 47 94 44 95 40 96
REMARK SMILES IDX 41 97 42 98 43 99
REMARK H PARENT 74 10 79 17 67 52 35 63
REMARK Flexibility Score: inf
ROOT
ATOM      1  C   UNL A   1      34.183  21.230  26.220  1.00  0.00     0.274 C 
ENDROOT
BRANCH   1   2
ATOM      2  O   UNL A   1      34.074  22.514  26.932  1.00  0.00    -0.458 OA
BRANCH   2   3
ATOM      3  C   UNL A   1      32.808  23.055  27.071  1.00  0.00     0.364 C 
ATOM      4  O   UNL A   1      32.033  22.674  27.944  1.00  0.00    -0.245 OA
BRANCH   3   5
ATOM      5  C   UNL A   1      32.455  24.249  26.059  1.00  0.00     0.292 C 
ATOM      6  C   UNL A   1      31.078  24.855  26.309  1.00  0.00     0.088 C 
BRANCH   5   7
ATOM      7  N   UNL A   1      32.801  23.957  24.640  1.00  0.00    -0.319 N 
ATOM      8  C   UNL A   1      34.184  24.120  24.094  1.00  0.00     0.269 C 
ATOM      9  C   UNL A   1      31.883  24.585  23.740  1.00  0.00     0.303 C 
ATOM     10  H   UNL A   1      32.732  22.941  24.697  1.00  0.00     0.349 HD
ATOM     11  C   UNL A   1      34.312  24.819  22.648  1.00  0.00     0.120 C 
ATOM     12  C   UNL A   1      32.270  26.014  23.495  1.00  0.00     0.052 A 
ATOM     13  C   UNL A   1      33.275  25.915  22.493  1.00  0.00     0.077 A 
ATOM     14  C   UNL A   1      31.554  27.107  23.028  1.00  0.00     0.056 A 
ATOM     15  N   UNL A   1      32.656  26.173  21.314  1.00  0.00    -0.180 NA
ATOM     16  N   UNL A   1      31.470  26.731  21.705  1.00  0.00    -0.281 N 
ATOM     17  H   UNL A   1      30.678  26.845  21.131  1.00  0.00     0.190 HD
BRANCH  14  18
ATOM     18  C   UNL A   1      31.387  28.576  23.429  1.00  0.00     0.098 C 
BRANCH  18  19
ATOM     19  C   UNL A   1      29.914  29.068  23.441  1.00  0.00    -0.035 A 
ATOM     20  C   UNL A   1      28.845  28.184  23.217  1.00  0.00     0.005 A 
ATOM     21  C   UNL A   1      29.590  30.438  23.520  1.00  0.00     0.005 A 
ATOM     22  C   UNL A   1      27.534  28.670  23.060  1.00  0.00     0.000 A 
ATOM     23  C   UNL A   1      28.295  30.923  23.372  1.00  0.00     0.000 A 
ATOM     24  C   UNL A   1      27.263  30.037  23.128  1.00  0.00     0.000 A 
ENDBRANCH  18  19
BRANCH  18  25
ATOM     25  C   UNL A   1      32.083  28.796  24.788  1.00  0.00    -0.035 A 
ATOM     26  C   UNL A   1      31.403  28.544  25.995  1.00  0.00     0.005 A 
ATOM     27  C   UNL A   1      33.466  29.036  24.848  1.00  0.00     0.005 A 
ATOM     28  C   UNL A   1      32.088  28.424  27.200  1.00  0.00     0.000 A 
ATOM     29  C   UNL A   1      34.153  28.916  26.061  1.00  0.00     0.000 A 
ATOM     30  C   UNL A   1      33.467  28.582  27.228  1.00  0.00     0.000 A 
ENDBRANCH  18  25
ENDBRANCH  14  18
ENDBRANCH   5   7
ENDBRANCH   3   5
ENDBRANCH   2   3
ENDBRANCH   1   2
BRANCH   1  31
ATOM     31  C   UNL A   1      35.528  21.030  25.416  1.00  0.00     0.275 C 
BRANCH  31  32
ATOM     32  O   UNL A   1      36.597  21.932  25.831  1.00  0.00    -0.458 OA
BRANCH  32  33
ATOM     33  C   UNL A   1      37.891  21.482  25.778  1.00  0.00     0.338 C 
ATOM     34  O   UNL A   1      38.236  20.384  25.351  1.00  0.00    -0.246 OA
BRANCH  33  35
ATOM     35  C   UNL A   1      38.869  22.556  26.177  1.00  0.00     0.060 A 
ATOM     36  C   UNL A   1      38.592  23.896  25.893  1.00  0.00     0.016 A 
ATOM     37  C   UNL A   1      40.127  22.251  26.724  1.00  0.00     0.016 A 
ATOM     38  C   UNL A   1      39.559  24.886  26.071  1.00  0.00     0.010 A 
ATOM     39  C   UNL A   1      41.025  23.283  27.083  1.00  0.00     0.010 A 
ATOM     40  C   UNL A   1      40.717  24.625  26.811  1.00  0.00    -0.014 A 
BRANCH  40  41
ATOM     41  C   UNL A   1      41.414  25.770  27.486  1.00  0.00     0.031 A 
ATOM     42  C   UNL A   1      40.701  26.770  28.354  1.00  0.00     0.074 A 
ATOM     43  C   UNL A   1      42.740  25.923  27.251  1.00  0.00     0.049 A 
ATOM     44  N   UNL A   1      41.122  27.933  28.788  1.00  0.00    -0.248 NA
ATOM     45  C   UNL A   1      39.341  26.427  28.788  1.00  0.00     0.031 C 
ATOM     46  C   UNL A   1      43.569  25.006  26.456  1.00  0.00     0.029 A 
ATOM     47  N   UNL A   1      43.635  26.887  27.646  1.00  0.00    -0.354 N 
ATOM     48  C   UNL A   1      40.068  28.486  29.511  1.00  0.00     0.074 A 
ATOM     49  C   UNL A   1      38.987  27.520  29.455  1.00  0.00     0.031 C 
ATOM     50  C   UNL A   1      44.839  25.414  26.467  1.00  0.00     0.029 A 
ATOM     51  C   UNL A   1      44.897  26.708  27.121  1.00  0.00     0.049 A 
ATOM     52  H   UNL A   1      43.398  27.634  28.244  1.00  0.00     0.167 HD
ATOM     53  C   UNL A   1      40.015  29.691  30.140  1.00  0.00     0.034 A 
ATOM     54  C   UNL A   1      45.971  27.516  27.070  1.00  0.00     0.034 A 
ATOM     55  C   UNL A   1      41.122  30.628  30.176  1.00  0.00     0.049 A 
ATOM     56  C   UNL A   1      45.860  28.874  27.692  1.00  0.00     0.074 A 
ATOM     57  C   UNL A   1      41.180  31.879  30.771  1.00  0.00     0.029 A 
ATOM     58  N   UNL A   1      42.368  30.417  29.593  1.00  0.00    -0.354 N 
ATOM     59  N   UNL A   1      44.832  29.414  28.303  1.00  0.00    -0.248 NA
ATOM     60  C   UNL A   1      47.044  29.732  27.612  1.00  0.00     0.031 C 
ATOM     61  C   UNL A   1      42.427  32.449  30.485  1.00  0.00     0.029 A 
ATOM     62  C   UNL A   1      43.186  31.523  29.790  1.00  0.00     0.049 A 
ATOM     63  H   UNL A   1      42.632  29.602  29.109  1.00  0.00     0.167 HD
ATOM     64  C   UNL A   1      45.253  30.676  28.699  1.00  0.00     0.074 A 
ATOM     65  C   UNL A   1      46.636  30.802  28.277  1.00  0.00     0.031 C 
ATOM     66  C   UNL A   1      44.559  31.641  29.352  1.00  0.00     0.034 A 
BRANCH  53  67
ATOM     67  C   UNL A   1      38.698  30.101  30.771  1.00  0.00     0.023 A 
ATOM     68  C   UNL A   1      37.835  31.032  30.168  1.00  0.00     0.031 A 
ATOM     69  C   UNL A   1      38.311  29.566  32.015  1.00  0.00     0.131 A 
ATOM     70  C   UNL A   1      36.678  31.459  30.843  1.00  0.00     0.055 A 
ATOM     71  C   UNL A   1      37.115  29.930  32.642  1.00  0.00     0.041 A 
ATOM     72  F   UNL A   1      39.094  28.683  32.655  1.00  0.00    -0.206 F 
ATOM     73  C   UNL A   1      36.299  30.897  32.064  1.00  0.00     0.022 A 
BRANCH  70  74
ATOM     74  S   UNL A   1      35.760  32.878  30.180  1.00  0.00     0.124 S 
ATOM     75  O   UNL A   1      34.377  32.427  30.325  1.00  0.00    -0.237 OA
ATOM     76  O   UNL A   1      36.174  33.963  31.062  1.00  0.00    -0.237 OA
ATOM     77  O   UNL A   1      36.233  32.978  28.801  1.00  0.00    -0.744 OA
ENDBRANCH  70  74
ENDBRANCH  53  67
BRANCH  54  78
ATOM     78  C   UNL A   1      47.192  27.094  26.320  1.00  0.00     0.023 A 
ATOM     79  C   UNL A   1      48.226  26.393  26.955  1.00  0.00     0.031 A 
ATOM     80  C   UNL A   1      47.341  27.388  24.949  1.00  0.00     0.131 A 
ATOM     81  C   UNL A   1      49.374  26.035  26.230  1.00  0.00     0.055 A 
ATOM     82  C   UNL A   1      48.451  26.969  24.218  1.00  0.00     0.041 A 
ATOM     83  F   UNL A   1      46.382  28.058  24.288  1.00  0.00    -0.206 F 
ATOM     84  C   UNL A   1      49.485  26.298  24.862  1.00  0.00     0.022 A 
BRANCH  81  85
ATOM     85  S   UNL A   1      50.766  25.293  27.123  1.00  0.00     0.124 S 
ATOM     86  O   UNL A   1      51.245  26.420  27.913  1.00  0.00    -0.237 OA
ATOM     87  O   UNL A   1      50.112  24.221  27.865  1.00  0.00    -0.237 OA
ATOM     88  O   UNL A   1      51.660  24.854  26.054  1.00  0.00    -0.744 OA
ENDBRANCH  81  85
ENDBRANCH  54  78
BRANCH  66  89
ATOM     89  C   UNL A   1      45.322  32.896  29.695  1.00  0.00     0.023 A 
ATOM     90  C   UNL A   1      46.021  33.031  30.907  1.00  0.00     0.031 A 
ATOM     91  C   UNL A   1      45.308  33.989  28.812  1.00  0.00     0.131 A 
ATOM     92  C   UNL A   1      46.619  34.256  31.234  1.00  0.00     0.055 A 
ATOM     93  C   UNL A   1      45.966  35.182  29.111  1.00  0.00     0.041 A 
ATOM     94  F   UNL A   1      44.645  33.919  27.647  1.00  0.00    -0.206 F 
ATOM     95  C   UNL A   1      46.614  35.326  30.335  1.00  0.00     0.022 A 
BRANCH  92  96
ATOM     96  S   UNL A   1      47.303  34.472  32.899  1.00  0.00     0.124 S 
ATOM     97  O   UNL A   1      47.879  33.157  33.161  1.00  0.00    -0.237 OA
ATOM     98  O   UNL A   1      48.257  35.559  32.707  1.00  0.00    -0.237 OA
ATOM     99  O   UNL A   1      46.134  34.810  33.709  1.00  0.00    -0.744 OA
ENDBRANCH  92  96
ENDBRANCH  66  89
ENDBRANCH  40  41
ENDBRANCH  33  35
ENDBRANCH  32  33
ENDBRANCH  31  32
ENDBRANCH   1  31
TORSDOF 18
ENDMDL
MODEL 3
REMARK VINA RESULT:     -11.9      1.047      2.282
REMARK SMILES C[C@@H](C(=O)OCCOC(=O)c1ccc(-c2c3nc(c(-c4cc(S(=O)(=O)[O-])ccc4F)c4ccc([nH]4)c(-c4cc(S(=O)(=O)[O-])ccc4F)c4nc(c(-c5cc(S(=O)(=O)[O-])ccc5F)c5ccc2[nH]5)C=C4)C=C3)cc1)[N@@H+]1CCc2n[nH]c(C(c3ccccc3)c3ccccc3)c2C1
REMARK SMILES IDX 6 1 5 2 3 3 4 4 2 5 1 6 74 7 75 8 95 9 76 11 94 12 77 13
REMARK SMILES IDX 80 14 78 15 79 16 81 18 82 19 83 20 87 21 84 22 86 23 85 24
REMARK SMILES IDX 88 25 89 26 93 27 90 28 92 29 91 30 7 31 8 32 9 33 10 34
REMARK SMILES IDX 11 35 12 36 73 37 13 38 72 39 14 40 15 41 16 42 66 43 17 44
REMARK SMILES IDX 71 45 65 46 67 47 18 48 70 49 64 50 63 51 19 53 51 54 31 55
REMARK SMILES IDX 50 56 32 57 35 58 49 59 68 60 33 61 34 62 48 64 69 65 36 66
REMARK SMILES IDX 20 67 21 68 29 69 22 70 28 71 30 72 27 73 23 74 24 75 25 76
REMARK SMILES IDX 26 77 52 78 53 79 61 80 54 81 60 82 62 83 59 84 55 85 56 86
REMARK SMILES IDX 57 87 58 88 37 89 38 90 46 91 39 92 45 93 47 94 44 95 40 96
REMARK SMILES IDX 41 97 42 98 43 99
REMARK H PARENT 74 10 79 17 67 52 35 63
REMARK Flexibility Score: inf
ROOT
ATOM      1  C   UNL A   1      35.460  20.511  24.680  1.00  0.00     0.274 C 
ENDROOT
BRANCH   1   2
ATOM      2  O   UNL A   1      34.530  20.904  25.752  1.00  0.00    -0.458 OA
BRANCH   2   3
ATOM      3  C   UNL A   1      33.189  20.995  25.424  1.00  0.00     0.364 C 
ATOM      4  O   UNL A   1      32.447  20.016  25.455  1.00  0.00    -0.245 OA
BRANCH   3   5
ATOM      5  C   UNL A   1      32.666  22.469  25.068  1.00  0.00     0.292 C 
ATOM      6  C   UNL A   1      31.174  22.650  25.327  1.00  0.00     0.088 C 
BRANCH   5   7
ATOM      7  N   UNL A   1      33.180  22.994  23.773  1.00  0.00    -0.319 N 
ATOM      8  C   UNL A   1      34.433  23.806  23.668  1.00  0.00     0.269 C 
ATOM      9  C   UNL A   1      32.150  23.655  23.032  1.00  0.00     0.303 C 
ATOM     10  H   UNL A   1      33.494  22.103  23.388  1.00  0.00     0.349 HD
ATOM     11  C   UNL A   1      34.377  25.100  22.711  1.00  0.00     0.120 C 
ATOM     12  C   UNL A   1      31.989  25.074  23.493  1.00  0.00     0.052 A 
ATOM     13  C   UNL A   1      33.017  25.765  22.794  1.00  0.00     0.077 A 
ATOM     14  C   UNL A   1      30.946  25.981  23.372  1.00  0.00     0.056 A 
ATOM     15  N   UNL A   1      32.419  26.341  21.721  1.00  0.00    -0.180 NA
ATOM     16  N   UNL A   1      31.088  26.260  22.030  1.00  0.00    -0.281 N 
ATOM     17  H   UNL A   1      30.348  26.381  21.393  1.00  0.00     0.190 HD
BRANCH  14  18
ATOM     18  C   UNL A   1      30.218  26.963  24.296  1.00  0.00     0.098 C 
BRANCH  18  19
ATOM     19  C   UNL A   1      31.149  27.708  25.292  1.00  0.00    -0.035 A 
ATOM     20  C   UNL A   1      31.132  27.418  26.667  1.00  0.00     0.005 A 
ATOM     21  C   UNL A   1      31.935  28.808  24.892  1.00  0.00     0.005 A 
ATOM     22  C   UNL A   1      31.851  28.214  27.576  1.00  0.00     0.000 A 
ATOM     23  C   UNL A   1      32.652  29.595  25.787  1.00  0.00     0.000 A 
ATOM     24  C   UNL A   1      32.602  29.305  27.136  1.00  0.00     0.000 A 
ENDBRANCH  18  19
BRANCH  18  25
ATOM     25  C   UNL A   1      29.399  27.939  23.427  1.00  0.00    -0.035 A 
ATOM     26  C   UNL A   1      27.992  27.909  23.440  1.00  0.00     0.005 A 
ATOM     27  C   UNL A   1      30.029  29.015  22.780  1.00  0.00     0.005 A 
ATOM     28  C   UNL A   1      27.240  28.963  22.930  1.00  0.00     0.000 A 
ATOM     29  C   UNL A   1      29.272  30.073  22.266  1.00  0.00     0.000 A 
ATOM     30  C   UNL A   1      27.882  30.058  22.368  1.00  0.00     0.000 A 
ENDBRANCH  18  25
ENDBRANCH  14  18
ENDBRANCH   5   7
ENDBRANCH   3   5
ENDBRANCH   2   3
ENDBRANCH   1   2
BRANCH   1  31
ATOM     31  C   UNL A   1      36.927  20.177  25.164  1.00  0.00     0.275 C 
BRANCH  31  32
ATOM     32  O   UNL A   1      37.803  21.341  25.220  1.00  0.00    -0.458 OA
BRANCH  32  33
ATOM     33  C   UNL A   1      39.023  21.213  25.833  1.00  0.00     0.338 C 
ATOM     34  O   UNL A   1      39.755  20.232  25.743  1.00  0.00    -0.246 OA
BRANCH  33  35
ATOM     35  C   UNL A   1      39.433  22.488  26.525  1.00  0.00     0.060 A 
ATOM     36  C   UNL A   1      40.413  22.459  27.521  1.00  0.00     0.016 A 
ATOM     37  C   UNL A   1      38.773  23.706  26.294  1.00  0.00     0.016 A 
ATOM     38  C   UNL A   1      40.671  23.579  28.312  1.00  0.00     0.010 A 
ATOM     39  C   UNL A   1      39.178  24.883  26.964  1.00  0.00     0.010 A 
ATOM     40  C   UNL A   1      40.182  24.837  27.944  1.00  0.00    -0.014 A 
BRANCH  40  41
ATOM     41  C   UNL A   1      40.917  26.060  28.410  1.00  0.00     0.031 A 
ATOM     42  C   UNL A   1      40.249  27.194  29.138  1.00  0.00     0.074 A 
ATOM     43  C   UNL A   1      42.234  26.152  28.106  1.00  0.00     0.049 A 
ATOM     44  N   UNL A   1      40.700  28.402  29.373  1.00  0.00    -0.248 NA
ATOM     45  C   UNL A   1      38.903  26.944  29.669  1.00  0.00     0.031 C 
ATOM     46  C   UNL A   1      43.021  25.111  27.432  1.00  0.00     0.029 A 
ATOM     47  N   UNL A   1      43.155  27.151  28.315  1.00  0.00    -0.354 N 
ATOM     48  C   UNL A   1      39.681  29.078  30.039  1.00  0.00     0.074 A 
ATOM     49  C   UNL A   1      38.587  28.133  30.172  1.00  0.00     0.031 C 
ATOM     50  C   UNL A   1      44.296  25.494  27.334  1.00  0.00     0.029 A 
ATOM     51  C   UNL A   1      44.394  26.871  27.779  1.00  0.00     0.049 A 
ATOM     52  H   UNL A   1      42.950  27.984  28.799  1.00  0.00     0.167 HD
ATOM     53  C   UNL A   1      39.666  30.366  30.478  1.00  0.00     0.034 A 
ATOM     54  C   UNL A   1      45.474  27.644  27.565  1.00  0.00     0.034 A 
ATOM     55  C   UNL A   1      40.784  31.278  30.329  1.00  0.00     0.049 A 
ATOM     56  C   UNL A   1      45.403  29.082  27.975  1.00  0.00     0.074 A 
ATOM     57  C   UNL A   1      40.879  32.604  30.721  1.00  0.00     0.029 A 
ATOM     58  N   UNL A   1      42.005  30.958  29.741  1.00  0.00    -0.354 N 
ATOM     59  N   UNL A   1      44.405  29.727  28.531  1.00  0.00    -0.248 NA
ATOM     60  C   UNL A   1      46.592  29.897  27.721  1.00  0.00     0.031 C 
ATOM     61  C   UNL A   1      42.120  33.102  30.307  1.00  0.00     0.029 A 
ATOM     62  C   UNL A   1      42.842  32.067  29.736  1.00  0.00     0.049 A 
ATOM     63  H   UNL A   1      42.240  30.074  29.379  1.00  0.00     0.167 HD
ATOM     64  C   UNL A   1      44.856  31.027  28.714  1.00  0.00     0.074 A 
ATOM     65  C   UNL A   1      46.222  31.063  28.228  1.00  0.00     0.031 C 
ATOM     66  C   UNL A   1      44.198  32.092  29.236  1.00  0.00     0.034 A 
BRANCH  53  67
ATOM     67  C   UNL A   1      38.379  30.890  31.085  1.00  0.00     0.023 A 
ATOM     68  C   UNL A   1      37.338  31.415  30.300  1.00  0.00     0.031 A 
ATOM     69  C   UNL A   1      38.201  30.885  32.482  1.00  0.00     0.131 A 
ATOM     70  C   UNL A   1      36.211  31.987  30.917  1.00  0.00     0.055 A 
ATOM     71  C   UNL A   1      37.039  31.376  33.086  1.00  0.00     0.041 A 
ATOM     72  F   UNL A   1      39.160  30.411  33.294  1.00  0.00    -0.206 F 
ATOM     73  C   UNL A   1      36.043  31.949  32.302  1.00  0.00     0.022 A 
BRANCH  70  74
ATOM     74  S   UNL A   1      35.044  32.926  29.892  1.00  0.00     0.124 S 
ATOM     75  O   UNL A   1      34.099  33.414  30.894  1.00  0.00    -0.237 OA
ATOM     76  O   UNL A   1      35.902  33.934  29.279  1.00  0.00    -0.237 OA
ATOM     77  O   UNL A   1      34.506  31.922  28.976  1.00  0.00    -0.744 OA
ENDBRANCH  70  74
ENDBRANCH  53  67
BRANCH  54  78
ATOM     78  C   UNL A   1      46.661  27.091  26.845  1.00  0.00     0.023 A 
ATOM     79  C   UNL A   1      46.966  27.489  25.537  1.00  0.00     0.031 A 
ATOM     80  C   UNL A   1      47.512  26.151  27.463  1.00  0.00     0.131 A 
ATOM     81  C   UNL A   1      48.072  26.930  24.877  1.00  0.00     0.055 A 
ATOM     82  C   UNL A   1      48.648  25.651  26.828  1.00  0.00     0.041 A 
ATOM     83  F   UNL A   1      47.269  25.732  28.715  1.00  0.00    -0.206 F 
ATOM     84  C   UNL A   1      48.927  26.031  25.520  1.00  0.00     0.022 A 
BRANCH  81  85
ATOM     85  S   UNL A   1      48.330  27.330  23.128  1.00  0.00     0.124 S 
ATOM     86  O   UNL A   1      47.172  28.168  22.842  1.00  0.00    -0.237 OA
ATOM     87  O   UNL A   1      49.621  28.009  23.161  1.00  0.00    -0.237 OA
ATOM     88  O   UNL A   1      48.331  26.022  22.477  1.00  0.00    -0.744 OA
ENDBRANCH  81  85
ENDBRANCH  54  78
BRANCH  66  89
ATOM     89  C   UNL A   1      44.988  33.372  29.353  1.00  0.00     0.023 A 
ATOM     90  C   UNL A   1      45.028  34.317  28.313  1.00  0.00     0.031 A 
ATOM     91  C   UNL A   1      45.748  33.624  30.508  1.00  0.00     0.131 A 
ATOM     92  C   UNL A   1      45.867  35.436  28.421  1.00  0.00     0.055 A 
ATOM     93  C   UNL A   1      46.525  34.776  30.639  1.00  0.00     0.041 A 
ATOM     94  F   UNL A   1      45.756  32.750  31.527  1.00  0.00    -0.206 F 
ATOM     95  C   UNL A   1      46.599  35.681  29.585  1.00  0.00     0.022 A 
BRANCH  92  96
ATOM     96  S   UNL A   1      46.078  36.505  26.971  1.00  0.00     0.124 S 
ATOM     97  O   UNL A   1      47.471  36.920  27.103  1.00  0.00    -0.237 OA
ATOM     98  O   UNL A   1      45.786  35.596  25.867  1.00  0.00    -0.237 OA
ATOM     99  O   UNL A   1      45.092  37.563  27.179  1.00  0.00    -0.744 OA
ENDBRANCH  92  96
ENDBRANCH  66  89
ENDBRANCH  40  41
ENDBRANCH  33  35
ENDBRANCH  32  33
ENDBRANCH  31  32
ENDBRANCH   1  31
TORSDOF 18
ENDMDL
