MODEL 1
REMARK VINA RESULT:     -11.2      0.000      0.000
REMARK SMILES O=C(OCCOC(=O)c1ccc(C(F)(F)F)nc1NC[C@@H]1CCOC1)c1ccc(-c2c3nc(c(-c4cc(S(=O)(=O)[O-])ccc4F)c4ccc([nH]4)c(-c4cc(S(=O)(=O)[O-])ccc4F)c4nc(c(-c5cc(S(=O)(=O)[O-])ccc5F)c5ccc2[nH]5)C=C4)C=C3)cc1
REMARK SMILES IDX 4 1 3 2 2 3 1 4 26 5 27 6 88 7 28 8 87 9 29 10 30 11 31 12
REMARK SMILES IDX 81 13 32 14 86 15 80 16 82 17 33 18 85 19 79 20 78 21 34 23
REMARK SMILES IDX 66 24 46 25 65 26 47 27 50 28 64 29 83 30 48 31 49 32 63 34
REMARK SMILES IDX 84 35 51 36 35 37 36 38 44 39 37 40 43 41 45 42 42 43 38 44
REMARK SMILES IDX 39 45 40 46 41 47 67 48 68 49 76 50 69 51 75 52 77 53 74 54
REMARK SMILES IDX 70 55 71 56 72 57 73 58 52 59 53 60 61 61 54 62 60 63 62 64
REMARK SMILES IDX 59 65 55 66 56 67 57 68 58 69 5 70 6 71 7 72 8 73 9 74 10 75
REMARK SMILES IDX 18 76 11 77 17 78 12 79 19 80 20 82 21 83 22 84 25 85 23 86
REMARK SMILES IDX 24 87 13 88 14 89 15 90 16 91
REMARK H PARENT 82 22 50 33 19 81
REMARK Flexibility Score: inf
ROOT
ATOM      1  C   UNL A   1      33.796  28.517  25.981  1.00  0.00     0.275 C 
ENDROOT
BRANCH   1   2
ATOM      2  O   UNL A   1      33.679  29.920  26.265  1.00  0.00    -0.458 OA
BRANCH   2   3
ATOM      3  C   UNL A   1      34.155  30.568  27.359  1.00  0.00     0.338 C 
ATOM      4  O   UNL A   1      33.581  31.575  27.767  1.00  0.00    -0.246 OA
BRANCH   3   5
ATOM      5  C   UNL A   1      35.499  30.241  27.915  1.00  0.00     0.060 A 
ATOM      6  C   UNL A   1      36.714  30.388  27.244  1.00  0.00     0.016 A 
ATOM      7  C   UNL A   1      35.512  29.673  29.198  1.00  0.00     0.016 A 
ATOM      8  C   UNL A   1      37.920  30.047  27.868  1.00  0.00     0.010 A 
ATOM      9  C   UNL A   1      36.710  29.351  29.836  1.00  0.00     0.010 A 
ATOM     10  C   UNL A   1      37.922  29.519  29.162  1.00  0.00    -0.014 A 
BRANCH  10  11
ATOM     11  C   UNL A   1      39.158  28.937  29.727  1.00  0.00     0.031 A 
ATOM     12  C   UNL A   1      39.702  29.536  30.992  1.00  0.00     0.074 A 
ATOM     13  C   UNL A   1      39.775  27.902  29.131  1.00  0.00     0.049 A 
ATOM     14  N   UNL A   1      40.757  29.195  31.684  1.00  0.00    -0.248 NA
ATOM     15  C   UNL A   1      38.947  30.667  31.554  1.00  0.00     0.031 C 
ATOM     16  C   UNL A   1      39.305  27.218  27.928  1.00  0.00     0.029 A 
ATOM     17  N   UNL A   1      40.945  27.261  29.443  1.00  0.00    -0.354 N 
ATOM     18  C   UNL A   1      40.765  30.042  32.785  1.00  0.00     0.074 A 
ATOM     19  C   UNL A   1      39.673  30.974  32.613  1.00  0.00     0.031 C 
ATOM     20  C   UNL A   1      40.215  26.299  27.561  1.00  0.00     0.029 A 
ATOM     21  C   UNL A   1      41.320  26.319  28.515  1.00  0.00     0.049 A 
ATOM     22  H   UNL A   1      41.466  27.456  30.255  1.00  0.00     0.167 HD
ATOM     23  C   UNL A   1      41.580  30.013  33.867  1.00  0.00     0.034 A 
ATOM     24  C   UNL A   1      42.434  25.566  28.447  1.00  0.00     0.034 A 
ATOM     25  C   UNL A   1      42.693  29.109  33.990  1.00  0.00     0.049 A 
ATOM     26  C   UNL A   1      43.417  25.638  29.587  1.00  0.00     0.074 A 
ATOM     27  C   UNL A   1      43.602  28.982  35.023  1.00  0.00     0.029 A 
ATOM     28  N   UNL A   1      43.063  28.185  33.018  1.00  0.00    -0.354 N 
ATOM     29  N   UNL A   1      43.380  26.396  30.660  1.00  0.00    -0.248 NA
ATOM     30  C   UNL A   1      44.566  24.726  29.532  1.00  0.00     0.031 C 
ATOM     31  C   UNL A   1      44.552  28.023  34.651  1.00  0.00     0.029 A 
ATOM     32  C   UNL A   1      44.201  27.504  33.414  1.00  0.00     0.049 A 
ATOM     33  H   UNL A   1      42.585  28.038  32.170  1.00  0.00     0.167 HD
ATOM     34  C   UNL A   1      44.468  26.011  31.435  1.00  0.00     0.074 A 
ATOM     35  C   UNL A   1      45.150  24.965  30.697  1.00  0.00     0.031 C 
ATOM     36  C   UNL A   1      44.855  26.460  32.657  1.00  0.00     0.034 A 
BRANCH  23  37
ATOM     37  C   UNL A   1      41.282  31.015  34.955  1.00  0.00     0.023 A 
ATOM     38  C   UNL A   1      40.136  30.883  35.765  1.00  0.00     0.031 A 
ATOM     39  C   UNL A   1      42.067  32.168  35.109  1.00  0.00     0.131 A 
ATOM     40  C   UNL A   1      39.746  31.936  36.605  1.00  0.00     0.055 A 
ATOM     41  C   UNL A   1      41.721  33.174  36.015  1.00  0.00     0.041 A 
ATOM     42  F   UNL A   1      43.158  32.359  34.351  1.00  0.00    -0.206 F 
ATOM     43  C   UNL A   1      40.543  33.073  36.751  1.00  0.00     0.022 A 
BRANCH  40  44
ATOM     44  S   UNL A   1      38.091  31.878  37.348  1.00  0.00     0.124 S 
ATOM     45  O   UNL A   1      37.357  32.822  36.510  1.00  0.00    -0.237 OA
ATOM     46  O   UNL A   1      37.726  30.474  37.199  1.00  0.00    -0.237 OA
ATOM     47  O   UNL A   1      38.318  32.323  38.723  1.00  0.00    -0.744 OA
ENDBRANCH  40  44
ENDBRANCH  23  37
BRANCH  24  48
ATOM     48  C   UNL A   1      42.675  24.689  27.268  1.00  0.00     0.023 A 
ATOM     49  C   UNL A   1      42.266  23.346  27.252  1.00  0.00     0.031 A 
ATOM     50  C   UNL A   1      43.342  25.189  26.134  1.00  0.00     0.131 A 
ATOM     51  C   UNL A   1      42.557  22.540  26.138  1.00  0.00     0.055 A 
ATOM     52  C   UNL A   1      43.603  24.392  25.018  1.00  0.00     0.041 A 
ATOM     53  F   UNL A   1      43.734  26.473  26.091  1.00  0.00    -0.206 F 
ATOM     54  C   UNL A   1      43.218  23.056  25.021  1.00  0.00     0.022 A 
BRANCH  51  55
ATOM     55  S   UNL A   1      42.092  20.788  26.188  1.00  0.00     0.124 S 
ATOM     56  O   UNL A   1      43.118  20.182  25.348  1.00  0.00    -0.237 OA
ATOM     57  O   UNL A   1      42.174  20.497  27.615  1.00  0.00    -0.237 OA
ATOM     58  O   UNL A   1      40.741  20.779  25.630  1.00  0.00    -0.744 OA
ENDBRANCH  51  55
ENDBRANCH  24  48
BRANCH  36  59
ATOM     59  C   UNL A   1      46.028  25.766  33.298  1.00  0.00     0.023 A 
ATOM     60  C   UNL A   1      45.863  24.659  34.146  1.00  0.00     0.031 A 
ATOM     61  C   UNL A   1      47.333  26.223  33.042  1.00  0.00     0.131 A 
ATOM     62  C   UNL A   1      46.986  24.074  34.749  1.00  0.00     0.055 A 
ATOM     63  C   UNL A   1      48.449  25.602  33.601  1.00  0.00     0.041 A 
ATOM     64  F   UNL A   1      47.543  27.278  32.238  1.00  0.00    -0.206 F 
ATOM     65  C   UNL A   1      48.278  24.526  34.469  1.00  0.00     0.022 A 
BRANCH  62  66
ATOM     66  S   UNL A   1      46.731  22.751  35.963  1.00  0.00     0.124 S 
ATOM     67  O   UNL A   1      47.830  21.842  35.654  1.00  0.00    -0.237 OA
ATOM     68  O   UNL A   1      46.831  23.466  37.231  1.00  0.00    -0.237 OA
ATOM     69  O   UNL A   1      45.397  22.245  35.641  1.00  0.00    -0.744 OA
ENDBRANCH  62  66
ENDBRANCH  36  59
ENDBRANCH  10  11
ENDBRANCH   3   5
ENDBRANCH   2   3
ENDBRANCH   1   2
BRANCH   1  70
ATOM     70  C   UNL A   1      34.034  28.199  24.504  1.00  0.00     0.275 C 
BRANCH  70  71
ATOM     71  O   UNL A   1      33.271  27.078  24.031  1.00  0.00    -0.458 OA
BRANCH  71  72
ATOM     72  C   UNL A   1      32.855  27.177  22.741  1.00  0.00     0.342 C 
ATOM     73  O   UNL A   1      33.424  26.720  21.761  1.00  0.00    -0.246 OA
BRANCH  72  74
ATOM     74  C   UNL A   1      31.528  27.815  22.685  1.00  0.00     0.102 A 
ATOM     75  C   UNL A   1      31.366  29.059  22.072  1.00  0.00     0.022 A 
ATOM     76  C   UNL A   1      30.430  27.184  23.286  1.00  0.00     0.141 A 
ATOM     77  C   UNL A   1      30.116  29.667  22.101  1.00  0.00     0.034 A 
ATOM     78  N   UNL A   1      29.224  27.794  23.331  1.00  0.00    -0.226 NA
ATOM     79  C   UNL A   1      29.068  29.031  22.764  1.00  0.00     0.146 A 
BRANCH  76  80
ATOM     80  N   UNL A   1      30.568  25.959  23.907  1.00  0.00    -0.369 N 
ATOM     81  H   UNL A   1      30.843  25.193  23.353  1.00  0.00     0.162 HD
BRANCH  80  82
ATOM     82  C   UNL A   1      30.337  25.724  25.315  1.00  0.00     0.120 C 
BRANCH  82  83
ATOM     83  C   UNL A   1      30.639  24.275  25.710  1.00  0.00     0.036 C 
ATOM     84  C   UNL A   1      31.837  24.215  26.645  1.00  0.00     0.036 C 
ATOM     85  C   UNL A   1      31.110  23.388  24.562  1.00  0.00     0.165 C 
ATOM     86  C   UNL A   1      33.003  24.137  25.681  1.00  0.00     0.160 C 
ATOM     87  O   UNL A   1      32.546  23.350  24.578  1.00  0.00    -0.381 OA
ENDBRANCH  82  83
ENDBRANCH  80  82
ENDBRANCH  76  80
BRANCH  79  88
ATOM     88  C   UNL A   1      27.723  29.735  22.904  1.00  0.00     0.433 C 
ATOM     89  F   UNL A   1      26.712  28.876  23.230  1.00  0.00    -0.165 F 
ATOM     90  F   UNL A   1      27.728  30.694  23.873  1.00  0.00    -0.165 F 
ATOM     91  F   UNL A   1      27.314  30.357  21.762  1.00  0.00    -0.165 F 
ENDBRANCH  79  88
ENDBRANCH  72  74
ENDBRANCH  71  72
ENDBRANCH  70  71
ENDBRANCH   1  70
TORSDOF 18
ENDMDL
MODEL 2
REMARK VINA RESULT:     -11.2      2.266      3.655
REMARK SMILES O=C(OCCOC(=O)c1ccc(C(F)(F)F)nc1NC[C@@H]1CCOC1)c1ccc(-c2c3nc(c(-c4cc(S(=O)(=O)[O-])ccc4F)c4ccc([nH]4)c(-c4cc(S(=O)(=O)[O-])ccc4F)c4nc(c(-c5cc(S(=O)(=O)[O-])ccc5F)c5ccc2[nH]5)C=C4)C=C3)cc1
REMARK SMILES IDX 4 1 3 2 2 3 1 4 26 5 27 6 88 7 28 8 87 9 29 10 30 11 31 12
REMARK SMILES IDX 81 13 32 14 86 15 80 16 82 17 33 18 85 19 79 20 78 21 34 23
REMARK SMILES IDX 66 24 46 25 65 26 47 27 50 28 64 29 83 30 48 31 49 32 63 34
REMARK SMILES IDX 84 35 51 36 35 37 36 38 44 39 37 40 43 41 45 42 42 43 38 44
REMARK SMILES IDX 39 45 40 46 41 47 67 48 68 49 76 50 69 51 75 52 77 53 74 54
REMARK SMILES IDX 70 55 71 56 72 57 73 58 52 59 53 60 61 61 54 62 60 63 62 64
REMARK SMILES IDX 59 65 55 66 56 67 57 68 58 69 5 70 6 71 7 72 8 73 9 74 10 75
REMARK SMILES IDX 18 76 11 77 17 78 12 79 19 80 20 82 21 83 22 84 25 85 23 86
REMARK SMILES IDX 24 87 13 88 14 89 15 90 16 91
REMARK H PARENT 82 22 50 33 19 81
REMARK Flexibility Score: inf
ROOT
ATOM      1  C   UNL A   1      31.973  32.998  26.779  1.00  0.00     0.275 C 
ENDROOT
BRANCH   1   2
ATOM      2  O   UNL A   1      32.613  33.537  27.947  1.00  0.00    -0.458 OA
BRANCH   2   3
ATOM      3  C   UNL A   1      33.896  33.969  28.042  1.00  0.00     0.338 C 
ATOM      4  O   UNL A   1      34.218  35.036  27.526  1.00  0.00    -0.246 OA
BRANCH   3   5
ATOM      5  C   UNL A   1      34.973  33.059  28.528  1.00  0.00     0.060 A 
ATOM      6  C   UNL A   1      34.777  31.865  29.222  1.00  0.00     0.016 A 
ATOM      7  C   UNL A   1      36.289  33.497  28.317  1.00  0.00     0.016 A 
ATOM      8  C   UNL A   1      35.868  31.089  29.630  1.00  0.00     0.010 A 
ATOM      9  C   UNL A   1      37.382  32.720  28.700  1.00  0.00     0.010 A 
ATOM     10  C   UNL A   1      37.174  31.517  29.379  1.00  0.00    -0.014 A 
BRANCH  10  11
ATOM     11  C   UNL A   1      38.318  30.831  30.014  1.00  0.00     0.031 A 
ATOM     12  C   UNL A   1      38.728  31.273  31.390  1.00  0.00     0.074 A 
ATOM     13  C   UNL A   1      38.972  29.839  29.385  1.00  0.00     0.049 A 
ATOM     14  N   UNL A   1      39.685  30.821  32.156  1.00  0.00    -0.248 NA
ATOM     15  C   UNL A   1      37.944  32.369  31.981  1.00  0.00     0.031 C 
ATOM     16  C   UNL A   1      38.626  29.303  28.070  1.00  0.00     0.029 A 
ATOM     17  N   UNL A   1      40.079  29.122  29.756  1.00  0.00    -0.354 N 
ATOM     18  C   UNL A   1      39.588  31.548  33.335  1.00  0.00     0.074 A 
ATOM     19  C   UNL A   1      38.550  32.535  33.143  1.00  0.00     0.031 C 
ATOM     20  C   UNL A   1      39.547  28.391  27.711  1.00  0.00     0.029 A 
ATOM     21  C   UNL A   1      40.534  28.267  28.781  1.00  0.00     0.049 A 
ATOM     22  H   UNL A   1      40.507  29.211  30.638  1.00  0.00     0.167 HD
ATOM     23  C   UNL A   1      40.270  31.374  34.494  1.00  0.00     0.034 A 
ATOM     24  C   UNL A   1      41.626  27.481  28.758  1.00  0.00     0.034 A 
ATOM     25  C   UNL A   1      41.335  30.418  34.644  1.00  0.00     0.049 A 
ATOM     26  C   UNL A   1      42.471  27.396  30.003  1.00  0.00     0.074 A 
ATOM     27  C   UNL A   1      42.114  30.149  35.753  1.00  0.00     0.029 A 
ATOM     28  N   UNL A   1      41.791  29.586  33.626  1.00  0.00    -0.354 N 
ATOM     29  N   UNL A   1      42.330  28.039  31.140  1.00  0.00    -0.248 NA
ATOM     30  C   UNL A   1      43.593  26.449  29.980  1.00  0.00     0.031 C 
ATOM     31  C   UNL A   1      43.074  29.196  35.390  1.00  0.00     0.029 A 
ATOM     32  C   UNL A   1      42.855  28.822  34.072  1.00  0.00     0.049 A 
ATOM     33  H   UNL A   1      41.410  29.546  32.718  1.00  0.00     0.167 HD
ATOM     34  C   UNL A   1      43.309  27.533  31.988  1.00  0.00     0.074 A 
ATOM     35  C   UNL A   1      44.043  26.542  31.224  1.00  0.00     0.031 C 
ATOM     36  C   UNL A   1      43.564  27.837  33.287  1.00  0.00     0.034 A 
BRANCH  23  37
ATOM     37  C   UNL A   1      39.875  32.269  35.643  1.00  0.00     0.023 A 
ATOM     38  C   UNL A   1      39.031  31.798  36.668  1.00  0.00     0.031 A 
ATOM     39  C   UNL A   1      40.235  33.626  35.657  1.00  0.00     0.131 A 
ATOM     40  C   UNL A   1      38.484  32.698  37.595  1.00  0.00     0.055 A 
ATOM     41  C   UNL A   1      39.758  34.499  36.637  1.00  0.00     0.041 A 
ATOM     42  F   UNL A   1      41.018  34.136  34.694  1.00  0.00    -0.206 F 
ATOM     43  C   UNL A   1      38.859  34.043  37.599  1.00  0.00     0.022 A 
BRANCH  40  44
ATOM     44  S   UNL A   1      37.134  32.122  38.662  1.00  0.00     0.124 S 
ATOM     45  O   UNL A   1      36.004  32.894  38.153  1.00  0.00    -0.237 OA
ATOM     46  O   UNL A   1      37.104  30.690  38.388  1.00  0.00    -0.237 OA
ATOM     47  O   UNL A   1      37.578  32.493  40.005  1.00  0.00    -0.744 OA
ENDBRANCH  40  44
ENDBRANCH  23  37
BRANCH  24  48
ATOM     48  C   UNL A   1      41.979  26.722  27.526  1.00  0.00     0.023 A 
ATOM     49  C   UNL A   1      41.805  25.332  27.443  1.00  0.00     0.031 A 
ATOM     50  C   UNL A   1      42.517  27.389  26.410  1.00  0.00     0.131 A 
ATOM     51  C   UNL A   1      42.196  24.648  26.279  1.00  0.00     0.055 A 
ATOM     52  C   UNL A   1      42.877  26.709  25.246  1.00  0.00     0.041 A 
ATOM     53  F   UNL A   1      42.684  28.721  26.432  1.00  0.00    -0.206 F 
ATOM     54  C   UNL A   1      42.727  25.328  25.180  1.00  0.00     0.022 A 
BRANCH  51  55
ATOM     55  S   UNL A   1      42.038  22.842  26.238  1.00  0.00     0.124 S 
ATOM     56  O   UNL A   1      40.592  22.665  26.311  1.00  0.00    -0.237 OA
ATOM     57  O   UNL A   1      42.662  22.516  24.960  1.00  0.00    -0.237 OA
ATOM     58  O   UNL A   1      42.782  22.408  27.419  1.00  0.00    -0.744 OA
ENDBRANCH  51  55
ENDBRANCH  24  48
BRANCH  36  59
ATOM     59  C   UNL A   1      44.634  27.033  33.977  1.00  0.00     0.023 A 
ATOM     60  C   UNL A   1      44.364  25.786  34.562  1.00  0.00     0.031 A 
ATOM     61  C   UNL A   1      45.948  27.531  34.040  1.00  0.00     0.131 A 
ATOM     62  C   UNL A   1      45.389  25.096  35.228  1.00  0.00     0.055 A 
ATOM     63  C   UNL A   1      46.973  26.816  34.656  1.00  0.00     0.041 A 
ATOM     64  F   UNL A   1      46.255  28.720  33.496  1.00  0.00    -0.206 F 
ATOM     65  C   UNL A   1      46.694  25.594  35.264  1.00  0.00     0.022 A 
BRANCH  62  66
ATOM     66  S   UNL A   1      44.975  23.567  36.111  1.00  0.00     0.124 S 
ATOM     67  O   UNL A   1      44.929  24.021  37.497  1.00  0.00    -0.237 OA
ATOM     68  O   UNL A   1      43.695  23.199  35.516  1.00  0.00    -0.237 OA
ATOM     69  O   UNL A   1      46.087  22.675  35.787  1.00  0.00    -0.744 OA
ENDBRANCH  62  66
ENDBRANCH  36  59
ENDBRANCH  10  11
ENDBRANCH   3   5
ENDBRANCH   2   3
ENDBRANCH   1   2
BRANCH   1  70
ATOM     70  C   UNL A   1      31.374  31.605  26.985  1.00  0.00     0.275 C 
BRANCH  70  71
ATOM     71  O   UNL A   1      31.406  30.790  25.804  1.00  0.00    -0.458 OA
BRANCH  71  72
ATOM     72  C   UNL A   1      32.484  29.967  25.709  1.00  0.00     0.342 C 
ATOM     73  O   UNL A   1      33.617  30.213  26.093  1.00  0.00    -0.246 OA
BRANCH  72  74
ATOM     74  C   UNL A   1      32.072  28.654  25.183  1.00  0.00     0.102 A 
ATOM     75  C   UNL A   1      32.566  27.477  25.749  1.00  0.00     0.022 A 
ATOM     76  C   UNL A   1      31.207  28.590  24.081  1.00  0.00     0.141 A 
ATOM     77  C   UNL A   1      32.216  26.257  25.182  1.00  0.00     0.034 A 
ATOM     78  N   UNL A   1      30.891  27.400  23.521  1.00  0.00    -0.226 NA
ATOM     79  C   UNL A   1      31.404  26.245  24.050  1.00  0.00     0.146 A 
BRANCH  76  80
ATOM     80  N   UNL A   1      30.714  29.740  23.499  1.00  0.00    -0.369 N 
ATOM     81  H   UNL A   1      30.599  30.531  24.073  1.00  0.00     0.162 HD
BRANCH  80  82
ATOM     82  C   UNL A   1      30.354  29.861  22.103  1.00  0.00     0.120 C 
BRANCH  82  83
ATOM     83  C   UNL A   1      28.869  30.192  21.922  1.00  0.00     0.036 C 
ATOM     84  C   UNL A   1      28.686  31.668  21.607  1.00  0.00     0.036 C 
ATOM     85  C   UNL A   1      28.027  30.047  23.186  1.00  0.00     0.165 C 
ATOM     86  C   UNL A   1      28.600  32.290  22.985  1.00  0.00     0.160 C 
ATOM     87  O   UNL A   1      27.906  31.340  23.800  1.00  0.00    -0.381 OA
ENDBRANCH  82  83
ENDBRANCH  80  82
ENDBRANCH  76  80
BRANCH  79  88
ATOM     88  C   UNL A   1      31.103  24.925  23.348  1.00  0.00     0.433 C 
ATOM     89  F   UNL A   1      31.381  24.964  22.011  1.00  0.00    -0.165 F 
ATOM     90  F   UNL A   1      31.825  23.884  23.852  1.00  0.00    -0.165 F 
ATOM     91  F   UNL A   1      29.794  24.551  23.433  1.00  0.00    -0.165 F 
ENDBRANCH  79  88
ENDBRANCH  72  74
ENDBRANCH  71  72
ENDBRANCH  70  71
ENDBRANCH   1  70
TORSDOF 18
ENDMDL
MODEL 3
REMARK VINA RESULT:     -11.2      1.841      2.148
REMARK SMILES O=C(OCCOC(=O)c1ccc(C(F)(F)F)nc1NC[C@@H]1CCOC1)c1ccc(-c2c3nc(c(-c4cc(S(=O)(=O)[O-])ccc4F)c4ccc([nH]4)c(-c4cc(S(=O)(=O)[O-])ccc4F)c4nc(c(-c5cc(S(=O)(=O)[O-])ccc5F)c5ccc2[nH]5)C=C4)C=C3)cc1
REMARK SMILES IDX 4 1 3 2 2 3 1 4 26 5 27 6 88 7 28 8 87 9 29 10 30 11 31 12
REMARK SMILES IDX 81 13 32 14 86 15 80 16 82 17 33 18 85 19 79 20 78 21 34 23
REMARK SMILES IDX 66 24 46 25 65 26 47 27 50 28 64 29 83 30 48 31 49 32 63 34
REMARK SMILES IDX 84 35 51 36 35 37 36 38 44 39 37 40 43 41 45 42 42 43 38 44
REMARK SMILES IDX 39 45 40 46 41 47 67 48 68 49 76 50 69 51 75 52 77 53 74 54
REMARK SMILES IDX 70 55 71 56 72 57 73 58 52 59 53 60 61 61 54 62 60 63 62 64
REMARK SMILES IDX 59 65 55 66 56 67 57 68 58 69 5 70 6 71 7 72 8 73 9 74 10 75
REMARK SMILES IDX 18 76 11 77 17 78 12 79 19 80 20 82 21 83 22 84 25 85 23 86
REMARK SMILES IDX 24 87 13 88 14 89 15 90 16 91
REMARK H PARENT 82 22 50 33 19 81
REMARK Flexibility Score: inf
ROOT
ATOM      1  C   UNL A   1      32.944  29.986  26.369  1.00  0.00     0.275 C 
ENDROOT
BRANCH   1   2
ATOM      2  O   UNL A   1      33.380  30.559  27.613  1.00  0.00    -0.458 OA
BRANCH   2   3
ATOM      3  C   UNL A   1      34.555  31.197  27.844  1.00  0.00     0.338 C 
ATOM      4  O   UNL A   1      34.703  32.355  27.462  1.00  0.00    -0.246 OA
BRANCH   3   5
ATOM      5  C   UNL A   1      35.753  30.443  28.314  1.00  0.00     0.060 A 
ATOM      6  C   UNL A   1      35.872  29.789  29.541  1.00  0.00     0.016 A 
ATOM      7  C   UNL A   1      36.867  30.465  27.461  1.00  0.00     0.016 A 
ATOM      8  C   UNL A   1      37.049  29.111  29.877  1.00  0.00     0.010 A 
ATOM      9  C   UNL A   1      38.035  29.773  27.777  1.00  0.00     0.010 A 
ATOM     10  C   UNL A   1      38.138  29.107  29.001  1.00  0.00    -0.014 A 
BRANCH  10  11
ATOM     11  C   UNL A   1      39.453  28.603  29.450  1.00  0.00     0.031 A 
ATOM     12  C   UNL A   1      40.163  29.360  30.535  1.00  0.00     0.074 A 
ATOM     13  C   UNL A   1      39.998  27.500  28.907  1.00  0.00     0.049 A 
ATOM     14  N   UNL A   1      41.313  29.112  31.103  1.00  0.00    -0.248 NA
ATOM     15  C   UNL A   1      39.475  30.553  31.052  1.00  0.00     0.031 C 
ATOM     16  C   UNL A   1      39.372  26.667  27.882  1.00  0.00     0.029 A 
ATOM     17  N   UNL A   1      41.212  26.905  29.124  1.00  0.00    -0.354 N 
ATOM     18  C   UNL A   1      41.464  30.093  32.074  1.00  0.00     0.074 A 
ATOM     19  C   UNL A   1      40.341  30.995  31.947  1.00  0.00     0.031 C 
ATOM     20  C   UNL A   1      40.237  25.708  27.506  1.00  0.00     0.029 A 
ATOM     21  C   UNL A   1      41.468  25.851  28.279  1.00  0.00     0.049 A 
ATOM     22  H   UNL A   1      41.841  27.203  29.820  1.00  0.00     0.167 HD
ATOM     23  C   UNL A   1      42.427  30.204  33.022  1.00  0.00     0.034 A 
ATOM     24  C   UNL A   1      42.574  25.096  28.145  1.00  0.00     0.034 A 
ATOM     25  C   UNL A   1      43.563  29.324  33.095  1.00  0.00     0.049 A 
ATOM     26  C   UNL A   1      43.710  25.315  29.111  1.00  0.00     0.074 A 
ATOM     27  C   UNL A   1      44.615  29.332  33.992  1.00  0.00     0.029 A 
ATOM     28  N   UNL A   1      43.807  28.283  32.205  1.00  0.00    -0.354 N 
ATOM     29  N   UNL A   1      43.814  26.205  30.073  1.00  0.00    -0.248 NA
ATOM     30  C   UNL A   1      44.856  24.404  29.006  1.00  0.00     0.031 C 
ATOM     31  C   UNL A   1      45.519  28.334  33.611  1.00  0.00     0.029 A 
ATOM     32  C   UNL A   1      45.003  27.659  32.514  1.00  0.00     0.049 A 
ATOM     33  H   UNL A   1      43.214  28.027  31.461  1.00  0.00     0.167 HD
ATOM     34  C   UNL A   1      45.010  25.924  30.724  1.00  0.00     0.074 A 
ATOM     35  C   UNL A   1      45.598  24.791  30.034  1.00  0.00     0.031 C 
ATOM     36  C   UNL A   1      45.561  26.527  31.809  1.00  0.00     0.034 A 
BRANCH  23  37
ATOM     37  C   UNL A   1      42.270  31.338  34.005  1.00  0.00     0.023 A 
ATOM     38  C   UNL A   1      41.341  31.255  35.061  1.00  0.00     0.031 A 
ATOM     39  C   UNL A   1      42.953  32.550  33.823  1.00  0.00     0.131 A 
ATOM     40  C   UNL A   1      41.037  32.395  35.819  1.00  0.00     0.055 A 
ATOM     41  C   UNL A   1      42.711  33.657  34.641  1.00  0.00     0.041 A 
ATOM     42  F   UNL A   1      43.834  32.696  32.821  1.00  0.00    -0.206 F 
ATOM     43  C   UNL A   1      41.731  33.592  35.629  1.00  0.00     0.022 A 
BRANCH  40  44
ATOM     44  S   UNL A   1      39.592  32.342  36.915  1.00  0.00     0.124 S 
ATOM     45  O   UNL A   1      38.845  33.518  36.479  1.00  0.00    -0.237 OA
ATOM     46  O   UNL A   1      38.996  31.051  36.589  1.00  0.00    -0.237 OA
ATOM     47  O   UNL A   1      40.173  32.442  38.253  1.00  0.00    -0.744 OA
ENDBRANCH  40  44
ENDBRANCH  23  37
BRANCH  24  48
ATOM     48  C   UNL A   1      42.659  24.075  27.065  1.00  0.00     0.023 A 
ATOM     49  C   UNL A   1      42.073  22.807  27.202  1.00  0.00     0.031 A 
ATOM     50  C   UNL A   1      43.353  24.356  25.874  1.00  0.00     0.131 A 
ATOM     51  C   UNL A   1      42.218  21.856  26.178  1.00  0.00     0.055 A 
ATOM     52  C   UNL A   1      43.471  23.418  24.847  1.00  0.00     0.041 A 
ATOM     53  F   UNL A   1      43.914  25.562  25.685  1.00  0.00    -0.206 F 
ATOM     54  C   UNL A   1      42.909  22.155  25.001  1.00  0.00     0.022 A 
BRANCH  51  55
ATOM     55  S   UNL A   1      41.522  20.199  26.425  1.00  0.00     0.124 S 
ATOM     56  O   UNL A   1      42.231  19.423  25.413  1.00  0.00    -0.237 OA
ATOM     57  O   UNL A   1      41.881  19.928  27.813  1.00  0.00    -0.237 OA
ATOM     58  O   UNL A   1      40.094  20.391  26.180  1.00  0.00    -0.744 OA
ENDBRANCH  51  55
ENDBRANCH  24  48
BRANCH  36  59
ATOM     59  C   UNL A   1      46.827  25.921  32.355  1.00  0.00     0.023 A 
ATOM     60  C   UNL A   1      48.086  26.214  31.807  1.00  0.00     0.031 A 
ATOM     61  C   UNL A   1      46.763  25.040  33.449  1.00  0.00     0.131 A 
ATOM     62  C   UNL A   1      49.231  25.591  32.327  1.00  0.00     0.055 A 
ATOM     63  C   UNL A   1      47.910  24.467  33.996  1.00  0.00     0.041 A 
ATOM     64  F   UNL A   1      45.582  24.729  34.008  1.00  0.00    -0.206 F 
ATOM     65  C   UNL A   1      49.153  24.734  33.428  1.00  0.00     0.022 A 
BRANCH  62  66
ATOM     66  S   UNL A   1      50.821  25.863  31.498  1.00  0.00     0.124 S 
ATOM     67  O   UNL A   1      50.534  25.413  30.140  1.00  0.00    -0.237 OA
ATOM     68  O   UNL A   1      51.019  27.299  31.665  1.00  0.00    -0.237 OA
ATOM     69  O   UNL A   1      51.747  25.019  32.250  1.00  0.00    -0.744 OA
ENDBRANCH  62  66
ENDBRANCH  36  59
ENDBRANCH  10  11
ENDBRANCH   3   5
ENDBRANCH   2   3
ENDBRANCH   1   2
BRANCH   1  70
ATOM     70  C   UNL A   1      33.781  28.792  25.907  1.00  0.00     0.275 C 
BRANCH  70  71
ATOM     71  O   UNL A   1      33.916  28.709  24.480  1.00  0.00    -0.458 OA
BRANCH  71  72
ATOM     72  C   UNL A   1      33.278  27.653  23.909  1.00  0.00     0.342 C 
ATOM     73  O   UNL A   1      33.700  26.509  23.832  1.00  0.00    -0.246 OA
BRANCH  72  74
ATOM     74  C   UNL A   1      31.921  28.048  23.493  1.00  0.00     0.102 A 
ATOM     75  C   UNL A   1      31.724  29.188  22.712  1.00  0.00     0.022 A 
ATOM     76  C   UNL A   1      30.819  27.293  23.918  1.00  0.00     0.141 A 
ATOM     77  C   UNL A   1      30.425  29.575  22.398  1.00  0.00     0.034 A 
ATOM     78  N   UNL A   1      29.559  27.689  23.629  1.00  0.00    -0.226 NA
ATOM     79  C   UNL A   1      29.358  28.828  22.895  1.00  0.00     0.146 A 
BRANCH  76  80
ATOM     80  N   UNL A   1      30.989  26.168  24.699  1.00  0.00    -0.369 N 
ATOM     81  H   UNL A   1      31.230  26.298  25.644  1.00  0.00     0.162 HD
BRANCH  80  82
ATOM     82  C   UNL A   1      30.838  24.810  24.222  1.00  0.00     0.120 C 
BRANCH  82  83
ATOM     83  C   UNL A   1      31.702  23.826  25.018  1.00  0.00     0.036 C 
ATOM     84  C   UNL A   1      30.852  22.686  25.556  1.00  0.00     0.036 C 
ATOM     85  C   UNL A   1      32.294  24.395  26.304  1.00  0.00     0.165 C 
ATOM     86  C   UNL A   1      30.362  23.238  26.879  1.00  0.00     0.160 C 
ATOM     87  O   UNL A   1      31.438  24.025  27.397  1.00  0.00    -0.381 OA
ENDBRANCH  82  83
ENDBRANCH  80  82
ENDBRANCH  76  80
BRANCH  79  88
ATOM     88  C   UNL A   1      27.928  29.301  22.656  1.00  0.00     0.433 C 
ATOM     89  F   UNL A   1      27.020  28.283  22.724  1.00  0.00    -0.165 F 
ATOM     90  F   UNL A   1      27.521  30.230  23.568  1.00  0.00    -0.165 F 
ATOM     91  F   UNL A   1      27.741  29.870  21.431  1.00  0.00    -0.165 F 
ENDBRANCH  79  88
ENDBRANCH  72  74
ENDBRANCH  71  72
ENDBRANCH  70  71
ENDBRANCH   1  70
TORSDOF 18
ENDMDL
