MODEL 1
REMARK VINA RESULT:     -11.9      0.000      0.000
REMARK SMILES Cc1nn(-c2ccncn2)c(C)c1[C@@H](C)C(=O)OCCOC(=O)c1ccc(-c2c3nc(c(-c4cc(S(=O)(=O)[O-])ccc4F)c4ccc([nH]4)c(-c4cc(S(=O)(=O)[O-])ccc4F)c4nc(c(-c5cc(S(=O)(=O)[O-])ccc5F)c5ccc2[nH]5)C=C4)C=C3)cc1
REMARK SMILES IDX 20 1 19 2 18 3 16 4 17 5 14 6 15 7 13 8 1 9 2 10 3 11 4 12
REMARK SMILES IDX 11 13 12 14 5 15 6 16 10 17 7 18 9 19 8 20 21 21 22 22 23 23
REMARK SMILES IDX 24 24 25 25 86 26 26 27 85 28 27 29 28 30 29 31 79 32 30 33
REMARK SMILES IDX 84 34 78 35 80 36 31 37 83 38 77 39 76 40 32 42 64 43 44 44
REMARK SMILES IDX 63 45 45 46 48 47 62 48 81 49 46 50 47 51 61 53 82 54 49 55
REMARK SMILES IDX 33 56 34 57 42 58 35 59 41 60 43 61 40 62 36 63 37 64 38 65
REMARK SMILES IDX 39 66 65 67 66 68 74 69 67 70 73 71 75 72 72 73 68 74 69 75
REMARK SMILES IDX 70 76 71 77 50 78 51 79 59 80 52 81 58 82 60 83 57 84 53 85
REMARK SMILES IDX 54 86 55 87 56 88
REMARK H PARENT 80 41 48 52
REMARK Flexibility Score: inf
ROOT
ATOM      1  C   UNL A   1      38.767  22.984  26.164  1.00  0.00     0.275 C 
ENDROOT
BRANCH   1   2
ATOM      2  C   UNL A   1      37.505  23.145  25.329  1.00  0.00     0.274 C 
BRANCH   2   3
ATOM      3  O   UNL A   1      36.539  23.959  26.016  1.00  0.00    -0.462 OA
BRANCH   3   4
ATOM      4  C   UNL A   1      35.229  23.818  25.686  1.00  0.00     0.313 C 
ATOM      5  O   UNL A   1      34.306  24.188  26.409  1.00  0.00    -0.252 OA
BRANCH   4   6
ATOM      6  C   UNL A   1      34.989  23.075  24.369  1.00  0.00     0.130 C 
ATOM      7  C   UNL A   1      34.475  24.067  23.332  1.00  0.00     0.025 C 
BRANCH   6   8
ATOM      8  C   UNL A   1      34.149  21.811  24.410  1.00  0.00     0.010 A 
ATOM      9  C   UNL A   1      31.764  22.789  23.823  1.00  0.00     0.069 C 
ATOM     10  C   UNL A   1      32.746  21.717  24.139  1.00  0.00     0.064 A 
ATOM     11  N   UNL A   1      32.310  20.456  24.168  1.00  0.00    -0.171 NA
ATOM     12  N   UNL A   1      33.398  19.712  24.447  1.00  0.00    -0.219 N 
ATOM     13  C   UNL A   1      34.523  20.496  24.681  1.00  0.00     0.047 A 
ATOM     14  C   UNL A   1      35.863  19.905  24.947  1.00  0.00     0.067 C 
BRANCH  12  15
ATOM     15  C   UNL A   1      33.299  18.291  24.524  1.00  0.00     0.156 A 
ATOM     16  C   UNL A   1      32.763  17.730  25.667  1.00  0.00     0.069 A 
ATOM     17  N   UNL A   1      33.783  17.548  23.503  1.00  0.00    -0.217 NA
ATOM     18  C   UNL A   1      32.814  16.359  25.743  1.00  0.00     0.117 A 
ATOM     19  C   UNL A   1      33.789  16.224  23.691  1.00  0.00     0.224 A 
ATOM     20  N   UNL A   1      33.340  15.581  24.783  1.00  0.00    -0.245 NA
ENDBRANCH  12  15
ENDBRANCH   6   8
ENDBRANCH   4   6
ENDBRANCH   3   4
ENDBRANCH   2   3
ENDBRANCH   1   2
BRANCH   1  21
ATOM     21  O   UNL A   1      38.850  23.999  27.164  1.00  0.00    -0.458 OA
BRANCH  21  22
ATOM     22  C   UNL A   1      39.757  24.963  26.890  1.00  0.00     0.338 C 
ATOM     23  O   UNL A   1      40.787  24.840  26.258  1.00  0.00    -0.246 OA
BRANCH  22  24
ATOM     24  C   UNL A   1      39.454  26.172  27.644  1.00  0.00     0.060 A 
ATOM     25  C   UNL A   1      39.901  27.382  27.102  1.00  0.00     0.016 A 
ATOM     26  C   UNL A   1      39.025  26.057  28.969  1.00  0.00     0.016 A 
ATOM     27  C   UNL A   1      40.072  28.458  27.941  1.00  0.00     0.010 A 
ATOM     28  C   UNL A   1      39.216  27.122  29.809  1.00  0.00     0.010 A 
ATOM     29  C   UNL A   1      39.793  28.286  29.297  1.00  0.00    -0.014 A 
BRANCH  29  30
ATOM     30  C   UNL A   1      39.993  29.411  30.180  1.00  0.00     0.031 A 
ATOM     31  C   UNL A   1      38.772  30.223  30.360  1.00  0.00     0.074 A 
ATOM     32  C   UNL A   1      41.119  29.555  30.898  1.00  0.00     0.049 A 
ATOM     33  N   UNL A   1      38.567  31.447  30.005  1.00  0.00    -0.248 NA
ATOM     34  C   UNL A   1      37.558  29.518  30.809  1.00  0.00     0.031 C 
ATOM     35  C   UNL A   1      42.236  28.615  30.999  1.00  0.00     0.029 A 
ATOM     36  N   UNL A   1      41.429  30.511  31.812  1.00  0.00    -0.354 N 
ATOM     37  C   UNL A   1      37.275  31.736  30.426  1.00  0.00     0.074 A 
ATOM     38  C   UNL A   1      36.642  30.471  30.654  1.00  0.00     0.031 C 
ATOM     39  C   UNL A   1      42.971  28.923  32.091  1.00  0.00     0.029 A 
ATOM     40  C   UNL A   1      42.441  30.140  32.688  1.00  0.00     0.049 A 
ATOM     41  H   UNL A   1      40.978  31.385  31.851  1.00  0.00     0.167 HD
ATOM     42  C   UNL A   1      36.941  32.986  30.848  1.00  0.00     0.034 A 
ATOM     43  C   UNL A   1      42.743  30.734  33.871  1.00  0.00     0.034 A 
ATOM     44  C   UNL A   1      37.905  33.960  30.369  1.00  0.00     0.049 A 
ATOM     45  C   UNL A   1      42.164  32.103  33.835  1.00  0.00     0.074 A 
ATOM     46  C   UNL A   1      38.373  34.316  29.117  1.00  0.00     0.029 A 
ATOM     47  N   UNL A   1      38.826  34.468  31.262  1.00  0.00    -0.354 N 
ATOM     48  N   UNL A   1      42.564  33.032  33.011  1.00  0.00    -0.248 NA
ATOM     49  C   UNL A   1      40.828  32.305  34.383  1.00  0.00     0.031 C 
ATOM     50  C   UNL A   1      39.762  34.582  29.298  1.00  0.00     0.029 A 
ATOM     51  C   UNL A   1      40.057  34.449  30.656  1.00  0.00     0.049 A 
ATOM     52  H   UNL A   1      38.634  34.787  32.174  1.00  0.00     0.167 HD
ATOM     53  C   UNL A   1      41.405  33.678  32.603  1.00  0.00     0.074 A 
ATOM     54  C   UNL A   1      40.389  33.269  33.569  1.00  0.00     0.031 C 
ATOM     55  C   UNL A   1      41.310  34.244  31.362  1.00  0.00     0.034 A 
BRANCH  42  56
ATOM     56  C   UNL A   1      36.027  33.258  32.033  1.00  0.00     0.023 A 
ATOM     57  C   UNL A   1      34.895  34.048  31.767  1.00  0.00     0.031 A 
ATOM     58  C   UNL A   1      36.329  33.079  33.404  1.00  0.00     0.131 A 
ATOM     59  C   UNL A   1      34.257  34.765  32.791  1.00  0.00     0.055 A 
ATOM     60  C   UNL A   1      35.645  33.741  34.428  1.00  0.00     0.041 A 
ATOM     61  F   UNL A   1      37.333  32.317  33.849  1.00  0.00    -0.206 F 
ATOM     62  C   UNL A   1      34.633  34.630  34.122  1.00  0.00     0.022 A 
BRANCH  59  63
ATOM     63  S   UNL A   1      33.077  36.044  32.307  1.00  0.00     0.124 S 
ATOM     64  O   UNL A   1      33.466  36.276  30.919  1.00  0.00    -0.237 OA
ATOM     65  O   UNL A   1      31.803  35.364  32.515  1.00  0.00    -0.237 OA
ATOM     66  O   UNL A   1      33.364  37.136  33.231  1.00  0.00    -0.744 OA
ENDBRANCH  59  63
ENDBRANCH  42  56
BRANCH  43  67
ATOM     67  C   UNL A   1      43.205  30.057  35.112  1.00  0.00     0.023 A 
ATOM     68  C   UNL A   1      42.605  28.878  35.598  1.00  0.00     0.031 A 
ATOM     69  C   UNL A   1      44.411  30.456  35.733  1.00  0.00     0.131 A 
ATOM     70  C   UNL A   1      43.204  28.162  36.661  1.00  0.00     0.055 A 
ATOM     71  C   UNL A   1      44.990  29.753  36.792  1.00  0.00     0.041 A 
ATOM     72  F   UNL A   1      45.120  31.500  35.277  1.00  0.00    -0.206 F 
ATOM     73  C   UNL A   1      44.392  28.595  37.256  1.00  0.00     0.022 A 
BRANCH  70  74
ATOM     74  S   UNL A   1      42.491  26.583  37.223  1.00  0.00     0.124 S 
ATOM     75  O   UNL A   1      43.218  26.338  38.463  1.00  0.00    -0.237 OA
ATOM     76  O   UNL A   1      41.075  26.906  37.352  1.00  0.00    -0.237 OA
ATOM     77  O   UNL A   1      42.808  25.659  36.133  1.00  0.00    -0.744 OA
ENDBRANCH  70  74
ENDBRANCH  43  67
BRANCH  55  78
ATOM     78  C   UNL A   1      42.583  34.471  30.573  1.00  0.00     0.023 A 
ATOM     79  C   UNL A   1      42.990  33.707  29.455  1.00  0.00     0.031 A 
ATOM     80  C   UNL A   1      43.358  35.595  30.911  1.00  0.00     0.131 A 
ATOM     81  C   UNL A   1      44.142  34.076  28.732  1.00  0.00     0.055 A 
ATOM     82  C   UNL A   1      44.485  35.969  30.180  1.00  0.00     0.041 A 
ATOM     83  F   UNL A   1      43.007  36.379  31.944  1.00  0.00    -0.206 F 
ATOM     84  C   UNL A   1      44.885  35.205  29.091  1.00  0.00     0.022 A 
BRANCH  81  85
ATOM     85  S   UNL A   1      44.709  33.080  27.316  1.00  0.00     0.124 S 
ATOM     86  O   UNL A   1      46.145  33.321  27.277  1.00  0.00    -0.237 OA
ATOM     87  O   UNL A   1      44.294  31.732  27.695  1.00  0.00    -0.237 OA
ATOM     88  O   UNL A   1      43.967  33.646  26.186  1.00  0.00    -0.744 OA
ENDBRANCH  81  85
ENDBRANCH  55  78
ENDBRANCH  29  30
ENDBRANCH  22  24
ENDBRANCH  21  22
ENDBRANCH   1  21
TORSDOF 16
ENDMDL
MODEL 2
REMARK VINA RESULT:     -11.7      2.353      7.069
REMARK SMILES Cc1nn(-c2ccncn2)c(C)c1[C@@H](C)C(=O)OCCOC(=O)c1ccc(-c2c3nc(c(-c4cc(S(=O)(=O)[O-])ccc4F)c4ccc([nH]4)c(-c4cc(S(=O)(=O)[O-])ccc4F)c4nc(c(-c5cc(S(=O)(=O)[O-])ccc5F)c5ccc2[nH]5)C=C4)C=C3)cc1
REMARK SMILES IDX 20 1 19 2 18 3 16 4 17 5 14 6 15 7 13 8 1 9 2 10 3 11 4 12
REMARK SMILES IDX 11 13 12 14 5 15 6 16 10 17 7 18 9 19 8 20 21 21 22 22 23 23
REMARK SMILES IDX 24 24 25 25 86 26 26 27 85 28 27 29 28 30 29 31 79 32 30 33
REMARK SMILES IDX 84 34 78 35 80 36 31 37 83 38 77 39 76 40 32 42 64 43 44 44
REMARK SMILES IDX 63 45 45 46 48 47 62 48 81 49 46 50 47 51 61 53 82 54 49 55
REMARK SMILES IDX 33 56 34 57 42 58 35 59 41 60 43 61 40 62 36 63 37 64 38 65
REMARK SMILES IDX 39 66 65 67 66 68 74 69 67 70 73 71 75 72 72 73 68 74 69 75
REMARK SMILES IDX 70 76 71 77 50 78 51 79 59 80 52 81 58 82 60 83 57 84 53 85
REMARK SMILES IDX 54 86 55 87 56 88
REMARK H PARENT 80 41 48 52
REMARK Flexibility Score: inf
ROOT
ATOM      1  C   UNL A   1      38.709  22.146  26.429  1.00  0.00     0.275 C 
ENDROOT
BRANCH   1   2
ATOM      2  C   UNL A   1      38.128  22.130  25.022  1.00  0.00     0.274 C 
BRANCH   2   3
ATOM      3  O   UNL A   1      37.196  23.210  24.842  1.00  0.00    -0.462 OA
BRANCH   3   4
ATOM      4  C   UNL A   1      36.291  23.116  23.835  1.00  0.00     0.313 C 
ATOM      5  O   UNL A   1      36.603  23.055  22.647  1.00  0.00    -0.252 OA
BRANCH   4   6
ATOM      6  C   UNL A   1      34.831  23.180  24.293  1.00  0.00     0.130 C 
ATOM      7  C   UNL A   1      34.775  23.854  25.659  1.00  0.00     0.025 C 
BRANCH   6   8
ATOM      8  C   UNL A   1      34.020  21.897  24.260  1.00  0.00     0.010 A 
ATOM      9  C   UNL A   1      31.740  22.786  23.258  1.00  0.00     0.069 C 
ATOM     10  C   UNL A   1      32.680  21.754  23.776  1.00  0.00     0.064 A 
ATOM     11  N   UNL A   1      32.269  20.485  23.795  1.00  0.00    -0.171 NA
ATOM     12  N   UNL A   1      33.313  19.782  24.276  1.00  0.00    -0.219 N 
ATOM     13  C   UNL A   1      34.371  20.605  24.649  1.00  0.00     0.047 A 
ATOM     14  C   UNL A   1      35.663  20.062  25.151  1.00  0.00     0.067 C 
BRANCH  12  15
ATOM     15  C   UNL A   1      33.230  18.364  24.403  1.00  0.00     0.156 A 
ATOM     16  C   UNL A   1      32.648  17.838  25.540  1.00  0.00     0.069 A 
ATOM     17  N   UNL A   1      33.771  17.591  23.435  1.00  0.00    -0.217 NA
ATOM     18  C   UNL A   1      32.715  16.472  25.672  1.00  0.00     0.117 A 
ATOM     19  C   UNL A   1      33.787  16.275  23.674  1.00  0.00     0.224 A 
ATOM     20  N   UNL A   1      33.297  15.667  24.768  1.00  0.00    -0.245 NA
ENDBRANCH  12  15
ENDBRANCH   6   8
ENDBRANCH   4   6
ENDBRANCH   3   4
ENDBRANCH   2   3
ENDBRANCH   1   2
BRANCH   1  21
ATOM     21  O   UNL A   1      39.229  23.435  26.752  1.00  0.00    -0.458 OA
BRANCH  21  22
ATOM     22  C   UNL A   1      40.563  23.447  26.968  1.00  0.00     0.338 C 
ATOM     23  O   UNL A   1      41.293  22.483  27.091  1.00  0.00    -0.246 OA
BRANCH  22  24
ATOM     24  C   UNL A   1      41.018  24.801  27.254  1.00  0.00     0.060 A 
ATOM     25  C   UNL A   1      41.948  24.949  28.289  1.00  0.00     0.016 A 
ATOM     26  C   UNL A   1      40.310  25.881  26.723  1.00  0.00     0.016 A 
ATOM     27  C   UNL A   1      42.057  26.170  28.910  1.00  0.00     0.010 A 
ATOM     28  C   UNL A   1      40.402  27.094  27.356  1.00  0.00     0.010 A 
ATOM     29  C   UNL A   1      41.227  27.204  28.478  1.00  0.00    -0.014 A 
BRANCH  29  30
ATOM     30  C   UNL A   1      41.326  28.481  29.145  1.00  0.00     0.031 A 
ATOM     31  C   UNL A   1      42.382  29.344  28.577  1.00  0.00     0.074 A 
ATOM     32  C   UNL A   1      40.413  28.883  30.043  1.00  0.00     0.049 A 
ATOM     33  N   UNL A   1      43.463  29.763  29.145  1.00  0.00    -0.248 NA
ATOM     34  C   UNL A   1      42.327  29.606  27.128  1.00  0.00     0.031 C 
ATOM     35  C   UNL A   1      39.171  28.202  30.415  1.00  0.00     0.029 A 
ATOM     36  N   UNL A   1      40.331  30.068  30.702  1.00  0.00    -0.354 N 
ATOM     37  C   UNL A   1      44.090  30.556  28.191  1.00  0.00     0.074 A 
ATOM     38  C   UNL A   1      43.500  30.203  26.934  1.00  0.00     0.031 C 
ATOM     39  C   UNL A   1      38.355  29.085  31.032  1.00  0.00     0.029 A 
ATOM     40  C   UNL A   1      39.063  30.347  31.196  1.00  0.00     0.049 A 
ATOM     41  H   UNL A   1      41.097  30.674  30.817  1.00  0.00     0.167 HD
ATOM     42  C   UNL A   1      44.815  31.648  28.558  1.00  0.00     0.034 A 
ATOM     43  C   UNL A   1      38.604  31.556  31.608  1.00  0.00     0.034 A 
ATOM     44  C   UNL A   1      45.189  31.565  29.958  1.00  0.00     0.049 A 
ATOM     45  C   UNL A   1      39.793  32.398  31.905  1.00  0.00     0.074 A 
ATOM     46  C   UNL A   1      45.876  30.635  30.717  1.00  0.00     0.029 A 
ATOM     47  N   UNL A   1      44.513  32.352  30.868  1.00  0.00    -0.354 N 
ATOM     48  N   UNL A   1      40.635  32.140  32.869  1.00  0.00    -0.248 NA
ATOM     49  C   UNL A   1      40.317  33.256  30.850  1.00  0.00     0.031 C 
ATOM     50  C   UNL A   1      45.204  30.608  31.974  1.00  0.00     0.029 A 
ATOM     51  C   UNL A   1      44.193  31.569  31.948  1.00  0.00     0.049 A 
ATOM     52  H   UNL A   1      44.297  33.307  30.760  1.00  0.00     0.167 HD
ATOM     53  C   UNL A   1      41.887  32.423  32.342  1.00  0.00     0.074 A 
ATOM     54  C   UNL A   1      41.619  33.218  31.146  1.00  0.00     0.031 C 
ATOM     55  C   UNL A   1      42.999  31.744  32.757  1.00  0.00     0.034 A 
BRANCH  42  56
ATOM     56  C   UNL A   1      44.796  32.964  27.795  1.00  0.00     0.023 A 
ATOM     57  C   UNL A   1      44.132  34.031  28.426  1.00  0.00     0.031 A 
ATOM     58  C   UNL A   1      45.086  33.161  26.424  1.00  0.00     0.131 A 
ATOM     59  C   UNL A   1      43.621  35.105  27.682  1.00  0.00     0.055 A 
ATOM     60  C   UNL A   1      44.636  34.269  25.701  1.00  0.00     0.041 A 
ATOM     61  F   UNL A   1      45.759  32.282  25.675  1.00  0.00    -0.206 F 
ATOM     62  C   UNL A   1      43.855  35.227  26.318  1.00  0.00     0.022 A 
BRANCH  59  63
ATOM     63  S   UNL A   1      42.457  36.214  28.506  1.00  0.00     0.124 S 
ATOM     64  O   UNL A   1      41.204  35.484  28.337  1.00  0.00    -0.237 OA
ATOM     65  O   UNL A   1      43.000  36.260  29.859  1.00  0.00    -0.237 OA
ATOM     66  O   UNL A   1      42.571  37.452  27.741  1.00  0.00    -0.744 OA
ENDBRANCH  59  63
ENDBRANCH  42  56
BRANCH  43  67
ATOM     67  C   UNL A   1      37.228  32.092  31.430  1.00  0.00     0.023 A 
ATOM     68  C   UNL A   1      36.675  32.351  30.159  1.00  0.00     0.031 A 
ATOM     69  C   UNL A   1      36.342  32.154  32.531  1.00  0.00     0.131 A 
ATOM     70  C   UNL A   1      35.302  32.664  30.032  1.00  0.00     0.055 A 
ATOM     71  C   UNL A   1      34.989  32.477  32.400  1.00  0.00     0.041 A 
ATOM     72  F   UNL A   1      36.739  31.818  33.768  1.00  0.00    -0.206 F 
ATOM     73  C   UNL A   1      34.460  32.725  31.146  1.00  0.00     0.022 A 
BRANCH  70  74
ATOM     74  S   UNL A   1      34.561  32.896  28.385  1.00  0.00     0.124 S 
ATOM     75  O   UNL A   1      35.696  33.366  27.598  1.00  0.00    -0.237 OA
ATOM     76  O   UNL A   1      34.062  31.563  28.074  1.00  0.00    -0.237 OA
ATOM     77  O   UNL A   1      33.519  33.898  28.618  1.00  0.00    -0.744 OA
ENDBRANCH  70  74
ENDBRANCH  43  67
BRANCH  55  78
ATOM     78  C   UNL A   1      42.915  30.936  34.036  1.00  0.00     0.023 A 
ATOM     79  C   UNL A   1      42.398  29.624  34.132  1.00  0.00     0.031 A 
ATOM     80  C   UNL A   1      43.500  31.492  35.188  1.00  0.00     0.131 A 
ATOM     81  C   UNL A   1      42.467  28.927  35.354  1.00  0.00     0.055 A 
ATOM     82  C   UNL A   1      43.586  30.791  36.389  1.00  0.00     0.041 A 
ATOM     83  F   UNL A   1      44.036  32.722  35.153  1.00  0.00    -0.206 F 
ATOM     84  C   UNL A   1      43.063  29.506  36.479  1.00  0.00     0.022 A 
BRANCH  81  85
ATOM     85  S   UNL A   1      41.766  27.253  35.511  1.00  0.00     0.124 S 
ATOM     86  O   UNL A   1      42.922  26.379  35.348  1.00  0.00    -0.237 OA
ATOM     87  O   UNL A   1      41.169  27.286  36.843  1.00  0.00    -0.237 OA
ATOM     88  O   UNL A   1      40.797  27.188  34.414  1.00  0.00    -0.744 OA
ENDBRANCH  81  85
ENDBRANCH  55  78
ENDBRANCH  29  30
ENDBRANCH  22  24
ENDBRANCH  21  22
ENDBRANCH   1  21
TORSDOF 16
ENDMDL
MODEL 3
REMARK VINA RESULT:     -11.7      3.287      8.109
REMARK SMILES Cc1nn(-c2ccncn2)c(C)c1[C@@H](C)C(=O)OCCOC(=O)c1ccc(-c2c3nc(c(-c4cc(S(=O)(=O)[O-])ccc4F)c4ccc([nH]4)c(-c4cc(S(=O)(=O)[O-])ccc4F)c4nc(c(-c5cc(S(=O)(=O)[O-])ccc5F)c5ccc2[nH]5)C=C4)C=C3)cc1
REMARK SMILES IDX 20 1 19 2 18 3 16 4 17 5 14 6 15 7 13 8 1 9 2 10 3 11 4 12
REMARK SMILES IDX 11 13 12 14 5 15 6 16 10 17 7 18 9 19 8 20 21 21 22 22 23 23
REMARK SMILES IDX 24 24 25 25 86 26 26 27 85 28 27 29 28 30 29 31 79 32 30 33
REMARK SMILES IDX 84 34 78 35 80 36 31 37 83 38 77 39 76 40 32 42 64 43 44 44
REMARK SMILES IDX 63 45 45 46 48 47 62 48 81 49 46 50 47 51 61 53 82 54 49 55
REMARK SMILES IDX 33 56 34 57 42 58 35 59 41 60 43 61 40 62 36 63 37 64 38 65
REMARK SMILES IDX 39 66 65 67 66 68 74 69 67 70 73 71 75 72 72 73 68 74 69 75
REMARK SMILES IDX 70 76 71 77 50 78 51 79 59 80 52 81 58 82 60 83 57 84 53 85
REMARK SMILES IDX 54 86 55 87 56 88
REMARK H PARENT 80 41 48 52
REMARK Flexibility Score: inf
ROOT
ATOM      1  C   UNL A   1      38.178  22.662  25.705  1.00  0.00     0.275 C 
ENDROOT
BRANCH   1   2
ATOM      2  C   UNL A   1      36.921  21.805  25.754  1.00  0.00     0.274 C 
BRANCH   2   3
ATOM      3  O   UNL A   1      35.756  22.591  25.456  1.00  0.00    -0.462 OA
BRANCH   3   4
ATOM      4  C   UNL A   1      34.661  22.442  26.246  1.00  0.00     0.313 C 
ATOM      5  O   UNL A   1      34.718  22.096  27.424  1.00  0.00    -0.252 OA
BRANCH   4   6
ATOM      6  C   UNL A   1      33.329  22.656  25.521  1.00  0.00     0.130 C 
ATOM      7  C   UNL A   1      33.528  22.377  24.035  1.00  0.00     0.025 C 
BRANCH   6   8
ATOM      8  C   UNL A   1      32.593  23.963  25.759  1.00  0.00     0.010 A 
ATOM      9  C   UNL A   1      30.358  23.074  26.854  1.00  0.00     0.069 C 
ATOM     10  C   UNL A   1      31.307  24.112  26.369  1.00  0.00     0.064 A 
ATOM     11  N   UNL A   1      30.965  25.393  26.519  1.00  0.00    -0.171 NA
ATOM     12  N   UNL A   1      32.003  26.097  26.026  1.00  0.00    -0.219 N 
ATOM     13  C   UNL A   1      32.981  25.272  25.479  1.00  0.00     0.047 A 
ATOM     14  C   UNL A   1      34.256  25.809  24.927  1.00  0.00     0.067 C 
BRANCH  12  15
ATOM     15  C   UNL A   1      31.987  27.522  26.056  1.00  0.00     0.156 A 
ATOM     16  C   UNL A   1      32.306  28.160  27.239  1.00  0.00     0.069 A 
ATOM     17  N   UNL A   1      31.608  28.193  24.945  1.00  0.00    -0.217 NA
ATOM     18  C   UNL A   1      32.146  29.524  27.249  1.00  0.00     0.117 A 
ATOM     19  C   UNL A   1      31.479  29.518  25.072  1.00  0.00     0.224 A 
ATOM     20  N   UNL A   1      31.713  30.228  26.190  1.00  0.00    -0.245 NA
ENDBRANCH  12  15
ENDBRANCH   6   8
ENDBRANCH   4   6
ENDBRANCH   3   4
ENDBRANCH   2   3
ENDBRANCH   1   2
BRANCH   1  21
ATOM     21  O   UNL A   1      38.408  23.303  26.959  1.00  0.00    -0.458 OA
BRANCH  21  22
ATOM     22  C   UNL A   1      39.713  23.375  27.304  1.00  0.00     0.338 C 
ATOM     23  O   UNL A   1      40.427  22.460  27.662  1.00  0.00    -0.246 OA
BRANCH  22  24
ATOM     24  C   UNL A   1      40.135  24.767  27.403  1.00  0.00     0.060 A 
ATOM     25  C   UNL A   1      41.201  25.044  28.266  1.00  0.00     0.016 A 
ATOM     26  C   UNL A   1      39.299  25.766  26.898  1.00  0.00     0.016 A 
ATOM     27  C   UNL A   1      41.337  26.319  28.758  1.00  0.00     0.010 A 
ATOM     28  C   UNL A   1      39.422  27.033  27.406  1.00  0.00     0.010 A 
ATOM     29  C   UNL A   1      40.399  27.277  28.373  1.00  0.00    -0.014 A 
BRANCH  29  30
ATOM     30  C   UNL A   1      40.531  28.612  28.908  1.00  0.00     0.031 A 
ATOM     31  C   UNL A   1      41.709  29.329  28.376  1.00  0.00     0.074 A 
ATOM     32  C   UNL A   1      39.563  29.178  29.647  1.00  0.00     0.049 A 
ATOM     33  N   UNL A   1      42.753  29.734  29.016  1.00  0.00    -0.248 NA
ATOM     34  C   UNL A   1      41.829  29.426  26.910  1.00  0.00     0.031 C 
ATOM     35  C   UNL A   1      38.238  28.632  29.945  1.00  0.00     0.029 A 
ATOM     36  N   UNL A   1      39.509  30.433  30.162  1.00  0.00    -0.354 N 
ATOM     37  C   UNL A   1      43.541  30.367  28.062  1.00  0.00     0.074 A 
ATOM     38  C   UNL A   1      43.061  29.913  26.790  1.00  0.00     0.031 C 
ATOM     39  C   UNL A   1      37.436  29.634  30.367  1.00  0.00     0.029 A 
ATOM     40  C   UNL A   1      38.222  30.854  30.475  1.00  0.00     0.049 A 
ATOM     41  H   UNL A   1      40.306  30.994  30.299  1.00  0.00     0.167 HD
ATOM     42  C   UNL A   1      44.309  31.441  28.391  1.00  0.00     0.034 A 
ATOM     43  C   UNL A   1      37.824  32.132  30.701  1.00  0.00     0.034 A 
ATOM     44  C   UNL A   1      44.525  31.493  29.825  1.00  0.00     0.049 A 
ATOM     45  C   UNL A   1      39.039  32.917  31.041  1.00  0.00     0.074 A 
ATOM     46  C   UNL A   1      45.049  30.612  30.753  1.00  0.00     0.029 A 
ATOM     47  N   UNL A   1      43.822  32.425  30.562  1.00  0.00    -0.354 N 
ATOM     48  N   UNL A   1      39.749  32.714  32.117  1.00  0.00    -0.248 NA
ATOM     49  C   UNL A   1      39.740  33.611  29.967  1.00  0.00     0.031 C 
ATOM     50  C   UNL A   1      44.247  30.776  31.921  1.00  0.00     0.029 A 
ATOM     51  C   UNL A   1      43.326  31.796  31.676  1.00  0.00     0.049 A 
ATOM     52  H   UNL A   1      43.698  33.374  30.330  1.00  0.00     0.167 HD
ATOM     53  C   UNL A   1      41.069  32.847  31.710  1.00  0.00     0.074 A 
ATOM     54  C   UNL A   1      40.996  33.516  30.413  1.00  0.00     0.031 C 
ATOM     55  C   UNL A   1      42.072  32.145  32.319  1.00  0.00     0.034 A 
BRANCH  42  56
ATOM     56  C   UNL A   1      44.480  32.659  27.495  1.00  0.00     0.023 A 
ATOM     57  C   UNL A   1      43.834  33.832  27.923  1.00  0.00     0.031 A 
ATOM     58  C   UNL A   1      44.937  32.677  26.156  1.00  0.00     0.131 A 
ATOM     59  C   UNL A   1      43.495  34.844  27.012  1.00  0.00     0.055 A 
ATOM     60  C   UNL A   1      44.659  33.721  25.269  1.00  0.00     0.041 A 
ATOM     61  F   UNL A   1      45.620  31.676  25.592  1.00  0.00    -0.206 F 
ATOM     62  C   UNL A   1      43.890  34.792  25.681  1.00  0.00     0.022 A 
BRANCH  59  63
ATOM     63  S   UNL A   1      42.335  36.114  27.566  1.00  0.00     0.124 S 
ATOM     64  O   UNL A   1      42.654  37.205  26.650  1.00  0.00    -0.237 OA
ATOM     65  O   UNL A   1      41.052  35.451  27.360  1.00  0.00    -0.237 OA
ATOM     66  O   UNL A   1      42.712  36.331  28.959  1.00  0.00    -0.744 OA
ENDBRANCH  59  63
ENDBRANCH  42  56
BRANCH  43  67
ATOM     67  C   UNL A   1      36.522  32.738  30.310  1.00  0.00     0.023 A 
ATOM     68  C   UNL A   1      35.671  33.369  31.239  1.00  0.00     0.031 A 
ATOM     69  C   UNL A   1      36.194  32.894  28.943  1.00  0.00     0.131 A 
ATOM     70  C   UNL A   1      34.549  34.104  30.791  1.00  0.00     0.055 A 
ATOM     71  C   UNL A   1      35.077  33.610  28.506  1.00  0.00     0.041 A 
ATOM     72  F   UNL A   1      36.996  32.428  27.973  1.00  0.00    -0.206 F 
ATOM     73  C   UNL A   1      34.252  34.227  29.431  1.00  0.00     0.022 A 
BRANCH  70  74
ATOM     74  S   UNL A   1      33.507  35.007  31.980  1.00  0.00     0.124 S 
ATOM     75  O   UNL A   1      34.403  36.061  32.440  1.00  0.00    -0.237 OA
ATOM     76  O   UNL A   1      32.380  35.424  31.156  1.00  0.00    -0.237 OA
ATOM     77  O   UNL A   1      33.184  33.994  32.988  1.00  0.00    -0.744 OA
ENDBRANCH  70  74
ENDBRANCH  43  67
BRANCH  55  78
ATOM     78  C   UNL A   1      41.786  31.497  33.659  1.00  0.00     0.023 A 
ATOM     79  C   UNL A   1      41.821  32.165  34.904  1.00  0.00     0.031 A 
ATOM     80  C   UNL A   1      41.344  30.162  33.647  1.00  0.00     0.131 A 
ATOM     81  C   UNL A   1      41.434  31.488  36.078  1.00  0.00     0.055 A 
ATOM     82  C   UNL A   1      40.940  29.503  34.807  1.00  0.00     0.041 A 
ATOM     83  F   UNL A   1      41.259  29.482  32.492  1.00  0.00    -0.206 F 
ATOM     84  C   UNL A   1      40.990  30.162  36.029  1.00  0.00     0.022 A 
BRANCH  81  85
ATOM     85  S   UNL A   1      41.514  32.316  37.698  1.00  0.00     0.124 S 
ATOM     86  O   UNL A   1      42.104  33.613  37.393  1.00  0.00    -0.237 OA
ATOM     87  O   UNL A   1      40.114  32.329  38.113  1.00  0.00    -0.237 OA
ATOM     88  O   UNL A   1      42.372  31.429  38.489  1.00  0.00    -0.744 OA
ENDBRANCH  81  85
ENDBRANCH  55  78
ENDBRANCH  29  30
ENDBRANCH  22  24
ENDBRANCH  21  22
ENDBRANCH   1  21
TORSDOF 16
ENDMDL
