MODEL 1
REMARK VINA RESULT:     -13.7      0.000      0.000
REMARK SMILES Cc1oc2cc3c(cc2c1C)[C@H](C)[C@@H](CC(=O)N[C@H](CC1=c2ccccc2=NC1)C(=O)OCCOC(=O)c1ccc(-c2c4nc(c(-c5cc(S(=O)(=O)[O-])ccc5F)c5ccc([nH]5)c(-c5cc(S(=O)(=O)[O-])ccc5F)c5nc(c(-c6cc(S(=O)(=O)[O-])ccc6F)c6ccc2[nH]6)C=C5)C=C4)cc1)C(=O)O3
REMARK SMILES IDX 33 1 32 2 30 3 31 4 19 5 18 6 16 7 17 8 15 10 14 11 1 12
REMARK SMILES IDX 2 13 3 14 10 15 4 16 9 17 11 18 5 19 8 20 6 21 7 22 103 23
REMARK SMILES IDX 12 24 101 25 13 26 102 27 20 28 21 29 22 30 29 31 23 32
REMARK SMILES IDX 27 33 28 34 24 35 26 36 25 37 34 38 35 39 36 40 37 41 38 42
REMARK SMILES IDX 39 43 100 44 40 45 99 46 41 47 42 48 43 49 93 50 44 51 98 52
REMARK SMILES IDX 92 53 94 54 45 55 97 56 91 57 90 58 46 60 78 61 58 62 77 63
REMARK SMILES IDX 59 64 62 65 76 66 95 67 60 68 61 69 75 71 96 72 63 73 47 74
REMARK SMILES IDX 48 75 56 76 49 77 55 78 57 79 54 80 50 81 51 82 52 83 53 84
REMARK SMILES IDX 79 85 80 86 88 87 81 88 87 89 89 90 86 91 82 92 83 93 84 94
REMARK SMILES IDX 85 95 64 96 65 97 73 98 66 99 72 100 74 101 71 102 67 103
REMARK SMILES IDX 68 104 69 105 70 106
REMARK H PARENT 18 9 94 59 62 70
REMARK Flexibility Score: inf
ROOT
ATOM      1  C   UNL A   1      38.663  22.234  25.908  1.00  0.00     0.274 C 
ENDROOT
BRANCH   1   2
ATOM      2  O   UNL A   1      37.889  21.684  24.821  1.00  0.00    -0.461 OA
BRANCH   2   3
ATOM      3  C   UNL A   1      36.909  22.470  24.323  1.00  0.00     0.329 C 
ATOM      4  O   UNL A   1      37.075  23.653  24.047  1.00  0.00    -0.250 OA
BRANCH   3   5
ATOM      5  C   UNL A   1      35.539  21.789  24.243  1.00  0.00     0.196 C 
BRANCH   5   6
ATOM      6  N   UNL A   1      34.518  22.318  23.308  1.00  0.00    -0.342 N 
ATOM      7  C   UNL A   1      33.279  22.851  23.455  1.00  0.00     0.221 C 
ATOM      8  O   UNL A   1      32.546  22.904  22.464  1.00  0.00    -0.275 OA
ATOM      9  H   UNL A   1      34.805  22.276  22.367  1.00  0.00     0.164 HD
BRANCH   7  10
ATOM     10  C   UNL A   1      32.819  23.424  24.774  1.00  0.00     0.116 C 
BRANCH  10  11
ATOM     11  C   UNL A   1      32.592  24.948  24.845  1.00  0.00     0.116 C 
ATOM     12  C   UNL A   1      27.997  31.183  21.094  1.00  0.00     0.088 C 
ATOM     13  C   UNL A   1      28.616  30.059  21.826  1.00  0.00     0.105 A 
ATOM     14  O   UNL A   1      29.965  29.956  21.690  1.00  0.00    -0.461 OA
ATOM     15  C   UNL A   1      28.136  29.072  22.672  1.00  0.00    -0.002 A 
ATOM     16  C   UNL A   1      30.357  28.886  22.426  1.00  0.00     0.138 A 
ATOM     17  C   UNL A   1      29.267  28.263  23.012  1.00  0.00     0.024 A 
ATOM     18  C   UNL A   1      26.747  28.892  23.160  1.00  0.00     0.049 C 
ATOM     19  C   UNL A   1      31.663  28.464  22.580  1.00  0.00     0.095 A 
ATOM     20  C   UNL A   1      29.496  27.083  23.758  1.00  0.00     0.020 A 
ATOM     21  C   UNL A   1      31.846  27.305  23.341  1.00  0.00     0.138 A 
ATOM     22  C   UNL A   1      30.811  26.588  23.922  1.00  0.00    -0.001 A 
ATOM     23  O   UNL A   1      33.175  26.881  23.422  1.00  0.00    -0.426 OA
ATOM     24  C   UNL A   1      31.089  25.254  24.577  1.00  0.00     0.035 C 
ATOM     25  C   UNL A   1      33.610  25.738  24.048  1.00  0.00     0.315 C 
ATOM     26  C   UNL A   1      30.298  25.077  25.886  1.00  0.00     0.014 C 
ATOM     27  O   UNL A   1      34.811  25.489  24.022  1.00  0.00    -0.251 OA
ENDBRANCH  10  11
ENDBRANCH   7  10
ENDBRANCH   5   6
BRANCH   5  28
ATOM     28  C   UNL A   1      34.922  21.014  25.450  1.00  0.00     0.070 C 
BRANCH  28  29
ATOM     29  C   UNL A   1      34.200  19.660  25.533  1.00  0.00    -0.037 C 
ATOM     30  C   UNL A   1      34.163  18.779  24.523  1.00  0.00     0.001 A 
ATOM     31  C   UNL A   1      32.749  19.890  25.956  1.00  0.00     0.174 C 
ATOM     32  C   UNL A   1      34.638  17.413  24.499  1.00  0.00     0.010 A 
ATOM     33  C   UNL A   1      32.762  18.893  24.046  1.00  0.00     0.065 A 
ATOM     34  N   UNL A   1      31.912  19.531  24.785  1.00  0.00    -0.280 NA
ATOM     35  C   UNL A   1      34.180  16.585  23.542  1.00  0.00     0.001 A 
ATOM     36  C   UNL A   1      32.485  18.174  22.783  1.00  0.00     0.028 A 
ATOM     37  C   UNL A   1      33.213  17.064  22.560  1.00  0.00     0.002 A 
ENDBRANCH  28  29
ENDBRANCH   5  28
ENDBRANCH   3   5
ENDBRANCH   2   3
ENDBRANCH   1   2
BRANCH   1  38
ATOM     38  C   UNL A   1      39.961  21.459  26.122  1.00  0.00     0.275 C 
BRANCH  38  39
ATOM     39  O   UNL A   1      41.082  22.333  26.247  1.00  0.00    -0.458 OA
BRANCH  39  40
ATOM     40  C   UNL A   1      41.803  22.232  27.393  1.00  0.00     0.338 C 
ATOM     41  O   UNL A   1      42.286  21.247  27.898  1.00  0.00    -0.246 OA
BRANCH  40  42
ATOM     42  C   UNL A   1      42.098  23.622  27.756  1.00  0.00     0.060 A 
ATOM     43  C   UNL A   1      41.094  24.431  28.295  1.00  0.00     0.016 A 
ATOM     44  C   UNL A   1      43.317  24.149  27.334  1.00  0.00     0.016 A 
ATOM     45  C   UNL A   1      41.296  25.800  28.346  1.00  0.00     0.010 A 
ATOM     46  C   UNL A   1      43.494  25.520  27.339  1.00  0.00     0.010 A 
ATOM     47  C   UNL A   1      42.485  26.348  27.842  1.00  0.00    -0.014 A 
BRANCH  47  48
ATOM     48  C   UNL A   1      42.663  27.801  27.935  1.00  0.00     0.031 A 
ATOM     49  C   UNL A   1      41.400  28.591  27.795  1.00  0.00     0.074 A 
ATOM     50  C   UNL A   1      43.678  28.300  28.669  1.00  0.00     0.049 A 
ATOM     51  N   UNL A   1      40.581  28.823  28.781  1.00  0.00    -0.248 NA
ATOM     52  C   UNL A   1      40.832  28.861  26.475  1.00  0.00     0.031 C 
ATOM     53  C   UNL A   1      44.116  27.740  29.954  1.00  0.00     0.029 A 
ATOM     54  N   UNL A   1      44.339  29.498  28.566  1.00  0.00    -0.354 N 
ATOM     55  C   UNL A   1      39.377  29.218  28.223  1.00  0.00     0.074 A 
ATOM     56  C   UNL A   1      39.585  29.238  26.791  1.00  0.00     0.031 C 
ATOM     57  C   UNL A   1      44.832  28.680  30.606  1.00  0.00     0.029 A 
ATOM     58  C   UNL A   1      45.014  29.839  29.735  1.00  0.00     0.049 A 
ATOM     59  H   UNL A   1      44.337  30.055  27.754  1.00  0.00     0.167 HD
ATOM     60  C   UNL A   1      38.260  29.488  28.951  1.00  0.00     0.034 A 
ATOM     61  C   UNL A   1      45.184  31.125  30.148  1.00  0.00     0.034 A 
ATOM     62  C   UNL A   1      38.395  29.367  30.372  1.00  0.00     0.049 A 
ATOM     63  C   UNL A   1      43.796  31.425  30.676  1.00  0.00     0.074 A 
ATOM     64  C   UNL A   1      38.060  28.462  31.355  1.00  0.00     0.029 A 
ATOM     65  N   UNL A   1      39.059  30.370  31.041  1.00  0.00    -0.354 N 
ATOM     66  N   UNL A   1      43.311  31.058  31.835  1.00  0.00    -0.248 NA
ATOM     67  C   UNL A   1      42.784  31.853  29.707  1.00  0.00     0.031 C 
ATOM     68  C   UNL A   1      38.920  28.757  32.461  1.00  0.00     0.029 A 
ATOM     69  C   UNL A   1      39.769  29.790  32.063  1.00  0.00     0.049 A 
ATOM     70  H   UNL A   1      39.031  31.330  30.825  1.00  0.00     0.167 HD
ATOM     71  C   UNL A   1      41.927  30.936  31.642  1.00  0.00     0.074 A 
ATOM     72  C   UNL A   1      41.673  31.472  30.322  1.00  0.00     0.031 C 
ATOM     73  C   UNL A   1      41.088  30.245  32.471  1.00  0.00     0.034 A 
BRANCH  60  74
ATOM     74  C   UNL A   1      37.039  30.082  28.362  1.00  0.00     0.023 A 
ATOM     75  C   UNL A   1      35.984  29.331  27.825  1.00  0.00     0.031 A 
ATOM     76  C   UNL A   1      36.898  31.478  28.459  1.00  0.00     0.131 A 
ATOM     77  C   UNL A   1      34.815  29.995  27.418  1.00  0.00     0.055 A 
ATOM     78  C   UNL A   1      35.734  32.130  28.064  1.00  0.00     0.041 A 
ATOM     79  F   UNL A   1      37.893  32.223  28.968  1.00  0.00    -0.206 F 
ATOM     80  C   UNL A   1      34.682  31.386  27.545  1.00  0.00     0.022 A 
BRANCH  77  81
ATOM     81  S   UNL A   1      33.399  29.097  26.723  1.00  0.00     0.124 S 
ATOM     82  O   UNL A   1      32.308  29.513  27.600  1.00  0.00    -0.237 OA
ATOM     83  O   UNL A   1      33.344  29.628  25.363  1.00  0.00    -0.237 OA
ATOM     84  O   UNL A   1      33.790  27.694  26.829  1.00  0.00    -0.744 OA
ENDBRANCH  77  81
ENDBRANCH  60  74
BRANCH  61  85
ATOM     85  C   UNL A   1      45.920  31.966  29.144  1.00  0.00     0.023 A 
ATOM     86  C   UNL A   1      45.323  32.738  28.141  1.00  0.00     0.031 A 
ATOM     87  C   UNL A   1      47.334  31.902  29.138  1.00  0.00     0.131 A 
ATOM     88  C   UNL A   1      46.098  33.245  27.083  1.00  0.00     0.055 A 
ATOM     89  C   UNL A   1      48.111  32.467  28.121  1.00  0.00     0.041 A 
ATOM     90  F   UNL A   1      47.989  31.252  30.116  1.00  0.00    -0.206 F 
ATOM     91  C   UNL A   1      47.487  33.114  27.064  1.00  0.00     0.022 A 
BRANCH  88  92
ATOM     92  S   UNL A   1      45.297  33.999  25.640  1.00  0.00     0.124 S 
ATOM     93  O   UNL A   1      44.655  32.851  25.007  1.00  0.00    -0.237 OA
ATOM     94  O   UNL A   1      44.398  34.956  26.279  1.00  0.00    -0.237 OA
ATOM     95  O   UNL A   1      46.412  34.582  24.901  1.00  0.00    -0.744 OA
ENDBRANCH  88  92
ENDBRANCH  61  85
BRANCH  73  96
ATOM     96  C   UNL A   1      41.666  29.768  33.772  1.00  0.00     0.023 A 
ATOM     97  C   UNL A   1      41.796  30.631  34.881  1.00  0.00     0.031 A 
ATOM     98  C   UNL A   1      42.195  28.472  33.876  1.00  0.00     0.131 A 
ATOM     99  C   UNL A   1      42.500  30.211  36.016  1.00  0.00     0.055 A 
ATOM    100  C   UNL A   1      42.842  28.037  35.035  1.00  0.00     0.041 A 
ATOM    101  F   UNL A   1      42.140  27.623  32.837  1.00  0.00    -0.206 F 
ATOM    102  C   UNL A   1      43.011  28.912  36.104  1.00  0.00     0.022 A 
BRANCH  99 103
ATOM    103  S   UNL A   1      42.850  31.351  37.386  1.00  0.00     0.124 S 
ATOM    104  O   UNL A   1      41.529  31.552  37.980  1.00  0.00    -0.237 OA
ATOM    105  O   UNL A   1      43.780  30.570  38.198  1.00  0.00    -0.237 OA
ATOM    106  O   UNL A   1      43.419  32.531  36.744  1.00  0.00    -0.744 OA
ENDBRANCH  99 103
ENDBRANCH  73  96
ENDBRANCH  47  48
ENDBRANCH  40  42
ENDBRANCH  39  40
ENDBRANCH  38  39
ENDBRANCH   1  38
TORSDOF 19
ENDMDL
MODEL 2
REMARK VINA RESULT:     -13.6      2.663      8.824
REMARK SMILES Cc1oc2cc3c(cc2c1C)[C@H](C)[C@@H](CC(=O)N[C@H](CC1=c2ccccc2=NC1)C(=O)OCCOC(=O)c1ccc(-c2c4nc(c(-c5cc(S(=O)(=O)[O-])ccc5F)c5ccc([nH]5)c(-c5cc(S(=O)(=O)[O-])ccc5F)c5nc(c(-c6cc(S(=O)(=O)[O-])ccc6F)c6ccc2[nH]6)C=C5)C=C4)cc1)C(=O)O3
REMARK SMILES IDX 33 1 32 2 30 3 31 4 19 5 18 6 16 7 17 8 15 10 14 11 1 12
REMARK SMILES IDX 2 13 3 14 10 15 4 16 9 17 11 18 5 19 8 20 6 21 7 22 103 23
REMARK SMILES IDX 12 24 101 25 13 26 102 27 20 28 21 29 22 30 29 31 23 32
REMARK SMILES IDX 27 33 28 34 24 35 26 36 25 37 34 38 35 39 36 40 37 41 38 42
REMARK SMILES IDX 39 43 100 44 40 45 99 46 41 47 42 48 43 49 93 50 44 51 98 52
REMARK SMILES IDX 92 53 94 54 45 55 97 56 91 57 90 58 46 60 78 61 58 62 77 63
REMARK SMILES IDX 59 64 62 65 76 66 95 67 60 68 61 69 75 71 96 72 63 73 47 74
REMARK SMILES IDX 48 75 56 76 49 77 55 78 57 79 54 80 50 81 51 82 52 83 53 84
REMARK SMILES IDX 79 85 80 86 88 87 81 88 87 89 89 90 86 91 82 92 83 93 84 94
REMARK SMILES IDX 85 95 64 96 65 97 73 98 66 99 72 100 74 101 71 102 67 103
REMARK SMILES IDX 68 104 69 105 70 106
REMARK H PARENT 18 9 94 59 62 70
REMARK Flexibility Score: inf
ROOT
ATOM      1  C   UNL A   1      33.933  30.398  26.774  1.00  0.00     0.274 C 
ENDROOT
BRANCH   1   2
ATOM      2  O   UNL A   1      32.827  29.501  26.541  1.00  0.00    -0.461 OA
BRANCH   2   3
ATOM      3  C   UNL A   1      31.926  29.888  25.610  1.00  0.00     0.329 C 
ATOM      4  O   UNL A   1      31.263  30.914  25.705  1.00  0.00    -0.250 OA
BRANCH   3   5
ATOM      5  C   UNL A   1      31.716  28.872  24.482  1.00  0.00     0.196 C 
BRANCH   5   6
ATOM      6  N   UNL A   1      32.692  28.813  23.368  1.00  0.00    -0.342 N 
ATOM      7  C   UNL A   1      33.251  27.810  22.645  1.00  0.00     0.221 C 
ATOM      8  O   UNL A   1      34.272  28.057  21.998  1.00  0.00    -0.275 OA
ATOM      9  H   UNL A   1      33.005  29.705  23.088  1.00  0.00     0.164 HD
BRANCH   7  10
ATOM     10  C   UNL A   1      32.617  26.442  22.574  1.00  0.00     0.116 C 
BRANCH  10  11
ATOM     11  C   UNL A   1      33.445  25.248  23.089  1.00  0.00     0.116 C 
ATOM     12  C   UNL A   1      32.497  17.071  25.600  1.00  0.00     0.088 C 
ATOM     13  C   UNL A   1      32.633  18.406  24.984  1.00  0.00     0.105 A 
ATOM     14  O   UNL A   1      32.969  19.406  25.843  1.00  0.00    -0.461 OA
ATOM     15  C   UNL A   1      32.527  18.893  23.691  1.00  0.00    -0.002 A 
ATOM     16  C   UNL A   1      33.055  20.545  25.112  1.00  0.00     0.138 A 
ATOM     17  C   UNL A   1      32.737  20.306  23.785  1.00  0.00     0.024 A 
ATOM     18  C   UNL A   1      32.277  18.121  22.449  1.00  0.00     0.049 C 
ATOM     19  C   UNL A   1      33.410  21.783  25.611  1.00  0.00     0.095 A 
ATOM     20  C   UNL A   1      32.709  21.407  22.898  1.00  0.00     0.020 A 
ATOM     21  C   UNL A   1      33.386  22.841  24.696  1.00  0.00     0.138 A 
ATOM     22  C   UNL A   1      33.033  22.704  23.362  1.00  0.00    -0.001 A 
ATOM     23  O   UNL A   1      33.695  24.084  25.254  1.00  0.00    -0.426 OA
ATOM     24  C   UNL A   1      32.868  23.931  22.492  1.00  0.00     0.035 C 
ATOM     25  C   UNL A   1      33.674  25.284  24.586  1.00  0.00     0.315 C 
ATOM     26  C   UNL A   1      33.447  23.720  21.082  1.00  0.00     0.014 C 
ATOM     27  O   UNL A   1      33.954  26.298  25.218  1.00  0.00    -0.251 OA
ENDBRANCH  10  11
ENDBRANCH   7  10
ENDBRANCH   5   6
BRANCH   5  28
ATOM     28  C   UNL A   1      30.300  28.347  24.085  1.00  0.00     0.070 C 
BRANCH  28  29
ATOM     29  C   UNL A   1      29.330  28.770  22.972  1.00  0.00    -0.037 C 
ATOM     30  C   UNL A   1      29.141  30.044  22.599  1.00  0.00     0.001 A 
ATOM     31  C   UNL A   1      27.942  28.201  23.273  1.00  0.00     0.174 C 
ATOM     32  C   UNL A   1      29.344  30.643  21.299  1.00  0.00     0.010 A 
ATOM     33  C   UNL A   1      27.798  30.348  23.153  1.00  0.00     0.065 A 
ATOM     34  N   UNL A   1      27.074  29.363  23.581  1.00  0.00    -0.280 NA
ATOM     35  C   UNL A   1      28.752  31.822  21.031  1.00  0.00     0.001 A 
ATOM     36  C   UNL A   1      27.411  31.773  23.073  1.00  0.00     0.028 A 
ATOM     37  C   UNL A   1      27.914  32.467  22.035  1.00  0.00     0.002 A 
ENDBRANCH  28  29
ENDBRANCH   5  28
ENDBRANCH   3   5
ENDBRANCH   2   3
ENDBRANCH   1   2
BRANCH   1  38
ATOM     38  C   UNL A   1      33.639  31.367  27.917  1.00  0.00     0.275 C 
BRANCH  38  39
ATOM     39  O   UNL A   1      34.431  32.550  27.822  1.00  0.00    -0.458 OA
BRANCH  39  40
ATOM     40  C   UNL A   1      34.854  33.092  28.993  1.00  0.00     0.338 C 
ATOM     41  O   UNL A   1      34.386  34.020  29.608  1.00  0.00    -0.246 OA
BRANCH  40  42
ATOM     42  C   UNL A   1      35.851  32.139  29.491  1.00  0.00     0.060 A 
ATOM     43  C   UNL A   1      35.826  31.738  30.829  1.00  0.00     0.016 A 
ATOM     44  C   UNL A   1      36.928  31.845  28.658  1.00  0.00     0.016 A 
ATOM     45  C   UNL A   1      36.933  31.091  31.353  1.00  0.00     0.010 A 
ATOM     46  C   UNL A   1      38.051  31.245  29.197  1.00  0.00     0.010 A 
ATOM     47  C   UNL A   1      38.057  30.868  30.544  1.00  0.00    -0.014 A 
BRANCH  47  48
ATOM     48  C   UNL A   1      39.198  30.163  31.136  1.00  0.00     0.031 A 
ATOM     49  C   UNL A   1      39.426  28.787  30.595  1.00  0.00     0.074 A 
ATOM     50  C   UNL A   1      40.245  30.871  31.606  1.00  0.00     0.049 A 
ATOM     51  N   UNL A   1      40.090  28.543  29.502  1.00  0.00    -0.248 NA
ATOM     52  C   UNL A   1      38.629  27.657  31.072  1.00  0.00     0.031 C 
ATOM     53  C   UNL A   1      40.785  32.071  30.954  1.00  0.00     0.029 A 
ATOM     54  N   UNL A   1      41.167  30.553  32.572  1.00  0.00    -0.354 N 
ATOM     55  C   UNL A   1      39.767  27.254  29.111  1.00  0.00     0.074 A 
ATOM     56  C   UNL A   1      38.868  26.741  30.122  1.00  0.00     0.031 C 
ATOM     57  C   UNL A   1      42.035  32.281  31.416  1.00  0.00     0.029 A 
ATOM     58  C   UNL A   1      42.324  31.323  32.481  1.00  0.00     0.049 A 
ATOM     59  H   UNL A   1      41.026  29.858  33.253  1.00  0.00     0.167 HD
ATOM     60  C   UNL A   1      40.228  26.673  27.972  1.00  0.00     0.034 A 
ATOM     61  C   UNL A   1      43.557  30.855  32.817  1.00  0.00     0.034 A 
ATOM     62  C   UNL A   1      41.116  27.469  27.177  1.00  0.00     0.049 A 
ATOM     63  C   UNL A   1      43.853  29.985  31.613  1.00  0.00     0.074 A 
ATOM     64  C   UNL A   1      41.054  28.223  26.026  1.00  0.00     0.029 A 
ATOM     65  N   UNL A   1      42.413  27.614  27.615  1.00  0.00    -0.354 N 
ATOM     66  N   UNL A   1      44.267  30.398  30.442  1.00  0.00    -0.248 NA
ATOM     67  C   UNL A   1      43.317  28.622  31.616  1.00  0.00     0.031 C 
ATOM     68  C   UNL A   1      42.172  29.116  26.090  1.00  0.00     0.029 A 
ATOM     69  C   UNL A   1      42.816  28.890  27.307  1.00  0.00     0.049 A 
ATOM     70  H   UNL A   1      42.953  26.927  28.067  1.00  0.00     0.167 HD
ATOM     71  C   UNL A   1      43.781  29.460  29.519  1.00  0.00     0.074 A 
ATOM     72  C   UNL A   1      43.237  28.382  30.316  1.00  0.00     0.031 C 
ATOM     73  C   UNL A   1      43.673  29.682  28.174  1.00  0.00     0.034 A 
BRANCH  60  74
ATOM     74  C   UNL A   1      40.024  25.241  27.658  1.00  0.00     0.023 A 
ATOM     75  C   UNL A   1      38.941  24.748  26.916  1.00  0.00     0.031 A 
ATOM     76  C   UNL A   1      41.046  24.352  28.039  1.00  0.00     0.131 A 
ATOM     77  C   UNL A   1      38.921  23.388  26.563  1.00  0.00     0.055 A 
ATOM     78  C   UNL A   1      41.026  23.008  27.678  1.00  0.00     0.041 A 
ATOM     79  F   UNL A   1      42.095  24.795  28.752  1.00  0.00    -0.206 F 
ATOM     80  C   UNL A   1      39.962  22.522  26.931  1.00  0.00     0.022 A 
BRANCH  77  81
ATOM     81  S   UNL A   1      37.563  22.674  25.594  1.00  0.00     0.124 S 
ATOM     82  O   UNL A   1      36.454  22.710  26.544  1.00  0.00    -0.237 OA
ATOM     83  O   UNL A   1      37.462  23.613  24.479  1.00  0.00    -0.237 OA
ATOM     84  O   UNL A   1      38.047  21.342  25.244  1.00  0.00    -0.744 OA
ENDBRANCH  77  81
ENDBRANCH  60  74
BRANCH  61  85
ATOM     85  C   UNL A   1      43.636  30.397  34.246  1.00  0.00     0.023 A 
ATOM     86  C   UNL A   1      43.373  29.098  34.696  1.00  0.00     0.031 A 
ATOM     87  C   UNL A   1      43.899  31.371  35.239  1.00  0.00     0.131 A 
ATOM     88  C   UNL A   1      43.189  28.849  36.067  1.00  0.00     0.055 A 
ATOM     89  C   UNL A   1      43.783  31.105  36.607  1.00  0.00     0.041 A 
ATOM     90  F   UNL A   1      44.243  32.623  34.889  1.00  0.00    -0.206 F 
ATOM     91  C   UNL A   1      43.390  29.842  37.027  1.00  0.00     0.022 A 
BRANCH  88  92
ATOM     92  S   UNL A   1      42.572  27.238  36.631  1.00  0.00     0.124 S 
ATOM     93  O   UNL A   1      43.329  27.029  37.861  1.00  0.00    -0.237 OA
ATOM     94  O   UNL A   1      41.150  27.521  36.802  1.00  0.00    -0.237 OA
ATOM     95  O   UNL A   1      42.907  26.344  35.527  1.00  0.00    -0.744 OA
ENDBRANCH  88  92
ENDBRANCH  61  85
BRANCH  73  96
ATOM     96  C   UNL A   1      44.311  30.932  27.643  1.00  0.00     0.023 A 
ATOM     97  C   UNL A   1      43.758  32.206  27.895  1.00  0.00     0.031 A 
ATOM     98  C   UNL A   1      45.418  30.850  26.784  1.00  0.00     0.131 A 
ATOM     99  C   UNL A   1      44.269  33.333  27.239  1.00  0.00     0.055 A 
ATOM    100  C   UNL A   1      45.963  31.985  26.182  1.00  0.00     0.041 A 
ATOM    101  F   UNL A   1      45.958  29.660  26.474  1.00  0.00    -0.206 F 
ATOM    102  C   UNL A   1      45.380  33.231  26.395  1.00  0.00     0.022 A 
BRANCH  99 103
ATOM    103  S   UNL A   1      43.471  34.957  27.391  1.00  0.00     0.124 S 
ATOM    104  O   UNL A   1      42.530  34.750  28.490  1.00  0.00    -0.237 OA
ATOM    105  O   UNL A   1      44.605  35.823  27.703  1.00  0.00    -0.237 OA
ATOM    106  O   UNL A   1      42.852  35.183  26.090  1.00  0.00    -0.744 OA
ENDBRANCH  99 103
ENDBRANCH  73  96
ENDBRANCH  47  48
ENDBRANCH  40  42
ENDBRANCH  39  40
ENDBRANCH  38  39
ENDBRANCH   1  38
TORSDOF 19
ENDMDL
MODEL 3
REMARK VINA RESULT:     -12.7      2.942      9.176
REMARK SMILES Cc1oc2cc3c(cc2c1C)[C@H](C)[C@@H](CC(=O)N[C@H](CC1=c2ccccc2=NC1)C(=O)OCCOC(=O)c1ccc(-c2c4nc(c(-c5cc(S(=O)(=O)[O-])ccc5F)c5ccc([nH]5)c(-c5cc(S(=O)(=O)[O-])ccc5F)c5nc(c(-c6cc(S(=O)(=O)[O-])ccc6F)c6ccc2[nH]6)C=C5)C=C4)cc1)C(=O)O3
REMARK SMILES IDX 33 1 32 2 30 3 31 4 19 5 18 6 16 7 17 8 15 10 14 11 1 12
REMARK SMILES IDX 2 13 3 14 10 15 4 16 9 17 11 18 5 19 8 20 6 21 7 22 103 23
REMARK SMILES IDX 12 24 101 25 13 26 102 27 20 28 21 29 22 30 29 31 23 32
REMARK SMILES IDX 27 33 28 34 24 35 26 36 25 37 34 38 35 39 36 40 37 41 38 42
REMARK SMILES IDX 39 43 100 44 40 45 99 46 41 47 42 48 43 49 93 50 44 51 98 52
REMARK SMILES IDX 92 53 94 54 45 55 97 56 91 57 90 58 46 60 78 61 58 62 77 63
REMARK SMILES IDX 59 64 62 65 76 66 95 67 60 68 61 69 75 71 96 72 63 73 47 74
REMARK SMILES IDX 48 75 56 76 49 77 55 78 57 79 54 80 50 81 51 82 52 83 53 84
REMARK SMILES IDX 79 85 80 86 88 87 81 88 87 89 89 90 86 91 82 92 83 93 84 94
REMARK SMILES IDX 85 95 64 96 65 97 73 98 66 99 72 100 74 101 71 102 67 103
REMARK SMILES IDX 68 104 69 105 70 106
REMARK H PARENT 18 9 94 59 62 70
REMARK Flexibility Score: inf
ROOT
ATOM      1  C   UNL A   1      33.341  30.057  26.387  1.00  0.00     0.274 C 
ENDROOT
BRANCH   1   2
ATOM      2  O   UNL A   1      31.957  29.651  26.366  1.00  0.00    -0.461 OA
BRANCH   2   3
ATOM      3  C   UNL A   1      31.286  29.862  25.211  1.00  0.00     0.329 C 
ATOM      4  O   UNL A   1      30.619  30.868  24.999  1.00  0.00    -0.250 OA
BRANCH   3   5
ATOM      5  C   UNL A   1      31.332  28.681  24.235  1.00  0.00     0.196 C 
BRANCH   5   6
ATOM      6  N   UNL A   1      32.562  28.444  23.443  1.00  0.00    -0.342 N 
ATOM      7  C   UNL A   1      33.189  27.338  22.970  1.00  0.00     0.221 C 
ATOM      8  O   UNL A   1      34.368  27.442  22.618  1.00  0.00    -0.275 OA
ATOM      9  H   UNL A   1      33.028  29.278  23.204  1.00  0.00     0.164 HD
BRANCH   7  10
ATOM     10  C   UNL A   1      32.461  26.025  22.814  1.00  0.00     0.116 C 
BRANCH  10  11
ATOM     11  C   UNL A   1      32.531  25.030  23.990  1.00  0.00     0.116 C 
ATOM     12  C   UNL A   1      33.331  16.603  25.549  1.00  0.00     0.088 C 
ATOM     13  C   UNL A   1      33.387  18.046  25.235  1.00  0.00     0.105 A 
ATOM     14  O   UNL A   1      32.241  18.735  25.484  1.00  0.00    -0.461 OA
ATOM     15  C   UNL A   1      34.373  18.898  24.761  1.00  0.00    -0.002 A 
ATOM     16  C   UNL A   1      32.475  20.028  25.148  1.00  0.00     0.138 A 
ATOM     17  C   UNL A   1      33.755  20.183  24.641  1.00  0.00     0.024 A 
ATOM     18  C   UNL A   1      35.788  18.569  24.464  1.00  0.00     0.049 C 
ATOM     19  C   UNL A   1      31.568  21.061  25.286  1.00  0.00     0.095 A 
ATOM     20  C   UNL A   1      34.136  21.463  24.174  1.00  0.00     0.020 A 
ATOM     21  C   UNL A   1      31.992  22.313  24.829  1.00  0.00     0.138 A 
ATOM     22  C   UNL A   1      33.235  22.550  24.263  1.00  0.00    -0.001 A 
ATOM     23  O   UNL A   1      31.024  23.315  24.935  1.00  0.00    -0.426 OA
ATOM     24  C   UNL A   1      33.539  23.895  23.639  1.00  0.00     0.035 C 
ATOM     25  C   UNL A   1      31.166  24.609  24.494  1.00  0.00     0.315 C 
ATOM     26  C   UNL A   1      34.966  24.372  23.961  1.00  0.00     0.014 C 
ATOM     27  O   UNL A   1      30.219  25.373  24.642  1.00  0.00    -0.251 OA
ENDBRANCH  10  11
ENDBRANCH   7  10
ENDBRANCH   5   6
BRANCH   5  28
ATOM     28  C   UNL A   1      30.047  28.106  23.561  1.00  0.00     0.070 C 
BRANCH  28  29
ATOM     29  C   UNL A   1      28.998  28.752  22.644  1.00  0.00    -0.037 C 
ATOM     30  C   UNL A   1      28.949  30.068  22.389  1.00  0.00     0.001 A 
ATOM     31  C   UNL A   1      27.601  28.355  23.120  1.00  0.00     0.174 C 
ATOM     32  C   UNL A   1      29.047  30.745  21.115  1.00  0.00     0.010 A 
ATOM     33  C   UNL A   1      27.760  30.503  23.164  1.00  0.00     0.065 A 
ATOM     34  N   UNL A   1      26.968  29.594  23.635  1.00  0.00    -0.280 NA
ATOM     35  C   UNL A   1      28.604  32.012  21.020  1.00  0.00     0.001 A 
ATOM     36  C   UNL A   1      27.581  31.970  23.239  1.00  0.00     0.028 A 
ATOM     37  C   UNL A   1      28.026  32.676  22.183  1.00  0.00     0.002 A 
ENDBRANCH  28  29
ENDBRANCH   5  28
ENDBRANCH   3   5
ENDBRANCH   2   3
ENDBRANCH   1   2
BRANCH   1  38
ATOM     38  C   UNL A   1      33.570  31.224  27.345  1.00  0.00     0.275 C 
BRANCH  38  39
ATOM     39  O   UNL A   1      34.922  31.677  27.311  1.00  0.00    -0.458 OA
BRANCH  39  40
ATOM     40  C   UNL A   1      35.400  32.245  28.447  1.00  0.00     0.338 C 
ATOM     41  O   UNL A   1      35.057  33.274  28.979  1.00  0.00    -0.246 OA
BRANCH  40  42
ATOM     42  C   UNL A   1      36.248  31.207  29.041  1.00  0.00     0.060 A 
ATOM     43  C   UNL A   1      36.476  31.195  30.419  1.00  0.00     0.016 A 
ATOM     44  C   UNL A   1      36.979  30.402  28.169  1.00  0.00     0.016 A 
ATOM     45  C   UNL A   1      37.504  30.412  30.918  1.00  0.00     0.010 A 
ATOM     46  C   UNL A   1      38.035  29.662  28.665  1.00  0.00     0.010 A 
ATOM     47  C   UNL A   1      38.302  29.665  30.038  1.00  0.00    -0.014 A 
BRANCH  47  48
ATOM     48  C   UNL A   1      39.365  28.836  30.614  1.00  0.00     0.031 A 
ATOM     49  C   UNL A   1      39.547  27.509  29.947  1.00  0.00     0.074 A 
ATOM     50  C   UNL A   1      40.421  29.429  31.208  1.00  0.00     0.049 A 
ATOM     51  N   UNL A   1      40.260  27.334  28.872  1.00  0.00    -0.248 NA
ATOM     52  C   UNL A   1      38.662  26.388  30.263  1.00  0.00     0.031 C 
ATOM     53  C   UNL A   1      41.063  30.652  30.711  1.00  0.00     0.029 A 
ATOM     54  N   UNL A   1      41.265  28.962  32.183  1.00  0.00    -0.354 N 
ATOM     55  C   UNL A   1      39.888  26.113  28.334  1.00  0.00     0.074 A 
ATOM     56  C   UNL A   1      38.905  25.558  29.239  1.00  0.00     0.031 C 
ATOM     57  C   UNL A   1      42.294  30.739  31.257  1.00  0.00     0.029 A 
ATOM     58  C   UNL A   1      42.467  29.664  32.232  1.00  0.00     0.049 A 
ATOM     59  H   UNL A   1      41.046  28.211  32.782  1.00  0.00     0.167 HD
ATOM     60  C   UNL A   1      40.382  25.620  27.167  1.00  0.00     0.034 A 
ATOM     61  C   UNL A   1      43.650  29.091  32.583  1.00  0.00     0.034 A 
ATOM     62  C   UNL A   1      41.358  26.435  26.506  1.00  0.00     0.049 A 
ATOM     63  C   UNL A   1      43.968  28.328  31.313  1.00  0.00     0.074 A 
ATOM     64  C   UNL A   1      41.406  27.302  25.437  1.00  0.00     0.029 A 
ATOM     65  N   UNL A   1      42.633  26.457  27.023  1.00  0.00    -0.354 N 
ATOM     66  N   UNL A   1      44.471  28.828  30.214  1.00  0.00    -0.248 NA
ATOM     67  C   UNL A   1      43.357  27.006  31.149  1.00  0.00     0.031 C 
ATOM     68  C   UNL A   1      42.566  28.114  25.650  1.00  0.00     0.029 A 
ATOM     69  C   UNL A   1      43.124  27.730  26.870  1.00  0.00     0.049 A 
ATOM     70  H   UNL A   1      43.107  25.697  27.431  1.00  0.00     0.167 HD
ATOM     71  C   UNL A   1      43.989  28.018  29.176  1.00  0.00     0.074 A 
ATOM     72  C   UNL A   1      43.340  26.901  29.828  1.00  0.00     0.031 C 
ATOM     73  C   UNL A   1      43.971  28.379  27.857  1.00  0.00     0.034 A 
BRANCH  60  74
ATOM     74  C   UNL A   1      40.118  24.242  26.698  1.00  0.00     0.023 A 
ATOM     75  C   UNL A   1      41.087  23.228  26.660  1.00  0.00     0.031 A 
ATOM     76  C   UNL A   1      38.786  23.919  26.383  1.00  0.00     0.131 A 
ATOM     77  C   UNL A   1      40.691  21.922  26.326  1.00  0.00     0.055 A 
ATOM     78  C   UNL A   1      38.398  22.622  26.062  1.00  0.00     0.041 A 
ATOM     79  F   UNL A   1      37.837  24.870  26.409  1.00  0.00    -0.206 F 
ATOM     80  C   UNL A   1      39.353  21.614  26.039  1.00  0.00     0.022 A 
BRANCH  77  81
ATOM     81  S   UNL A   1      41.880  20.551  26.266  1.00  0.00     0.124 S 
ATOM     82  O   UNL A   1      42.159  20.321  27.680  1.00  0.00    -0.237 OA
ATOM     83  O   UNL A   1      41.100  19.506  25.605  1.00  0.00    -0.237 OA
ATOM     84  O   UNL A   1      42.991  21.087  25.485  1.00  0.00    -0.744 OA
ENDBRANCH  77  81
ENDBRANCH  60  74
BRANCH  61  85
ATOM     85  C   UNL A   1      43.621  28.490  33.959  1.00  0.00     0.023 A 
ATOM     86  C   UNL A   1      43.213  27.186  34.266  1.00  0.00     0.031 A 
ATOM     87  C   UNL A   1      43.930  29.331  35.055  1.00  0.00     0.131 A 
ATOM     88  C   UNL A   1      42.945  26.823  35.597  1.00  0.00     0.055 A 
ATOM     89  C   UNL A   1      43.728  28.945  36.384  1.00  0.00     0.041 A 
ATOM     90  F   UNL A   1      44.409  30.569  34.847  1.00  0.00    -0.206 F 
ATOM     91  C   UNL A   1      43.197  27.692  36.659  1.00  0.00     0.022 A 
BRANCH  88  92
ATOM     92  S   UNL A   1      42.150  25.235  35.971  1.00  0.00     0.124 S 
ATOM     93  O   UNL A   1      42.734  24.352  34.965  1.00  0.00    -0.237 OA
ATOM     94  O   UNL A   1      42.592  25.011  37.345  1.00  0.00    -0.237 OA
ATOM     95  O   UNL A   1      40.729  25.522  35.807  1.00  0.00    -0.744 OA
ENDBRANCH  88  92
ENDBRANCH  61  85
BRANCH  73  96
ATOM     96  C   UNL A   1      44.707  29.634  27.490  1.00  0.00     0.023 A 
ATOM     97  C   UNL A   1      44.230  30.906  27.870  1.00  0.00     0.031 A 
ATOM     98  C   UNL A   1      45.838  29.573  26.660  1.00  0.00     0.131 A 
ATOM     99  C   UNL A   1      44.836  32.062  27.363  1.00  0.00     0.055 A 
ATOM    100  C   UNL A   1      46.477  30.728  26.208  1.00  0.00     0.041 A 
ATOM    101  F   UNL A   1      46.310  28.391  26.232  1.00  0.00    -0.206 F 
ATOM    102  C   UNL A   1      45.968  31.979  26.545  1.00  0.00     0.022 A 
BRANCH  99 103
ATOM    103  S   UNL A   1      44.139  33.709  27.676  1.00  0.00     0.124 S 
ATOM    104  O   UNL A   1      45.309  34.476  28.101  1.00  0.00    -0.237 OA
ATOM    105  O   UNL A   1      43.609  34.068  26.363  1.00  0.00    -0.237 OA
ATOM    106  O   UNL A   1      43.139  33.492  28.716  1.00  0.00    -0.744 OA
ENDBRANCH  99 103
ENDBRANCH  73  96
ENDBRANCH  47  48
ENDBRANCH  40  42
ENDBRANCH  39  40
ENDBRANCH  38  39
ENDBRANCH   1  38
TORSDOF 19
ENDMDL
