MODEL 1
REMARK VINA RESULT:     -12.4      0.000      0.000
REMARK SMILES Cc1nn(CC(=O)OCCOC(=O)c2ccc(-c3c4nc(c(-c5cc(S(=O)(=O)[O-])ccc5F)c5ccc([nH]5)c(-c5cc(S(=O)(=O)[O-])ccc5F)c5nc(c(-c6cc(S(=O)(=O)[O-])ccc6F)c6ccc3[nH]6)C=C5)C=C4)cc2)c(C)c1NS(=O)(=O)c1cccc2cccnc12
REMARK SMILES IDX 9 1 8 2 6 3 7 4 5 5 4 6 1 7 2 8 3 9 79 10 77 11 78 12 80 13
REMARK SMILES IDX 81 15 82 16 83 17 84 18 85 19 93 20 86 21 88 22 92 23 87 24
REMARK SMILES IDX 89 25 91 26 90 27 10 28 11 29 12 30 13 31 14 32 15 33 76 34
REMARK SMILES IDX 16 35 75 36 17 37 18 38 19 39 69 40 20 41 74 42 68 43 70 44
REMARK SMILES IDX 21 45 73 46 67 47 66 48 22 50 54 51 34 52 53 53 35 54 38 55
REMARK SMILES IDX 52 56 71 57 36 58 37 59 51 61 72 62 39 63 23 64 24 65 32 66
REMARK SMILES IDX 25 67 31 68 33 69 30 70 26 71 27 72 28 73 29 74 55 75 56 76
REMARK SMILES IDX 64 77 57 78 63 79 65 80 62 81 58 82 59 83 60 84 61 85 40 86
REMARK SMILES IDX 41 87 49 88 42 89 48 90 50 91 47 92 43 93 44 94 45 95 46 96
REMARK H PARENT 80 14 70 49 38 60
REMARK Flexibility Score: inf
ROOT
ATOM      1  C   UNL A   1      39.332  21.496  26.123  1.00  0.00     0.274 C 
ENDROOT
BRANCH   1   2
ATOM      2  O   UNL A   1      38.118  22.015  25.525  1.00  0.00    -0.461 OA
BRANCH   2   3
ATOM      3  C   UNL A   1      37.058  21.169  25.413  1.00  0.00     0.327 C 
ATOM      4  O   UNL A   1      37.109  20.108  24.789  1.00  0.00    -0.250 OA
BRANCH   3   5
ATOM      5  C   UNL A   1      35.787  21.585  26.125  1.00  0.00     0.267 C 
BRANCH   5   6
ATOM      6  N   UNL A   1      34.728  22.077  25.268  1.00  0.00    -0.256 N 
ATOM      7  C   UNL A   1      32.190  21.272  22.982  1.00  0.00     0.071 C 
ATOM      8  C   UNL A   1      33.083  21.903  23.988  1.00  0.00     0.084 A 
ATOM      9  N   UNL A   1      34.214  21.276  24.330  1.00  0.00    -0.175 NA
ATOM     10  C   UNL A   1      32.980  23.177  24.644  1.00  0.00     0.093 A 
ATOM     11  C   UNL A   1      34.272  23.365  25.099  1.00  0.00     0.060 A 
ATOM     12  C   UNL A   1      35.137  24.543  25.291  1.00  0.00     0.069 C 
BRANCH  10  13
ATOM     13  N   UNL A   1      31.858  24.016  24.567  1.00  0.00    -0.276 N 
ATOM     14  H   UNL A   1      31.302  23.915  23.760  1.00  0.00     0.180 HD
BRANCH  13  15
ATOM     15  S   UNL A   1      31.335  25.181  25.681  1.00  0.00     0.264 S 
ATOM     16  O   UNL A   1      30.026  25.599  25.206  1.00  0.00    -0.201 OA
ATOM     17  O   UNL A   1      31.418  24.578  26.995  1.00  0.00    -0.201 OA
BRANCH  15  18
ATOM     18  C   UNL A   1      32.367  26.620  25.633  1.00  0.00     0.114 A 
ATOM     19  C   UNL A   1      32.676  27.237  26.862  1.00  0.00     0.024 A 
ATOM     20  C   UNL A   1      32.884  27.104  24.436  1.00  0.00     0.091 A 
ATOM     21  C   UNL A   1      33.396  28.424  26.894  1.00  0.00     0.002 A 
ATOM     22  C   UNL A   1      33.557  28.353  24.481  1.00  0.00     0.002 A 
ATOM     23  N   UNL A   1      32.776  26.439  23.273  1.00  0.00    -0.255 NA
ATOM     24  C   UNL A   1      33.797  29.006  25.699  1.00  0.00     0.010 A 
ATOM     25  C   UNL A   1      33.996  28.934  23.288  1.00  0.00     0.012 A 
ATOM     26  C   UNL A   1      33.329  26.968  22.165  1.00  0.00     0.112 A 
ATOM     27  C   UNL A   1      33.894  28.226  22.106  1.00  0.00     0.021 A 
ENDBRANCH  15  18
ENDBRANCH  13  15
ENDBRANCH  10  13
ENDBRANCH   5   6
ENDBRANCH   3   5
ENDBRANCH   2   3
ENDBRANCH   1   2
BRANCH   1  28
ATOM     28  C   UNL A   1      40.070  22.505  26.986  1.00  0.00     0.275 C 
BRANCH  28  29
ATOM     29  O   UNL A   1      39.628  23.805  26.648  1.00  0.00    -0.458 OA
BRANCH  29  30
ATOM     30  C   UNL A   1      40.519  24.736  27.048  1.00  0.00     0.338 C 
ATOM     31  O   UNL A   1      41.733  24.606  27.137  1.00  0.00    -0.246 OA
BRANCH  30  32
ATOM     32  C   UNL A   1      39.806  25.920  27.488  1.00  0.00     0.060 A 
ATOM     33  C   UNL A   1      40.140  27.129  26.873  1.00  0.00     0.016 A 
ATOM     34  C   UNL A   1      39.203  25.835  28.744  1.00  0.00     0.016 A 
ATOM     35  C   UNL A   1      40.076  28.275  27.626  1.00  0.00     0.010 A 
ATOM     36  C   UNL A   1      39.212  26.961  29.514  1.00  0.00     0.010 A 
ATOM     37  C   UNL A   1      39.713  28.146  28.965  1.00  0.00    -0.014 A 
BRANCH  37  38
ATOM     38  C   UNL A   1      39.919  29.274  29.840  1.00  0.00     0.031 A 
ATOM     39  C   UNL A   1      38.728  30.112  30.042  1.00  0.00     0.074 A 
ATOM     40  C   UNL A   1      41.049  29.385  30.557  1.00  0.00     0.049 A 
ATOM     41  N   UNL A   1      38.563  31.352  29.727  1.00  0.00    -0.248 NA
ATOM     42  C   UNL A   1      37.501  29.435  30.492  1.00  0.00     0.031 C 
ATOM     43  C   UNL A   1      42.122  28.391  30.669  1.00  0.00     0.029 A 
ATOM     44  N   UNL A   1      41.391  30.330  31.472  1.00  0.00    -0.354 N 
ATOM     45  C   UNL A   1      37.279  31.662  30.156  1.00  0.00     0.074 A 
ATOM     46  C   UNL A   1      36.611  30.408  30.337  1.00  0.00     0.031 C 
ATOM     47  C   UNL A   1      42.854  28.671  31.767  1.00  0.00     0.029 A 
ATOM     48  C   UNL A   1      42.355  29.898  32.370  1.00  0.00     0.049 A 
ATOM     49  H   UNL A   1      40.995  31.231  31.494  1.00  0.00     0.167 HD
ATOM     50  C   UNL A   1      36.965  32.902  30.615  1.00  0.00     0.034 A 
ATOM     51  C   UNL A   1      42.627  30.442  33.583  1.00  0.00     0.034 A 
ATOM     52  C   UNL A   1      37.956  33.872  30.190  1.00  0.00     0.049 A 
ATOM     53  C   UNL A   1      42.066  31.818  33.598  1.00  0.00     0.074 A 
ATOM     54  C   UNL A   1      38.468  34.247  28.961  1.00  0.00     0.029 A 
ATOM     55  N   UNL A   1      38.842  34.368  31.124  1.00  0.00    -0.354 N 
ATOM     56  N   UNL A   1      42.512  32.797  32.859  1.00  0.00    -0.248 NA
ATOM     57  C   UNL A   1      40.724  32.019  34.128  1.00  0.00     0.031 C 
ATOM     58  C   UNL A   1      39.841  34.548  29.193  1.00  0.00     0.029 A 
ATOM     59  C   UNL A   1      40.093  34.390  30.556  1.00  0.00     0.049 A 
ATOM     60  H   UNL A   1      38.618  34.656  32.039  1.00  0.00     0.167 HD
ATOM     61  C   UNL A   1      41.386  33.515  32.486  1.00  0.00     0.074 A 
ATOM     62  C   UNL A   1      40.340  33.073  33.402  1.00  0.00     0.031 C 
ATOM     63  C   UNL A   1      41.329  34.172  31.289  1.00  0.00     0.034 A 
BRANCH  50  64
ATOM     64  C   UNL A   1      35.986  33.159  31.750  1.00  0.00     0.023 A 
ATOM     65  C   UNL A   1      34.876  33.962  31.441  1.00  0.00     0.031 A 
ATOM     66  C   UNL A   1      36.182  32.913  33.133  1.00  0.00     0.131 A 
ATOM     67  C   UNL A   1      34.131  34.593  32.449  1.00  0.00     0.055 A 
ATOM     68  C   UNL A   1      35.392  33.488  34.134  1.00  0.00     0.041 A 
ATOM     69  F   UNL A   1      37.176  32.168  33.623  1.00  0.00    -0.206 F 
ATOM     70  C   UNL A   1      34.386  34.371  33.797  1.00  0.00     0.022 A 
BRANCH  67  71
ATOM     71  S   UNL A   1      32.951  35.869  31.952  1.00  0.00     0.124 S 
ATOM     72  O   UNL A   1      33.479  37.038  32.647  1.00  0.00    -0.237 OA
ATOM     73  O   UNL A   1      33.100  35.855  30.501  1.00  0.00    -0.237 OA
ATOM     74  O   UNL A   1      31.678  35.363  32.457  1.00  0.00    -0.744 OA
ENDBRANCH  67  71
ENDBRANCH  50  64
BRANCH  51  75
ATOM     75  C   UNL A   1      43.106  29.723  34.790  1.00  0.00     0.023 A 
ATOM     76  C   UNL A   1      42.378  28.662  35.357  1.00  0.00     0.031 A 
ATOM     77  C   UNL A   1      44.404  29.949  35.307  1.00  0.00     0.131 A 
ATOM     78  C   UNL A   1      42.935  27.901  36.407  1.00  0.00     0.055 A 
ATOM     79  C   UNL A   1      44.937  29.218  36.370  1.00  0.00     0.041 A 
ATOM     80  F   UNL A   1      45.239  30.835  34.741  1.00  0.00    -0.206 F 
ATOM     81  C   UNL A   1      44.203  28.185  36.924  1.00  0.00     0.022 A 
BRANCH  78  82
ATOM     82  S   UNL A   1      42.063  26.429  37.025  1.00  0.00     0.124 S 
ATOM     83  O   UNL A   1      42.903  26.021  38.145  1.00  0.00    -0.237 OA
ATOM     84  O   UNL A   1      40.747  26.960  37.359  1.00  0.00    -0.237 OA
ATOM     85  O   UNL A   1      42.081  25.521  35.877  1.00  0.00    -0.744 OA
ENDBRANCH  78  82
ENDBRANCH  51  75
BRANCH  63  86
ATOM     86  C   UNL A   1      42.625  34.456  30.558  1.00  0.00     0.023 A 
ATOM     87  C   UNL A   1      43.096  33.723  29.446  1.00  0.00     0.031 A 
ATOM     88  C   UNL A   1      43.366  35.587  30.949  1.00  0.00     0.131 A 
ATOM     89  C   UNL A   1      44.275  34.116  28.787  1.00  0.00     0.055 A 
ATOM     90  C   UNL A   1      44.525  35.985  30.281  1.00  0.00     0.041 A 
ATOM     91  F   UNL A   1      42.957  36.347  31.978  1.00  0.00    -0.206 F 
ATOM     92  C   UNL A   1      44.990  35.243  29.202  1.00  0.00     0.022 A 
BRANCH  89  93
ATOM     93  S   UNL A   1      44.923  33.147  27.389  1.00  0.00     0.124 S 
ATOM     94  O   UNL A   1      44.090  31.950  27.380  1.00  0.00    -0.237 OA
ATOM     95  O   UNL A   1      44.740  34.062  26.267  1.00  0.00    -0.237 OA
ATOM     96  O   UNL A   1      46.320  32.914  27.761  1.00  0.00    -0.744 OA
ENDBRANCH  89  93
ENDBRANCH  63  86
ENDBRANCH  37  38
ENDBRANCH  30  32
ENDBRANCH  29  30
ENDBRANCH  28  29
ENDBRANCH   1  28
TORSDOF 18
ENDMDL
MODEL 2
REMARK VINA RESULT:     -12.2      1.763      2.284
REMARK SMILES Cc1nn(CC(=O)OCCOC(=O)c2ccc(-c3c4nc(c(-c5cc(S(=O)(=O)[O-])ccc5F)c5ccc([nH]5)c(-c5cc(S(=O)(=O)[O-])ccc5F)c5nc(c(-c6cc(S(=O)(=O)[O-])ccc6F)c6ccc3[nH]6)C=C5)C=C4)cc2)c(C)c1NS(=O)(=O)c1cccc2cccnc12
REMARK SMILES IDX 9 1 8 2 6 3 7 4 5 5 4 6 1 7 2 8 3 9 79 10 77 11 78 12 80 13
REMARK SMILES IDX 81 15 82 16 83 17 84 18 85 19 93 20 86 21 88 22 92 23 87 24
REMARK SMILES IDX 89 25 91 26 90 27 10 28 11 29 12 30 13 31 14 32 15 33 76 34
REMARK SMILES IDX 16 35 75 36 17 37 18 38 19 39 69 40 20 41 74 42 68 43 70 44
REMARK SMILES IDX 21 45 73 46 67 47 66 48 22 50 54 51 34 52 53 53 35 54 38 55
REMARK SMILES IDX 52 56 71 57 36 58 37 59 51 61 72 62 39 63 23 64 24 65 32 66
REMARK SMILES IDX 25 67 31 68 33 69 30 70 26 71 27 72 28 73 29 74 55 75 56 76
REMARK SMILES IDX 64 77 57 78 63 79 65 80 62 81 58 82 59 83 60 84 61 85 40 86
REMARK SMILES IDX 41 87 49 88 42 89 48 90 50 91 47 92 43 93 44 94 45 95 46 96
REMARK H PARENT 80 14 70 49 38 60
REMARK Flexibility Score: inf
ROOT
ATOM      1  C   UNL A   1      40.196  21.833  26.383  1.00  0.00     0.274 C 
ENDROOT
BRANCH   1   2
ATOM      2  O   UNL A   1      38.863  22.401  26.333  1.00  0.00    -0.461 OA
BRANCH   2   3
ATOM      3  C   UNL A   1      38.000  21.904  25.405  1.00  0.00     0.327 C 
ATOM      4  O   UNL A   1      37.939  20.707  25.119  1.00  0.00    -0.250 OA
BRANCH   3   5
ATOM      5  C   UNL A   1      37.079  22.904  24.738  1.00  0.00     0.267 C 
BRANCH   5   6
ATOM      6  N   UNL A   1      35.663  22.633  24.877  1.00  0.00    -0.256 N 
ATOM      7  C   UNL A   1      33.056  20.330  24.412  1.00  0.00     0.071 C 
ATOM      8  C   UNL A   1      33.942  21.446  24.835  1.00  0.00     0.084 A 
ATOM      9  N   UNL A   1      35.124  21.598  24.227  1.00  0.00    -0.175 NA
ATOM     10  C   UNL A   1      33.711  22.497  25.786  1.00  0.00     0.093 A 
ATOM     11  C   UNL A   1      34.675  23.420  25.425  1.00  0.00     0.060 A 
ATOM     12  C   UNL A   1      34.747  24.893  25.431  1.00  0.00     0.069 C 
BRANCH  10  13
ATOM     13  N   UNL A   1      32.608  22.550  26.652  1.00  0.00    -0.276 N 
ATOM     14  H   UNL A   1      32.770  22.235  27.571  1.00  0.00     0.180 HD
BRANCH  13  15
ATOM     15  S   UNL A   1      31.035  23.088  26.323  1.00  0.00     0.264 S 
ATOM     16  O   UNL A   1      30.364  21.948  25.719  1.00  0.00    -0.201 OA
ATOM     17  O   UNL A   1      30.498  23.611  27.563  1.00  0.00    -0.201 OA
BRANCH  15  18
ATOM     18  C   UNL A   1      31.039  24.370  25.102  1.00  0.00     0.114 A 
ATOM     19  C   UNL A   1      30.807  23.993  23.765  1.00  0.00     0.024 A 
ATOM     20  C   UNL A   1      31.228  25.704  25.451  1.00  0.00     0.091 A 
ATOM     21  C   UNL A   1      30.895  24.928  22.742  1.00  0.00     0.002 A 
ATOM     22  C   UNL A   1      31.383  26.632  24.387  1.00  0.00     0.002 A 
ATOM     23  N   UNL A   1      31.257  26.128  26.725  1.00  0.00    -0.255 NA
ATOM     24  C   UNL A   1      31.228  26.240  23.050  1.00  0.00     0.010 A 
ATOM     25  C   UNL A   1      31.686  27.965  24.686  1.00  0.00     0.012 A 
ATOM     26  C   UNL A   1      31.419  27.442  26.972  1.00  0.00     0.112 A 
ATOM     27  C   UNL A   1      31.692  28.385  26.002  1.00  0.00     0.021 A 
ENDBRANCH  15  18
ENDBRANCH  13  15
ENDBRANCH  10  13
ENDBRANCH   5   6
ENDBRANCH   3   5
ENDBRANCH   2   3
ENDBRANCH   1   2
BRANCH   1  28
ATOM     28  C   UNL A   1      41.274  22.835  26.759  1.00  0.00     0.275 C 
BRANCH  28  29
ATOM     29  O   UNL A   1      40.657  24.006  27.254  1.00  0.00    -0.458 OA
BRANCH  29  30
ATOM     30  C   UNL A   1      41.026  25.086  26.534  1.00  0.00     0.338 C 
ATOM     31  O   UNL A   1      41.922  25.148  25.702  1.00  0.00    -0.246 OA
BRANCH  30  32
ATOM     32  C   UNL A   1      40.266  26.238  26.979  1.00  0.00     0.060 A 
ATOM     33  C   UNL A   1      40.692  27.493  26.534  1.00  0.00     0.016 A 
ATOM     34  C   UNL A   1      39.491  26.049  28.124  1.00  0.00     0.016 A 
ATOM     35  C   UNL A   1      40.529  28.564  27.376  1.00  0.00     0.010 A 
ATOM     36  C   UNL A   1      39.398  27.100  28.991  1.00  0.00     0.010 A 
ATOM     37  C   UNL A   1      39.980  28.320  28.632  1.00  0.00    -0.014 A 
BRANCH  37  38
ATOM     38  C   UNL A   1      40.068  29.358  29.630  1.00  0.00     0.031 A 
ATOM     39  C   UNL A   1      38.853  30.174  29.767  1.00  0.00     0.074 A 
ATOM     40  C   UNL A   1      41.103  29.398  30.485  1.00  0.00     0.049 A 
ATOM     41  N   UNL A   1      38.714  31.438  29.555  1.00  0.00    -0.248 NA
ATOM     42  C   UNL A   1      37.588  29.458  29.999  1.00  0.00     0.031 C 
ATOM     43  C   UNL A   1      42.165  28.396  30.629  1.00  0.00     0.029 A 
ATOM     44  N   UNL A   1      41.323  30.249  31.521  1.00  0.00    -0.354 N 
ATOM     45  C   UNL A   1      37.385  31.707  29.854  1.00  0.00     0.074 A 
ATOM     46  C   UNL A   1      36.713  30.443  29.832  1.00  0.00     0.031 C 
ATOM     47  C   UNL A   1      42.757  28.567  31.829  1.00  0.00     0.029 A 
ATOM     48  C   UNL A   1      42.177  29.731  32.482  1.00  0.00     0.049 A 
ATOM     49  H   UNL A   1      40.918  31.144  31.581  1.00  0.00     0.167 HD
ATOM     50  C   UNL A   1      37.005  32.897  30.389  1.00  0.00     0.034 A 
ATOM     51  C   UNL A   1      42.295  30.155  33.766  1.00  0.00     0.034 A 
ATOM     52  C   UNL A   1      38.030  33.903  30.182  1.00  0.00     0.049 A 
ATOM     53  C   UNL A   1      41.722  31.523  33.846  1.00  0.00     0.074 A 
ATOM     54  C   UNL A   1      38.682  34.394  29.065  1.00  0.00     0.029 A 
ATOM     55  N   UNL A   1      38.792  34.305  31.259  1.00  0.00    -0.354 N 
ATOM     56  N   UNL A   1      42.243  32.569  33.263  1.00  0.00    -0.248 NA
ATOM     57  C   UNL A   1      40.324  31.674  34.227  1.00  0.00     0.031 C 
ATOM     58  C   UNL A   1      40.013  34.670  29.488  1.00  0.00     0.029 A 
ATOM     59  C   UNL A   1      40.102  34.380  30.850  1.00  0.00     0.049 A 
ATOM     60  H   UNL A   1      38.457  34.503  32.163  1.00  0.00     0.167 HD
ATOM     61  C   UNL A   1      41.163  33.321  32.829  1.00  0.00     0.074 A 
ATOM     62  C   UNL A   1      40.020  32.794  33.566  1.00  0.00     0.031 C 
ATOM     63  C   UNL A   1      41.243  34.091  31.702  1.00  0.00     0.034 A 
BRANCH  50  64
ATOM     64  C   UNL A   1      35.895  33.045  31.417  1.00  0.00     0.023 A 
ATOM     65  C   UNL A   1      34.807  33.850  31.043  1.00  0.00     0.031 A 
ATOM     66  C   UNL A   1      35.935  32.691  32.790  1.00  0.00     0.131 A 
ATOM     67  C   UNL A   1      33.933  34.385  32.003  1.00  0.00     0.055 A 
ATOM     68  C   UNL A   1      35.019  33.169  33.733  1.00  0.00     0.041 A 
ATOM     69  F   UNL A   1      36.885  31.926  33.334  1.00  0.00    -0.206 F 
ATOM     70  C   UNL A   1      34.036  34.059  33.350  1.00  0.00     0.022 A 
BRANCH  67  71
ATOM     71  S   UNL A   1      32.785  35.676  31.472  1.00  0.00     0.124 S 
ATOM     72  O   UNL A   1      33.594  36.876  31.657  1.00  0.00    -0.237 OA
ATOM     73  O   UNL A   1      32.518  35.280  30.093  1.00  0.00    -0.237 OA
ATOM     74  O   UNL A   1      31.663  35.528  32.395  1.00  0.00    -0.744 OA
ENDBRANCH  67  71
ENDBRANCH  50  64
BRANCH  51  75
ATOM     75  C   UNL A   1      42.634  29.322  34.947  1.00  0.00     0.023 A 
ATOM     76  C   UNL A   1      41.890  28.177  35.283  1.00  0.00     0.031 A 
ATOM     77  C   UNL A   1      43.830  29.536  35.673  1.00  0.00     0.131 A 
ATOM     78  C   UNL A   1      42.330  27.322  36.317  1.00  0.00     0.055 A 
ATOM     79  C   UNL A   1      44.243  28.710  36.719  1.00  0.00     0.041 A 
ATOM     80  F   UNL A   1      44.689  30.511  35.336  1.00  0.00    -0.206 F 
ATOM     81  C   UNL A   1      43.494  27.593  37.044  1.00  0.00     0.022 A 
BRANCH  78  82
ATOM     82  S   UNL A   1      41.459  25.759  36.637  1.00  0.00     0.124 S 
ATOM     83  O   UNL A   1      40.812  25.499  35.357  1.00  0.00    -0.237 OA
ATOM     84  O   UNL A   1      42.547  24.863  37.010  1.00  0.00    -0.237 OA
ATOM     85  O   UNL A   1      40.548  26.099  37.732  1.00  0.00    -0.744 OA
ENDBRANCH  78  82
ENDBRANCH  51  75
BRANCH  63  86
ATOM     86  C   UNL A   1      42.615  34.442  31.163  1.00  0.00     0.023 A 
ATOM     87  C   UNL A   1      43.377  35.557  31.576  1.00  0.00     0.031 A 
ATOM     88  C   UNL A   1      43.216  33.544  30.260  1.00  0.00     0.131 A 
ATOM     89  C   UNL A   1      44.676  35.752  31.072  1.00  0.00     0.055 A 
ATOM     90  C   UNL A   1      44.512  33.730  29.778  1.00  0.00     0.041 A 
ATOM     91  F   UNL A   1      42.559  32.446  29.852  1.00  0.00    -0.206 F 
ATOM     92  C   UNL A   1      45.244  34.842  30.175  1.00  0.00     0.022 A 
BRANCH  89  93
ATOM     93  S   UNL A   1      45.647  37.215  31.551  1.00  0.00     0.124 S 
ATOM     94  O   UNL A   1      46.199  36.855  32.851  1.00  0.00    -0.237 OA
ATOM     95  O   UNL A   1      46.607  37.321  30.456  1.00  0.00    -0.237 OA
ATOM     96  O   UNL A   1      44.647  38.283  31.589  1.00  0.00    -0.744 OA
ENDBRANCH  89  93
ENDBRANCH  63  86
ENDBRANCH  37  38
ENDBRANCH  30  32
ENDBRANCH  29  30
ENDBRANCH  28  29
ENDBRANCH   1  28
TORSDOF 18
ENDMDL
MODEL 3
REMARK VINA RESULT:     -11.8      4.368     10.193
REMARK SMILES Cc1nn(CC(=O)OCCOC(=O)c2ccc(-c3c4nc(c(-c5cc(S(=O)(=O)[O-])ccc5F)c5ccc([nH]5)c(-c5cc(S(=O)(=O)[O-])ccc5F)c5nc(c(-c6cc(S(=O)(=O)[O-])ccc6F)c6ccc3[nH]6)C=C5)C=C4)cc2)c(C)c1NS(=O)(=O)c1cccc2cccnc12
REMARK SMILES IDX 9 1 8 2 6 3 7 4 5 5 4 6 1 7 2 8 3 9 79 10 77 11 78 12 80 13
REMARK SMILES IDX 81 15 82 16 83 17 84 18 85 19 93 20 86 21 88 22 92 23 87 24
REMARK SMILES IDX 89 25 91 26 90 27 10 28 11 29 12 30 13 31 14 32 15 33 76 34
REMARK SMILES IDX 16 35 75 36 17 37 18 38 19 39 69 40 20 41 74 42 68 43 70 44
REMARK SMILES IDX 21 45 73 46 67 47 66 48 22 50 54 51 34 52 53 53 35 54 38 55
REMARK SMILES IDX 52 56 71 57 36 58 37 59 51 61 72 62 39 63 23 64 24 65 32 66
REMARK SMILES IDX 25 67 31 68 33 69 30 70 26 71 27 72 28 73 29 74 55 75 56 76
REMARK SMILES IDX 64 77 57 78 63 79 65 80 62 81 58 82 59 83 60 84 61 85 40 86
REMARK SMILES IDX 41 87 49 88 42 89 48 90 50 91 47 92 43 93 44 94 45 95 46 96
REMARK H PARENT 80 14 70 49 38 60
REMARK Flexibility Score: inf
ROOT
ATOM      1  C   UNL A   1      34.006  30.553  28.014  1.00  0.00     0.274 C 
ENDROOT
BRANCH   1   2
ATOM      2  O   UNL A   1      33.984  29.918  26.711  1.00  0.00    -0.461 OA
BRANCH   2   3
ATOM      3  C   UNL A   1      32.844  30.025  25.975  1.00  0.00     0.327 C 
ATOM      4  O   UNL A   1      31.845  30.629  26.370  1.00  0.00    -0.250 OA
BRANCH   3   5
ATOM      5  C   UNL A   1      32.863  29.376  24.607  1.00  0.00     0.267 C 
BRANCH   5   6
ATOM      6  N   UNL A   1      32.203  28.089  24.521  1.00  0.00    -0.256 N 
ATOM      7  C   UNL A   1      29.252  26.350  23.755  1.00  0.00     0.071 C 
ATOM      8  C   UNL A   1      30.648  26.780  24.028  1.00  0.00     0.084 A 
ATOM      9  N   UNL A   1      30.871  28.038  24.424  1.00  0.00    -0.175 NA
ATOM     10  C   UNL A   1      31.867  26.020  24.013  1.00  0.00     0.093 A 
ATOM     11  C   UNL A   1      32.714  26.831  24.745  1.00  0.00     0.060 A 
ATOM     12  C   UNL A   1      33.833  26.584  25.673  1.00  0.00     0.069 C 
BRANCH  10  13
ATOM     13  N   UNL A   1      31.970  24.701  23.542  1.00  0.00    -0.276 N 
ATOM     14  H   UNL A   1      32.295  24.601  22.618  1.00  0.00     0.180 HD
BRANCH  13  15
ATOM     15  S   UNL A   1      31.609  23.260  24.357  1.00  0.00     0.264 S 
ATOM     16  O   UNL A   1      30.524  23.599  25.264  1.00  0.00    -0.201 OA
ATOM     17  O   UNL A   1      31.358  22.253  23.346  1.00  0.00    -0.201 OA
BRANCH  15  18
ATOM     18  C   UNL A   1      32.965  22.743  25.372  1.00  0.00     0.114 A 
ATOM     19  C   UNL A   1      32.661  22.237  26.652  1.00  0.00     0.024 A 
ATOM     20  C   UNL A   1      34.277  22.797  24.914  1.00  0.00     0.091 A 
ATOM     21  C   UNL A   1      33.676  21.907  27.540  1.00  0.00     0.002 A 
ATOM     22  C   UNL A   1      35.302  22.521  25.857  1.00  0.00     0.002 A 
ATOM     23  N   UNL A   1      34.593  23.085  23.640  1.00  0.00    -0.255 NA
ATOM     24  C   UNL A   1      34.997  22.092  27.158  1.00  0.00     0.010 A 
ATOM     25  C   UNL A   1      36.639  22.670  25.475  1.00  0.00     0.012 A 
ATOM     26  C   UNL A   1      35.890  23.090  23.276  1.00  0.00     0.112 A 
ATOM     27  C   UNL A   1      36.944  22.948  24.155  1.00  0.00     0.021 A 
ENDBRANCH  15  18
ENDBRANCH  13  15
ENDBRANCH  10  13
ENDBRANCH   5   6
ENDBRANCH   3   5
ENDBRANCH   2   3
ENDBRANCH   1   2
BRANCH   1  28
ATOM     28  C   UNL A   1      35.025  31.672  28.133  1.00  0.00     0.275 C 
BRANCH  28  29
ATOM     29  O   UNL A   1      36.306  31.159  27.826  1.00  0.00    -0.458 OA
BRANCH  29  30
ATOM     30  C   UNL A   1      36.891  30.636  28.924  1.00  0.00     0.338 C 
ATOM     31  O   UNL A   1      36.891  31.105  30.055  1.00  0.00    -0.246 OA
BRANCH  30  32
ATOM     32  C   UNL A   1      37.647  29.458  28.546  1.00  0.00     0.060 A 
ATOM     33  C   UNL A   1      37.980  28.561  29.564  1.00  0.00     0.016 A 
ATOM     34  C   UNL A   1      38.340  29.543  27.337  1.00  0.00     0.016 A 
ATOM     35  C   UNL A   1      39.171  27.886  29.465  1.00  0.00     0.010 A 
ATOM     36  C   UNL A   1      39.559  28.931  27.276  1.00  0.00     0.010 A 
ATOM     37  C   UNL A   1      39.983  28.170  28.370  1.00  0.00    -0.014 A 
BRANCH  37  38
ATOM     38  C   UNL A   1      41.348  27.703  28.393  1.00  0.00     0.031 A 
ATOM     39  C   UNL A   1      41.557  26.402  27.741  1.00  0.00     0.074 A 
ATOM     40  C   UNL A   1      42.342  28.517  28.788  1.00  0.00     0.049 A 
ATOM     41  N   UNL A   1      41.970  25.302  28.272  1.00  0.00    -0.248 NA
ATOM     42  C   UNL A   1      41.075  26.261  26.357  1.00  0.00     0.031 C 
ATOM     43  C   UNL A   1      42.236  29.944  29.107  1.00  0.00     0.029 A 
ATOM     44  N   UNL A   1      43.679  28.280  28.815  1.00  0.00    -0.354 N 
ATOM     45  C   UNL A   1      42.014  24.393  27.223  1.00  0.00     0.074 A 
ATOM     46  C   UNL A   1      41.201  24.950  26.185  1.00  0.00     0.031 C 
ATOM     47  C   UNL A   1      43.469  30.489  29.052  1.00  0.00     0.029 A 
ATOM     48  C   UNL A   1      44.440  29.439  28.783  1.00  0.00     0.049 A 
ATOM     49  H   UNL A   1      44.069  27.377  28.853  1.00  0.00     0.167 HD
ATOM     50  C   UNL A   1      42.950  23.409  27.177  1.00  0.00     0.034 A 
ATOM     51  C   UNL A   1      45.746  29.535  28.431  1.00  0.00     0.034 A 
ATOM     52  C   UNL A   1      43.534  23.195  28.487  1.00  0.00     0.049 A 
ATOM     53  C   UNL A   1      46.344  28.178  28.533  1.00  0.00     0.074 A 
ATOM     54  C   UNL A   1      43.013  22.905  29.735  1.00  0.00     0.029 A 
ATOM     55  N   UNL A   1      44.822  23.631  28.719  1.00  0.00    -0.354 N 
ATOM     56  N   UNL A   1      46.507  27.534  29.656  1.00  0.00    -0.248 NA
ATOM     57  C   UNL A   1      46.381  27.340  27.341  1.00  0.00     0.031 C 
ATOM     58  C   UNL A   1      43.840  23.597  30.666  1.00  0.00     0.029 A 
ATOM     59  C   UNL A   1      44.852  24.238  29.952  1.00  0.00     0.049 A 
ATOM     60  H   UNL A   1      45.587  23.528  28.108  1.00  0.00     0.167 HD
ATOM     61  C   UNL A   1      46.243  26.206  29.358  1.00  0.00     0.074 A 
ATOM     62  C   UNL A   1      46.306  26.130  27.902  1.00  0.00     0.031 C 
ATOM     63  C   UNL A   1      45.707  25.363  30.291  1.00  0.00     0.034 A 
BRANCH  50  64
ATOM     64  C   UNL A   1      43.597  22.919  25.891  1.00  0.00     0.023 A 
ATOM     65  C   UNL A   1      43.601  21.530  25.689  1.00  0.00     0.031 A 
ATOM     66  C   UNL A   1      44.420  23.656  25.002  1.00  0.00     0.131 A 
ATOM     67  C   UNL A   1      44.485  20.928  24.779  1.00  0.00     0.055 A 
ATOM     68  C   UNL A   1      45.248  23.056  24.047  1.00  0.00     0.041 A 
ATOM     69  F   UNL A   1      44.543  24.986  25.029  1.00  0.00    -0.206 F 
ATOM     70  C   UNL A   1      45.318  21.681  23.961  1.00  0.00     0.022 A 
BRANCH  67  71
ATOM     71  S   UNL A   1      44.661  19.130  24.839  1.00  0.00     0.124 S 
ATOM     72  O   UNL A   1      43.575  18.762  25.741  1.00  0.00    -0.237 OA
ATOM     73  O   UNL A   1      44.486  18.773  23.435  1.00  0.00    -0.237 OA
ATOM     74  O   UNL A   1      46.008  18.943  25.371  1.00  0.00    -0.744 OA
ENDBRANCH  67  71
ENDBRANCH  50  64
BRANCH  51  75
ATOM     75  C   UNL A   1      46.404  30.687  27.766  1.00  0.00     0.023 A 
ATOM     76  C   UNL A   1      45.687  31.575  26.944  1.00  0.00     0.031 A 
ATOM     77  C   UNL A   1      47.734  31.051  28.082  1.00  0.00     0.131 A 
ATOM     78  C   UNL A   1      46.305  32.745  26.454  1.00  0.00     0.055 A 
ATOM     79  C   UNL A   1      48.354  32.190  27.566  1.00  0.00     0.041 A 
ATOM     80  F   UNL A   1      48.457  30.356  28.975  1.00  0.00    -0.206 F 
ATOM     81  C   UNL A   1      47.638  33.047  26.749  1.00  0.00     0.022 A 
BRANCH  78  82
ATOM     82  S   UNL A   1      45.330  33.971  25.531  1.00  0.00     0.124 S 
ATOM     83  O   UNL A   1      46.366  34.821  24.958  1.00  0.00    -0.237 OA
ATOM     84  O   UNL A   1      44.581  33.138  24.596  1.00  0.00    -0.237 OA
ATOM     85  O   UNL A   1      44.515  34.604  26.569  1.00  0.00    -0.744 OA
ENDBRANCH  78  82
ENDBRANCH  51  75
BRANCH  63  86
ATOM     86  C   UNL A   1      45.780  25.761  31.751  1.00  0.00     0.023 A 
ATOM     87  C   UNL A   1      46.880  25.503  32.598  1.00  0.00     0.031 A 
ATOM     88  C   UNL A   1      44.722  26.527  32.277  1.00  0.00     0.131 A 
ATOM     89  C   UNL A   1      46.883  25.984  33.920  1.00  0.00     0.055 A 
ATOM     90  C   UNL A   1      44.737  27.020  33.582  1.00  0.00     0.041 A 
ATOM     91  F   UNL A   1      43.660  26.837  31.515  1.00  0.00    -0.206 F 
ATOM     92  C   UNL A   1      45.816  26.741  34.413  1.00  0.00     0.022 A 
BRANCH  89  93
ATOM     93  S   UNL A   1      48.268  25.610  35.040  1.00  0.00     0.124 S 
ATOM     94  O   UNL A   1      48.074  24.204  35.374  1.00  0.00    -0.237 OA
ATOM     95  O   UNL A   1      49.429  25.915  34.209  1.00  0.00    -0.237 OA
ATOM     96  O   UNL A   1      48.058  26.535  36.154  1.00  0.00    -0.744 OA
ENDBRANCH  89  93
ENDBRANCH  63  86
ENDBRANCH  37  38
ENDBRANCH  30  32
ENDBRANCH  29  30
ENDBRANCH  28  29
ENDBRANCH   1  28
TORSDOF 18
ENDMDL
