MODEL 1
REMARK VINA RESULT:     -10.6      0.000      0.000
REMARK SMILES Cc1cc(C)cc([S@@](=O)Cc2ccc(C(=O)OCCOC(=O)c3ccc(-c4c5nc(c(-c6cc(S(=O)(=O)[O-])ccc6F)c6ccc([nH]6)c(-c6cc(S(=O)(=O)[O-])ccc6F)c6nc(c(-c7cc(S(=O)(=O)[O-])ccc7F)c7ccc4[nH]7)C=C6)C=C5)cc3)o2)c1
REMARK SMILES IDX 18 1 17 2 15 3 16 4 14 5 11 6 12 7 86 8 13 9 10 10 8 11 9 12
REMARK SMILES IDX 7 13 1 14 2 15 3 16 87 17 4 18 5 19 6 20 19 21 20 22 21 23
REMARK SMILES IDX 22 24 23 25 24 26 85 27 25 28 84 29 26 30 27 31 28 32 78 33
REMARK SMILES IDX 29 34 83 35 77 36 79 37 30 38 82 39 76 40 75 41 31 43 63 44
REMARK SMILES IDX 43 45 62 46 44 47 47 48 61 49 80 50 45 51 46 52 60 54 81 55
REMARK SMILES IDX 48 56 32 57 33 58 41 59 34 60 40 61 42 62 39 63 35 64 36 65
REMARK SMILES IDX 37 66 38 67 64 68 65 69 73 70 66 71 72 72 74 73 71 74 67 75
REMARK SMILES IDX 68 76 69 77 70 78 49 79 50 80 58 81 51 82 57 83 59 84 56 85
REMARK SMILES IDX 52 86 53 87 54 88 55 89
REMARK H PARENT 79 42 47 53
REMARK Flexibility Score: inf
ROOT
ATOM      1  C   UNL A   1      33.612  34.746  28.055  1.00  0.00     0.275 C 
ENDROOT
BRANCH   1   2
ATOM      2  O   UNL A   1      32.633  35.514  28.775  1.00  0.00    -0.456 OA
BRANCH   2   3
ATOM      3  C   UNL A   1      33.108  36.606  29.455  1.00  0.00     0.374 C 
ATOM      4  O   UNL A   1      33.272  37.708  28.957  1.00  0.00    -0.242 OA
BRANCH   3   5
ATOM      5  C   UNL A   1      33.267  36.264  30.850  1.00  0.00     0.211 A 
ATOM      6  C   UNL A   1      33.759  34.877  32.507  1.00  0.00     0.117 A 
ATOM      7  C   UNL A   1      33.742  36.151  33.040  1.00  0.00     0.047 A 
ATOM      8  O   UNL A   1      33.415  34.942  31.184  1.00  0.00    -0.453 OA
ATOM      9  C   UNL A   1      33.417  37.035  31.985  1.00  0.00     0.058 A 
BRANCH   6  10
ATOM     10  C   UNL A   1      34.234  33.549  32.990  1.00  0.00     0.185 C 
BRANCH  10  11
ATOM     11  S   UNL A   1      35.189  32.528  31.842  1.00  0.00     0.061 S 
ATOM     12  O   UNL A   1      35.497  31.207  32.486  1.00  0.00    -0.254 OA
BRANCH  11  13
ATOM     13  C   UNL A   1      36.768  33.391  31.718  1.00  0.00     0.040 A 
ATOM     14  C   UNL A   1      39.558  34.778  33.900  1.00  0.00     0.044 C 
ATOM     15  C   UNL A   1      38.740  34.429  32.690  1.00  0.00    -0.050 A 
ATOM     16  C   UNL A   1      39.289  34.578  31.411  1.00  0.00     0.007 A 
ATOM     17  C   UNL A   1      37.449  33.899  32.828  1.00  0.00     0.021 A 
ATOM     18  C   UNL A   1      38.571  34.184  30.277  1.00  0.00    -0.050 A 
ATOM     19  C   UNL A   1      39.152  34.366  28.907  1.00  0.00     0.044 C 
ATOM     20  C   UNL A   1      37.327  33.566  30.444  1.00  0.00     0.021 A 
ENDBRANCH  11  13
ENDBRANCH  10  11
ENDBRANCH   6  10
ENDBRANCH   3   5
ENDBRANCH   2   3
ENDBRANCH   1   2
BRANCH   1  21
ATOM     21  C   UNL A   1      33.202  33.271  27.956  1.00  0.00     0.275 C 
BRANCH  21  22
ATOM     22  O   UNL A   1      34.211  32.395  28.495  1.00  0.00    -0.458 OA
BRANCH  22  23
ATOM     23  C   UNL A   1      34.393  31.239  27.811  1.00  0.00     0.338 C 
ATOM     24  O   UNL A   1      33.667  30.797  26.935  1.00  0.00    -0.246 OA
BRANCH  23  25
ATOM     25  C   UNL A   1      35.692  30.628  28.166  1.00  0.00     0.060 A 
ATOM     26  C   UNL A   1      35.685  29.638  29.153  1.00  0.00     0.016 A 
ATOM     27  C   UNL A   1      36.899  31.041  27.597  1.00  0.00     0.016 A 
ATOM     28  C   UNL A   1      36.877  29.058  29.577  1.00  0.00     0.010 A 
ATOM     29  C   UNL A   1      38.102  30.463  28.031  1.00  0.00     0.010 A 
ATOM     30  C   UNL A   1      38.098  29.478  29.035  1.00  0.00    -0.014 A 
BRANCH  30  31
ATOM     31  C   UNL A   1      39.355  28.924  29.597  1.00  0.00     0.031 A 
ATOM     32  C   UNL A   1      39.897  29.469  30.889  1.00  0.00     0.074 A 
ATOM     33  C   UNL A   1      39.962  27.883  28.996  1.00  0.00     0.049 A 
ATOM     34  N   UNL A   1      40.939  29.085  31.582  1.00  0.00    -0.248 NA
ATOM     35  C   UNL A   1      39.162  30.597  31.480  1.00  0.00     0.031 C 
ATOM     36  C   UNL A   1      39.513  27.250  27.755  1.00  0.00     0.029 A 
ATOM     37  N   UNL A   1      41.074  27.165  29.356  1.00  0.00    -0.354 N 
ATOM     38  C   UNL A   1      40.987  29.923  32.691  1.00  0.00     0.074 A 
ATOM     39  C   UNL A   1      39.890  30.859  32.555  1.00  0.00     0.031 C 
ATOM     40  C   UNL A   1      40.335  26.228  27.465  1.00  0.00     0.029 A 
ATOM     41  C   UNL A   1      41.383  26.151  28.480  1.00  0.00     0.049 A 
ATOM     42  H   UNL A   1      41.601  27.357  30.165  1.00  0.00     0.167 HD
ATOM     43  C   UNL A   1      41.859  29.906  33.731  1.00  0.00     0.034 A 
ATOM     44  C   UNL A   1      42.399  25.265  28.491  1.00  0.00     0.034 A 
ATOM     45  C   UNL A   1      42.958  28.976  33.848  1.00  0.00     0.049 A 
ATOM     46  C   UNL A   1      43.383  25.296  29.634  1.00  0.00     0.074 A 
ATOM     47  C   UNL A   1      43.902  28.875  34.856  1.00  0.00     0.029 A 
ATOM     48  N   UNL A   1      43.267  27.989  32.920  1.00  0.00    -0.354 N 
ATOM     49  N   UNL A   1      43.415  26.092  30.678  1.00  0.00    -0.248 NA
ATOM     50  C   UNL A   1      44.459  24.297  29.604  1.00  0.00     0.031 C 
ATOM     51  C   UNL A   1      44.812  27.869  34.509  1.00  0.00     0.029 A 
ATOM     52  C   UNL A   1      44.399  27.293  33.318  1.00  0.00     0.049 A 
ATOM     53  H   UNL A   1      42.756  27.809  32.097  1.00  0.00     0.167 HD
ATOM     54  C   UNL A   1      44.505  25.675  31.438  1.00  0.00     0.074 A 
ATOM     55  C   UNL A   1      45.085  24.543  30.745  1.00  0.00     0.031 C 
ATOM     56  C   UNL A   1      44.983  26.181  32.605  1.00  0.00     0.034 A 
BRANCH  43  57
ATOM     57  C   UNL A   1      41.681  30.966  34.791  1.00  0.00     0.023 A 
ATOM     58  C   UNL A   1      40.554  30.988  35.633  1.00  0.00     0.031 A 
ATOM     59  C   UNL A   1      42.624  32.000  34.927  1.00  0.00     0.131 A 
ATOM     60  C   UNL A   1      40.362  32.060  36.518  1.00  0.00     0.055 A 
ATOM     61  C   UNL A   1      42.465  33.023  35.863  1.00  0.00     0.041 A 
ATOM     62  F   UNL A   1      43.708  32.044  34.136  1.00  0.00    -0.206 F 
ATOM     63  C   UNL A   1      41.321  33.067  36.655  1.00  0.00     0.022 A 
BRANCH  60  64
ATOM     64  S   UNL A   1      38.771  32.201  37.379  1.00  0.00     0.124 S 
ATOM     65  O   UNL A   1      39.197  32.327  38.771  1.00  0.00    -0.237 OA
ATOM     66  O   UNL A   1      38.190  33.394  36.777  1.00  0.00    -0.237 OA
ATOM     67  O   UNL A   1      38.094  30.946  37.056  1.00  0.00    -0.744 OA
ENDBRANCH  60  64
ENDBRANCH  43  57
BRANCH  44  68
ATOM     68  C   UNL A   1      42.564  24.292  27.373  1.00  0.00     0.023 A 
ATOM     69  C   UNL A   1      41.913  23.049  27.383  1.00  0.00     0.031 A 
ATOM     70  C   UNL A   1      43.425  24.580  26.299  1.00  0.00     0.131 A 
ATOM     71  C   UNL A   1      42.166  22.120  26.362  1.00  0.00     0.055 A 
ATOM     72  C   UNL A   1      43.634  23.673  25.260  1.00  0.00     0.041 A 
ATOM     73  F   UNL A   1      44.074  25.754  26.244  1.00  0.00    -0.206 F 
ATOM     74  C   UNL A   1      43.012  22.429  25.293  1.00  0.00     0.022 A 
BRANCH  71  75
ATOM     75  S   UNL A   1      41.436  20.464  26.490  1.00  0.00     0.124 S 
ATOM     76  O   UNL A   1      40.049  20.721  26.120  1.00  0.00    -0.237 OA
ATOM     77  O   UNL A   1      42.227  19.707  25.526  1.00  0.00    -0.237 OA
ATOM     78  O   UNL A   1      41.651  20.103  27.890  1.00  0.00    -0.744 OA
ENDBRANCH  71  75
ENDBRANCH  44  68
BRANCH  56  79
ATOM     79  C   UNL A   1      46.180  25.482  33.206  1.00  0.00     0.023 A 
ATOM     80  C   UNL A   1      46.035  24.408  34.102  1.00  0.00     0.031 A 
ATOM     81  C   UNL A   1      47.481  25.926  32.911  1.00  0.00     0.131 A 
ATOM     82  C   UNL A   1      47.165  23.859  34.724  1.00  0.00     0.055 A 
ATOM     83  C   UNL A   1      48.607  25.336  33.488  1.00  0.00     0.041 A 
ATOM     84  F   UNL A   1      47.680  26.946  32.062  1.00  0.00    -0.206 F 
ATOM     85  C   UNL A   1      48.452  24.307  34.414  1.00  0.00     0.022 A 
BRANCH  82  86
ATOM     86  S   UNL A   1      46.928  22.623  36.033  1.00  0.00     0.124 S 
ATOM     87  O   UNL A   1      48.052  22.901  36.921  1.00  0.00    -0.237 OA
ATOM     88  O   UNL A   1      45.608  22.968  36.549  1.00  0.00    -0.237 OA
ATOM     89  O   UNL A   1      47.001  21.350  35.320  1.00  0.00    -0.744 OA
ENDBRANCH  82  86
ENDBRANCH  56  79
ENDBRANCH  30  31
ENDBRANCH  23  25
ENDBRANCH  22  23
ENDBRANCH  21  22
ENDBRANCH   1  21
TORSDOF 17
ENDMDL
MODEL 2
REMARK VINA RESULT:     -10.3      2.055      2.515
REMARK SMILES Cc1cc(C)cc([S@@](=O)Cc2ccc(C(=O)OCCOC(=O)c3ccc(-c4c5nc(c(-c6cc(S(=O)(=O)[O-])ccc6F)c6ccc([nH]6)c(-c6cc(S(=O)(=O)[O-])ccc6F)c6nc(c(-c7cc(S(=O)(=O)[O-])ccc7F)c7ccc4[nH]7)C=C6)C=C5)cc3)o2)c1
REMARK SMILES IDX 18 1 17 2 15 3 16 4 14 5 11 6 12 7 86 8 13 9 10 10 8 11 9 12
REMARK SMILES IDX 7 13 1 14 2 15 3 16 87 17 4 18 5 19 6 20 19 21 20 22 21 23
REMARK SMILES IDX 22 24 23 25 24 26 85 27 25 28 84 29 26 30 27 31 28 32 78 33
REMARK SMILES IDX 29 34 83 35 77 36 79 37 30 38 82 39 76 40 75 41 31 43 63 44
REMARK SMILES IDX 43 45 62 46 44 47 47 48 61 49 80 50 45 51 46 52 60 54 81 55
REMARK SMILES IDX 48 56 32 57 33 58 41 59 34 60 40 61 42 62 39 63 35 64 36 65
REMARK SMILES IDX 37 66 38 67 64 68 65 69 73 70 66 71 72 72 74 73 71 74 67 75
REMARK SMILES IDX 68 76 69 77 70 78 49 79 50 80 58 81 51 82 57 83 59 84 56 85
REMARK SMILES IDX 52 86 53 87 54 88 55 89
REMARK H PARENT 79 42 47 53
REMARK Flexibility Score: inf
ROOT
ATOM      1  C   UNL A   1      33.848  34.644  28.307  1.00  0.00     0.275 C 
ENDROOT
BRANCH   1   2
ATOM      2  O   UNL A   1      32.787  35.334  28.989  1.00  0.00    -0.456 OA
BRANCH   2   3
ATOM      3  C   UNL A   1      33.148  36.469  29.667  1.00  0.00     0.374 C 
ATOM      4  O   UNL A   1      33.150  37.589  29.180  1.00  0.00    -0.242 OA
BRANCH   3   5
ATOM      5  C   UNL A   1      33.408  36.135  31.049  1.00  0.00     0.211 A 
ATOM      6  C   UNL A   1      33.980  34.746  32.678  1.00  0.00     0.117 A 
ATOM      7  C   UNL A   1      34.056  36.025  33.194  1.00  0.00     0.047 A 
ATOM      8  O   UNL A   1      33.531  34.812  31.387  1.00  0.00    -0.453 OA
ATOM      9  C   UNL A   1      33.680  36.911  32.157  1.00  0.00     0.058 A 
BRANCH   6  10
ATOM     10  C   UNL A   1      34.440  33.405  33.138  1.00  0.00     0.185 C 
BRANCH  10  11
ATOM     11  S   UNL A   1      35.344  32.374  31.957  1.00  0.00     0.061 S 
ATOM     12  O   UNL A   1      35.647  31.045  32.585  1.00  0.00    -0.254 OA
BRANCH  11  13
ATOM     13  C   UNL A   1      36.934  33.211  31.792  1.00  0.00     0.040 A 
ATOM     14  C   UNL A   1      39.235  34.689  29.149  1.00  0.00     0.044 C 
ATOM     15  C   UNL A   1      38.702  34.242  30.479  1.00  0.00    -0.050 A 
ATOM     16  C   UNL A   1      39.333  34.654  31.658  1.00  0.00     0.007 A 
ATOM     17  C   UNL A   1      37.540  33.459  30.557  1.00  0.00     0.021 A 
ATOM     18  C   UNL A   1      38.804  34.312  32.907  1.00  0.00    -0.050 A 
ATOM     19  C   UNL A   1      39.495  34.737  34.167  1.00  0.00     0.044 C 
ATOM     20  C   UNL A   1      37.592  33.616  32.962  1.00  0.00     0.021 A 
ENDBRANCH  11  13
ENDBRANCH  10  11
ENDBRANCH   6  10
ENDBRANCH   3   5
ENDBRANCH   2   3
ENDBRANCH   1   2
BRANCH   1  21
ATOM     21  C   UNL A   1      33.446  33.205  27.960  1.00  0.00     0.275 C 
BRANCH  21  22
ATOM     22  O   UNL A   1      34.281  32.237  28.624  1.00  0.00    -0.458 OA
BRANCH  22  23
ATOM     23  C   UNL A   1      34.416  31.053  27.977  1.00  0.00     0.338 C 
ATOM     24  O   UNL A   1      33.641  30.587  27.157  1.00  0.00    -0.246 OA
BRANCH  23  25
ATOM     25  C   UNL A   1      35.724  30.439  28.290  1.00  0.00     0.060 A 
ATOM     26  C   UNL A   1      35.807  29.663  29.448  1.00  0.00     0.016 A 
ATOM     27  C   UNL A   1      36.863  30.655  27.509  1.00  0.00     0.016 A 
ATOM     28  C   UNL A   1      37.020  29.100  29.835  1.00  0.00     0.010 A 
ATOM     29  C   UNL A   1      38.088  30.096  27.903  1.00  0.00     0.010 A 
ATOM     30  C   UNL A   1      38.175  29.327  29.077  1.00  0.00    -0.014 A 
BRANCH  30  31
ATOM     31  C   UNL A   1      39.472  28.812  29.584  1.00  0.00     0.031 A 
ATOM     32  C   UNL A   1      40.093  29.432  30.805  1.00  0.00     0.074 A 
ATOM     33  C   UNL A   1      40.047  27.741  29.004  1.00  0.00     0.049 A 
ATOM     34  N   UNL A   1      41.183  29.093  31.446  1.00  0.00    -0.248 NA
ATOM     35  C   UNL A   1      39.389  30.588  31.378  1.00  0.00     0.031 C 
ATOM     36  C   UNL A   1      39.521  27.036  27.834  1.00  0.00     0.029 A 
ATOM     37  N   UNL A   1      41.186  27.050  29.328  1.00  0.00    -0.354 N 
ATOM     38  C   UNL A   1      41.297  29.993  32.501  1.00  0.00     0.074 A 
ATOM     39  C   UNL A   1      40.185  30.915  32.385  1.00  0.00     0.031 C 
ATOM     40  C   UNL A   1      40.331  26.003  27.548  1.00  0.00     0.029 A 
ATOM     41  C   UNL A   1      41.445  25.989  28.493  1.00  0.00     0.049 A 
ATOM     42  H   UNL A   1      41.764  27.290  30.088  1.00  0.00     0.167 HD
ATOM     43  C   UNL A   1      42.237  30.040  33.479  1.00  0.00     0.034 A 
ATOM     44  C   UNL A   1      42.467  25.110  28.485  1.00  0.00     0.034 A 
ATOM     45  C   UNL A   1      43.349  29.123  33.575  1.00  0.00     0.049 A 
ATOM     46  C   UNL A   1      43.525  25.211  29.556  1.00  0.00     0.074 A 
ATOM     47  C   UNL A   1      44.359  29.085  34.522  1.00  0.00     0.029 A 
ATOM     48  N   UNL A   1      43.604  28.087  32.686  1.00  0.00    -0.354 N 
ATOM     49  N   UNL A   1      43.619  26.065  30.550  1.00  0.00    -0.248 NA
ATOM     50  C   UNL A   1      44.605  24.217  29.511  1.00  0.00     0.031 C 
ATOM     51  C   UNL A   1      45.253  28.064  34.172  1.00  0.00     0.029 A 
ATOM     52  C   UNL A   1      44.766  27.420  33.046  1.00  0.00     0.049 A 
ATOM     53  H   UNL A   1      43.041  27.857  31.910  1.00  0.00     0.167 HD
ATOM     54  C   UNL A   1      44.761  25.698  31.258  1.00  0.00     0.074 A 
ATOM     55  C   UNL A   1      45.304  24.531  30.592  1.00  0.00     0.031 C 
ATOM     56  C   UNL A   1      45.311  26.272  32.359  1.00  0.00     0.034 A 
BRANCH  43  57
ATOM     57  C   UNL A   1      42.120  31.157  34.487  1.00  0.00     0.023 A 
ATOM     58  C   UNL A   1      42.790  32.383  34.315  1.00  0.00     0.031 A 
ATOM     59  C   UNL A   1      41.370  30.978  35.663  1.00  0.00     0.131 A 
ATOM     60  C   UNL A   1      42.759  33.348  35.333  1.00  0.00     0.055 A 
ATOM     61  C   UNL A   1      41.281  31.972  36.639  1.00  0.00     0.041 A 
ATOM     62  F   UNL A   1      40.728  29.821  35.893  1.00  0.00    -0.206 F 
ATOM     63  C   UNL A   1      41.991  33.160  36.485  1.00  0.00     0.022 A 
BRANCH  60  64
ATOM     64  S   UNL A   1      43.857  34.786  35.200  1.00  0.00     0.124 S 
ATOM     65  O   UNL A   1      42.905  35.860  34.923  1.00  0.00    -0.237 OA
ATOM     66  O   UNL A   1      44.496  34.819  36.509  1.00  0.00    -0.237 OA
ATOM     67  O   UNL A   1      44.737  34.444  34.084  1.00  0.00    -0.744 OA
ENDBRANCH  60  64
ENDBRANCH  43  57
BRANCH  44  68
ATOM     68  C   UNL A   1      42.566  24.076  27.416  1.00  0.00     0.023 A 
ATOM     69  C   UNL A   1      41.789  22.908  27.454  1.00  0.00     0.031 A 
ATOM     70  C   UNL A   1      43.486  24.225  26.363  1.00  0.00     0.131 A 
ATOM     71  C   UNL A   1      41.977  21.913  26.482  1.00  0.00     0.055 A 
ATOM     72  C   UNL A   1      43.634  23.256  25.371  1.00  0.00     0.041 A 
ATOM     73  F   UNL A   1      44.255  25.323  26.283  1.00  0.00    -0.206 F 
ATOM     74  C   UNL A   1      42.885  22.085  25.433  1.00  0.00     0.022 A 
BRANCH  71  75
ATOM     75  S   UNL A   1      41.075  20.348  26.652  1.00  0.00     0.124 S 
ATOM     76  O   UNL A   1      42.004  19.401  26.046  1.00  0.00    -0.237 OA
ATOM     77  O   UNL A   1      40.908  20.247  28.097  1.00  0.00    -0.237 OA
ATOM     78  O   UNL A   1      39.843  20.581  25.900  1.00  0.00    -0.744 OA
ENDBRANCH  71  75
ENDBRANCH  44  68
BRANCH  56  79
ATOM     79  C   UNL A   1      46.551  25.615  32.917  1.00  0.00     0.023 A 
ATOM     80  C   UNL A   1      47.826  25.870  32.382  1.00  0.00     0.031 A 
ATOM     81  C   UNL A   1      46.450  24.689  33.971  1.00  0.00     0.131 A 
ATOM     82  C   UNL A   1      48.939  25.157  32.854  1.00  0.00     0.055 A 
ATOM     83  C   UNL A   1      47.569  24.026  34.477  1.00  0.00     0.041 A 
ATOM     84  F   UNL A   1      45.258  24.407  34.521  1.00  0.00    -0.206 F 
ATOM     85  C   UNL A   1      48.820  24.245  33.907  1.00  0.00     0.022 A 
BRANCH  82  86
ATOM     86  S   UNL A   1      50.528  25.352  31.998  1.00  0.00     0.124 S 
ATOM     87  O   UNL A   1      50.188  26.291  30.935  1.00  0.00    -0.237 OA
ATOM     88  O   UNL A   1      51.388  25.871  33.056  1.00  0.00    -0.237 OA
ATOM     89  O   UNL A   1      50.845  23.997  31.551  1.00  0.00    -0.744 OA
ENDBRANCH  82  86
ENDBRANCH  56  79
ENDBRANCH  30  31
ENDBRANCH  23  25
ENDBRANCH  22  23
ENDBRANCH  21  22
ENDBRANCH   1  21
TORSDOF 17
ENDMDL
MODEL 3
REMARK VINA RESULT:     -10.1      3.850      6.741
REMARK SMILES Cc1cc(C)cc([S@@](=O)Cc2ccc(C(=O)OCCOC(=O)c3ccc(-c4c5nc(c(-c6cc(S(=O)(=O)[O-])ccc6F)c6ccc([nH]6)c(-c6cc(S(=O)(=O)[O-])ccc6F)c6nc(c(-c7cc(S(=O)(=O)[O-])ccc7F)c7ccc4[nH]7)C=C6)C=C5)cc3)o2)c1
REMARK SMILES IDX 18 1 17 2 15 3 16 4 14 5 11 6 12 7 86 8 13 9 10 10 8 11 9 12
REMARK SMILES IDX 7 13 1 14 2 15 3 16 87 17 4 18 5 19 6 20 19 21 20 22 21 23
REMARK SMILES IDX 22 24 23 25 24 26 85 27 25 28 84 29 26 30 27 31 28 32 78 33
REMARK SMILES IDX 29 34 83 35 77 36 79 37 30 38 82 39 76 40 75 41 31 43 63 44
REMARK SMILES IDX 43 45 62 46 44 47 47 48 61 49 80 50 45 51 46 52 60 54 81 55
REMARK SMILES IDX 48 56 32 57 33 58 41 59 34 60 40 61 42 62 39 63 35 64 36 65
REMARK SMILES IDX 37 66 38 67 64 68 65 69 73 70 66 71 72 72 74 73 71 74 67 75
REMARK SMILES IDX 68 76 69 77 70 78 49 79 50 80 58 81 51 82 57 83 59 84 56 85
REMARK SMILES IDX 52 86 53 87 54 88 55 89
REMARK H PARENT 79 42 47 53
REMARK Flexibility Score: inf
ROOT
ATOM      1  C   UNL A   1      31.930  29.768  25.088  1.00  0.00     0.275 C 
ENDROOT
BRANCH   1   2
ATOM      2  O   UNL A   1      30.654  29.295  24.625  1.00  0.00    -0.456 OA
BRANCH   2   3
ATOM      3  C   UNL A   1      30.681  28.460  23.539  1.00  0.00     0.374 C 
ATOM      4  O   UNL A   1      30.867  28.831  22.391  1.00  0.00    -0.242 OA
BRANCH   3   5
ATOM      5  C   UNL A   1      30.567  27.091  23.989  1.00  0.00     0.211 A 
ATOM      6  C   UNL A   1      30.918  24.911  23.813  1.00  0.00     0.117 A 
ATOM      7  C   UNL A   1      30.513  25.149  25.111  1.00  0.00     0.047 A 
ATOM      8  O   UNL A   1      30.897  26.088  23.116  1.00  0.00    -0.453 OA
ATOM      9  C   UNL A   1      30.278  26.539  25.221  1.00  0.00     0.058 A 
BRANCH   6  10
ATOM     10  C   UNL A   1      31.524  23.747  23.105  1.00  0.00     0.185 C 
BRANCH  10  11
ATOM     11  S   UNL A   1      33.289  23.826  22.714  1.00  0.00     0.061 S 
ATOM     12  O   UNL A   1      33.498  23.462  21.272  1.00  0.00    -0.254 OA
BRANCH  11  13
ATOM     13  C   UNL A   1      33.997  22.468  23.667  1.00  0.00     0.040 A 
ATOM     14  C   UNL A   1      33.076  19.066  25.098  1.00  0.00     0.044 C 
ATOM     15  C   UNL A   1      33.860  20.302  24.764  1.00  0.00    -0.050 A 
ATOM     16  C   UNL A   1      35.238  20.340  25.005  1.00  0.00     0.007 A 
ATOM     17  C   UNL A   1      33.237  21.402  24.158  1.00  0.00     0.021 A 
ATOM     18  C   UNL A   1      35.997  21.452  24.628  1.00  0.00    -0.050 A 
ATOM     19  C   UNL A   1      37.469  21.499  24.908  1.00  0.00     0.044 C 
ATOM     20  C   UNL A   1      35.373  22.495  23.935  1.00  0.00     0.021 A 
ENDBRANCH  11  13
ENDBRANCH  10  11
ENDBRANCH   6  10
ENDBRANCH   3   5
ENDBRANCH   2   3
ENDBRANCH   1   2
BRANCH   1  21
ATOM     21  C   UNL A   1      31.769  30.901  26.110  1.00  0.00     0.275 C 
BRANCH  21  22
ATOM     22  O   UNL A   1      32.677  30.759  27.219  1.00  0.00    -0.458 OA
BRANCH  22  23
ATOM     23  C   UNL A   1      33.428  31.855  27.492  1.00  0.00     0.338 C 
ATOM     24  O   UNL A   1      33.048  33.015  27.460  1.00  0.00    -0.246 OA
BRANCH  23  25
ATOM     25  C   UNL A   1      34.764  31.457  27.982  1.00  0.00     0.060 A 
ATOM     26  C   UNL A   1      34.927  30.132  28.394  1.00  0.00     0.016 A 
ATOM     27  C   UNL A   1      35.825  32.359  28.093  1.00  0.00     0.016 A 
ATOM     28  C   UNL A   1      36.142  29.701  28.919  1.00  0.00     0.010 A 
ATOM     29  C   UNL A   1      37.047  31.928  28.630  1.00  0.00     0.010 A 
ATOM     30  C   UNL A   1      37.207  30.599  29.059  1.00  0.00    -0.014 A 
BRANCH  30  31
ATOM     31  C   UNL A   1      38.446  30.135  29.733  1.00  0.00     0.031 A 
ATOM     32  C   UNL A   1      38.752  30.597  31.131  1.00  0.00     0.074 A 
ATOM     33  C   UNL A   1      39.249  29.239  29.127  1.00  0.00     0.049 A 
ATOM     34  N   UNL A   1      39.741  30.263  31.919  1.00  0.00    -0.248 NA
ATOM     35  C   UNL A   1      37.814  31.565  31.716  1.00  0.00     0.031 C 
ATOM     36  C   UNL A   1      39.038  28.694  27.785  1.00  0.00     0.029 A 
ATOM     37  N   UNL A   1      40.390  28.617  29.567  1.00  0.00    -0.354 N 
ATOM     38  C   UNL A   1      39.548  30.977  33.096  1.00  0.00     0.074 A 
ATOM     39  C   UNL A   1      38.366  31.793  32.899  1.00  0.00     0.031 C 
ATOM     40  C   UNL A   1      40.012  27.808  27.517  1.00  0.00     0.029 A 
ATOM     41  C   UNL A   1      40.929  27.743  28.652  1.00  0.00     0.049 A 
ATOM     42  H   UNL A   1      40.785  28.781  30.453  1.00  0.00     0.167 HD
ATOM     43  C   UNL A   1      40.280  30.950  34.238  1.00  0.00     0.034 A 
ATOM     44  C   UNL A   1      42.040  26.982  28.719  1.00  0.00     0.034 A 
ATOM     45  C   UNL A   1      41.466  30.143  34.417  1.00  0.00     0.049 A 
ATOM     46  C   UNL A   1      42.865  27.003  29.982  1.00  0.00     0.074 A 
ATOM     47  C   UNL A   1      42.284  30.044  35.529  1.00  0.00     0.029 A 
ATOM     48  N   UNL A   1      42.008  29.302  33.454  1.00  0.00    -0.354 N 
ATOM     49  N   UNL A   1      42.667  27.682  31.089  1.00  0.00    -0.248 NA
ATOM     50  C   UNL A   1      44.053  26.141  30.007  1.00  0.00     0.031 C 
ATOM     51  C   UNL A   1      43.349  29.189  35.218  1.00  0.00     0.029 A 
ATOM     52  C   UNL A   1      43.161  28.700  33.936  1.00  0.00     0.049 A 
ATOM     53  H   UNL A   1      41.628  29.153  32.557  1.00  0.00     0.167 HD
ATOM     54  C   UNL A   1      43.699  27.314  31.948  1.00  0.00     0.074 A 
ATOM     55  C   UNL A   1      44.499  26.335  31.240  1.00  0.00     0.031 C 
ATOM     56  C   UNL A   1      43.964  27.743  33.209  1.00  0.00     0.034 A 
BRANCH  43  57
ATOM     57  C   UNL A   1      39.841  31.864  35.356  1.00  0.00     0.023 A 
ATOM     58  C   UNL A   1      39.057  31.399  36.428  1.00  0.00     0.031 A 
ATOM     59  C   UNL A   1      40.166  33.232  35.324  1.00  0.00     0.131 A 
ATOM     60  C   UNL A   1      38.563  32.305  37.379  1.00  0.00     0.055 A 
ATOM     61  C   UNL A   1      39.734  34.115  36.315  1.00  0.00     0.041 A 
ATOM     62  F   UNL A   1      40.892  33.737  34.314  1.00  0.00    -0.206 F 
ATOM     63  C   UNL A   1      38.914  33.656  37.342  1.00  0.00     0.022 A 
BRANCH  60  64
ATOM     64  S   UNL A   1      37.332  31.720  38.577  1.00  0.00     0.124 S 
ATOM     65  O   UNL A   1      36.270  32.710  38.419  1.00  0.00    -0.237 OA
ATOM     66  O   UNL A   1      37.033  30.378  38.093  1.00  0.00    -0.237 OA
ATOM     67  O   UNL A   1      38.042  31.779  39.854  1.00  0.00    -0.744 OA
ENDBRANCH  60  64
ENDBRANCH  43  57
BRANCH  44  68
ATOM     68  C   UNL A   1      42.462  26.159  27.551  1.00  0.00     0.023 A 
ATOM     69  C   UNL A   1      42.066  24.819  27.419  1.00  0.00     0.031 A 
ATOM     70  C   UNL A   1      43.317  26.696  26.572  1.00  0.00     0.131 A 
ATOM     71  C   UNL A   1      42.560  24.046  26.356  1.00  0.00     0.055 A 
ATOM     72  C   UNL A   1      43.765  25.938  25.489  1.00  0.00     0.041 A 
ATOM     73  F   UNL A   1      43.726  27.972  26.654  1.00  0.00    -0.206 F 
ATOM     74  C   UNL A   1      43.396  24.601  25.383  1.00  0.00     0.022 A 
BRANCH  71  75
ATOM     75  S   UNL A   1      42.160  22.277  26.305  1.00  0.00     0.124 S 
ATOM     76  O   UNL A   1      42.934  21.830  25.153  1.00  0.00    -0.237 OA
ATOM     77  O   UNL A   1      42.628  21.821  27.609  1.00  0.00    -0.237 OA
ATOM     78  O   UNL A   1      40.709  22.261  26.126  1.00  0.00    -0.744 OA
ENDBRANCH  71  75
ENDBRANCH  44  68
BRANCH  56  79
ATOM     79  C   UNL A   1      45.156  27.125  33.900  1.00  0.00     0.023 A 
ATOM     80  C   UNL A   1      45.043  25.942  34.652  1.00  0.00     0.031 A 
ATOM     81  C   UNL A   1      46.413  27.752  33.840  1.00  0.00     0.131 A 
ATOM     82  C   UNL A   1      46.148  25.460  35.370  1.00  0.00     0.055 A 
ATOM     83  C   UNL A   1      47.524  27.236  34.508  1.00  0.00     0.041 A 
ATOM     84  F   UNL A   1      46.580  28.883  33.137  1.00  0.00    -0.206 F 
ATOM     85  C   UNL A   1      47.392  26.093  35.293  1.00  0.00     0.022 A 
BRANCH  82  86
ATOM     86  S   UNL A   1      45.912  24.058  36.498  1.00  0.00     0.124 S 
ATOM     87  O   UNL A   1      44.664  23.481  36.010  1.00  0.00    -0.237 OA
ATOM     88  O   UNL A   1      47.115  23.267  36.264  1.00  0.00    -0.237 OA
ATOM     89  O   UNL A   1      45.831  24.687  37.814  1.00  0.00    -0.744 OA
ENDBRANCH  82  86
ENDBRANCH  56  79
ENDBRANCH  30  31
ENDBRANCH  23  25
ENDBRANCH  22  23
ENDBRANCH  21  22
ENDBRANCH   1  21
TORSDOF 17
ENDMDL
