MODEL 1
REMARK VINA RESULT:     -12.1      0.000      0.000
REMARK SMILES CC(C)(C(=O)OCCOC(=O)c1ccc(-c2c3nc(c(-c4cc(S(=O)(=O)[O-])ccc4F)c4ccc([nH]4)c(-c4cc(S(=O)(=O)[O-])ccc4F)c4nc(c(-c5cc(S(=O)(=O)[O-])ccc5F)c5ccc2[nH]5)C=C4)C=C3)cc1)N1C(=O)/C(=C/c2ccc(C=O)cc2)SC1=S
REMARK SMILES IDX 7 1 6 2 4 3 5 4 2 5 1 6 3 7 75 8 76 9 89 10 77 11 78 12
REMARK SMILES IDX 88 13 90 14 79 15 80 16 81 17 87 18 82 19 86 20 83 21 84 22
REMARK SMILES IDX 85 23 8 24 9 25 10 26 11 27 12 28 13 29 74 30 14 31 73 32
REMARK SMILES IDX 15 33 16 34 17 35 67 36 18 37 72 38 66 39 68 40 19 41 71 42
REMARK SMILES IDX 65 43 64 44 20 46 52 47 32 48 51 49 33 50 36 51 50 52 69 53
REMARK SMILES IDX 34 54 35 55 49 57 70 58 37 59 21 60 22 61 30 62 23 63 29 64
REMARK SMILES IDX 31 65 28 66 24 67 25 68 26 69 27 70 53 71 54 72 62 73 55 74
REMARK SMILES IDX 61 75 63 76 60 77 56 78 57 79 58 80 59 81 38 82 39 83 47 84
REMARK SMILES IDX 40 85 46 86 48 87 45 88 41 89 42 90 43 91 44 92
REMARK H PARENT 68 45 36 56
REMARK Flexibility Score: inf
ROOT
ATOM      1  C   UNL A   1      35.019  21.081  26.405  1.00  0.00     0.274 C 
ENDROOT
BRANCH   1   2
ATOM      2  O   UNL A   1      33.785  21.514  25.792  1.00  0.00    -0.460 OA
BRANCH   2   3
ATOM      3  C   UNL A   1      33.775  22.765  25.243  1.00  0.00     0.332 C 
ATOM      4  O   UNL A   1      34.306  23.735  25.772  1.00  0.00    -0.249 OA
BRANCH   3   5
ATOM      5  C   UNL A   1      32.922  22.843  23.946  1.00  0.00     0.141 C 
ATOM      6  C   UNL A   1      33.866  22.967  22.720  1.00  0.00     0.048 C 
ATOM      7  C   UNL A   1      32.227  21.474  23.774  1.00  0.00     0.048 C 
BRANCH   5   8
ATOM      8  N   UNL A   1      31.923  24.005  24.049  1.00  0.00    -0.276 N 
ATOM      9  C   UNL A   1      31.975  25.072  23.146  1.00  0.00     0.267 C 
ATOM     10  C   UNL A   1      31.001  24.194  25.077  1.00  0.00     0.149 C 
ATOM     11  O   UNL A   1      32.776  25.217  22.233  1.00  0.00    -0.268 OA
ATOM     12  C   UNL A   1      30.951  26.117  23.445  1.00  0.00     0.081 C 
ATOM     13  S   UNL A   1      30.034  25.641  24.798  1.00  0.00    -0.054 SA
ATOM     14  S   UNL A   1      30.685  23.300  26.454  1.00  0.00    -0.052 S 
ATOM     15  C   UNL A   1      30.856  27.260  22.743  1.00  0.00     0.029 C 
BRANCH  15  16
ATOM     16  C   UNL A   1      29.999  28.433  23.018  1.00  0.00    -0.024 A 
ATOM     17  C   UNL A   1      28.739  28.538  22.414  1.00  0.00     0.009 A 
ATOM     18  C   UNL A   1      30.466  29.520  23.772  1.00  0.00     0.009 A 
ATOM     19  C   UNL A   1      27.959  29.692  22.581  1.00  0.00     0.012 A 
ATOM     20  C   UNL A   1      29.704  30.684  23.922  1.00  0.00     0.012 A 
ATOM     21  C   UNL A   1      28.448  30.766  23.329  1.00  0.00     0.014 A 
BRANCH  21  22
ATOM     22  C   UNL A   1      27.646  31.993  23.505  1.00  0.00     0.260 C 
ATOM     23  O   UNL A   1      27.896  33.014  22.873  1.00  0.00    -0.298 OA
ENDBRANCH  21  22
ENDBRANCH  15  16
ENDBRANCH   5   8
ENDBRANCH   3   5
ENDBRANCH   2   3
ENDBRANCH   1   2
BRANCH   1  24
ATOM     24  C   UNL A   1      36.076  20.769  25.348  1.00  0.00     0.275 C 
BRANCH  24  25
ATOM     25  O   UNL A   1      37.095  21.779  25.389  1.00  0.00    -0.458 OA
BRANCH  25  26
ATOM     26  C   UNL A   1      38.340  21.369  25.732  1.00  0.00     0.338 C 
ATOM     27  O   UNL A   1      38.800  20.248  25.643  1.00  0.00    -0.246 OA
BRANCH  26  28
ATOM     28  C   UNL A   1      39.078  22.538  26.244  1.00  0.00     0.060 A 
ATOM     29  C   UNL A   1      38.551  23.810  26.046  1.00  0.00     0.016 A 
ATOM     30  C   UNL A   1      40.308  22.385  26.880  1.00  0.00     0.016 A 
ATOM     31  C   UNL A   1      39.262  24.933  26.443  1.00  0.00     0.010 A 
ATOM     32  C   UNL A   1      40.990  23.519  27.345  1.00  0.00     0.010 A 
ATOM     33  C   UNL A   1      40.482  24.810  27.116  1.00  0.00    -0.014 A 
BRANCH  33  34
ATOM     34  C   UNL A   1      41.221  26.038  27.528  1.00  0.00     0.031 A 
ATOM     35  C   UNL A   1      40.551  27.061  28.408  1.00  0.00     0.074 A 
ATOM     36  C   UNL A   1      42.527  26.188  27.214  1.00  0.00     0.049 A 
ATOM     37  N   UNL A   1      40.983  28.239  28.780  1.00  0.00    -0.248 NA
ATOM     38  C   UNL A   1      39.233  26.704  28.959  1.00  0.00     0.031 C 
ATOM     39  C   UNL A   1      43.339  25.209  26.486  1.00  0.00     0.029 A 
ATOM     40  N   UNL A   1      43.416  27.197  27.503  1.00  0.00    -0.354 N 
ATOM     41  C   UNL A   1      39.977  28.778  29.576  1.00  0.00     0.074 A 
ATOM     42  C   UNL A   1      38.911  27.801  29.631  1.00  0.00     0.031 C 
ATOM     43  C   UNL A   1      44.609  25.638  26.435  1.00  0.00     0.029 A 
ATOM     44  C   UNL A   1      44.683  26.977  27.006  1.00  0.00     0.049 A 
ATOM     45  H   UNL A   1      43.171  28.000  28.017  1.00  0.00     0.167 HD
ATOM     46  C   UNL A   1      39.952  29.978  30.206  1.00  0.00     0.034 A 
ATOM     47  C   UNL A   1      45.765  27.783  26.950  1.00  0.00     0.034 A 
ATOM     48  C   UNL A   1      41.046  30.915  30.193  1.00  0.00     0.049 A 
ATOM     49  C   UNL A   1      45.650  29.173  27.523  1.00  0.00     0.074 A 
ATOM     50  C   UNL A   1      41.139  32.132  30.846  1.00  0.00     0.029 A 
ATOM     51  N   UNL A   1      42.232  30.745  29.496  1.00  0.00    -0.354 N 
ATOM     52  N   UNL A   1      44.656  29.706  28.197  1.00  0.00    -0.248 NA
ATOM     53  C   UNL A   1      46.785  30.079  27.303  1.00  0.00     0.031 C 
ATOM     54  C   UNL A   1      42.358  32.721  30.501  1.00  0.00     0.029 A 
ATOM     55  C   UNL A   1      43.055  31.844  29.685  1.00  0.00     0.049 A 
ATOM     56  H   UNL A   1      42.457  29.959  28.948  1.00  0.00     0.167 HD
ATOM     57  C   UNL A   1      45.049  31.014  28.472  1.00  0.00     0.074 A 
ATOM     58  C   UNL A   1      46.382  31.173  27.931  1.00  0.00     0.031 C 
ATOM     59  C   UNL A   1      44.366  31.999  29.107  1.00  0.00     0.034 A 
BRANCH  46  60
ATOM     60  C   UNL A   1      38.683  30.380  30.909  1.00  0.00     0.023 A 
ATOM     61  C   UNL A   1      37.657  31.090  30.265  1.00  0.00     0.031 A 
ATOM     62  C   UNL A   1      38.491  30.006  32.252  1.00  0.00     0.131 A 
ATOM     63  C   UNL A   1      36.495  31.433  30.979  1.00  0.00     0.055 A 
ATOM     64  C   UNL A   1      37.313  30.301  32.938  1.00  0.00     0.041 A 
ATOM     65  F   UNL A   1      39.451  29.344  32.918  1.00  0.00    -0.206 F 
ATOM     66  C   UNL A   1      36.309  31.024  32.302  1.00  0.00     0.022 A 
BRANCH  63  67
ATOM     67  S   UNL A   1      35.267  32.508  30.186  1.00  0.00     0.124 S 
ATOM     68  O   UNL A   1      34.310  32.719  31.270  1.00  0.00    -0.237 OA
ATOM     69  O   UNL A   1      36.063  33.668  29.803  1.00  0.00    -0.237 OA
ATOM     70  O   UNL A   1      34.769  31.698  29.076  1.00  0.00    -0.744 OA
ENDBRANCH  63  67
ENDBRANCH  46  60
BRANCH  47  71
ATOM     71  C   UNL A   1      47.000  27.359  26.219  1.00  0.00     0.023 A 
ATOM     72  C   UNL A   1      47.238  27.741  24.890  1.00  0.00     0.031 A 
ATOM     73  C   UNL A   1      47.930  26.489  26.824  1.00  0.00     0.131 A 
ATOM     74  C   UNL A   1      48.349  27.224  24.201  1.00  0.00     0.055 A 
ATOM     75  C   UNL A   1      49.071  26.039  26.160  1.00  0.00     0.041 A 
ATOM     76  F   UNL A   1      47.743  26.060  28.084  1.00  0.00    -0.206 F 
ATOM     77  C   UNL A   1      49.278  26.395  24.833  1.00  0.00     0.022 A 
BRANCH  74  78
ATOM     78  S   UNL A   1      48.495  27.540  22.420  1.00  0.00     0.124 S 
ATOM     79  O   UNL A   1      48.598  26.186  21.885  1.00  0.00    -0.237 OA
ATOM     80  O   UNL A   1      47.252  28.250  22.136  1.00  0.00    -0.237 OA
ATOM     81  O   UNL A   1      49.711  28.345  22.315  1.00  0.00    -0.744 OA
ENDBRANCH  74  78
ENDBRANCH  47  71
BRANCH  59  82
ATOM     82  C   UNL A   1      45.064  33.326  29.253  1.00  0.00     0.023 A 
ATOM     83  C   UNL A   1      44.825  34.379  28.353  1.00  0.00     0.031 A 
ATOM     84  C   UNL A   1      45.988  33.537  30.292  1.00  0.00     0.131 A 
ATOM     85  C   UNL A   1      45.535  35.581  28.482  1.00  0.00     0.055 A 
ATOM     86  C   UNL A   1      46.649  34.755  30.448  1.00  0.00     0.041 A 
ATOM     87  F   UNL A   1      46.257  32.561  31.173  1.00  0.00    -0.206 F 
ATOM     88  C   UNL A   1      46.432  35.782  29.534  1.00  0.00     0.022 A 
BRANCH  85  89
ATOM     89  S   UNL A   1      45.321  36.858  27.213  1.00  0.00     0.124 S 
ATOM     90  O   UNL A   1      43.899  36.744  26.906  1.00  0.00    -0.237 OA
ATOM     91  O   UNL A   1      45.727  38.072  27.914  1.00  0.00    -0.237 OA
ATOM     92  O   UNL A   1      46.222  36.433  26.143  1.00  0.00    -0.744 OA
ENDBRANCH  85  89
ENDBRANCH  59  82
ENDBRANCH  33  34
ENDBRANCH  26  28
ENDBRANCH  25  26
ENDBRANCH  24  25
ENDBRANCH   1  24
TORSDOF 17
ENDMDL
MODEL 2
REMARK VINA RESULT:     -12.0      0.925      7.556
REMARK SMILES CC(C)(C(=O)OCCOC(=O)c1ccc(-c2c3nc(c(-c4cc(S(=O)(=O)[O-])ccc4F)c4ccc([nH]4)c(-c4cc(S(=O)(=O)[O-])ccc4F)c4nc(c(-c5cc(S(=O)(=O)[O-])ccc5F)c5ccc2[nH]5)C=C4)C=C3)cc1)N1C(=O)/C(=C/c2ccc(C=O)cc2)SC1=S
REMARK SMILES IDX 7 1 6 2 4 3 5 4 2 5 1 6 3 7 75 8 76 9 89 10 77 11 78 12
REMARK SMILES IDX 88 13 90 14 79 15 80 16 81 17 87 18 82 19 86 20 83 21 84 22
REMARK SMILES IDX 85 23 8 24 9 25 10 26 11 27 12 28 13 29 74 30 14 31 73 32
REMARK SMILES IDX 15 33 16 34 17 35 67 36 18 37 72 38 66 39 68 40 19 41 71 42
REMARK SMILES IDX 65 43 64 44 20 46 52 47 32 48 51 49 33 50 36 51 50 52 69 53
REMARK SMILES IDX 34 54 35 55 49 57 70 58 37 59 21 60 22 61 30 62 23 63 29 64
REMARK SMILES IDX 31 65 28 66 24 67 25 68 26 69 27 70 53 71 54 72 62 73 55 74
REMARK SMILES IDX 61 75 63 76 60 77 56 78 57 79 58 80 59 81 38 82 39 83 47 84
REMARK SMILES IDX 40 85 46 86 48 87 45 88 41 89 42 90 43 91 44 92
REMARK H PARENT 68 45 36 56
REMARK Flexibility Score: inf
ROOT
ATOM      1  C   UNL A   1      35.426  20.364  24.999  1.00  0.00     0.274 C 
ENDROOT
BRANCH   1   2
ATOM      2  O   UNL A   1      35.134  21.643  24.394  1.00  0.00    -0.460 OA
BRANCH   2   3
ATOM      3  C   UNL A   1      33.875  22.139  24.581  1.00  0.00     0.332 C 
ATOM      4  O   UNL A   1      32.908  21.785  23.917  1.00  0.00    -0.249 OA
BRANCH   3   5
ATOM      5  C   UNL A   1      33.832  23.279  25.637  1.00  0.00     0.141 C 
ATOM      6  C   UNL A   1      33.681  22.658  27.052  1.00  0.00     0.048 C 
ATOM      7  C   UNL A   1      35.224  23.948  25.645  1.00  0.00     0.048 C 
BRANCH   5   8
ATOM      8  N   UNL A   1      32.703  24.264  25.295  1.00  0.00    -0.276 N 
ATOM      9  C   UNL A   1      32.967  25.422  24.556  1.00  0.00     0.267 C 
ATOM     10  C   UNL A   1      31.396  24.198  25.775  1.00  0.00     0.149 C 
ATOM     11  O   UNL A   1      34.055  25.785  24.132  1.00  0.00    -0.268 OA
ATOM     12  C   UNL A   1      31.748  26.265  24.372  1.00  0.00     0.081 C 
ATOM     13  S   UNL A   1      30.418  25.509  25.120  1.00  0.00    -0.054 SA
ATOM     14  S   UNL A   1      30.655  23.117  26.813  1.00  0.00    -0.052 S 
ATOM     15  C   UNL A   1      31.778  27.453  23.744  1.00  0.00     0.029 C 
BRANCH  15  16
ATOM     16  C   UNL A   1      30.692  28.449  23.621  1.00  0.00    -0.024 A 
ATOM     17  C   UNL A   1      29.635  28.228  22.728  1.00  0.00     0.009 A 
ATOM     18  C   UNL A   1      30.754  29.685  24.282  1.00  0.00     0.009 A 
ATOM     19  C   UNL A   1      28.653  29.209  22.523  1.00  0.00     0.012 A 
ATOM     20  C   UNL A   1      29.792  30.678  24.064  1.00  0.00     0.012 A 
ATOM     21  C   UNL A   1      28.740  30.436  23.186  1.00  0.00     0.014 A 
BRANCH  21  22
ATOM     22  C   UNL A   1      27.724  31.485  22.972  1.00  0.00     0.260 C 
ATOM     23  O   UNL A   1      26.903  31.763  23.839  1.00  0.00    -0.298 OA
ENDBRANCH  21  22
ENDBRANCH  15  16
ENDBRANCH   5   8
ENDBRANCH   3   5
ENDBRANCH   2   3
ENDBRANCH   1   2
BRANCH   1  24
ATOM     24  C   UNL A   1      36.927  20.086  24.997  1.00  0.00     0.275 C 
BRANCH  24  25
ATOM     25  O   UNL A   1      37.595  21.100  25.762  1.00  0.00    -0.458 OA
BRANCH  25  26
ATOM     26  C   UNL A   1      38.903  20.886  26.039  1.00  0.00     0.338 C 
ATOM     27  O   UNL A   1      39.516  19.840  25.953  1.00  0.00    -0.246 OA
BRANCH  26  28
ATOM     28  C   UNL A   1      39.491  22.167  26.473  1.00  0.00     0.060 A 
ATOM     29  C   UNL A   1      38.892  23.356  26.070  1.00  0.00     0.016 A 
ATOM     30  C   UNL A   1      40.654  22.197  27.240  1.00  0.00     0.016 A 
ATOM     31  C   UNL A   1      39.468  24.576  26.393  1.00  0.00     0.010 A 
ATOM     32  C   UNL A   1      41.194  23.433  27.626  1.00  0.00     0.010 A 
ATOM     33  C   UNL A   1      40.616  24.639  27.192  1.00  0.00    -0.014 A 
BRANCH  33  34
ATOM     34  C   UNL A   1      41.210  25.967  27.519  1.00  0.00     0.031 A 
ATOM     35  C   UNL A   1      42.585  26.322  27.014  1.00  0.00     0.074 A 
ATOM     36  C   UNL A   1      40.481  26.902  28.167  1.00  0.00     0.049 A 
ATOM     37  N   UNL A   1      43.315  27.374  27.281  1.00  0.00    -0.248 NA
ATOM     38  C   UNL A   1      43.210  25.383  26.068  1.00  0.00     0.031 C 
ATOM     39  C   UNL A   1      39.087  26.742  28.591  1.00  0.00     0.029 A 
ATOM     40  N   UNL A   1      40.790  28.187  28.546  1.00  0.00    -0.354 N 
ATOM     41  C   UNL A   1      44.498  27.206  26.569  1.00  0.00     0.074 A 
ATOM     42  C   UNL A   1      44.390  25.950  25.859  1.00  0.00     0.031 C 
ATOM     43  C   UNL A   1      38.649  27.896  29.117  1.00  0.00     0.029 A 
ATOM     44  C   UNL A   1      39.760  28.838  29.192  1.00  0.00     0.049 A 
ATOM     45  H   UNL A   1      41.665  28.604  28.372  1.00  0.00     0.167 HD
ATOM     46  C   UNL A   1      45.572  28.030  26.511  1.00  0.00     0.034 A 
ATOM     47  C   UNL A   1      39.726  30.024  29.835  1.00  0.00     0.034 A 
ATOM     48  C   UNL A   1      45.642  29.308  27.172  1.00  0.00     0.049 A 
ATOM     49  C   UNL A   1      40.989  30.846  29.885  1.00  0.00     0.074 A 
ATOM     50  C   UNL A   1      46.663  30.241  27.129  1.00  0.00     0.029 A 
ATOM     51  N   UNL A   1      44.657  29.833  27.995  1.00  0.00    -0.354 N 
ATOM     52  N   UNL A   1      42.135  30.631  29.279  1.00  0.00    -0.248 NA
ATOM     53  C   UNL A   1      40.967  32.050  30.726  1.00  0.00     0.031 C 
ATOM     54  C   UNL A   1      46.319  31.305  27.968  1.00  0.00     0.029 A 
ATOM     55  C   UNL A   1      45.055  31.067  28.483  1.00  0.00     0.049 A 
ATOM     56  H   UNL A   1      43.801  29.393  28.202  1.00  0.00     0.167 HD
ATOM     57  C   UNL A   1      42.970  31.672  29.676  1.00  0.00     0.074 A 
ATOM     58  C   UNL A   1      42.185  32.534  30.535  1.00  0.00     0.031 C 
ATOM     59  C   UNL A   1      44.272  31.894  29.367  1.00  0.00     0.034 A 
BRANCH  46  60
ATOM     60  C   UNL A   1      46.787  27.555  25.760  1.00  0.00     0.023 A 
ATOM     61  C   UNL A   1      47.045  27.925  24.430  1.00  0.00     0.031 A 
ATOM     62  C   UNL A   1      47.726  26.736  26.415  1.00  0.00     0.131 A 
ATOM     63  C   UNL A   1      48.200  27.449  23.787  1.00  0.00     0.055 A 
ATOM     64  C   UNL A   1      48.898  26.312  25.789  1.00  0.00     0.041 A 
ATOM     65  F   UNL A   1      47.516  26.337  27.680  1.00  0.00    -0.206 F 
ATOM     66  C   UNL A   1      49.137  26.664  24.464  1.00  0.00     0.022 A 
BRANCH  63  67
ATOM     67  S   UNL A   1      48.417  27.786  22.017  1.00  0.00     0.124 S 
ATOM     68  O   UNL A   1      48.509  26.436  21.464  1.00  0.00    -0.237 OA
ATOM     69  O   UNL A   1      47.209  28.530  21.685  1.00  0.00    -0.237 OA
ATOM     70  O   UNL A   1      49.658  28.556  21.965  1.00  0.00    -0.744 OA
ENDBRANCH  63  67
ENDBRANCH  46  60
BRANCH  47  71
ATOM     71  C   UNL A   1      38.508  30.451  30.593  1.00  0.00     0.023 A 
ATOM     72  C   UNL A   1      37.471  31.169  29.977  1.00  0.00     0.031 A 
ATOM     73  C   UNL A   1      38.402  30.211  31.978  1.00  0.00     0.131 A 
ATOM     74  C   UNL A   1      36.400  31.653  30.749  1.00  0.00     0.055 A 
ATOM     75  C   UNL A   1      37.301  30.629  32.725  1.00  0.00     0.041 A 
ATOM     76  F   UNL A   1      39.376  29.557  32.633  1.00  0.00    -0.206 F 
ATOM     77  C   UNL A   1      36.298  31.370  32.113  1.00  0.00     0.022 A 
BRANCH  74  78
ATOM     78  S   UNL A   1      35.207  32.780  29.975  1.00  0.00     0.124 S 
ATOM     79  O   UNL A   1      34.385  33.171  31.115  1.00  0.00    -0.237 OA
ATOM     80  O   UNL A   1      36.080  33.814  29.428  1.00  0.00    -0.237 OA
ATOM     81  O   UNL A   1      34.539  31.940  28.983  1.00  0.00    -0.744 OA
ENDBRANCH  74  78
ENDBRANCH  47  71
BRANCH  59  82
ATOM     82  C   UNL A   1      44.913  33.123  29.959  1.00  0.00     0.023 A 
ATOM     83  C   UNL A   1      44.840  34.367  29.308  1.00  0.00     0.031 A 
ATOM     84  C   UNL A   1      45.615  33.048  31.174  1.00  0.00     0.131 A 
ATOM     85  C   UNL A   1      45.497  35.479  29.855  1.00  0.00     0.055 A 
ATOM     86  C   UNL A   1      46.219  34.170  31.741  1.00  0.00     0.041 A 
ATOM     87  F   UNL A   1      45.719  31.882  31.830  1.00  0.00    -0.206 F 
ATOM     88  C   UNL A   1      46.171  35.392  31.076  1.00  0.00     0.022 A 
BRANCH  85  89
ATOM     89  S   UNL A   1      45.518  37.027  28.912  1.00  0.00     0.124 S 
ATOM     90  O   UNL A   1      46.853  37.005  28.323  1.00  0.00    -0.237 OA
ATOM     91  O   UNL A   1      44.408  36.844  27.981  1.00  0.00    -0.237 OA
ATOM     92  O   UNL A   1      45.306  38.053  29.931  1.00  0.00    -0.744 OA
ENDBRANCH  85  89
ENDBRANCH  59  82
ENDBRANCH  33  34
ENDBRANCH  26  28
ENDBRANCH  25  26
ENDBRANCH  24  25
ENDBRANCH   1  24
TORSDOF 17
ENDMDL
MODEL 3
REMARK VINA RESULT:     -12.0      5.171     10.496
REMARK SMILES CC(C)(C(=O)OCCOC(=O)c1ccc(-c2c3nc(c(-c4cc(S(=O)(=O)[O-])ccc4F)c4ccc([nH]4)c(-c4cc(S(=O)(=O)[O-])ccc4F)c4nc(c(-c5cc(S(=O)(=O)[O-])ccc5F)c5ccc2[nH]5)C=C4)C=C3)cc1)N1C(=O)/C(=C/c2ccc(C=O)cc2)SC1=S
REMARK SMILES IDX 7 1 6 2 4 3 5 4 2 5 1 6 3 7 75 8 76 9 89 10 77 11 78 12
REMARK SMILES IDX 88 13 90 14 79 15 80 16 81 17 87 18 82 19 86 20 83 21 84 22
REMARK SMILES IDX 85 23 8 24 9 25 10 26 11 27 12 28 13 29 74 30 14 31 73 32
REMARK SMILES IDX 15 33 16 34 17 35 67 36 18 37 72 38 66 39 68 40 19 41 71 42
REMARK SMILES IDX 65 43 64 44 20 46 52 47 32 48 51 49 33 50 36 51 50 52 69 53
REMARK SMILES IDX 34 54 35 55 49 57 70 58 37 59 21 60 22 61 30 62 23 63 29 64
REMARK SMILES IDX 31 65 28 66 24 67 25 68 26 69 27 70 53 71 54 72 62 73 55 74
REMARK SMILES IDX 61 75 63 76 60 77 56 78 57 79 58 80 59 81 38 82 39 83 47 84
REMARK SMILES IDX 40 85 46 86 48 87 45 88 41 89 42 90 43 91 44 92
REMARK H PARENT 68 45 36 56
REMARK Flexibility Score: inf
ROOT
ATOM      1  C   UNL A   1      31.698  29.623  24.962  1.00  0.00     0.274 C 
ENDROOT
BRANCH   1   2
ATOM      2  O   UNL A   1      31.106  28.330  25.218  1.00  0.00    -0.460 OA
BRANCH   2   3
ATOM      3  C   UNL A   1      31.723  27.248  24.657  1.00  0.00     0.332 C 
ATOM      4  O   UNL A   1      32.907  26.985  24.831  1.00  0.00    -0.249 OA
BRANCH   3   5
ATOM      5  C   UNL A   1      30.793  26.467  23.686  1.00  0.00     0.141 C 
ATOM      6  C   UNL A   1      29.367  26.391  24.296  1.00  0.00     0.048 C 
ATOM      7  C   UNL A   1      30.635  27.327  22.414  1.00  0.00     0.048 C 
BRANCH   5   8
ATOM      8  N   UNL A   1      31.391  25.082  23.395  1.00  0.00    -0.276 N 
ATOM      9  C   UNL A   1      31.229  24.030  24.303  1.00  0.00     0.267 C 
ATOM     10  C   UNL A   1      32.235  24.770  22.330  1.00  0.00     0.149 C 
ATOM     11  O   UNL A   1      30.649  24.077  25.379  1.00  0.00    -0.268 OA
ATOM     12  C   UNL A   1      31.923  22.785  23.856  1.00  0.00     0.081 C 
ATOM     13  S   UNL A   1      32.674  23.064  22.354  1.00  0.00    -0.054 SA
ATOM     14  S   UNL A   1      32.850  25.716  21.097  1.00  0.00    -0.052 S 
ATOM     15  C   UNL A   1      31.952  21.666  24.600  1.00  0.00     0.029 C 
BRANCH  15  16
ATOM     16  C   UNL A   1      32.715  20.424  24.353  1.00  0.00    -0.024 A 
ATOM     17  C   UNL A   1      32.133  19.375  23.629  1.00  0.00     0.009 A 
ATOM     18  C   UNL A   1      33.972  20.208  24.938  1.00  0.00     0.009 A 
ATOM     19  C   UNL A   1      32.804  18.152  23.475  1.00  0.00     0.012 A 
ATOM     20  C   UNL A   1      34.635  18.983  24.810  1.00  0.00     0.012 A 
ATOM     21  C   UNL A   1      34.050  17.957  24.075  1.00  0.00     0.014 A 
BRANCH  21  22
ATOM     22  C   UNL A   1      34.764  16.672  23.935  1.00  0.00     0.260 C 
ATOM     23  O   UNL A   1      34.399  15.671  24.541  1.00  0.00    -0.298 OA
ENDBRANCH  21  22
ENDBRANCH  15  16
ENDBRANCH   5   8
ENDBRANCH   3   5
ENDBRANCH   2   3
ENDBRANCH   1   2
BRANCH   1  24
ATOM     24  C   UNL A   1      31.914  30.394  26.262  1.00  0.00     0.275 C 
BRANCH  24  25
ATOM     25  O   UNL A   1      33.322  30.484  26.527  1.00  0.00    -0.458 OA
BRANCH  25  26
ATOM     26  C   UNL A   1      33.728  31.522  27.297  1.00  0.00     0.338 C 
ATOM     27  O   UNL A   1      33.158  32.581  27.472  1.00  0.00    -0.246 OA
BRANCH  26  28
ATOM     28  C   UNL A   1      35.014  31.153  27.916  1.00  0.00     0.060 A 
ATOM     29  C   UNL A   1      35.187  29.858  28.394  1.00  0.00     0.016 A 
ATOM     30  C   UNL A   1      36.033  32.092  28.064  1.00  0.00     0.016 A 
ATOM     31  C   UNL A   1      36.354  29.504  29.055  1.00  0.00     0.010 A 
ATOM     32  C   UNL A   1      37.240  31.711  28.669  1.00  0.00     0.010 A 
ATOM     33  C   UNL A   1      37.409  30.415  29.187  1.00  0.00    -0.014 A 
BRANCH  33  34
ATOM     34  C   UNL A   1      38.649  30.002  29.905  1.00  0.00     0.031 A 
ATOM     35  C   UNL A   1      39.608  29.037  29.258  1.00  0.00     0.074 A 
ATOM     36  C   UNL A   1      38.981  30.576  31.083  1.00  0.00     0.049 A 
ATOM     37  N   UNL A   1      40.677  28.474  29.761  1.00  0.00    -0.248 NA
ATOM     38  C   UNL A   1      39.344  28.675  27.856  1.00  0.00     0.031 C 
ATOM     39  C   UNL A   1      38.214  31.628  31.756  1.00  0.00     0.029 A 
ATOM     40  N   UNL A   1      40.068  30.391  31.904  1.00  0.00    -0.354 N 
ATOM     41  C   UNL A   1      41.189  27.664  28.753  1.00  0.00     0.074 A 
ATOM     42  C   UNL A   1      40.314  27.805  27.610  1.00  0.00     0.031 C 
ATOM     43  C   UNL A   1      38.879  32.030  32.849  1.00  0.00     0.029 A 
ATOM     44  C   UNL A   1      40.050  31.181  33.034  1.00  0.00     0.049 A 
ATOM     45  H   UNL A   1      40.791  29.754  31.704  1.00  0.00     0.167 HD
ATOM     46  C   UNL A   1      42.294  26.879  28.782  1.00  0.00     0.034 A 
ATOM     47  C   UNL A   1      40.840  31.181  34.129  1.00  0.00     0.034 A 
ATOM     48  C   UNL A   1      43.191  26.795  29.906  1.00  0.00     0.049 A 
ATOM     49  C   UNL A   1      41.968  30.183  34.195  1.00  0.00     0.074 A 
ATOM     50  C   UNL A   1      44.367  26.072  30.011  1.00  0.00     0.029 A 
ATOM     51  N   UNL A   1      43.017  27.451  31.115  1.00  0.00    -0.354 N 
ATOM     52  N   UNL A   1      42.389  29.355  33.265  1.00  0.00    -0.248 NA
ATOM     53  C   UNL A   1      42.706  30.096  35.462  1.00  0.00     0.031 C 
ATOM     54  C   UNL A   1      44.874  26.248  31.302  1.00  0.00     0.029 A 
ATOM     55  C   UNL A   1      44.051  27.133  31.981  1.00  0.00     0.049 A 
ATOM     56  H   UNL A   1      42.268  28.053  31.327  1.00  0.00     0.167 HD
ATOM     57  C   UNL A   1      43.437  28.644  33.845  1.00  0.00     0.074 A 
ATOM     58  C   UNL A   1      43.612  29.170  35.182  1.00  0.00     0.031 C 
ATOM     59  C   UNL A   1      44.186  27.640  33.323  1.00  0.00     0.034 A 
BRANCH  46  60
ATOM     60  C   UNL A   1      42.565  25.997  27.592  1.00  0.00     0.023 A 
ATOM     61  C   UNL A   1      42.106  24.672  27.515  1.00  0.00     0.031 A 
ATOM     62  C   UNL A   1      43.275  26.520  26.495  1.00  0.00     0.131 A 
ATOM     63  C   UNL A   1      42.391  23.903  26.374  1.00  0.00     0.055 A 
ATOM     64  C   UNL A   1      43.507  25.769  25.343  1.00  0.00     0.041 A 
ATOM     65  F   UNL A   1      43.753  27.774  26.528  1.00  0.00    -0.206 F 
ATOM     66  C   UNL A   1      43.069  24.450  25.281  1.00  0.00     0.022 A 
BRANCH  63  67
ATOM     67  S   UNL A   1      41.952  22.143  26.374  1.00  0.00     0.124 S 
ATOM     68  O   UNL A   1      42.766  21.630  25.274  1.00  0.00    -0.237 OA
ATOM     69  O   UNL A   1      42.346  21.718  27.711  1.00  0.00    -0.237 OA
ATOM     70  O   UNL A   1      40.512  22.150  26.120  1.00  0.00    -0.744 OA
ENDBRANCH  63  67
ENDBRANCH  46  60
BRANCH  47  71
ATOM     71  C   UNL A   1      40.523  32.053  35.303  1.00  0.00     0.023 A 
ATOM     72  C   UNL A   1      39.444  31.777  36.156  1.00  0.00     0.031 A 
ATOM     73  C   UNL A   1      41.257  33.233  35.541  1.00  0.00     0.131 A 
ATOM     74  C   UNL A   1      39.107  32.684  37.176  1.00  0.00     0.055 A 
ATOM     75  C   UNL A   1      40.966  34.092  36.601  1.00  0.00     0.041 A 
ATOM     76  F   UNL A   1      42.282  33.571  34.740  1.00  0.00    -0.206 F 
ATOM     77  C   UNL A   1      39.874  33.827  37.417  1.00  0.00     0.022 A 
BRANCH  74  78
ATOM     78  S   UNL A   1      37.568  32.424  38.102  1.00  0.00     0.124 S 
ATOM     79  O   UNL A   1      36.605  33.160  37.291  1.00  0.00    -0.237 OA
ATOM     80  O   UNL A   1      37.447  30.970  38.083  1.00  0.00    -0.237 OA
ATOM     81  O   UNL A   1      37.856  33.008  39.411  1.00  0.00    -0.744 OA
ENDBRANCH  74  78
ENDBRANCH  47  71
BRANCH  59  82
ATOM     82  C   UNL A   1      45.262  27.062  34.206  1.00  0.00     0.023 A 
ATOM     83  C   UNL A   1      44.955  26.131  35.213  1.00  0.00     0.031 A 
ATOM     84  C   UNL A   1      46.601  27.457  34.050  1.00  0.00     0.131 A 
ATOM     85  C   UNL A   1      45.971  25.657  36.056  1.00  0.00     0.055 A 
ATOM     86  C   UNL A   1      47.616  26.939  34.855  1.00  0.00     0.041 A 
ATOM     87  F   UNL A   1      46.944  28.349  33.108  1.00  0.00    -0.206 F 
ATOM     88  C   UNL A   1      47.302  26.041  35.872  1.00  0.00     0.022 A 
BRANCH  85  89
ATOM     89  S   UNL A   1      45.518  24.581  37.443  1.00  0.00     0.124 S 
ATOM     90  O   UNL A   1      44.075  24.784  37.525  1.00  0.00    -0.237 OA
ATOM     91  O   UNL A   1      45.951  23.267  36.978  1.00  0.00    -0.237 OA
ATOM     92  O   UNL A   1      46.286  25.123  38.563  1.00  0.00    -0.744 OA
ENDBRANCH  85  89
ENDBRANCH  59  82
ENDBRANCH  33  34
ENDBRANCH  26  28
ENDBRANCH  25  26
ENDBRANCH  24  25
ENDBRANCH   1  24
TORSDOF 17
ENDMDL
