MODEL 1
REMARK VINA RESULT:     -11.8      0.000      0.000
REMARK SMILES Cc1ccc2c(c1C)O[C@@H](C(=O)OCCOC(=O)c1ccc(-c3c4nc(c(-c5cc(S(=O)(=O)[O-])ccc5F)c5ccc([nH]5)c(-c5cc(S(=O)(=O)[O-])ccc5F)c5nc(c(-c6cc(S(=O)(=O)[O-])ccc6F)c6ccc3[nH]6)C=C5)C=C4)cc1)CC2=O
REMARK SMILES IDX 16 1 15 2 14 3 13 4 11 5 12 6 10 7 1 8 2 9 3 10 7 11 4 12
REMARK SMILES IDX 6 13 8 14 5 15 9 16 83 17 82 18 84 19 17 20 18 21 19 22
REMARK SMILES IDX 20 23 81 24 21 25 80 26 22 27 23 28 24 29 74 30 25 31 79 32
REMARK SMILES IDX 73 33 75 34 26 35 78 36 72 37 71 38 27 40 59 41 39 42 58 43
REMARK SMILES IDX 40 44 43 45 57 46 76 47 41 48 42 49 56 51 77 52 44 53 28 54
REMARK SMILES IDX 29 55 37 56 30 57 36 58 38 59 35 60 31 61 32 62 33 63 34 64
REMARK SMILES IDX 60 65 61 66 69 67 62 68 68 69 70 70 67 71 63 72 64 73 65 74
REMARK SMILES IDX 66 75 45 76 46 77 54 78 47 79 53 80 55 81 52 82 48 83 49 84
REMARK SMILES IDX 50 85 51 86
REMARK H PARENT 75 39 43 50
REMARK Flexibility Score: inf
ROOT
ATOM      1  O   UNL A   1      38.571  21.264  25.284  1.00  0.00    -0.458 OA
ENDROOT
BRANCH   1   2
ATOM      2  C   UNL A   1      37.704  20.140  25.055  1.00  0.00     0.275 C 
BRANCH   2   3
ATOM      3  C   UNL A   1      36.243  20.583  24.971  1.00  0.00     0.274 C 
BRANCH   3   4
ATOM      4  O   UNL A   1      35.881  21.370  26.124  1.00  0.00    -0.459 OA
BRANCH   4   5
ATOM      5  C   UNL A   1      35.385  22.612  25.884  1.00  0.00     0.347 C 
ATOM      6  O   UNL A   1      35.993  23.502  25.301  1.00  0.00    -0.248 OA
BRANCH   5   7
ATOM      7  C   UNL A   1      33.981  22.817  26.483  1.00  0.00     0.290 C 
ATOM      8  C   UNL A   1      32.158  18.571  22.592  1.00  0.00     0.045 C 
ATOM      9  C   UNL A   1      32.288  19.933  23.217  1.00  0.00    -0.044 A 
ATOM     10  C   UNL A   1      32.045  21.040  22.378  1.00  0.00     0.005 A 
ATOM     11  C   UNL A   1      32.618  20.148  24.573  1.00  0.00    -0.005 A 
ATOM     12  C   UNL A   1      32.154  22.344  22.853  1.00  0.00     0.016 A 
ATOM     13  C   UNL A   1      32.769  21.473  25.023  1.00  0.00     0.134 A 
ATOM     14  C   UNL A   1      32.905  19.026  25.538  1.00  0.00     0.049 C 
ATOM     15  C   UNL A   1      32.524  22.556  24.176  1.00  0.00     0.060 A 
ATOM     16  O   UNL A   1      33.163  21.658  26.326  1.00  0.00    -0.477 OA
ATOM     17  C   UNL A   1      32.672  23.929  24.694  1.00  0.00     0.170 C 
ATOM     18  C   UNL A   1      33.240  24.079  26.078  1.00  0.00     0.138 C 
ATOM     19  O   UNL A   1      32.300  24.890  24.027  1.00  0.00    -0.294 OA
ENDBRANCH   5   7
ENDBRANCH   4   5
ENDBRANCH   3   4
ENDBRANCH   2   3
ENDBRANCH   1   2
BRANCH   1  20
ATOM     20  C   UNL A   1      39.522  21.066  26.224  1.00  0.00     0.338 C 
ATOM     21  O   UNL A   1      40.025  20.010  26.561  1.00  0.00    -0.246 OA
BRANCH  20  22
ATOM     22  C   UNL A   1      39.977  22.358  26.742  1.00  0.00     0.060 A 
ATOM     23  C   UNL A   1      39.478  23.527  26.161  1.00  0.00     0.016 A 
ATOM     24  C   UNL A   1      40.982  22.405  27.707  1.00  0.00     0.016 A 
ATOM     25  C   UNL A   1      40.011  24.759  26.523  1.00  0.00     0.010 A 
ATOM     26  C   UNL A   1      41.500  23.643  28.084  1.00  0.00     0.010 A 
ATOM     27  C   UNL A   1      41.034  24.822  27.476  1.00  0.00    -0.014 A 
BRANCH  27  28
ATOM     28  C   UNL A   1      41.650  26.123  27.811  1.00  0.00     0.031 A 
ATOM     29  C   UNL A   1      40.867  27.137  28.590  1.00  0.00     0.074 A 
ATOM     30  C   UNL A   1      42.908  26.380  27.411  1.00  0.00     0.049 A 
ATOM     31  N   UNL A   1      41.196  28.359  28.912  1.00  0.00    -0.248 NA
ATOM     32  C   UNL A   1      39.541  26.720  29.075  1.00  0.00     0.031 C 
ATOM     33  C   UNL A   1      43.766  25.440  26.691  1.00  0.00     0.029 A 
ATOM     34  N   UNL A   1      43.677  27.506  27.545  1.00  0.00    -0.354 N 
ATOM     35  C   UNL A   1      40.117  28.864  29.628  1.00  0.00     0.074 A 
ATOM     36  C   UNL A   1      39.114  27.824  29.675  1.00  0.00     0.031 C 
ATOM     37  C   UNL A   1      44.945  26.032  26.440  1.00  0.00     0.029 A 
ATOM     38  C   UNL A   1      44.906  27.405  26.938  1.00  0.00     0.049 A 
ATOM     39  H   UNL A   1      43.379  28.310  28.029  1.00  0.00     0.167 HD
ATOM     40  C   UNL A   1      39.988  30.084  30.197  1.00  0.00     0.034 A 
ATOM     41  C   UNL A   1      45.878  28.324  26.777  1.00  0.00     0.034 A 
ATOM     42  C   UNL A   1      40.998  31.106  30.138  1.00  0.00     0.049 A 
ATOM     43  C   UNL A   1      45.680  29.700  27.359  1.00  0.00     0.074 A 
ATOM     44  C   UNL A   1      40.965  32.375  30.686  1.00  0.00     0.029 A 
ATOM     45  N   UNL A   1      42.221  30.978  29.495  1.00  0.00    -0.354 N 
ATOM     46  N   UNL A   1      44.666  30.160  28.053  1.00  0.00    -0.248 NA
ATOM     47  C   UNL A   1      46.749  30.683  27.137  1.00  0.00     0.031 C 
ATOM     48  C   UNL A   1      42.149  33.029  30.341  1.00  0.00     0.029 A 
ATOM     49  C   UNL A   1      42.943  32.153  29.616  1.00  0.00     0.049 A 
ATOM     50  H   UNL A   1      42.530  30.171  29.023  1.00  0.00     0.167 HD
ATOM     51  C   UNL A   1      44.982  31.477  28.369  1.00  0.00     0.074 A 
ATOM     52  C   UNL A   1      46.290  31.736  27.803  1.00  0.00     0.031 C 
ATOM     53  C   UNL A   1      44.255  32.388  29.063  1.00  0.00     0.034 A 
BRANCH  40  54
ATOM     54  C   UNL A   1      38.715  30.395  30.937  1.00  0.00     0.023 A 
ATOM     55  C   UNL A   1      37.700  31.140  30.312  1.00  0.00     0.031 A 
ATOM     56  C   UNL A   1      38.553  30.044  32.289  1.00  0.00     0.131 A 
ATOM     57  C   UNL A   1      36.576  31.535  31.048  1.00  0.00     0.055 A 
ATOM     58  C   UNL A   1      37.419  30.416  33.010  1.00  0.00     0.041 A 
ATOM     59  F   UNL A   1      39.495  29.327  32.923  1.00  0.00    -0.206 F 
ATOM     60  C   UNL A   1      36.427  31.173  32.391  1.00  0.00     0.022 A 
BRANCH  57  61
ATOM     61  S   UNL A   1      35.276  32.554  30.298  1.00  0.00     0.124 S 
ATOM     62  O   UNL A   1      34.330  32.697  31.402  1.00  0.00    -0.237 OA
ATOM     63  O   UNL A   1      36.009  33.765  29.940  1.00  0.00    -0.237 OA
ATOM     64  O   UNL A   1      34.801  31.746  29.179  1.00  0.00    -0.744 OA
ENDBRANCH  57  61
ENDBRANCH  40  54
BRANCH  41  65
ATOM     65  C   UNL A   1      47.126  27.944  26.056  1.00  0.00     0.023 A 
ATOM     66  C   UNL A   1      47.241  28.124  24.665  1.00  0.00     0.031 A 
ATOM     67  C   UNL A   1      48.175  27.304  26.732  1.00  0.00     0.131 A 
ATOM     68  C   UNL A   1      48.357  27.614  23.988  1.00  0.00     0.055 A 
ATOM     69  C   UNL A   1      49.312  26.849  26.061  1.00  0.00     0.041 A 
ATOM     70  F   UNL A   1      48.102  27.102  28.057  1.00  0.00    -0.206 F 
ATOM     71  C   UNL A   1      49.400  26.992  24.680  1.00  0.00     0.022 A 
BRANCH  68  72
ATOM     72  S   UNL A   1      48.447  27.657  22.178  1.00  0.00     0.124 S 
ATOM     73  O   UNL A   1      49.594  28.531  21.948  1.00  0.00    -0.237 OA
ATOM     74  O   UNL A   1      48.653  26.247  21.857  1.00  0.00    -0.237 OA
ATOM     75  O   UNL A   1      47.153  28.203  21.780  1.00  0.00    -0.744 OA
ENDBRANCH  68  72
ENDBRANCH  41  65
BRANCH  53  76
ATOM     76  C   UNL A   1      44.837  33.761  29.273  1.00  0.00     0.023 A 
ATOM     77  C   UNL A   1      44.516  34.802  28.382  1.00  0.00     0.031 A 
ATOM     78  C   UNL A   1      45.823  33.991  30.246  1.00  0.00     0.131 A 
ATOM     79  C   UNL A   1      45.209  36.016  28.455  1.00  0.00     0.055 A 
ATOM     80  C   UNL A   1      46.483  35.216  30.340  1.00  0.00     0.041 A 
ATOM     81  F   UNL A   1      46.165  33.022  31.111  1.00  0.00    -0.206 F 
ATOM     82  C   UNL A   1      46.186  36.231  29.434  1.00  0.00     0.022 A 
BRANCH  79  83
ATOM     83  S   UNL A   1      44.917  37.334  27.245  1.00  0.00     0.124 S 
ATOM     84  O   UNL A   1      43.644  36.927  26.652  1.00  0.00    -0.237 OA
ATOM     85  O   UNL A   1      44.859  38.520  28.093  1.00  0.00    -0.237 OA
ATOM     86  O   UNL A   1      46.069  37.253  26.352  1.00  0.00    -0.744 OA
ENDBRANCH  79  83
ENDBRANCH  53  76
ENDBRANCH  27  28
ENDBRANCH  20  22
ENDBRANCH   1  20
TORSDOF 14
ENDMDL
MODEL 2
REMARK VINA RESULT:     -11.8      1.171      2.305
REMARK SMILES Cc1ccc2c(c1C)O[C@@H](C(=O)OCCOC(=O)c1ccc(-c3c4nc(c(-c5cc(S(=O)(=O)[O-])ccc5F)c5ccc([nH]5)c(-c5cc(S(=O)(=O)[O-])ccc5F)c5nc(c(-c6cc(S(=O)(=O)[O-])ccc6F)c6ccc3[nH]6)C=C5)C=C4)cc1)CC2=O
REMARK SMILES IDX 16 1 15 2 14 3 13 4 11 5 12 6 10 7 1 8 2 9 3 10 7 11 4 12
REMARK SMILES IDX 6 13 8 14 5 15 9 16 83 17 82 18 84 19 17 20 18 21 19 22
REMARK SMILES IDX 20 23 81 24 21 25 80 26 22 27 23 28 24 29 74 30 25 31 79 32
REMARK SMILES IDX 73 33 75 34 26 35 78 36 72 37 71 38 27 40 59 41 39 42 58 43
REMARK SMILES IDX 40 44 43 45 57 46 76 47 41 48 42 49 56 51 77 52 44 53 28 54
REMARK SMILES IDX 29 55 37 56 30 57 36 58 38 59 35 60 31 61 32 62 33 63 34 64
REMARK SMILES IDX 60 65 61 66 69 67 62 68 68 69 70 70 67 71 63 72 64 73 65 74
REMARK SMILES IDX 66 75 45 76 46 77 54 78 47 79 53 80 55 81 52 82 48 83 49 84
REMARK SMILES IDX 50 85 51 86
REMARK H PARENT 75 39 43 50
REMARK Flexibility Score: inf
ROOT
ATOM      1  O   UNL A   1      37.481  21.404  25.704  1.00  0.00    -0.458 OA
ENDROOT
BRANCH   1   2
ATOM      2  C   UNL A   1      36.848  20.333  24.984  1.00  0.00     0.275 C 
BRANCH   2   3
ATOM      3  C   UNL A   1      35.327  20.487  24.997  1.00  0.00     0.274 C 
BRANCH   3   4
ATOM      4  O   UNL A   1      34.955  21.873  25.137  1.00  0.00    -0.459 OA
BRANCH   4   5
ATOM      5  C   UNL A   1      34.539  22.510  24.011  1.00  0.00     0.347 C 
ATOM      6  O   UNL A   1      35.287  22.990  23.167  1.00  0.00    -0.248 OA
BRANCH   5   7
ATOM      7  C   UNL A   1      33.006  22.628  23.927  1.00  0.00     0.290 C 
ATOM      8  C   UNL A   1      33.911  28.583  23.458  1.00  0.00     0.045 C 
ATOM      9  C   UNL A   1      33.469  27.278  24.062  1.00  0.00    -0.044 A 
ATOM     10  C   UNL A   1      33.347  27.240  25.466  1.00  0.00     0.005 A 
ATOM     11  C   UNL A   1      33.165  26.124  23.307  1.00  0.00    -0.005 A 
ATOM     12  C   UNL A   1      32.960  26.078  26.127  1.00  0.00     0.016 A 
ATOM     13  C   UNL A   1      32.822  24.945  23.995  1.00  0.00     0.134 A 
ATOM     14  C   UNL A   1      33.279  26.070  21.805  1.00  0.00     0.049 C 
ATOM     15  C   UNL A   1      32.705  24.929  25.387  1.00  0.00     0.060 A 
ATOM     16  O   UNL A   1      32.602  23.815  23.245  1.00  0.00    -0.477 OA
ATOM     17  C   UNL A   1      32.321  23.678  26.067  1.00  0.00     0.170 C 
ATOM     18  C   UNL A   1      32.232  22.439  25.220  1.00  0.00     0.138 C 
ATOM     19  O   UNL A   1      32.047  23.678  27.263  1.00  0.00    -0.294 OA
ENDBRANCH   5   7
ENDBRANCH   4   5
ENDBRANCH   3   4
ENDBRANCH   2   3
ENDBRANCH   1   2
BRANCH   1  20
ATOM     20  C   UNL A   1      38.789  21.207  25.981  1.00  0.00     0.338 C 
ATOM     21  O   UNL A   1      39.458  20.217  25.745  1.00  0.00    -0.246 OA
BRANCH  20  22
ATOM     22  C   UNL A   1      39.365  22.435  26.533  1.00  0.00     0.060 A 
ATOM     23  C   UNL A   1      38.857  23.665  26.106  1.00  0.00     0.016 A 
ATOM     24  C   UNL A   1      40.480  22.366  27.367  1.00  0.00     0.016 A 
ATOM     25  C   UNL A   1      39.487  24.842  26.489  1.00  0.00     0.010 A 
ATOM     26  C   UNL A   1      41.099  23.550  27.767  1.00  0.00     0.010 A 
ATOM     27  C   UNL A   1      40.620  24.790  27.310  1.00  0.00    -0.014 A 
BRANCH  27  28
ATOM     28  C   UNL A   1      41.334  26.036  27.660  1.00  0.00     0.031 A 
ATOM     29  C   UNL A   1      40.637  27.090  28.468  1.00  0.00     0.074 A 
ATOM     30  C   UNL A   1      42.603  26.208  27.250  1.00  0.00     0.049 A 
ATOM     31  N   UNL A   1      41.058  28.278  28.808  1.00  0.00    -0.248 NA
ATOM     32  C   UNL A   1      39.289  26.762  28.961  1.00  0.00     0.031 C 
ATOM     33  C   UNL A   1      43.382  25.221  26.502  1.00  0.00     0.029 A 
ATOM     34  N   UNL A   1      43.455  27.271  27.395  1.00  0.00    -0.354 N 
ATOM     35  C   UNL A   1      40.028  28.847  29.547  1.00  0.00     0.074 A 
ATOM     36  C   UNL A   1      38.951  27.882  29.587  1.00  0.00     0.031 C 
ATOM     37  C   UNL A   1      44.598  25.730  26.247  1.00  0.00     0.029 A 
ATOM     38  C   UNL A   1      44.666  27.092  26.771  1.00  0.00     0.049 A 
ATOM     39  H   UNL A   1      43.222  28.086  27.897  1.00  0.00     0.167 HD
ATOM     40  C   UNL A   1      39.995  30.062  30.140  1.00  0.00     0.034 A 
ATOM     41  C   UNL A   1      45.701  27.941  26.615  1.00  0.00     0.034 A 
ATOM     42  C   UNL A   1      41.077  31.008  30.086  1.00  0.00     0.049 A 
ATOM     43  C   UNL A   1      45.611  29.315  27.224  1.00  0.00     0.074 A 
ATOM     44  C   UNL A   1      41.143  32.265  30.658  1.00  0.00     0.029 A 
ATOM     45  N   UNL A   1      42.280  30.803  29.426  1.00  0.00    -0.354 N 
ATOM     46  N   UNL A   1      44.641  29.836  27.939  1.00  0.00    -0.248 NA
ATOM     47  C   UNL A   1      46.747  30.221  27.007  1.00  0.00     0.031 C 
ATOM     48  C   UNL A   1      42.369  32.837  30.310  1.00  0.00     0.029 A 
ATOM     49  C   UNL A   1      43.088  31.919  29.560  1.00  0.00     0.049 A 
ATOM     50  H   UNL A   1      42.523  29.985  28.936  1.00  0.00     0.167 HD
ATOM     51  C   UNL A   1      45.058  31.119  28.275  1.00  0.00     0.074 A 
ATOM     52  C   UNL A   1      46.375  31.293  27.697  1.00  0.00     0.031 C 
ATOM     53  C   UNL A   1      44.407  32.068  28.994  1.00  0.00     0.034 A 
BRANCH  40  54
ATOM     54  C   UNL A   1      38.756  30.451  30.901  1.00  0.00     0.023 A 
ATOM     55  C   UNL A   1      37.735  31.176  30.262  1.00  0.00     0.031 A 
ATOM     56  C   UNL A   1      38.637  30.196  32.278  1.00  0.00     0.131 A 
ATOM     57  C   UNL A   1      36.647  31.645  31.008  1.00  0.00     0.055 A 
ATOM     58  C   UNL A   1      37.537  30.641  33.011  1.00  0.00     0.041 A 
ATOM     59  F   UNL A   1      39.586  29.501  32.926  1.00  0.00    -0.206 F 
ATOM     60  C   UNL A   1      36.540  31.378  32.377  1.00  0.00     0.022 A 
BRANCH  57  61
ATOM     61  S   UNL A   1      35.342  32.641  30.237  1.00  0.00     0.124 S 
ATOM     62  O   UNL A   1      34.981  31.823  29.082  1.00  0.00    -0.237 OA
ATOM     63  O   UNL A   1      34.340  32.704  31.298  1.00  0.00    -0.237 OA
ATOM     64  O   UNL A   1      36.006  33.901  29.918  1.00  0.00    -0.744 OA
ENDBRANCH  57  61
ENDBRANCH  40  54
BRANCH  41  65
ATOM     65  C   UNL A   1      46.909  27.484  25.872  1.00  0.00     0.023 A 
ATOM     66  C   UNL A   1      47.128  27.873  24.537  1.00  0.00     0.031 A 
ATOM     67  C   UNL A   1      47.804  26.572  26.452  1.00  0.00     0.131 A 
ATOM     68  C   UNL A   1      48.183  27.305  23.811  1.00  0.00     0.055 A 
ATOM     69  C   UNL A   1      48.888  26.053  25.743  1.00  0.00     0.041 A 
ATOM     70  F   UNL A   1      47.626  26.166  27.719  1.00  0.00    -0.206 F 
ATOM     71  C   UNL A   1      49.073  26.409  24.410  1.00  0.00     0.022 A 
BRANCH  68  72
ATOM     72  S   UNL A   1      48.378  27.636  22.039  1.00  0.00     0.124 S 
ATOM     73  O   UNL A   1      49.507  28.562  22.022  1.00  0.00    -0.237 OA
ATOM     74  O   UNL A   1      48.650  26.300  21.515  1.00  0.00    -0.237 OA
ATOM     75  O   UNL A   1      47.093  28.207  21.650  1.00  0.00    -0.744 OA
ENDBRANCH  68  72
ENDBRANCH  41  65
BRANCH  53  76
ATOM     76  C   UNL A   1      45.091  33.390  29.223  1.00  0.00     0.023 A 
ATOM     77  C   UNL A   1      44.872  34.455  28.328  1.00  0.00     0.031 A 
ATOM     78  C   UNL A   1      46.070  33.539  30.217  1.00  0.00     0.131 A 
ATOM     79  C   UNL A   1      45.657  35.610  28.422  1.00  0.00     0.055 A 
ATOM     80  C   UNL A   1      46.823  34.708  30.330  1.00  0.00     0.041 A 
ATOM     81  F   UNL A   1      46.317  32.545  31.085  1.00  0.00    -0.206 F 
ATOM     82  C   UNL A   1      46.626  35.746  29.421  1.00  0.00     0.022 A 
BRANCH  79  83
ATOM     83  S   UNL A   1      45.495  36.950  27.210  1.00  0.00     0.124 S 
ATOM     84  O   UNL A   1      44.070  36.902  26.890  1.00  0.00    -0.237 OA
ATOM     85  O   UNL A   1      45.923  38.113  27.982  1.00  0.00    -0.237 OA
ATOM     86  O   UNL A   1      46.387  36.552  26.125  1.00  0.00    -0.744 OA
ENDBRANCH  79  83
ENDBRANCH  53  76
ENDBRANCH  27  28
ENDBRANCH  20  22
ENDBRANCH   1  20
TORSDOF 14
ENDMDL
MODEL 3
REMARK VINA RESULT:     -11.7      5.403     10.538
REMARK SMILES Cc1ccc2c(c1C)O[C@@H](C(=O)OCCOC(=O)c1ccc(-c3c4nc(c(-c5cc(S(=O)(=O)[O-])ccc5F)c5ccc([nH]5)c(-c5cc(S(=O)(=O)[O-])ccc5F)c5nc(c(-c6cc(S(=O)(=O)[O-])ccc6F)c6ccc3[nH]6)C=C5)C=C4)cc1)CC2=O
REMARK SMILES IDX 16 1 15 2 14 3 13 4 11 5 12 6 10 7 1 8 2 9 3 10 7 11 4 12
REMARK SMILES IDX 6 13 8 14 5 15 9 16 83 17 82 18 84 19 17 20 18 21 19 22
REMARK SMILES IDX 20 23 81 24 21 25 80 26 22 27 23 28 24 29 74 30 25 31 79 32
REMARK SMILES IDX 73 33 75 34 26 35 78 36 72 37 71 38 27 40 59 41 39 42 58 43
REMARK SMILES IDX 40 44 43 45 57 46 76 47 41 48 42 49 56 51 77 52 44 53 28 54
REMARK SMILES IDX 29 55 37 56 30 57 36 58 38 59 35 60 31 61 32 62 33 63 34 64
REMARK SMILES IDX 60 65 61 66 69 67 62 68 68 69 70 70 67 71 63 72 64 73 65 74
REMARK SMILES IDX 66 75 45 76 46 77 54 78 47 79 53 80 55 81 52 82 48 83 49 84
REMARK SMILES IDX 50 85 51 86
REMARK H PARENT 75 39 43 50
REMARK Flexibility Score: inf
ROOT
ATOM      1  O   UNL A   1      32.898  30.919  27.346  1.00  0.00    -0.458 OA
ENDROOT
BRANCH   1   2
ATOM      2  C   UNL A   1      31.805  31.208  26.458  1.00  0.00     0.275 C 
BRANCH   2   3
ATOM      3  C   UNL A   1      31.535  30.030  25.521  1.00  0.00     0.274 C 
BRANCH   3   4
ATOM      4  O   UNL A   1      32.712  29.705  24.756  1.00  0.00    -0.459 OA
BRANCH   4   5
ATOM      5  C   UNL A   1      33.171  28.429  24.854  1.00  0.00     0.347 C 
ATOM      6  O   UNL A   1      33.530  27.898  25.899  1.00  0.00    -0.248 OA
BRANCH   5   7
ATOM      7  C   UNL A   1      33.256  27.721  23.490  1.00  0.00     0.290 C 
ATOM      8  C   UNL A   1      27.311  28.715  23.075  1.00  0.00     0.045 C 
ATOM      9  C   UNL A   1      28.595  27.941  23.210  1.00  0.00    -0.044 A 
ATOM     10  C   UNL A   1      28.507  26.671  23.815  1.00  0.00     0.005 A 
ATOM     11  C   UNL A   1      29.847  28.410  22.757  1.00  0.00    -0.005 A 
ATOM     12  C   UNL A   1      29.637  25.880  24.003  1.00  0.00     0.016 A 
ATOM     13  C   UNL A   1      30.986  27.619  22.997  1.00  0.00     0.134 A 
ATOM     14  C   UNL A   1      30.035  29.759  22.110  1.00  0.00     0.049 C 
ATOM     15  C   UNL A   1      30.877  26.362  23.599  1.00  0.00     0.060 A 
ATOM     16  O   UNL A   1      32.203  28.127  22.615  1.00  0.00    -0.477 OA
ATOM     17  C   UNL A   1      32.092  25.554  23.811  1.00  0.00     0.170 C 
ATOM     18  C   UNL A   1      33.411  26.210  23.508  1.00  0.00     0.138 C 
ATOM     19  O   UNL A   1      32.007  24.386  24.178  1.00  0.00    -0.294 OA
ENDBRANCH   5   7
ENDBRANCH   4   5
ENDBRANCH   3   4
ENDBRANCH   2   3
ENDBRANCH   1   2
BRANCH   1  20
ATOM     20  C   UNL A   1      33.700  31.972  27.621  1.00  0.00     0.338 C 
ATOM     21  O   UNL A   1      33.407  33.154  27.605  1.00  0.00    -0.246 OA
BRANCH  20  22
ATOM     22  C   UNL A   1      35.008  31.489  28.069  1.00  0.00     0.060 A 
ATOM     23  C   UNL A   1      35.124  30.163  28.493  1.00  0.00     0.016 A 
ATOM     24  C   UNL A   1      36.074  32.379  28.188  1.00  0.00     0.016 A 
ATOM     25  C   UNL A   1      36.309  29.724  29.072  1.00  0.00     0.010 A 
ATOM     26  C   UNL A   1      37.269  31.932  28.750  1.00  0.00     0.010 A 
ATOM     27  C   UNL A   1      37.383  30.611  29.216  1.00  0.00    -0.014 A 
BRANCH  27  28
ATOM     28  C   UNL A   1      38.618  30.168  29.895  1.00  0.00     0.031 A 
ATOM     29  C   UNL A   1      39.503  29.151  29.237  1.00  0.00     0.074 A 
ATOM     30  C   UNL A   1      38.933  30.683  31.096  1.00  0.00     0.049 A 
ATOM     31  N   UNL A   1      40.580  28.576  29.701  1.00  0.00    -0.248 NA
ATOM     32  C   UNL A   1      39.131  28.729  27.877  1.00  0.00     0.031 C 
ATOM     33  C   UNL A   1      38.161  31.711  31.794  1.00  0.00     0.029 A 
ATOM     34  N   UNL A   1      39.975  30.409  31.943  1.00  0.00    -0.354 N 
ATOM     35  C   UNL A   1      41.011  27.717  28.697  1.00  0.00     0.074 A 
ATOM     36  C   UNL A   1      40.067  27.829  27.607  1.00  0.00     0.031 C 
ATOM     37  C   UNL A   1      38.754  31.976  32.969  1.00  0.00     0.029 A 
ATOM     38  C   UNL A   1      39.917  31.105  33.126  1.00  0.00     0.049 A 
ATOM     39  H   UNL A   1      40.695  29.773  31.726  1.00  0.00     0.167 HD
ATOM     40  C   UNL A   1      42.101  26.916  28.691  1.00  0.00     0.034 A 
ATOM     41  C   UNL A   1      40.696  31.028  34.224  1.00  0.00     0.034 A 
ATOM     42  C   UNL A   1      43.028  26.818  29.787  1.00  0.00     0.049 A 
ATOM     43  C   UNL A   1      41.862  30.075  34.220  1.00  0.00     0.074 A 
ATOM     44  C   UNL A   1      44.166  26.038  29.877  1.00  0.00     0.029 A 
ATOM     45  N   UNL A   1      42.926  27.521  30.980  1.00  0.00    -0.354 N 
ATOM     46  N   UNL A   1      42.274  29.283  33.258  1.00  0.00    -0.248 NA
ATOM     47  C   UNL A   1      42.670  29.999  35.445  1.00  0.00     0.031 C 
ATOM     48  C   UNL A   1      44.730  26.238  31.140  1.00  0.00     0.029 A 
ATOM     49  C   UNL A   1      43.971  27.177  31.820  1.00  0.00     0.049 A 
ATOM     50  H   UNL A   1      42.216  28.168  31.195  1.00  0.00     0.167 HD
ATOM     51  C   UNL A   1      43.399  28.631  33.752  1.00  0.00     0.074 A 
ATOM     52  C   UNL A   1      43.613  29.132  35.094  1.00  0.00     0.031 C 
ATOM     53  C   UNL A   1      44.180  27.701  33.148  1.00  0.00     0.034 A 
BRANCH  40  54
ATOM     54  C   UNL A   1      42.364  26.078  27.470  1.00  0.00     0.023 A 
ATOM     55  C   UNL A   1      41.964  24.730  27.441  1.00  0.00     0.031 A 
ATOM     56  C   UNL A   1      43.101  26.582  26.384  1.00  0.00     0.131 A 
ATOM     57  C   UNL A   1      42.326  23.923  26.355  1.00  0.00     0.055 A 
ATOM     58  C   UNL A   1      43.434  25.781  25.292  1.00  0.00     0.041 A 
ATOM     59  F   UNL A   1      43.497  27.865  26.368  1.00  0.00    -0.206 F 
ATOM     60  C   UNL A   1      43.054  24.442  25.279  1.00  0.00     0.022 A 
BRANCH  57  61
ATOM     61  S   UNL A   1      41.888  22.164  26.309  1.00  0.00     0.124 S 
ATOM     62  O   UNL A   1      42.708  21.677  25.202  1.00  0.00    -0.237 OA
ATOM     63  O   UNL A   1      42.297  21.714  27.636  1.00  0.00    -0.237 OA
ATOM     64  O   UNL A   1      40.450  22.168  26.056  1.00  0.00    -0.744 OA
ENDBRANCH  57  61
ENDBRANCH  40  54
BRANCH  41  65
ATOM     65  C   UNL A   1      40.396  31.905  35.390  1.00  0.00     0.023 A 
ATOM     66  C   UNL A   1      39.348  31.595  36.278  1.00  0.00     0.031 A 
ATOM     67  C   UNL A   1      41.085  33.114  35.572  1.00  0.00     0.131 A 
ATOM     68  C   UNL A   1      38.985  32.515  37.271  1.00  0.00     0.055 A 
ATOM     69  C   UNL A   1      40.756  34.000  36.600  1.00  0.00     0.041 A 
ATOM     70  F   UNL A   1      42.084  33.453  34.742  1.00  0.00    -0.206 F 
ATOM     71  C   UNL A   1      39.692  33.707  37.447  1.00  0.00     0.022 A 
BRANCH  68  72
ATOM     72  S   UNL A   1      37.521  32.236  38.305  1.00  0.00     0.124 S 
ATOM     73  O   UNL A   1      37.996  32.642  39.625  1.00  0.00    -0.237 OA
ATOM     74  O   UNL A   1      36.545  33.128  37.685  1.00  0.00    -0.237 OA
ATOM     75  O   UNL A   1      37.251  30.811  38.146  1.00  0.00    -0.744 OA
ENDBRANCH  68  72
ENDBRANCH  41  65
BRANCH  53  76
ATOM     76  C   UNL A   1      45.358  27.150  33.909  1.00  0.00     0.023 A 
ATOM     77  C   UNL A   1      45.171  26.089  34.815  1.00  0.00     0.031 A 
ATOM     78  C   UNL A   1      46.613  27.777  33.859  1.00  0.00     0.131 A 
ATOM     79  C   UNL A   1      46.216  25.714  35.667  1.00  0.00     0.055 A 
ATOM     80  C   UNL A   1      47.663  27.373  34.683  1.00  0.00     0.041 A 
ATOM     81  F   UNL A   1      46.831  28.799  33.016  1.00  0.00    -0.206 F 
ATOM     82  C   UNL A   1      47.463  26.345  35.602  1.00  0.00     0.022 A 
BRANCH  79  83
ATOM     83  S   UNL A   1      45.976  24.440  36.935  1.00  0.00     0.124 S 
ATOM     84  O   UNL A   1      44.541  24.531  37.192  1.00  0.00    -0.237 OA
ATOM     85  O   UNL A   1      46.410  23.232  36.241  1.00  0.00    -0.237 OA
ATOM     86  O   UNL A   1      46.831  24.874  38.036  1.00  0.00    -0.744 OA
ENDBRANCH  79  83
ENDBRANCH  53  76
ENDBRANCH  27  28
ENDBRANCH  20  22
ENDBRANCH   1  20
TORSDOF 14
ENDMDL
