MODEL 1
REMARK VINA RESULT:     -10.9      0.000      0.000
REMARK SMILES CC[C@H](Nc1cccc(C(F)(F)F)c1)C(=O)OCCOC(=O)c1ccc(-c2c3nc(c(-c4cc(S(=O)(=O)[O-])ccc4F)c4ccc([nH]4)c(-c4cc(S(=O)(=O)[O-])ccc4F)c4nc(c(-c5cc(S(=O)(=O)[O-])ccc5F)c5ccc2[nH]5)C=C4)C=C3)cc1
REMARK SMILES IDX 18 1 17 2 15 3 16 4 3 5 2 6 1 7 4 8 5 10 6 11 14 12 7 13
REMARK SMILES IDX 9 14 8 15 10 16 11 17 12 18 13 19 19 20 20 21 21 22 22 23
REMARK SMILES IDX 23 24 24 25 85 26 25 27 84 28 26 29 27 30 28 31 78 32 29 33
REMARK SMILES IDX 83 34 77 35 79 36 30 37 82 38 76 39 75 40 31 42 63 43 43 44
REMARK SMILES IDX 62 45 44 46 47 47 61 48 80 49 45 50 46 51 60 53 81 54 48 55
REMARK SMILES IDX 32 56 33 57 41 58 34 59 40 60 42 61 39 62 35 63 36 64 37 65
REMARK SMILES IDX 38 66 64 67 65 68 73 69 66 70 72 71 74 72 71 73 67 74 68 75
REMARK SMILES IDX 69 76 70 77 49 78 50 79 58 80 51 81 57 82 59 83 56 84 52 85
REMARK SMILES IDX 53 86 54 87 55 88
REMARK H PARENT 4 9 79 41 47 52
REMARK Flexibility Score: inf
ROOT
ATOM      1  C   UNL A   1      36.426  22.752  23.600  1.00  0.00     0.274 C 
ENDROOT
BRANCH   1   2
ATOM      2  O   UNL A   1      35.040  23.065  23.382  1.00  0.00    -0.461 OA
BRANCH   2   3
ATOM      3  C   UNL A   1      34.406  23.572  24.476  1.00  0.00     0.328 C 
ATOM      4  O   UNL A   1      34.848  24.500  25.152  1.00  0.00    -0.250 OA
BRANCH   3   5
ATOM      5  C   UNL A   1      33.096  22.860  24.839  1.00  0.00     0.189 C 
BRANCH   5   6
ATOM      6  C   UNL A   1      32.516  23.647  26.037  1.00  0.00     0.033 C 
ATOM      7  C   UNL A   1      32.501  22.859  27.334  1.00  0.00     0.007 C 
ENDBRANCH   5   6
BRANCH   5   8
ATOM      8  N   UNL A   1      33.237  21.449  25.223  1.00  0.00    -0.372 N 
ATOM      9  H   UNL A   1      33.493  21.263  26.156  1.00  0.00     0.161 HD
BRANCH   8  10
ATOM     10  C   UNL A   1      33.044  20.360  24.395  1.00  0.00     0.035 A 
ATOM     11  C   UNL A   1      32.270  20.537  23.239  1.00  0.00     0.026 A 
ATOM     12  C   UNL A   1      33.608  19.097  24.605  1.00  0.00     0.038 A 
ATOM     13  C   UNL A   1      32.048  19.498  22.332  1.00  0.00     0.003 A 
ATOM     14  C   UNL A   1      33.365  18.022  23.720  1.00  0.00     0.058 A 
ATOM     15  C   UNL A   1      32.590  18.243  22.574  1.00  0.00     0.013 A 
BRANCH  14  16
ATOM     16  C   UNL A   1      33.920  16.639  23.964  1.00  0.00     0.416 C 
ATOM     17  F   UNL A   1      34.420  16.069  22.829  1.00  0.00    -0.166 F 
ATOM     18  F   UNL A   1      34.935  16.631  24.869  1.00  0.00    -0.166 F 
ATOM     19  F   UNL A   1      32.997  15.761  24.433  1.00  0.00    -0.166 F 
ENDBRANCH  14  16
ENDBRANCH   8  10
ENDBRANCH   5   8
ENDBRANCH   3   5
ENDBRANCH   2   3
ENDBRANCH   1   2
BRANCH   1  20
ATOM     20  C   UNL A   1      36.601  21.456  24.389  1.00  0.00     0.275 C 
BRANCH  20  21
ATOM     21  O   UNL A   1      37.159  21.721  25.688  1.00  0.00    -0.458 OA
BRANCH  21  22
ATOM     22  C   UNL A   1      38.452  21.361  25.849  1.00  0.00     0.338 C 
ATOM     23  O   UNL A   1      38.921  20.254  25.613  1.00  0.00    -0.246 OA
BRANCH  22  24
ATOM     24  C   UNL A   1      39.260  22.486  26.376  1.00  0.00     0.060 A 
ATOM     25  C   UNL A   1      40.325  22.296  27.265  1.00  0.00     0.016 A 
ATOM     26  C   UNL A   1      38.880  23.785  26.031  1.00  0.00     0.016 A 
ATOM     27  C   UNL A   1      40.978  23.398  27.828  1.00  0.00     0.010 A 
ATOM     28  C   UNL A   1      39.578  24.883  26.540  1.00  0.00     0.010 A 
ATOM     29  C   UNL A   1      40.633  24.703  27.448  1.00  0.00    -0.014 A 
BRANCH  29  30
ATOM     30  C   UNL A   1      41.395  25.887  27.936  1.00  0.00     0.031 A 
ATOM     31  C   UNL A   1      40.708  26.983  28.706  1.00  0.00     0.074 A 
ATOM     32  C   UNL A   1      42.699  26.013  27.618  1.00  0.00     0.049 A 
ATOM     33  N   UNL A   1      41.151  28.172  29.027  1.00  0.00    -0.248 NA
ATOM     34  C   UNL A   1      39.340  26.706  29.166  1.00  0.00     0.031 C 
ATOM     35  C   UNL A   1      43.494  25.019  26.894  1.00  0.00     0.029 A 
ATOM     36  N   UNL A   1      43.581  27.042  27.841  1.00  0.00    -0.354 N 
ATOM     37  C   UNL A   1      40.108  28.802  29.698  1.00  0.00     0.074 A 
ATOM     38  C   UNL A   1      39.006  27.861  29.729  1.00  0.00     0.031 C 
ATOM     39  C   UNL A   1      44.743  25.482  26.737  1.00  0.00     0.029 A 
ATOM     40  C   UNL A   1      44.819  26.835  27.275  1.00  0.00     0.049 A 
ATOM     41  H   UNL A   1      43.351  27.849  28.356  1.00  0.00     0.167 HD
ATOM     42  C   UNL A   1      40.073  30.049  30.233  1.00  0.00     0.034 A 
ATOM     43  C   UNL A   1      45.880  27.655  27.151  1.00  0.00     0.034 A 
ATOM     44  C   UNL A   1      41.183  30.974  30.208  1.00  0.00     0.049 A 
ATOM     45  C   UNL A   1      45.795  29.056  27.690  1.00  0.00     0.074 A 
ATOM     46  C   UNL A   1      41.261  32.244  30.759  1.00  0.00     0.029 A 
ATOM     47  N   UNL A   1      42.406  30.738  29.594  1.00  0.00    -0.354 N 
ATOM     48  N   UNL A   1      44.793  29.647  28.297  1.00  0.00    -0.248 NA
ATOM     49  C   UNL A   1      46.981  29.903  27.516  1.00  0.00     0.031 C 
ATOM     50  C   UNL A   1      42.504  32.795  30.426  1.00  0.00     0.029 A 
ATOM     51  C   UNL A   1      43.230  31.848  29.725  1.00  0.00     0.049 A 
ATOM     52  H   UNL A   1      42.653  29.904  29.132  1.00  0.00     0.167 HD
ATOM     53  C   UNL A   1      45.236  30.933  28.592  1.00  0.00     0.074 A 
ATOM     54  C   UNL A   1      46.598  31.025  28.108  1.00  0.00     0.031 C 
ATOM     55  C   UNL A   1      44.577  31.942  29.213  1.00  0.00     0.034 A 
BRANCH  42  56
ATOM     56  C   UNL A   1      38.772  30.510  30.846  1.00  0.00     0.023 A 
ATOM     57  C   UNL A   1      37.818  31.237  30.114  1.00  0.00     0.031 A 
ATOM     58  C   UNL A   1      38.487  30.211  32.191  1.00  0.00     0.131 A 
ATOM     59  C   UNL A   1      36.644  31.681  30.745  1.00  0.00     0.055 A 
ATOM     60  C   UNL A   1      37.291  30.603  32.794  1.00  0.00     0.041 A 
ATOM     61  F   UNL A   1      39.370  29.534  32.942  1.00  0.00    -0.206 F 
ATOM     62  C   UNL A   1      36.366  31.351  32.074  1.00  0.00     0.022 A 
BRANCH  59  63
ATOM     63  S   UNL A   1      35.527  32.785  29.835  1.00  0.00     0.124 S 
ATOM     64  O   UNL A   1      34.851  33.489  30.922  1.00  0.00    -0.237 OA
ATOM     65  O   UNL A   1      36.451  33.582  29.037  1.00  0.00    -0.237 OA
ATOM     66  O   UNL A   1      34.680  31.868  29.076  1.00  0.00    -0.744 OA
ENDBRANCH  59  63
ENDBRANCH  42  56
BRANCH  43  67
ATOM     67  C   UNL A   1      47.095  27.196  26.423  1.00  0.00     0.023 A 
ATOM     68  C   UNL A   1      48.121  26.510  27.089  1.00  0.00     0.031 A 
ATOM     69  C   UNL A   1      47.255  27.460  25.050  1.00  0.00     0.131 A 
ATOM     70  C   UNL A   1      49.277  26.135  26.388  1.00  0.00     0.055 A 
ATOM     71  C   UNL A   1      48.386  27.044  24.347  1.00  0.00     0.041 A 
ATOM     72  F   UNL A   1      46.299  28.112  24.368  1.00  0.00    -0.206 F 
ATOM     73  C   UNL A   1      49.410  26.386  25.020  1.00  0.00     0.022 A 
BRANCH  70  74
ATOM     74  S   UNL A   1      50.636  25.364  27.306  1.00  0.00     0.124 S 
ATOM     75  O   UNL A   1      51.055  26.450  28.186  1.00  0.00    -0.237 OA
ATOM     76  O   UNL A   1      49.967  24.238  27.951  1.00  0.00    -0.237 OA
ATOM     77  O   UNL A   1      51.591  25.003  26.262  1.00  0.00    -0.744 OA
ENDBRANCH  70  74
ENDBRANCH  43  67
BRANCH  55  78
ATOM     78  C   UNL A   1      45.348  33.219  29.431  1.00  0.00     0.023 A 
ATOM     79  C   UNL A   1      45.444  34.202  28.430  1.00  0.00     0.031 A 
ATOM     80  C   UNL A   1      46.030  33.433  30.640  1.00  0.00     0.131 A 
ATOM     81  C   UNL A   1      46.251  35.332  28.637  1.00  0.00     0.055 A 
ATOM     82  C   UNL A   1      46.792  34.582  30.859  1.00  0.00     0.041 A 
ATOM     83  F   UNL A   1      45.977  32.523  31.625  1.00  0.00    -0.206 F 
ATOM     84  C   UNL A   1      46.915  35.533  29.850  1.00  0.00     0.022 A 
BRANCH  81  85
ATOM     85  S   UNL A   1      46.493  36.495  27.266  1.00  0.00     0.124 S 
ATOM     86  O   UNL A   1      45.661  37.622  27.672  1.00  0.00    -0.237 OA
ATOM     87  O   UNL A   1      47.935  36.722  27.299  1.00  0.00    -0.237 OA
ATOM     88  O   UNL A   1      46.011  35.757  26.100  1.00  0.00    -0.744 OA
ENDBRANCH  81  85
ENDBRANCH  55  78
ENDBRANCH  29  30
ENDBRANCH  22  24
ENDBRANCH  21  22
ENDBRANCH  20  21
ENDBRANCH   1  20
TORSDOF 18
ENDMDL
MODEL 2
REMARK VINA RESULT:     -10.8      1.999      2.337
REMARK SMILES CC[C@H](Nc1cccc(C(F)(F)F)c1)C(=O)OCCOC(=O)c1ccc(-c2c3nc(c(-c4cc(S(=O)(=O)[O-])ccc4F)c4ccc([nH]4)c(-c4cc(S(=O)(=O)[O-])ccc4F)c4nc(c(-c5cc(S(=O)(=O)[O-])ccc5F)c5ccc2[nH]5)C=C4)C=C3)cc1
REMARK SMILES IDX 18 1 17 2 15 3 16 4 3 5 2 6 1 7 4 8 5 10 6 11 14 12 7 13
REMARK SMILES IDX 9 14 8 15 10 16 11 17 12 18 13 19 19 20 20 21 21 22 22 23
REMARK SMILES IDX 23 24 24 25 85 26 25 27 84 28 26 29 27 30 28 31 78 32 29 33
REMARK SMILES IDX 83 34 77 35 79 36 30 37 82 38 76 39 75 40 31 42 63 43 43 44
REMARK SMILES IDX 62 45 44 46 47 47 61 48 80 49 45 50 46 51 60 53 81 54 48 55
REMARK SMILES IDX 32 56 33 57 41 58 34 59 40 60 42 61 39 62 35 63 36 64 37 65
REMARK SMILES IDX 38 66 64 67 65 68 73 69 66 70 72 71 74 72 71 73 67 74 68 75
REMARK SMILES IDX 69 76 70 77 49 78 50 79 58 80 51 81 57 82 59 83 56 84 52 85
REMARK SMILES IDX 53 86 54 87 55 88
REMARK H PARENT 4 9 79 41 47 52
REMARK Flexibility Score: inf
ROOT
ATOM      1  C   UNL A   1      36.696  22.857  23.672  1.00  0.00     0.274 C 
ENDROOT
BRANCH   1   2
ATOM      2  O   UNL A   1      35.679  23.599  24.368  1.00  0.00    -0.461 OA
BRANCH   2   3
ATOM      3  C   UNL A   1      34.436  23.483  23.824  1.00  0.00     0.328 C 
ATOM      4  O   UNL A   1      34.172  23.766  22.657  1.00  0.00    -0.250 OA
BRANCH   3   5
ATOM      5  C   UNL A   1      33.355  23.007  24.803  1.00  0.00     0.189 C 
BRANCH   5   6
ATOM      6  C   UNL A   1      33.504  23.905  26.053  1.00  0.00     0.033 C 
ATOM      7  C   UNL A   1      32.285  24.765  26.335  1.00  0.00     0.007 C 
ENDBRANCH   5   6
BRANCH   5   8
ATOM      8  N   UNL A   1      33.460  21.601  25.215  1.00  0.00    -0.372 N 
ATOM      9  H   UNL A   1      33.751  21.426  26.141  1.00  0.00     0.161 HD
BRANCH   8  10
ATOM     10  C   UNL A   1      33.189  20.501  24.423  1.00  0.00     0.035 A 
ATOM     11  C   UNL A   1      32.351  20.676  23.313  1.00  0.00     0.026 A 
ATOM     12  C   UNL A   1      33.733  19.228  24.626  1.00  0.00     0.038 A 
ATOM     13  C   UNL A   1      32.047  19.626  22.444  1.00  0.00     0.003 A 
ATOM     14  C   UNL A   1      33.409  18.143  23.780  1.00  0.00     0.058 A 
ATOM     15  C   UNL A   1      32.571  18.362  22.679  1.00  0.00     0.013 A 
BRANCH  14  16
ATOM     16  C   UNL A   1      33.943  16.751  24.019  1.00  0.00     0.416 C 
ATOM     17  F   UNL A   1      34.318  16.130  22.863  1.00  0.00    -0.166 F 
ATOM     18  F   UNL A   1      35.036  16.737  24.827  1.00  0.00    -0.166 F 
ATOM     19  F   UNL A   1      33.042  15.918  24.601  1.00  0.00    -0.166 F 
ENDBRANCH  14  16
ENDBRANCH   8  10
ENDBRANCH   5   8
ENDBRANCH   3   5
ENDBRANCH   2   3
ENDBRANCH   1   2
BRANCH   1  20
ATOM     20  C   UNL A   1      36.979  21.514  24.339  1.00  0.00     0.275 C 
BRANCH  20  21
ATOM     21  O   UNL A   1      37.353  21.697  25.717  1.00  0.00    -0.458 OA
BRANCH  21  22
ATOM     22  C   UNL A   1      38.654  21.465  26.001  1.00  0.00     0.338 C 
ATOM     23  O   UNL A   1      39.233  20.392  25.879  1.00  0.00    -0.246 OA
BRANCH  22  24
ATOM     24  C   UNL A   1      39.319  22.689  26.508  1.00  0.00     0.060 A 
ATOM     25  C   UNL A   1      38.913  23.975  26.132  1.00  0.00     0.016 A 
ATOM     26  C   UNL A   1      40.443  22.536  27.322  1.00  0.00     0.016 A 
ATOM     27  C   UNL A   1      39.648  25.093  26.540  1.00  0.00     0.010 A 
ATOM     28  C   UNL A   1      41.135  23.658  27.787  1.00  0.00     0.010 A 
ATOM     29  C   UNL A   1      40.749  24.950  27.398  1.00  0.00    -0.014 A 
BRANCH  29  30
ATOM     30  C   UNL A   1      41.471  26.132  27.948  1.00  0.00     0.031 A 
ATOM     31  C   UNL A   1      40.744  27.173  28.756  1.00  0.00     0.074 A 
ATOM     32  C   UNL A   1      42.775  26.308  27.653  1.00  0.00     0.049 A 
ATOM     33  N   UNL A   1      41.149  28.359  29.134  1.00  0.00    -0.248 NA
ATOM     34  C   UNL A   1      39.378  26.838  29.185  1.00  0.00     0.031 C 
ATOM     35  C   UNL A   1      43.606  25.369  26.897  1.00  0.00     0.029 A 
ATOM     36  N   UNL A   1      43.625  27.349  27.934  1.00  0.00    -0.354 N 
ATOM     37  C   UNL A   1      40.080  28.929  29.819  1.00  0.00     0.074 A 
ATOM     38  C   UNL A   1      39.005  27.957  29.793  1.00  0.00     0.031 C 
ATOM     39  C   UNL A   1      44.844  25.873  26.778  1.00  0.00     0.029 A 
ATOM     40  C   UNL A   1      44.875  27.203  27.376  1.00  0.00     0.049 A 
ATOM     41  H   UNL A   1      43.366  28.126  28.480  1.00  0.00     0.167 HD
ATOM     42  C   UNL A   1      40.004  30.150  30.408  1.00  0.00     0.034 A 
ATOM     43  C   UNL A   1      45.914  28.056  27.303  1.00  0.00     0.034 A 
ATOM     44  C   UNL A   1      41.087  31.105  30.439  1.00  0.00     0.049 A 
ATOM     45  C   UNL A   1      45.782  29.429  27.902  1.00  0.00     0.074 A 
ATOM     46  C   UNL A   1      41.122  32.350  31.046  1.00  0.00     0.029 A 
ATOM     47  N   UNL A   1      42.324  30.931  29.832  1.00  0.00    -0.354 N 
ATOM     48  N   UNL A   1      44.757  29.964  28.521  1.00  0.00    -0.248 NA
ATOM     49  C   UNL A   1      46.947  30.316  27.781  1.00  0.00     0.031 C 
ATOM     50  C   UNL A   1      42.354  32.950  30.755  1.00  0.00     0.029 A 
ATOM     51  C   UNL A   1      43.114  32.056  30.022  1.00  0.00     0.049 A 
ATOM     52  H   UNL A   1      42.600  30.125  29.337  1.00  0.00     0.167 HD
ATOM     53  C   UNL A   1      45.160  31.247  28.878  1.00  0.00     0.074 A 
ATOM     54  C   UNL A   1      46.524  31.399  28.417  1.00  0.00     0.031 C 
ATOM     55  C   UNL A   1      44.464  32.210  29.534  1.00  0.00     0.034 A 
BRANCH  42  56
ATOM     56  C   UNL A   1      38.683  30.547  31.022  1.00  0.00     0.023 A 
ATOM     57  C   UNL A   1      37.671  31.176  30.277  1.00  0.00     0.031 A 
ATOM     58  C   UNL A   1      38.437  30.286  32.383  1.00  0.00     0.131 A 
ATOM     59  C   UNL A   1      36.479  31.566  30.908  1.00  0.00     0.055 A 
ATOM     60  C   UNL A   1      37.225  30.621  32.989  1.00  0.00     0.041 A 
ATOM     61  F   UNL A   1      39.374  29.701  33.147  1.00  0.00    -0.206 F 
ATOM     62  C   UNL A   1      36.241  31.273  32.254  1.00  0.00     0.022 A 
BRANCH  59  63
ATOM     63  S   UNL A   1      35.277  32.553  29.973  1.00  0.00     0.124 S 
ATOM     64  O   UNL A   1      34.268  32.839  30.989  1.00  0.00    -0.237 OA
ATOM     65  O   UNL A   1      36.077  33.689  29.530  1.00  0.00    -0.237 OA
ATOM     66  O   UNL A   1      34.840  31.648  28.911  1.00  0.00    -0.744 OA
ENDBRANCH  59  63
ENDBRANCH  42  56
BRANCH  43  67
ATOM     67  C   UNL A   1      47.150  27.664  26.572  1.00  0.00     0.023 A 
ATOM     68  C   UNL A   1      47.260  27.846  25.186  1.00  0.00     0.031 A 
ATOM     69  C   UNL A   1      48.233  27.078  27.253  1.00  0.00     0.131 A 
ATOM     70  C   UNL A   1      48.417  27.419  24.517  1.00  0.00     0.055 A 
ATOM     71  C   UNL A   1      49.400  26.697  26.590  1.00  0.00     0.041 A 
ATOM     72  F   UNL A   1      48.176  26.884  28.581  1.00  0.00    -0.206 F 
ATOM     73  C   UNL A   1      49.492  26.858  25.211  1.00  0.00     0.022 A 
BRANCH  70  74
ATOM     74  S   UNL A   1      48.473  27.553  22.710  1.00  0.00     0.124 S 
ATOM     75  O   UNL A   1      47.213  28.227  22.421  1.00  0.00    -0.237 OA
ATOM     76  O   UNL A   1      49.684  28.341  22.502  1.00  0.00    -0.237 OA
ATOM     77  O   UNL A   1      48.554  26.162  22.268  1.00  0.00    -0.744 OA
ENDBRANCH  70  74
ENDBRANCH  43  67
BRANCH  55  78
ATOM     78  C   UNL A   1      45.196  33.496  29.818  1.00  0.00     0.023 A 
ATOM     79  C   UNL A   1      45.929  33.681  31.005  1.00  0.00     0.031 A 
ATOM     80  C   UNL A   1      45.123  34.565  28.909  1.00  0.00     0.131 A 
ATOM     81  C   UNL A   1      46.515  34.927  31.275  1.00  0.00     0.055 A 
ATOM     82  C   UNL A   1      45.750  35.787  29.161  1.00  0.00     0.041 A 
ATOM     83  F   UNL A   1      44.431  34.443  27.766  1.00  0.00    -0.206 F 
ATOM     84  C   UNL A   1      46.441  35.977  30.354  1.00  0.00     0.022 A 
BRANCH  81  85
ATOM     85  S   UNL A   1      47.305  35.190  32.887  1.00  0.00     0.124 S 
ATOM     86  O   UNL A   1      48.270  34.097  32.935  1.00  0.00    -0.237 OA
ATOM     87  O   UNL A   1      47.866  36.530  32.746  1.00  0.00    -0.237 OA
ATOM     88  O   UNL A   1      46.198  35.080  33.835  1.00  0.00    -0.744 OA
ENDBRANCH  81  85
ENDBRANCH  55  78
ENDBRANCH  29  30
ENDBRANCH  22  24
ENDBRANCH  21  22
ENDBRANCH  20  21
ENDBRANCH   1  20
TORSDOF 18
ENDMDL
MODEL 3
REMARK VINA RESULT:     -10.6      4.882      9.792
REMARK SMILES CC[C@H](Nc1cccc(C(F)(F)F)c1)C(=O)OCCOC(=O)c1ccc(-c2c3nc(c(-c4cc(S(=O)(=O)[O-])ccc4F)c4ccc([nH]4)c(-c4cc(S(=O)(=O)[O-])ccc4F)c4nc(c(-c5cc(S(=O)(=O)[O-])ccc5F)c5ccc2[nH]5)C=C4)C=C3)cc1
REMARK SMILES IDX 18 1 17 2 15 3 16 4 3 5 2 6 1 7 4 8 5 10 6 11 14 12 7 13
REMARK SMILES IDX 9 14 8 15 10 16 11 17 12 18 13 19 19 20 20 21 21 22 22 23
REMARK SMILES IDX 23 24 24 25 85 26 25 27 84 28 26 29 27 30 28 31 78 32 29 33
REMARK SMILES IDX 83 34 77 35 79 36 30 37 82 38 76 39 75 40 31 42 63 43 43 44
REMARK SMILES IDX 62 45 44 46 47 47 61 48 80 49 45 50 46 51 60 53 81 54 48 55
REMARK SMILES IDX 32 56 33 57 41 58 34 59 40 60 42 61 39 62 35 63 36 64 37 65
REMARK SMILES IDX 38 66 64 67 65 68 73 69 66 70 72 71 74 72 71 73 67 74 68 75
REMARK SMILES IDX 69 76 70 77 49 78 50 79 58 80 51 81 57 82 59 83 56 84 52 85
REMARK SMILES IDX 53 86 54 87 55 88
REMARK H PARENT 4 9 79 41 47 52
REMARK Flexibility Score: inf
ROOT
ATOM      1  C   UNL A   1      31.977  28.193  26.136  1.00  0.00     0.274 C 
ENDROOT
BRANCH   1   2
ATOM      2  O   UNL A   1      31.751  27.370  24.979  1.00  0.00    -0.461 OA
BRANCH   2   3
ATOM      3  C   UNL A   1      32.842  26.659  24.579  1.00  0.00     0.328 C 
ATOM      4  O   UNL A   1      33.916  27.174  24.272  1.00  0.00    -0.250 OA
BRANCH   3   5
ATOM      5  C   UNL A   1      32.619  25.144  24.496  1.00  0.00     0.189 C 
BRANCH   5   6
ATOM      6  C   UNL A   1      31.085  24.950  24.510  1.00  0.00     0.033 C 
ATOM      7  C   UNL A   1      30.555  24.193  23.306  1.00  0.00     0.007 C 
ENDBRANCH   5   6
BRANCH   5   8
ATOM      8  N   UNL A   1      33.205  24.364  25.594  1.00  0.00    -0.372 N 
ATOM      9  H   UNL A   1      33.028  24.680  26.511  1.00  0.00     0.161 HD
BRANCH   8  10
ATOM     10  C   UNL A   1      33.981  23.229  25.459  1.00  0.00     0.035 A 
ATOM     11  C   UNL A   1      35.364  23.345  25.660  1.00  0.00     0.026 A 
ATOM     12  C   UNL A   1      33.475  21.954  25.181  1.00  0.00     0.038 A 
ATOM     13  C   UNL A   1      36.218  22.244  25.571  1.00  0.00     0.003 A 
ATOM     14  C   UNL A   1      34.326  20.833  25.050  1.00  0.00     0.058 A 
ATOM     15  C   UNL A   1      35.702  20.992  25.263  1.00  0.00     0.013 A 
BRANCH  14  16
ATOM     16  C   UNL A   1      33.801  19.463  24.694  1.00  0.00     0.416 C 
ATOM     17  F   UNL A   1      33.156  18.864  25.737  1.00  0.00    -0.166 F 
ATOM     18  F   UNL A   1      32.913  19.489  23.665  1.00  0.00    -0.166 F 
ATOM     19  F   UNL A   1      34.774  18.591  24.323  1.00  0.00    -0.166 F 
ENDBRANCH  14  16
ENDBRANCH   8  10
ENDBRANCH   5   8
ENDBRANCH   3   5
ENDBRANCH   2   3
ENDBRANCH   1   2
BRANCH   1  20
ATOM     20  C   UNL A   1      31.779  29.676  25.829  1.00  0.00     0.275 C 
BRANCH  20  21
ATOM     21  O   UNL A   1      33.030  30.384  25.903  1.00  0.00    -0.458 OA
BRANCH  21  22
ATOM     22  C   UNL A   1      33.129  31.281  26.910  1.00  0.00     0.338 C 
ATOM     23  O   UNL A   1      32.301  32.141  27.186  1.00  0.00    -0.246 OA
BRANCH  22  24
ATOM     24  C   UNL A   1      34.399  31.113  27.655  1.00  0.00     0.060 A 
ATOM     25  C   UNL A   1      35.294  32.168  27.864  1.00  0.00     0.016 A 
ATOM     26  C   UNL A   1      34.742  29.828  28.084  1.00  0.00     0.016 A 
ATOM     27  C   UNL A   1      36.535  31.931  28.467  1.00  0.00     0.010 A 
ATOM     28  C   UNL A   1      35.952  29.606  28.748  1.00  0.00     0.010 A 
ATOM     29  C   UNL A   1      36.865  30.654  28.943  1.00  0.00    -0.014 A 
BRANCH  29  30
ATOM     30  C   UNL A   1      38.124  30.403  29.699  1.00  0.00     0.031 A 
ATOM     31  C   UNL A   1      39.149  29.426  29.188  1.00  0.00     0.074 A 
ATOM     32  C   UNL A   1      38.312  31.001  30.893  1.00  0.00     0.049 A 
ATOM     33  N   UNL A   1      40.192  28.924  29.800  1.00  0.00    -0.248 NA
ATOM     34  C   UNL A   1      38.969  28.942  27.812  1.00  0.00     0.031 C 
ATOM     35  C   UNL A   1      37.410  31.984  31.498  1.00  0.00     0.029 A 
ATOM     36  N   UNL A   1      39.311  30.854  31.823  1.00  0.00    -0.354 N 
ATOM     37  C   UNL A   1      40.778  28.041  28.899  1.00  0.00     0.074 A 
ATOM     38  C   UNL A   1      39.964  28.072  27.699  1.00  0.00     0.031 C 
ATOM     39  C   UNL A   1      37.898  32.353  32.691  1.00  0.00     0.029 A 
ATOM     40  C   UNL A   1      39.099  31.578  32.975  1.00  0.00     0.049 A 
ATOM     41  H   UNL A   1      40.101  30.285  31.681  1.00  0.00     0.167 HD
ATOM     42  C   UNL A   1      41.887  27.276  29.060  1.00  0.00     0.034 A 
ATOM     43  C   UNL A   1      39.761  31.582  34.148  1.00  0.00     0.034 A 
ATOM     44  C   UNL A   1      42.699  27.264  30.256  1.00  0.00     0.049 A 
ATOM     45  C   UNL A   1      40.946  30.675  34.327  1.00  0.00     0.074 A 
ATOM     46  C   UNL A   1      43.864  26.555  30.500  1.00  0.00     0.029 A 
ATOM     47  N   UNL A   1      42.429  27.986  31.410  1.00  0.00    -0.354 N 
ATOM     48  N   UNL A   1      41.471  29.825  33.477  1.00  0.00    -0.248 NA
ATOM     49  C   UNL A   1      41.619  30.720  35.632  1.00  0.00     0.031 C 
ATOM     50  C   UNL A   1      44.263  26.801  31.820  1.00  0.00     0.029 A 
ATOM     51  C   UNL A   1      43.386  27.715  32.379  1.00  0.00     0.049 A 
ATOM     52  H   UNL A   1      41.669  28.601  31.526  1.00  0.00     0.167 HD
ATOM     53  C   UNL A   1      42.549  29.246  34.140  1.00  0.00     0.074 A 
ATOM     54  C   UNL A   1      42.605  29.852  35.454  1.00  0.00     0.031 C 
ATOM     55  C   UNL A   1      43.417  28.302  33.698  1.00  0.00     0.034 A 
BRANCH  42  56
ATOM     56  C   UNL A   1      42.260  26.342  27.934  1.00  0.00     0.023 A 
ATOM     57  C   UNL A   1      41.823  25.007  27.895  1.00  0.00     0.031 A 
ATOM     58  C   UNL A   1      43.069  26.804  26.879  1.00  0.00     0.131 A 
ATOM     59  C   UNL A   1      42.238  24.167  26.847  1.00  0.00     0.055 A 
ATOM     60  C   UNL A   1      43.426  25.981  25.809  1.00  0.00     0.041 A 
ATOM     61  F   UNL A   1      43.528  28.066  26.873  1.00  0.00    -0.206 F 
ATOM     62  C   UNL A   1      43.019  24.652  25.794  1.00  0.00     0.022 A 
BRANCH  59  63
ATOM     63  S   UNL A   1      41.826  22.402  26.928  1.00  0.00     0.124 S 
ATOM     64  O   UNL A   1      43.001  21.850  27.597  1.00  0.00    -0.237 OA
ATOM     65  O   UNL A   1      40.591  22.400  27.704  1.00  0.00    -0.237 OA
ATOM     66  O   UNL A   1      41.680  22.017  25.525  1.00  0.00    -0.744 OA
ENDBRANCH  59  63
ENDBRANCH  42  56
BRANCH  43  67
ATOM     67  C   UNL A   1      39.275  32.427  35.273  1.00  0.00     0.023 A 
ATOM     68  C   UNL A   1      39.783  33.718  35.480  1.00  0.00     0.031 A 
ATOM     69  C   UNL A   1      38.309  31.941  36.173  1.00  0.00     0.131 A 
ATOM     70  C   UNL A   1      39.343  34.471  36.580  1.00  0.00     0.055 A 
ATOM     71  C   UNL A   1      37.841  32.711  37.238  1.00  0.00     0.041 A 
ATOM     72  F   UNL A   1      37.791  30.712  36.016  1.00  0.00    -0.206 F 
ATOM     73  C   UNL A   1      38.367  33.982  37.451  1.00  0.00     0.022 A 
BRANCH  70  74
ATOM     74  S   UNL A   1      40.112  36.082  36.890  1.00  0.00     0.124 S 
ATOM     75  O   UNL A   1      39.870  36.777  35.630  1.00  0.00    -0.237 OA
ATOM     76  O   UNL A   1      39.357  36.563  38.043  1.00  0.00    -0.237 OA
ATOM     77  O   UNL A   1      41.509  35.747  37.160  1.00  0.00    -0.744 OA
ENDBRANCH  70  74
ENDBRANCH  43  67
BRANCH  55  78
ATOM     78  C   UNL A   1      44.521  27.904  34.644  1.00  0.00     0.023 A 
ATOM     79  C   UNL A   1      44.299  26.995  35.694  1.00  0.00     0.031 A 
ATOM     80  C   UNL A   1      45.798  28.475  34.518  1.00  0.00     0.131 A 
ATOM     81  C   UNL A   1      45.328  26.725  36.611  1.00  0.00     0.055 A 
ATOM     82  C   UNL A   1      46.831  28.165  35.404  1.00  0.00     0.041 A 
ATOM     83  F   UNL A   1      46.060  29.353  33.537  1.00  0.00    -0.206 F 
ATOM     84  C   UNL A   1      46.596  27.295  36.464  1.00  0.00     0.022 A 
BRANCH  81  85
ATOM     85  S   UNL A   1      44.962  25.685  38.051  1.00  0.00     0.124 S 
ATOM     86  O   UNL A   1      46.235  25.692  38.763  1.00  0.00    -0.237 OA
ATOM     87  O   UNL A   1      43.870  26.410  38.692  1.00  0.00    -0.237 OA
ATOM     88  O   UNL A   1      44.589  24.400  37.462  1.00  0.00    -0.744 OA
ENDBRANCH  81  85
ENDBRANCH  55  78
ENDBRANCH  29  30
ENDBRANCH  22  24
ENDBRANCH  21  22
ENDBRANCH  20  21
ENDBRANCH   1  20
TORSDOF 18
ENDMDL
