MODEL 1
REMARK VINA RESULT:     -11.1      0.000      0.000
REMARK SMILES CC[C@H](NC(=O)N1CCO[C@@H](CC(=O)OCCOC(=O)c2ccc(-c3c4nc(c(-c5cc(S(=O)(=O)[O-])ccc5F)c5ccc([nH]5)c(-c5cc(S(=O)(=O)[O-])ccc5F)c5nc(c(-c6cc(S(=O)(=O)[O-])ccc6F)c6ccc3[nH]6)C=C5)C=C4)cc2)C1)c1cccs1
REMARK SMILES IDX 16 1 15 2 13 3 14 4 12 5 11 6 7 7 8 8 84 9 9 10 10 11 5 12
REMARK SMILES IDX 4 13 6 15 3 16 2 17 1 18 85 19 86 20 89 21 87 22 88 23 17 24
REMARK SMILES IDX 18 25 19 26 20 27 21 28 22 29 83 30 23 31 82 32 24 33 25 34
REMARK SMILES IDX 26 35 76 36 27 37 81 38 75 39 77 40 28 41 80 42 74 43 73 44
REMARK SMILES IDX 29 46 61 47 41 48 60 49 42 50 45 51 59 52 78 53 43 54 44 55
REMARK SMILES IDX 58 57 79 58 46 59 30 60 31 61 39 62 32 63 38 64 40 65 37 66
REMARK SMILES IDX 33 67 34 68 35 69 36 70 62 71 63 72 71 73 64 74 70 75 72 76
REMARK SMILES IDX 69 77 65 78 66 79 67 80 68 81 47 82 48 83 56 84 49 85 55 86
REMARK SMILES IDX 57 87 54 88 50 89 51 90 52 91 53 92
REMARK H PARENT 4 14 77 45 45 56
REMARK Flexibility Score: inf
ROOT
ATOM      1  C   UNL A   1      36.834  21.594  24.247  1.00  0.00     0.274 C 
ENDROOT
BRANCH   1   2
ATOM      2  O   UNL A   1      36.695  23.025  24.203  1.00  0.00    -0.462 OA
BRANCH   2   3
ATOM      3  C   UNL A   1      35.900  23.576  25.155  1.00  0.00     0.308 C 
ATOM      4  O   UNL A   1      36.272  24.385  25.994  1.00  0.00    -0.252 OA
BRANCH   3   5
ATOM      5  C   UNL A   1      34.513  23.006  25.118  1.00  0.00     0.156 C 
BRANCH   5   6
ATOM      6  C   UNL A   1      33.408  23.964  24.679  1.00  0.00     0.149 C 
ATOM      7  N   UNL A   1      32.321  24.964  22.647  1.00  0.00    -0.320 N 
ATOM      8  C   UNL A   1      31.215  24.056  22.893  1.00  0.00     0.150 C 
ATOM      9  C   UNL A   1      33.575  24.460  23.214  1.00  0.00     0.154 C 
ATOM     10  C   UNL A   1      31.035  23.886  24.389  1.00  0.00     0.182 C 
ATOM     11  O   UNL A   1      32.189  23.204  24.889  1.00  0.00    -0.374 OA
BRANCH   7  12
ATOM     12  C   UNL A   1      32.345  25.905  21.657  1.00  0.00     0.318 C 
ATOM     13  N   UNL A   1      31.596  27.034  21.754  1.00  0.00    -0.330 N 
ATOM     14  H   UNL A   1      31.240  27.373  20.901  1.00  0.00     0.166 HD
ATOM     15  O   UNL A   1      33.035  25.774  20.643  1.00  0.00    -0.249 OA
BRANCH  13  16
ATOM     16  C   UNL A   1      31.235  27.824  22.939  1.00  0.00     0.124 C 
BRANCH  16  17
ATOM     17  C   UNL A   1      32.241  28.973  23.181  1.00  0.00     0.027 C 
ATOM     18  C   UNL A   1      33.435  28.595  24.045  1.00  0.00     0.006 C 
ENDBRANCH  16  17
BRANCH  16  19
ATOM     19  C   UNL A   1      29.863  28.434  22.745  1.00  0.00     0.027 A 
ATOM     20  C   UNL A   1      28.624  27.948  23.127  1.00  0.00     0.017 A 
ATOM     21  S   UNL A   1      29.715  29.975  21.993  1.00  0.00    -0.147 S 
ATOM     22  C   UNL A   1      27.586  28.907  22.947  1.00  0.00     0.012 A 
ATOM     23  C   UNL A   1      28.048  30.061  22.358  1.00  0.00     0.065 A 
ENDBRANCH  16  19
ENDBRANCH  13  16
ENDBRANCH   7  12
ENDBRANCH   5   6
ENDBRANCH   3   5
ENDBRANCH   2   3
ENDBRANCH   1   2
BRANCH   1  24
ATOM     24  C   UNL A   1      37.638  21.136  25.468  1.00  0.00     0.275 C 
BRANCH  24  25
ATOM     25  O   UNL A   1      39.031  21.489  25.362  1.00  0.00    -0.458 OA
BRANCH  25  26
ATOM     26  C   UNL A   1      39.744  21.354  26.507  1.00  0.00     0.338 C 
ATOM     27  O   UNL A   1      40.127  20.307  27.001  1.00  0.00    -0.246 OA
BRANCH  26  28
ATOM     28  C   UNL A   1      40.134  22.672  27.036  1.00  0.00     0.060 A 
ATOM     29  C   UNL A   1      39.526  23.807  26.489  1.00  0.00     0.016 A 
ATOM     30  C   UNL A   1      41.143  22.805  27.992  1.00  0.00     0.016 A 
ATOM     31  C   UNL A   1      39.939  25.077  26.873  1.00  0.00     0.010 A 
ATOM     32  C   UNL A   1      41.551  24.085  28.385  1.00  0.00     0.010 A 
ATOM     33  C   UNL A   1      40.963  25.228  27.815  1.00  0.00    -0.014 A 
BRANCH  33  34
ATOM     34  C   UNL A   1      41.446  26.591  28.147  1.00  0.00     0.031 A 
ATOM     35  C   UNL A   1      42.839  27.003  27.765  1.00  0.00     0.074 A 
ATOM     36  C   UNL A   1      40.616  27.470  28.738  1.00  0.00     0.049 A 
ATOM     37  N   UNL A   1      43.455  28.141  27.968  1.00  0.00    -0.248 NA
ATOM     38  C   UNL A   1      43.647  25.998  27.060  1.00  0.00     0.031 C 
ATOM     39  C   UNL A   1      39.227  27.197  29.109  1.00  0.00     0.029 A 
ATOM     40  N   UNL A   1      40.815  28.772  29.119  1.00  0.00    -0.354 N 
ATOM     41  C   UNL A   1      44.723  27.990  27.419  1.00  0.00     0.074 A 
ATOM     42  C   UNL A   1      44.799  26.634  26.913  1.00  0.00     0.031 C 
ATOM     43  C   UNL A   1      38.695  28.304  29.652  1.00  0.00     0.029 A 
ATOM     44  C   UNL A   1      39.714  29.349  29.706  1.00  0.00     0.049 A 
ATOM     45  H   UNL A   1      41.667  29.249  28.986  1.00  0.00     0.167 HD
ATOM     46  C   UNL A   1      45.726  28.901  27.335  1.00  0.00     0.034 A 
ATOM     47  C   UNL A   1      39.552  30.575  30.240  1.00  0.00     0.034 A 
ATOM     48  C   UNL A   1      45.638  30.244  27.859  1.00  0.00     0.049 A 
ATOM     49  C   UNL A   1      40.708  31.542  30.213  1.00  0.00     0.074 A 
ATOM     50  C   UNL A   1      46.596  31.243  27.845  1.00  0.00     0.029 A 
ATOM     51  N   UNL A   1      44.525  30.776  28.502  1.00  0.00    -0.354 N 
ATOM     52  N   UNL A   1      41.910  31.380  29.711  1.00  0.00    -0.248 NA
ATOM     53  C   UNL A   1      40.480  32.858  30.822  1.00  0.00     0.031 C 
ATOM     54  C   UNL A   1      46.086  32.354  28.530  1.00  0.00     0.029 A 
ATOM     55  C   UNL A   1      44.783  32.077  28.910  1.00  0.00     0.049 A 
ATOM     56  H   UNL A   1      43.676  30.298  28.647  1.00  0.00     0.167 HD
ATOM     57  C   UNL A   1      42.572  32.588  29.916  1.00  0.00     0.074 A 
ATOM     58  C   UNL A   1      41.630  33.469  30.577  1.00  0.00     0.031 C 
ATOM     59  C   UNL A   1      43.840  32.940  29.583  1.00  0.00     0.034 A 
BRANCH  46  60
ATOM     60  C   UNL A   1      47.015  28.442  26.696  1.00  0.00     0.023 A 
ATOM     61  C   UNL A   1      47.168  28.378  25.299  1.00  0.00     0.031 A 
ATOM     62  C   UNL A   1      48.089  28.010  27.495  1.00  0.00     0.131 A 
ATOM     63  C   UNL A   1      48.329  27.817  24.747  1.00  0.00     0.055 A 
ATOM     64  C   UNL A   1      49.276  27.530  26.937  1.00  0.00     0.041 A 
ATOM     65  F   UNL A   1      47.995  28.028  28.834  1.00  0.00    -0.206 F 
ATOM     66  C   UNL A   1      49.395  27.415  25.556  1.00  0.00     0.022 A 
BRANCH  63  67
ATOM     67  S   UNL A   1      48.364  27.473  22.965  1.00  0.00     0.124 S 
ATOM     68  O   UNL A   1      48.280  26.015  22.942  1.00  0.00    -0.237 OA
ATOM     69  O   UNL A   1      47.189  28.189  22.482  1.00  0.00    -0.237 OA
ATOM     70  O   UNL A   1      49.649  28.021  22.535  1.00  0.00    -0.744 OA
ENDBRANCH  63  67
ENDBRANCH  46  60
BRANCH  47  71
ATOM     71  C   UNL A   1      38.257  30.955  30.871  1.00  0.00     0.023 A 
ATOM     72  C   UNL A   1      37.266  31.630  30.143  1.00  0.00     0.031 A 
ATOM     73  C   UNL A   1      38.011  30.684  32.230  1.00  0.00     0.131 A 
ATOM     74  C   UNL A   1      36.090  32.048  30.785  1.00  0.00     0.055 A 
ATOM     75  C   UNL A   1      36.819  31.057  32.852  1.00  0.00     0.041 A 
ATOM     76  F   UNL A   1      38.927  30.040  32.970  1.00  0.00    -0.206 F 
ATOM     77  C   UNL A   1      35.854  31.755  32.131  1.00  0.00     0.022 A 
BRANCH  74  78
ATOM     78  S   UNL A   1      34.898  33.047  29.852  1.00  0.00     0.124 S 
ATOM     79  O   UNL A   1      34.027  33.539  30.913  1.00  0.00    -0.237 OA
ATOM     80  O   UNL A   1      35.762  34.038  29.218  1.00  0.00    -0.237 OA
ATOM     81  O   UNL A   1      34.287  32.083  28.939  1.00  0.00    -0.744 OA
ENDBRANCH  74  78
ENDBRANCH  47  71
BRANCH  59  82
ATOM     82  C   UNL A   1      44.255  34.359  29.891  1.00  0.00     0.023 A 
ATOM     83  C   UNL A   1      43.962  35.423  29.018  1.00  0.00     0.031 A 
ATOM     84  C   UNL A   1      44.981  34.642  31.060  1.00  0.00     0.131 A 
ATOM     85  C   UNL A   1      44.448  36.709  29.297  1.00  0.00     0.055 A 
ATOM     86  C   UNL A   1      45.413  35.935  31.362  1.00  0.00     0.041 A 
ATOM     87  F   UNL A   1      45.289  33.665  31.928  1.00  0.00    -0.206 F 
ATOM     88  C   UNL A   1      45.159  36.975  30.470  1.00  0.00     0.022 A 
BRANCH  85  89
ATOM     89  S   UNL A   1      44.223  38.015  28.058  1.00  0.00     0.124 S 
ATOM     90  O   UNL A   1      45.557  38.603  27.991  1.00  0.00    -0.237 OA
ATOM     91  O   UNL A   1      43.799  37.261  26.884  1.00  0.00    -0.237 OA
ATOM     92  O   UNL A   1      43.197  38.874  28.648  1.00  0.00    -0.744 OA
ENDBRANCH  85  89
ENDBRANCH  59  82
ENDBRANCH  33  34
ENDBRANCH  26  28
ENDBRANCH  25  26
ENDBRANCH  24  25
ENDBRANCH   1  24
TORSDOF 19
ENDMDL
MODEL 2
REMARK VINA RESULT:     -11.1      1.732      2.013
REMARK SMILES CC[C@H](NC(=O)N1CCO[C@@H](CC(=O)OCCOC(=O)c2ccc(-c3c4nc(c(-c5cc(S(=O)(=O)[O-])ccc5F)c5ccc([nH]5)c(-c5cc(S(=O)(=O)[O-])ccc5F)c5nc(c(-c6cc(S(=O)(=O)[O-])ccc6F)c6ccc3[nH]6)C=C5)C=C4)cc2)C1)c1cccs1
REMARK SMILES IDX 16 1 15 2 13 3 14 4 12 5 11 6 7 7 8 8 84 9 9 10 10 11 5 12
REMARK SMILES IDX 4 13 6 15 3 16 2 17 1 18 85 19 86 20 89 21 87 22 88 23 17 24
REMARK SMILES IDX 18 25 19 26 20 27 21 28 22 29 83 30 23 31 82 32 24 33 25 34
REMARK SMILES IDX 26 35 76 36 27 37 81 38 75 39 77 40 28 41 80 42 74 43 73 44
REMARK SMILES IDX 29 46 61 47 41 48 60 49 42 50 45 51 59 52 78 53 43 54 44 55
REMARK SMILES IDX 58 57 79 58 46 59 30 60 31 61 39 62 32 63 38 64 40 65 37 66
REMARK SMILES IDX 33 67 34 68 35 69 36 70 62 71 63 72 71 73 64 74 70 75 72 76
REMARK SMILES IDX 69 77 65 78 66 79 67 80 68 81 47 82 48 83 56 84 49 85 55 86
REMARK SMILES IDX 57 87 54 88 50 89 51 90 52 91 53 92
REMARK H PARENT 4 14 77 45 45 56
REMARK Flexibility Score: inf
ROOT
ATOM      1  C   UNL A   1      35.753  21.310  25.572  1.00  0.00     0.274 C 
ENDROOT
BRANCH   1   2
ATOM      2  O   UNL A   1      34.853  21.720  24.526  1.00  0.00    -0.462 OA
BRANCH   2   3
ATOM      3  C   UNL A   1      34.934  23.022  24.149  1.00  0.00     0.308 C 
ATOM      4  O   UNL A   1      35.460  23.419  23.118  1.00  0.00    -0.252 OA
BRANCH   3   5
ATOM      5  C   UNL A   1      34.374  23.939  25.195  1.00  0.00     0.156 C 
BRANCH   5   6
ATOM      6  C   UNL A   1      33.348  24.960  24.709  1.00  0.00     0.149 C 
ATOM      7  N   UNL A   1      33.029  26.863  23.101  1.00  0.00    -0.320 N 
ATOM      8  C   UNL A   1      32.257  25.939  22.289  1.00  0.00     0.150 C 
ATOM      9  C   UNL A   1      33.989  26.162  23.958  1.00  0.00     0.154 C 
ATOM     10  C   UNL A   1      31.493  24.997  23.200  1.00  0.00     0.182 C 
ATOM     11  O   UNL A   1      32.452  24.178  23.877  1.00  0.00    -0.374 OA
BRANCH   7  12
ATOM     12  C   UNL A   1      33.206  28.187  22.812  1.00  0.00     0.318 C 
ATOM     13  N   UNL A   1      32.204  29.081  23.013  1.00  0.00    -0.330 N 
ATOM     14  H   UNL A   1      32.164  29.816  22.360  1.00  0.00     0.166 HD
ATOM     15  O   UNL A   1      34.267  28.624  22.359  1.00  0.00    -0.249 OA
BRANCH  13  16
ATOM     16  C   UNL A   1      31.169  29.115  24.056  1.00  0.00     0.124 C 
BRANCH  16  17
ATOM     17  C   UNL A   1      31.698  29.765  25.356  1.00  0.00     0.027 C 
ATOM     18  C   UNL A   1      31.781  28.820  26.545  1.00  0.00     0.006 C 
ENDBRANCH  16  17
BRANCH  16  19
ATOM     19  C   UNL A   1      29.987  29.927  23.573  1.00  0.00     0.027 A 
ATOM     20  C   UNL A   1      29.393  31.040  24.145  1.00  0.00     0.017 A 
ATOM     21  S   UNL A   1      29.225  29.520  22.084  1.00  0.00    -0.147 S 
ATOM     22  C   UNL A   1      28.429  31.643  23.286  1.00  0.00     0.012 A 
ATOM     23  C   UNL A   1      28.258  30.927  22.123  1.00  0.00     0.065 A 
ENDBRANCH  16  19
ENDBRANCH  13  16
ENDBRANCH   7  12
ENDBRANCH   5   6
ENDBRANCH   3   5
ENDBRANCH   2   3
ENDBRANCH   1   2
BRANCH   1  24
ATOM     24  C   UNL A   1      37.088  20.811  25.013  1.00  0.00     0.275 C 
BRANCH  24  25
ATOM     25  O   UNL A   1      38.126  21.804  25.120  1.00  0.00    -0.458 OA
BRANCH  25  26
ATOM     26  C   UNL A   1      39.059  21.555  26.071  1.00  0.00     0.338 C 
ATOM     27  O   UNL A   1      39.544  20.470  26.342  1.00  0.00    -0.246 OA
BRANCH  26  28
ATOM     28  C   UNL A   1      39.539  22.812  26.672  1.00  0.00     0.060 A 
ATOM     29  C   UNL A   1      38.981  24.012  26.222  1.00  0.00     0.016 A 
ATOM     30  C   UNL A   1      40.582  22.825  27.600  1.00  0.00     0.016 A 
ATOM     31  C   UNL A   1      39.476  25.230  26.674  1.00  0.00     0.010 A 
ATOM     32  C   UNL A   1      41.073  24.052  28.062  1.00  0.00     0.010 A 
ATOM     33  C   UNL A   1      40.535  25.261  27.588  1.00  0.00    -0.014 A 
BRANCH  33  34
ATOM     34  C   UNL A   1      41.104  26.570  27.992  1.00  0.00     0.031 A 
ATOM     35  C   UNL A   1      42.533  26.895  27.665  1.00  0.00     0.074 A 
ATOM     36  C   UNL A   1      40.321  27.482  28.599  1.00  0.00     0.049 A 
ATOM     37  N   UNL A   1      43.222  27.976  27.934  1.00  0.00    -0.248 NA
ATOM     38  C   UNL A   1      43.287  25.864  26.939  1.00  0.00     0.031 C 
ATOM     39  C   UNL A   1      38.906  27.295  28.921  1.00  0.00     0.029 A 
ATOM     40  N   UNL A   1      40.601  28.749  29.042  1.00  0.00    -0.354 N 
ATOM     41  C   UNL A   1      44.492  27.757  27.413  1.00  0.00     0.074 A 
ATOM     42  C   UNL A   1      44.486  26.421  26.851  1.00  0.00     0.031 C 
ATOM     43  C   UNL A   1      38.438  28.414  29.497  1.00  0.00     0.029 A 
ATOM     44  C   UNL A   1      39.527  29.379  29.625  1.00  0.00     0.049 A 
ATOM     45  H   UNL A   1      41.488  29.167  28.952  1.00  0.00     0.167 HD
ATOM     46  C   UNL A   1      45.559  28.595  27.395  1.00  0.00     0.034 A 
ATOM     47  C   UNL A   1      39.437  30.590  30.207  1.00  0.00     0.034 A 
ATOM     48  C   UNL A   1      45.552  29.918  27.975  1.00  0.00     0.049 A 
ATOM     49  C   UNL A   1      40.660  31.471  30.252  1.00  0.00     0.074 A 
ATOM     50  C   UNL A   1      46.579  30.845  28.030  1.00  0.00     0.029 A 
ATOM     51  N   UNL A   1      44.462  30.502  28.611  1.00  0.00    -0.354 N 
ATOM     52  N   UNL A   1      41.862  31.243  29.776  1.00  0.00    -0.248 NA
ATOM     53  C   UNL A   1      40.509  32.774  30.912  1.00  0.00     0.031 C 
ATOM     54  C   UNL A   1      46.130  31.960  28.749  1.00  0.00     0.029 A 
ATOM     55  C   UNL A   1      44.800  31.763  29.082  1.00  0.00     0.049 A 
ATOM     56  H   UNL A   1      43.577  30.081  28.713  1.00  0.00     0.167 HD
ATOM     57  C   UNL A   1      42.602  32.390  30.051  1.00  0.00     0.074 A 
ATOM     58  C   UNL A   1      41.706  33.309  30.725  1.00  0.00     0.031 C 
ATOM     59  C   UNL A   1      43.902  32.663  29.767  1.00  0.00     0.034 A 
BRANCH  46  60
ATOM     60  C   UNL A   1      46.831  28.071  26.771  1.00  0.00     0.023 A 
ATOM     61  C   UNL A   1      47.075  28.175  25.390  1.00  0.00     0.031 A 
ATOM     62  C   UNL A   1      47.788  27.408  27.560  1.00  0.00     0.131 A 
ATOM     63  C   UNL A   1      48.203  27.556  24.829  1.00  0.00     0.055 A 
ATOM     64  C   UNL A   1      48.950  26.865  27.007  1.00  0.00     0.041 A 
ATOM     65  F   UNL A   1      47.600  27.258  28.881  1.00  0.00    -0.206 F 
ATOM     66  C   UNL A   1      49.154  26.922  25.632  1.00  0.00     0.022 A 
BRANCH  63  67
ATOM     67  S   UNL A   1      48.327  27.451  23.022  1.00  0.00     0.124 S 
ATOM     68  O   UNL A   1      48.278  26.007  22.804  1.00  0.00    -0.237 OA
ATOM     69  O   UNL A   1      47.158  28.204  22.581  1.00  0.00    -0.237 OA
ATOM     70  O   UNL A   1      49.617  28.072  22.730  1.00  0.00    -0.744 OA
ENDBRANCH  63  67
ENDBRANCH  46  60
BRANCH  47  71
ATOM     71  C   UNL A   1      38.155  31.036  30.820  1.00  0.00     0.023 A 
ATOM     72  C   UNL A   1      37.194  31.727  30.067  1.00  0.00     0.031 A 
ATOM     73  C   UNL A   1      37.893  30.813  32.184  1.00  0.00     0.131 A 
ATOM     74  C   UNL A   1      36.032  32.207  30.691  1.00  0.00     0.055 A 
ATOM     75  C   UNL A   1      36.713  31.249  32.788  1.00  0.00     0.041 A 
ATOM     76  F   UNL A   1      38.780  30.157  32.947  1.00  0.00    -0.206 F 
ATOM     77  C   UNL A   1      35.778  31.961  32.042  1.00  0.00     0.022 A 
BRANCH  74  78
ATOM     78  S   UNL A   1      34.882  33.224  29.723  1.00  0.00     0.124 S 
ATOM     79  O   UNL A   1      35.791  34.152  29.061  1.00  0.00    -0.237 OA
ATOM     80  O   UNL A   1      34.244  32.229  28.867  1.00  0.00    -0.237 OA
ATOM     81  O   UNL A   1      34.015  33.816  30.738  1.00  0.00    -0.744 OA
ENDBRANCH  74  78
ENDBRANCH  47  71
BRANCH  59  82
ATOM     82  C   UNL A   1      44.407  34.034  30.148  1.00  0.00     0.023 A 
ATOM     83  C   UNL A   1      44.986  34.288  31.404  1.00  0.00     0.031 A 
ATOM     84  C   UNL A   1      44.275  35.107  29.250  1.00  0.00     0.131 A 
ATOM     85  C   UNL A   1      45.356  35.597  31.750  1.00  0.00     0.055 A 
ATOM     86  C   UNL A   1      44.697  36.396  29.578  1.00  0.00     0.041 A 
ATOM     87  F   UNL A   1      43.728  34.921  28.037  1.00  0.00    -0.206 F 
ATOM     88  C   UNL A   1      45.228  36.650  30.840  1.00  0.00     0.022 A 
BRANCH  85  89
ATOM     89  S   UNL A   1      45.916  35.926  33.444  1.00  0.00     0.124 S 
ATOM     90  O   UNL A   1      45.609  37.344  33.596  1.00  0.00    -0.237 OA
ATOM     91  O   UNL A   1      45.096  35.008  34.228  1.00  0.00    -0.237 OA
ATOM     92  O   UNL A   1      47.342  35.603  33.403  1.00  0.00    -0.744 OA
ENDBRANCH  85  89
ENDBRANCH  59  82
ENDBRANCH  33  34
ENDBRANCH  26  28
ENDBRANCH  25  26
ENDBRANCH  24  25
ENDBRANCH   1  24
TORSDOF 19
ENDMDL
MODEL 3
REMARK VINA RESULT:     -11.0      5.174     10.421
REMARK SMILES CC[C@H](NC(=O)N1CCO[C@@H](CC(=O)OCCOC(=O)c2ccc(-c3c4nc(c(-c5cc(S(=O)(=O)[O-])ccc5F)c5ccc([nH]5)c(-c5cc(S(=O)(=O)[O-])ccc5F)c5nc(c(-c6cc(S(=O)(=O)[O-])ccc6F)c6ccc3[nH]6)C=C5)C=C4)cc2)C1)c1cccs1
REMARK SMILES IDX 16 1 15 2 13 3 14 4 12 5 11 6 7 7 8 8 84 9 9 10 10 11 5 12
REMARK SMILES IDX 4 13 6 15 3 16 2 17 1 18 85 19 86 20 89 21 87 22 88 23 17 24
REMARK SMILES IDX 18 25 19 26 20 27 21 28 22 29 83 30 23 31 82 32 24 33 25 34
REMARK SMILES IDX 26 35 76 36 27 37 81 38 75 39 77 40 28 41 80 42 74 43 73 44
REMARK SMILES IDX 29 46 61 47 41 48 60 49 42 50 45 51 59 52 78 53 43 54 44 55
REMARK SMILES IDX 58 57 79 58 46 59 30 60 31 61 39 62 32 63 38 64 40 65 37 66
REMARK SMILES IDX 33 67 34 68 35 69 36 70 62 71 63 72 71 73 64 74 70 75 72 76
REMARK SMILES IDX 69 77 65 78 66 79 67 80 68 81 47 82 48 83 56 84 49 85 55 86
REMARK SMILES IDX 57 87 54 88 50 89 51 90 52 91 53 92
REMARK H PARENT 4 14 77 45 45 56
REMARK Flexibility Score: inf
ROOT
ATOM      1  C   UNL A   1      31.797  30.851  26.621  1.00  0.00     0.274 C 
ENDROOT
BRANCH   1   2
ATOM      2  O   UNL A   1      31.278  30.483  25.330  1.00  0.00    -0.462 OA
BRANCH   2   3
ATOM      3  C   UNL A   1      31.618  29.249  24.881  1.00  0.00     0.308 C 
ATOM      4  O   UNL A   1      31.775  28.951  23.705  1.00  0.00    -0.252 OA
BRANCH   3   5
ATOM      5  C   UNL A   1      31.699  28.253  26.001  1.00  0.00     0.156 C 
BRANCH   5   6
ATOM      6  C   UNL A   1      31.680  26.783  25.591  1.00  0.00     0.149 C 
ATOM      7  N   UNL A   1      32.800  24.575  26.015  1.00  0.00    -0.320 N 
ATOM      8  C   UNL A   1      31.616  24.213  26.774  1.00  0.00     0.150 C 
ATOM      9  C   UNL A   1      32.989  26.028  25.960  1.00  0.00     0.154 C 
ATOM     10  C   UNL A   1      30.398  24.834  26.118  1.00  0.00     0.182 C 
ATOM     11  O   UNL A   1      30.506  26.254  26.261  1.00  0.00    -0.374 OA
BRANCH   7  12
ATOM     12  C   UNL A   1      33.853  23.737  25.775  1.00  0.00     0.318 C 
ATOM     13  N   UNL A   1      33.679  22.587  25.076  1.00  0.00    -0.330 N 
ATOM     14  H   UNL A   1      34.242  21.833  25.365  1.00  0.00     0.166 HD
ATOM     15  O   UNL A   1      34.992  23.982  26.180  1.00  0.00    -0.249 OA
BRANCH  13  16
ATOM     16  C   UNL A   1      32.775  22.296  23.954  1.00  0.00     0.124 C 
BRANCH  16  17
ATOM     17  C   UNL A   1      33.341  22.831  22.618  1.00  0.00     0.027 C 
ATOM     18  C   UNL A   1      32.979  24.277  22.313  1.00  0.00     0.006 C 
ENDBRANCH  16  17
BRANCH  16  19
ATOM     19  C   UNL A   1      32.594  20.799  23.821  1.00  0.00     0.027 A 
ATOM     20  C   UNL A   1      32.164  20.060  22.731  1.00  0.00     0.017 A 
ATOM     21  S   UNL A   1      32.996  19.772  25.143  1.00  0.00    -0.147 S 
ATOM     22  C   UNL A   1      32.320  18.657  22.932  1.00  0.00     0.012 A 
ATOM     23  C   UNL A   1      32.784  18.366  24.194  1.00  0.00     0.065 A 
ENDBRANCH  16  19
ENDBRANCH  13  16
ENDBRANCH   7  12
ENDBRANCH   5   6
ENDBRANCH   3   5
ENDBRANCH   2   3
ENDBRANCH   1   2
BRANCH   1  24
ATOM     24  C   UNL A   1      31.507  32.316  26.957  1.00  0.00     0.275 C 
BRANCH  24  25
ATOM     25  O   UNL A   1      32.667  33.152  26.782  1.00  0.00    -0.458 OA
BRANCH  25  26
ATOM     26  C   UNL A   1      33.124  33.741  27.914  1.00  0.00     0.338 C 
ATOM     27  O   UNL A   1      32.565  34.619  28.549  1.00  0.00    -0.246 OA
BRANCH  26  28
ATOM     28  C   UNL A   1      34.354  33.080  28.385  1.00  0.00     0.060 A 
ATOM     29  C   UNL A   1      34.230  31.863  29.061  1.00  0.00     0.016 A 
ATOM     30  C   UNL A   1      35.605  33.685  28.246  1.00  0.00     0.016 A 
ATOM     31  C   UNL A   1      35.347  31.255  29.622  1.00  0.00     0.010 A 
ATOM     32  C   UNL A   1      36.731  33.067  28.803  1.00  0.00     0.010 A 
ATOM     33  C   UNL A   1      36.605  31.858  29.510  1.00  0.00    -0.014 A 
BRANCH  33  34
ATOM     34  C   UNL A   1      37.769  31.236  30.189  1.00  0.00     0.031 A 
ATOM     35  C   UNL A   1      38.095  31.615  31.606  1.00  0.00     0.074 A 
ATOM     36  C   UNL A   1      38.492  30.296  29.553  1.00  0.00     0.049 A 
ATOM     37  N   UNL A   1      39.069  31.196  32.374  1.00  0.00    -0.248 NA
ATOM     38  C   UNL A   1      37.206  32.598  32.240  1.00  0.00     0.031 C 
ATOM     39  C   UNL A   1      38.236  29.813  28.196  1.00  0.00     0.029 A 
ATOM     40  N   UNL A   1      39.579  29.571  29.968  1.00  0.00    -0.354 N 
ATOM     41  C   UNL A   1      38.913  31.864  33.583  1.00  0.00     0.074 A 
ATOM     42  C   UNL A   1      37.776  32.748  33.426  1.00  0.00     0.031 C 
ATOM     43  C   UNL A   1      39.133  28.860  27.895  1.00  0.00     0.029 A 
ATOM     44  C   UNL A   1      40.052  28.696  29.018  1.00  0.00     0.049 A 
ATOM     45  H   UNL A   1      39.984  29.669  30.860  1.00  0.00     0.167 HD
ATOM     46  C   UNL A   1      39.644  31.743  34.721  1.00  0.00     0.034 A 
ATOM     47  C   UNL A   1      41.114  27.868  29.047  1.00  0.00     0.034 A 
ATOM     48  C   UNL A   1      40.785  30.868  34.854  1.00  0.00     0.049 A 
ATOM     49  C   UNL A   1      41.963  27.814  30.292  1.00  0.00     0.074 A 
ATOM     50  C   UNL A   1      41.608  30.679  35.951  1.00  0.00     0.029 A 
ATOM     51  N   UNL A   1      41.274  30.038  33.850  1.00  0.00    -0.354 N 
ATOM     52  N   UNL A   1      41.820  28.468  31.421  1.00  0.00    -0.248 NA
ATOM     53  C   UNL A   1      43.116  26.905  30.263  1.00  0.00     0.031 C 
ATOM     54  C   UNL A   1      42.625  29.784  35.593  1.00  0.00     0.029 A 
ATOM     55  C   UNL A   1      42.398  29.357  34.294  1.00  0.00     0.049 A 
ATOM     56  H   UNL A   1      40.878  29.947  32.953  1.00  0.00     0.167 HD
ATOM     57  C   UNL A   1      42.847  28.024  32.249  1.00  0.00     0.074 A 
ATOM     58  C   UNL A   1      43.594  27.040  31.491  1.00  0.00     0.031 C 
ATOM     59  C   UNL A   1      43.143  28.390  33.523  1.00  0.00     0.034 A 
BRANCH  46  60
ATOM     60  C   UNL A   1      39.251  32.623  35.883  1.00  0.00     0.023 A 
ATOM     61  C   UNL A   1      39.752  33.930  36.025  1.00  0.00     0.031 A 
ATOM     62  C   UNL A   1      38.407  32.130  36.895  1.00  0.00     0.131 A 
ATOM     63  C   UNL A   1      39.473  34.665  37.187  1.00  0.00     0.055 A 
ATOM     64  C   UNL A   1      38.067  32.899  38.010  1.00  0.00     0.041 A 
ATOM     65  F   UNL A   1      37.916  30.882  36.827  1.00  0.00    -0.206 F 
ATOM     66  C   UNL A   1      38.614  34.167  38.170  1.00  0.00     0.022 A 
BRANCH  63  67
ATOM     67  S   UNL A   1      40.375  36.214  37.472  1.00  0.00     0.124 S 
ATOM     68  O   UNL A   1      41.551  35.744  38.200  1.00  0.00    -0.237 OA
ATOM     69  O   UNL A   1      40.613  36.695  36.115  1.00  0.00    -0.237 OA
ATOM     70  O   UNL A   1      39.442  37.014  38.263  1.00  0.00    -0.744 OA
ENDBRANCH  63  67
ENDBRANCH  46  60
BRANCH  47  71
ATOM     71  C   UNL A   1      41.456  27.041  27.856  1.00  0.00     0.023 A 
ATOM     72  C   UNL A   1      41.195  25.663  27.832  1.00  0.00     0.031 A 
ATOM     73  C   UNL A   1      42.090  27.615  26.740  1.00  0.00     0.131 A 
ATOM     74  C   UNL A   1      41.601  24.895  26.731  1.00  0.00     0.055 A 
ATOM     75  C   UNL A   1      42.448  26.855  25.625  1.00  0.00     0.041 A 
ATOM     76  F   UNL A   1      42.362  28.929  26.714  1.00  0.00    -0.206 F 
ATOM     77  C   UNL A   1      42.214  25.483  25.621  1.00  0.00     0.022 A 
BRANCH  74  78
ATOM     78  S   UNL A   1      41.382  23.095  26.797  1.00  0.00     0.124 S 
ATOM     79  O   UNL A   1      42.351  22.641  25.807  1.00  0.00    -0.237 OA
ATOM     80  O   UNL A   1      41.700  22.802  28.190  1.00  0.00    -0.237 OA
ATOM     81  O   UNL A   1      39.980  22.910  26.429  1.00  0.00    -0.744 OA
ENDBRANCH  74  78
ENDBRANCH  47  71
BRANCH  59  82
ATOM     82  C   UNL A   1      44.300  27.680  34.183  1.00  0.00     0.023 A 
ATOM     83  C   UNL A   1      44.119  26.497  34.923  1.00  0.00     0.031 A 
ATOM     84  C   UNL A   1      45.597  28.214  34.095  1.00  0.00     0.131 A 
ATOM     85  C   UNL A   1      45.207  25.922  35.597  1.00  0.00     0.055 A 
ATOM     86  C   UNL A   1      46.687  27.606  34.721  1.00  0.00     0.041 A 
ATOM     87  F   UNL A   1      45.828  29.341  33.403  1.00  0.00    -0.206 F 
ATOM     88  C   UNL A   1      46.492  26.461  35.490  1.00  0.00     0.022 A 
BRANCH  85  89
ATOM     89  S   UNL A   1      44.905  24.513  36.700  1.00  0.00     0.124 S 
ATOM     90  O   UNL A   1      43.830  25.017  37.549  1.00  0.00    -0.237 OA
ATOM     91  O   UNL A   1      44.536  23.457  35.763  1.00  0.00    -0.237 OA
ATOM     92  O   UNL A   1      46.189  24.324  37.374  1.00  0.00    -0.744 OA
ENDBRANCH  85  89
ENDBRANCH  59  82
ENDBRANCH  33  34
ENDBRANCH  26  28
ENDBRANCH  25  26
ENDBRANCH  24  25
ENDBRANCH   1  24
TORSDOF 19
ENDMDL
