MODEL 1
REMARK VINA RESULT:     -12.1      0.000      0.000
REMARK SMILES C[C@@H]1C(=O)NC(=O)CN1C(=O)NC1(CC(=O)OCCOC(=O)c2ccc(-c3c4nc(c(-c5cc(S(=O)(=O)[O-])ccc5F)c5ccc([nH]5)c(-c5cc(S(=O)(=O)[O-])ccc5F)c5nc(c(-c6cc(S(=O)(=O)[O-])ccc6F)c6ccc3[nH]6)C=C5)C=C4)cc2)CCC1
REMARK SMILES IDX 18 1 17 2 15 3 16 4 14 5 13 6 86 7 88 8 87 9 12 10 10 11
REMARK SMILES IDX 11 12 9 14 1 15 2 16 3 17 4 18 5 19 8 20 6 21 7 23 19 24
REMARK SMILES IDX 20 25 21 26 22 27 23 28 24 29 85 30 25 31 84 32 26 33 27 34
REMARK SMILES IDX 28 35 78 36 29 37 83 38 77 39 79 40 30 41 82 42 76 43 75 44
REMARK SMILES IDX 31 46 63 47 43 48 62 49 44 50 47 51 61 52 80 53 45 54 46 55
REMARK SMILES IDX 60 57 81 58 48 59 32 60 33 61 41 62 34 63 40 64 42 65 39 66
REMARK SMILES IDX 35 67 36 68 37 69 38 70 64 71 65 72 73 73 66 74 72 75 74 76
REMARK SMILES IDX 71 77 67 78 68 79 69 80 70 81 49 82 50 83 58 84 51 85 57 86
REMARK SMILES IDX 59 87 56 88 52 89 53 90 54 91 55 92
REMARK H PARENT 12 13 5 22 79 45 47 56
REMARK Flexibility Score: inf
ROOT
ATOM      1  C   UNL A   1      32.925  28.536  24.431  1.00  0.00     0.274 C 
ENDROOT
BRANCH   1   2
ATOM      2  O   UNL A   1      33.463  27.677  25.474  1.00  0.00    -0.462 OA
BRANCH   2   3
ATOM      3  C   UNL A   1      33.280  26.323  25.529  1.00  0.00     0.308 C 
ATOM      4  O   UNL A   1      34.008  25.501  24.968  1.00  0.00    -0.252 OA
BRANCH   3   5
ATOM      5  C   UNL A   1      32.076  25.931  26.423  1.00  0.00     0.151 C 
BRANCH   5   6
ATOM      6  C   UNL A   1      31.080  25.080  25.658  1.00  0.00     0.052 C 
ATOM      7  C   UNL A   1      30.863  24.932  24.079  1.00  0.00     0.029 C 
ATOM      8  C   UNL A   1      29.748  25.928  25.560  1.00  0.00     0.029 C 
ATOM      9  C   UNL A   1      30.128  26.265  24.098  1.00  0.00     0.005 C 
BRANCH   6  10
ATOM     10  N   UNL A   1      31.152  23.655  26.172  1.00  0.00    -0.332 N 
ATOM     11  C   UNL A   1      32.195  22.869  26.478  1.00  0.00     0.318 C 
ATOM     12  O   UNL A   1      32.380  22.959  27.689  1.00  0.00    -0.249 OA
ATOM     13  H   UNL A   1      30.274  23.230  26.305  1.00  0.00     0.165 HD
BRANCH  11  14
ATOM     14  N   UNL A   1      32.836  21.995  25.617  1.00  0.00    -0.304 N 
ATOM     15  C   UNL A   1      34.221  22.342  23.586  1.00  0.00     0.042 C 
ATOM     16  C   UNL A   1      34.207  22.038  25.084  1.00  0.00     0.174 C 
ATOM     17  C   UNL A   1      34.930  20.670  25.273  1.00  0.00     0.249 C 
ATOM     18  O   UNL A   1      36.149  20.541  25.165  1.00  0.00    -0.272 OA
ATOM     19  N   UNL A   1      34.144  19.543  25.332  1.00  0.00    -0.293 N 
ATOM     20  C   UNL A   1      32.103  20.846  25.040  1.00  0.00     0.222 C 
ATOM     21  C   UNL A   1      32.792  19.501  25.160  1.00  0.00     0.246 C 
ATOM     22  H   UNL A   1      34.600  18.688  25.513  1.00  0.00     0.173 HD
ATOM     23  O   UNL A   1      32.212  18.431  24.983  1.00  0.00    -0.273 OA
ENDBRANCH  11  14
ENDBRANCH   6  10
ENDBRANCH   5   6
ENDBRANCH   3   5
ENDBRANCH   2   3
ENDBRANCH   1   2
BRANCH   1  24
ATOM     24  C   UNL A   1      31.853  29.553  24.999  1.00  0.00     0.275 C 
BRANCH  24  25
ATOM     25  O   UNL A   1      31.887  29.788  26.453  1.00  0.00    -0.458 OA
BRANCH  25  26
ATOM     26  C   UNL A   1      32.542  30.911  26.927  1.00  0.00     0.338 C 
ATOM     27  O   UNL A   1      32.015  32.018  26.915  1.00  0.00    -0.246 OA
BRANCH  26  28
ATOM     28  C   UNL A   1      33.985  30.739  27.476  1.00  0.00     0.060 A 
ATOM     29  C   UNL A   1      34.533  29.537  27.936  1.00  0.00     0.016 A 
ATOM     30  C   UNL A   1      34.809  31.853  27.697  1.00  0.00     0.016 A 
ATOM     31  C   UNL A   1      35.741  29.410  28.610  1.00  0.00     0.010 A 
ATOM     32  C   UNL A   1      36.095  31.731  28.318  1.00  0.00     0.010 A 
ATOM     33  C   UNL A   1      36.575  30.491  28.785  1.00  0.00    -0.014 A 
BRANCH  33  34
ATOM     34  C   UNL A   1      37.817  30.245  29.581  1.00  0.00     0.031 A 
ATOM     35  C   UNL A   1      38.961  29.517  28.936  1.00  0.00     0.074 A 
ATOM     36  C   UNL A   1      38.051  30.880  30.755  1.00  0.00     0.049 A 
ATOM     37  N   UNL A   1      40.049  29.034  29.474  1.00  0.00    -0.248 NA
ATOM     38  C   UNL A   1      38.875  29.342  27.479  1.00  0.00     0.031 C 
ATOM     39  C   UNL A   1      37.155  31.855  31.389  1.00  0.00     0.029 A 
ATOM     40  N   UNL A   1      39.138  30.853  31.600  1.00  0.00    -0.354 N 
ATOM     41  C   UNL A   1      40.741  28.422  28.435  1.00  0.00     0.074 A 
ATOM     42  C   UNL A   1      39.968  28.635  27.230  1.00  0.00     0.031 C 
ATOM     43  C   UNL A   1      37.750  32.364  32.480  1.00  0.00     0.029 A 
ATOM     44  C   UNL A   1      38.992  31.642  32.722  1.00  0.00     0.049 A 
ATOM     45  H   UNL A   1      39.945  30.319  31.421  1.00  0.00     0.167 HD
ATOM     46  C   UNL A   1      41.899  27.718  28.503  1.00  0.00     0.034 A 
ATOM     47  C   UNL A   1      39.717  31.707  33.860  1.00  0.00     0.034 A 
ATOM     48  C   UNL A   1      42.658  27.562  29.720  1.00  0.00     0.049 A 
ATOM     49  C   UNL A   1      40.882  30.761  33.999  1.00  0.00     0.074 A 
ATOM     50  C   UNL A   1      43.785  26.795  29.955  1.00  0.00     0.029 A 
ATOM     51  N   UNL A   1      42.365  28.208  30.917  1.00  0.00    -0.354 N 
ATOM     52  N   UNL A   1      41.413  29.971  33.094  1.00  0.00    -0.248 NA
ATOM     53  C   UNL A   1      41.507  30.668  35.324  1.00  0.00     0.031 C 
ATOM     54  C   UNL A   1      44.131  26.927  31.308  1.00  0.00     0.029 A 
ATOM     55  C   UNL A   1      43.263  27.829  31.902  1.00  0.00     0.049 A 
ATOM     56  H   UNL A   1      41.625  28.844  31.046  1.00  0.00     0.167 HD
ATOM     57  C   UNL A   1      42.425  29.273  33.746  1.00  0.00     0.074 A 
ATOM     58  C   UNL A   1      42.452  29.763  35.111  1.00  0.00     0.031 C 
ATOM     59  C   UNL A   1      43.249  28.308  33.265  1.00  0.00     0.034 A 
BRANCH  46  60
ATOM     60  C   UNL A   1      42.294  26.949  27.267  1.00  0.00     0.023 A 
ATOM     61  C   UNL A   1      42.034  25.578  27.108  1.00  0.00     0.031 A 
ATOM     62  C   UNL A   1      43.057  27.594  26.275  1.00  0.00     0.131 A 
ATOM     63  C   UNL A   1      42.610  24.880  26.032  1.00  0.00     0.055 A 
ATOM     64  C   UNL A   1      43.558  26.912  25.167  1.00  0.00     0.041 A 
ATOM     65  F   UNL A   1      43.363  28.897  26.389  1.00  0.00    -0.206 F 
ATOM     66  C   UNL A   1      43.353  25.542  25.051  1.00  0.00     0.022 A 
BRANCH  63  67
ATOM     67  S   UNL A   1      42.522  23.067  26.031  1.00  0.00     0.124 S 
ATOM     68  O   UNL A   1      43.027  22.748  24.692  1.00  0.00    -0.237 OA
ATOM     69  O   UNL A   1      43.377  22.704  27.141  1.00  0.00    -0.237 OA
ATOM     70  O   UNL A   1      41.092  22.795  26.220  1.00  0.00    -0.744 OA
ENDBRANCH  63  67
ENDBRANCH  46  60
BRANCH  47  71
ATOM     71  C   UNL A   1      39.260  32.536  35.021  1.00  0.00     0.023 A 
ATOM     72  C   UNL A   1      39.785  33.814  35.279  1.00  0.00     0.031 A 
ATOM     73  C   UNL A   1      38.324  32.020  35.940  1.00  0.00     0.131 A 
ATOM     74  C   UNL A   1      39.379  34.521  36.426  1.00  0.00     0.055 A 
ATOM     75  C   UNL A   1      37.883  32.748  37.047  1.00  0.00     0.041 A 
ATOM     76  F   UNL A   1      37.808  30.792  35.770  1.00  0.00    -0.206 F 
ATOM     77  C   UNL A   1      38.417  34.004  37.299  1.00  0.00     0.022 A 
BRANCH  74  78
ATOM     78  S   UNL A   1      40.169  36.110  36.809  1.00  0.00     0.124 S 
ATOM     79  O   UNL A   1      39.986  36.842  35.561  1.00  0.00    -0.237 OA
ATOM     80  O   UNL A   1      39.385  36.574  37.949  1.00  0.00    -0.237 OA
ATOM     81  O   UNL A   1      41.550  35.739  37.119  1.00  0.00    -0.744 OA
ENDBRANCH  74  78
ENDBRANCH  47  71
BRANCH  59  82
ATOM     82  C   UNL A   1      44.252  27.736  34.231  1.00  0.00     0.023 A 
ATOM     83  C   UNL A   1      43.921  26.667  35.082  1.00  0.00     0.031 A 
ATOM     84  C   UNL A   1      45.547  28.275  34.310  1.00  0.00     0.131 A 
ATOM     85  C   UNL A   1      44.863  26.201  36.010  1.00  0.00     0.055 A 
ATOM     86  C   UNL A   1      46.496  27.771  35.199  1.00  0.00     0.041 A 
ATOM     87  F   UNL A   1      45.909  29.300  33.522  1.00  0.00    -0.206 F 
ATOM     88  C   UNL A   1      46.153  26.734  36.063  1.00  0.00     0.022 A 
BRANCH  85  89
ATOM     89  S   UNL A   1      44.357  24.930  37.201  1.00  0.00     0.124 S 
ATOM     90  O   UNL A   1      44.786  23.704  36.536  1.00  0.00    -0.237 OA
ATOM     91  O   UNL A   1      45.105  25.303  38.397  1.00  0.00    -0.237 OA
ATOM     92  O   UNL A   1      42.909  25.108  37.298  1.00  0.00    -0.744 OA
ENDBRANCH  85  89
ENDBRANCH  59  82
ENDBRANCH  33  34
ENDBRANCH  26  28
ENDBRANCH  25  26
ENDBRANCH  24  25
ENDBRANCH   1  24
TORSDOF 17
ENDMDL
MODEL 2
REMARK VINA RESULT:     -11.9      1.650      2.136
REMARK SMILES C[C@@H]1C(=O)NC(=O)CN1C(=O)NC1(CC(=O)OCCOC(=O)c2ccc(-c3c4nc(c(-c5cc(S(=O)(=O)[O-])ccc5F)c5ccc([nH]5)c(-c5cc(S(=O)(=O)[O-])ccc5F)c5nc(c(-c6cc(S(=O)(=O)[O-])ccc6F)c6ccc3[nH]6)C=C5)C=C4)cc2)CCC1
REMARK SMILES IDX 18 1 17 2 15 3 16 4 14 5 13 6 86 7 88 8 87 9 12 10 10 11
REMARK SMILES IDX 11 12 9 14 1 15 2 16 3 17 4 18 5 19 8 20 6 21 7 23 19 24
REMARK SMILES IDX 20 25 21 26 22 27 23 28 24 29 85 30 25 31 84 32 26 33 27 34
REMARK SMILES IDX 28 35 78 36 29 37 83 38 77 39 79 40 30 41 82 42 76 43 75 44
REMARK SMILES IDX 31 46 63 47 43 48 62 49 44 50 47 51 61 52 80 53 45 54 46 55
REMARK SMILES IDX 60 57 81 58 48 59 32 60 33 61 41 62 34 63 40 64 42 65 39 66
REMARK SMILES IDX 35 67 36 68 37 69 38 70 64 71 65 72 73 73 66 74 72 75 74 76
REMARK SMILES IDX 71 77 67 78 68 79 69 80 70 81 49 82 50 83 58 84 51 85 57 86
REMARK SMILES IDX 59 87 56 88 52 89 53 90 54 91 55 92
REMARK H PARENT 12 13 5 22 79 45 47 56
REMARK Flexibility Score: inf
ROOT
ATOM      1  C   UNL A   1      30.865  29.291  23.858  1.00  0.00     0.274 C 
ENDROOT
BRANCH   1   2
ATOM      2  O   UNL A   1      31.997  28.841  23.062  1.00  0.00    -0.462 OA
BRANCH   2   3
ATOM      3  C   UNL A   1      32.269  27.531  22.780  1.00  0.00     0.308 C 
ATOM      4  O   UNL A   1      31.579  26.822  22.046  1.00  0.00    -0.252 OA
BRANCH   3   5
ATOM      5  C   UNL A   1      33.579  27.049  23.452  1.00  0.00     0.151 C 
BRANCH   5   6
ATOM      6  C   UNL A   1      33.330  25.841  24.336  1.00  0.00     0.052 C 
ATOM      7  C   UNL A   1      32.099  25.523  25.308  1.00  0.00     0.029 C 
ATOM      8  C   UNL A   1      34.077  26.123  25.701  1.00  0.00     0.029 C 
ATOM      9  C   UNL A   1      32.705  26.485  26.320  1.00  0.00     0.005 C 
BRANCH   6  10
ATOM     10  N   UNL A   1      33.503  24.581  23.510  1.00  0.00    -0.332 N 
ATOM     11  C   UNL A   1      32.955  23.361  23.619  1.00  0.00     0.318 C 
ATOM     12  O   UNL A   1      31.989  23.323  22.860  1.00  0.00    -0.249 OA
ATOM     13  H   UNL A   1      34.131  24.675  22.758  1.00  0.00     0.165 HD
BRANCH  11  14
ATOM     14  N   UNL A   1      33.477  22.294  24.328  1.00  0.00    -0.304 N 
ATOM     15  C   UNL A   1      35.793  21.658  24.953  1.00  0.00     0.042 C 
ATOM     16  C   UNL A   1      34.475  22.283  25.409  1.00  0.00     0.174 C 
ATOM     17  C   UNL A   1      33.978  21.448  26.628  1.00  0.00     0.249 C 
ATOM     18  O   UNL A   1      34.502  21.518  27.740  1.00  0.00    -0.272 OA
ATOM     19  N   UNL A   1      33.079  20.438  26.378  1.00  0.00    -0.293 N 
ATOM     20  C   UNL A   1      33.086  20.908  23.984  1.00  0.00     0.222 C 
ATOM     21  C   UNL A   1      32.640  20.044  25.148  1.00  0.00     0.246 C 
ATOM     22  H   UNL A   1      32.721  19.954  27.158  1.00  0.00     0.173 HD
ATOM     23  O   UNL A   1      32.036  18.983  25.005  1.00  0.00    -0.273 OA
ENDBRANCH  11  14
ENDBRANCH   6  10
ENDBRANCH   5   6
ENDBRANCH   3   5
ENDBRANCH   2   3
ENDBRANCH   1   2
BRANCH   1  24
ATOM     24  C   UNL A   1      31.286  29.620  25.348  1.00  0.00     0.275 C 
BRANCH  24  25
ATOM     25  O   UNL A   1      32.698  29.980  25.560  1.00  0.00    -0.458 OA
BRANCH  25  26
ATOM     26  C   UNL A   1      33.026  30.751  26.661  1.00  0.00     0.338 C 
ATOM     27  O   UNL A   1      32.227  31.535  27.160  1.00  0.00    -0.246 OA
BRANCH  26  28
ATOM     28  C   UNL A   1      34.453  30.604  27.258  1.00  0.00     0.060 A 
ATOM     29  C   UNL A   1      35.054  29.395  27.619  1.00  0.00     0.016 A 
ATOM     30  C   UNL A   1      35.198  31.734  27.627  1.00  0.00     0.016 A 
ATOM     31  C   UNL A   1      36.239  29.266  28.333  1.00  0.00     0.010 A 
ATOM     32  C   UNL A   1      36.463  31.621  28.292  1.00  0.00     0.010 A 
ATOM     33  C   UNL A   1      36.998  30.369  28.654  1.00  0.00    -0.014 A 
BRANCH  33  34
ATOM     34  C   UNL A   1      38.219  30.113  29.478  1.00  0.00     0.031 A 
ATOM     35  C   UNL A   1      39.369  29.370  28.862  1.00  0.00     0.074 A 
ATOM     36  C   UNL A   1      38.434  30.749  30.656  1.00  0.00     0.049 A 
ATOM     37  N   UNL A   1      40.440  28.877  29.425  1.00  0.00    -0.248 NA
ATOM     38  C   UNL A   1      39.314  29.191  27.404  1.00  0.00     0.031 C 
ATOM     39  C   UNL A   1      37.535  31.735  31.266  1.00  0.00     0.029 A 
ATOM     40  N   UNL A   1      39.501  30.713  31.525  1.00  0.00    -0.354 N 
ATOM     41  C   UNL A   1      41.148  28.254  28.405  1.00  0.00     0.074 A 
ATOM     42  C   UNL A   1      40.405  28.472  27.182  1.00  0.00     0.031 C 
ATOM     43  C   UNL A   1      38.110  32.242  32.369  1.00  0.00     0.029 A 
ATOM     44  C   UNL A   1      39.338  31.508  32.640  1.00  0.00     0.049 A 
ATOM     45  H   UNL A   1      40.306  30.170  31.365  1.00  0.00     0.167 HD
ATOM     46  C   UNL A   1      42.297  27.539  28.501  1.00  0.00     0.034 A 
ATOM     47  C   UNL A   1      40.038  31.568  33.795  1.00  0.00     0.034 A 
ATOM     48  C   UNL A   1      43.027  27.379  29.735  1.00  0.00     0.049 A 
ATOM     49  C   UNL A   1      41.190  30.611  33.963  1.00  0.00     0.074 A 
ATOM     50  C   UNL A   1      44.140  26.601  29.997  1.00  0.00     0.029 A 
ATOM     51  N   UNL A   1      42.714  28.032  30.923  1.00  0.00    -0.354 N 
ATOM     52  N   UNL A   1      41.732  29.812  33.073  1.00  0.00    -0.248 NA
ATOM     53  C   UNL A   1      41.784  30.516  35.302  1.00  0.00     0.031 C 
ATOM     54  C   UNL A   1      44.457  26.733  31.357  1.00  0.00     0.029 A 
ATOM     55  C   UNL A   1      43.585  27.647  31.929  1.00  0.00     0.049 A 
ATOM     56  H   UNL A   1      41.978  28.676  31.033  1.00  0.00     0.167 HD
ATOM     57  C   UNL A   1      42.722  29.106  33.749  1.00  0.00     0.074 A 
ATOM     58  C   UNL A   1      42.724  29.600  35.113  1.00  0.00     0.031 C 
ATOM     59  C   UNL A   1      43.546  28.130  33.290  1.00  0.00     0.034 A 
BRANCH  46  60
ATOM     60  C   UNL A   1      42.711  26.762  27.276  1.00  0.00     0.023 A 
ATOM     61  C   UNL A   1      42.320  25.431  27.051  1.00  0.00     0.031 A 
ATOM     62  C   UNL A   1      43.621  27.343  26.372  1.00  0.00     0.131 A 
ATOM     63  C   UNL A   1      42.908  24.700  26.003  1.00  0.00     0.055 A 
ATOM     64  C   UNL A   1      44.138  26.637  25.287  1.00  0.00     0.041 A 
ATOM     65  F   UNL A   1      44.053  28.602  26.554  1.00  0.00    -0.206 F 
ATOM     66  C   UNL A   1      43.798  25.301  25.109  1.00  0.00     0.022 A 
BRANCH  63  67
ATOM     67  S   UNL A   1      42.627  22.908  25.935  1.00  0.00     0.124 S 
ATOM     68  O   UNL A   1      43.539  22.427  26.977  1.00  0.00    -0.237 OA
ATOM     69  O   UNL A   1      41.213  22.795  26.218  1.00  0.00    -0.237 OA
ATOM     70  O   UNL A   1      43.029  22.553  24.567  1.00  0.00    -0.744 OA
ENDBRANCH  63  67
ENDBRANCH  46  60
BRANCH  47  71
ATOM     71  C   UNL A   1      39.564  32.407  34.943  1.00  0.00     0.023 A 
ATOM     72  C   UNL A   1      38.870  31.856  36.033  1.00  0.00     0.031 A 
ATOM     73  C   UNL A   1      39.747  33.804  34.927  1.00  0.00     0.131 A 
ATOM     74  C   UNL A   1      38.378  32.697  37.049  1.00  0.00     0.055 A 
ATOM     75  C   UNL A   1      39.306  34.628  35.964  1.00  0.00     0.041 A 
ATOM     76  F   UNL A   1      40.375  34.398  33.899  1.00  0.00    -0.206 F 
ATOM     77  C   UNL A   1      38.609  34.075  37.030  1.00  0.00     0.022 A 
BRANCH  74  78
ATOM     78  S   UNL A   1      37.368  31.980  38.377  1.00  0.00     0.124 S 
ATOM     79  O   UNL A   1      38.225  32.174  39.541  1.00  0.00    -0.237 OA
ATOM     80  O   UNL A   1      36.163  32.800  38.320  1.00  0.00    -0.237 OA
ATOM     81  O   UNL A   1      37.191  30.590  37.957  1.00  0.00    -0.744 OA
ENDBRANCH  74  78
ENDBRANCH  47  71
BRANCH  59  82
ATOM     82  C   UNL A   1      44.521  27.551  34.280  1.00  0.00     0.023 A 
ATOM     83  C   UNL A   1      44.144  26.524  35.162  1.00  0.00     0.031 A 
ATOM     84  C   UNL A   1      45.836  28.041  34.349  1.00  0.00     0.131 A 
ATOM     85  C   UNL A   1      45.062  26.051  36.111  1.00  0.00     0.055 A 
ATOM     86  C   UNL A   1      46.760  27.530  35.260  1.00  0.00     0.041 A 
ATOM     87  F   UNL A   1      46.242  29.025  33.531  1.00  0.00    -0.206 F 
ATOM     88  C   UNL A   1      46.372  26.535  36.155  1.00  0.00     0.022 A 
BRANCH  85  89
ATOM     89  S   UNL A   1      44.501  24.840  37.339  1.00  0.00     0.124 S 
ATOM     90  O   UNL A   1      44.998  25.417  38.583  1.00  0.00    -0.237 OA
ATOM     91  O   UNL A   1      43.052  24.859  37.161  1.00  0.00    -0.237 OA
ATOM     92  O   UNL A   1      45.157  23.601  36.923  1.00  0.00    -0.744 OA
ENDBRANCH  85  89
ENDBRANCH  59  82
ENDBRANCH  33  34
ENDBRANCH  26  28
ENDBRANCH  25  26
ENDBRANCH  24  25
ENDBRANCH   1  24
TORSDOF 17
ENDMDL
MODEL 3
REMARK VINA RESULT:     -11.6      4.903     10.052
REMARK SMILES C[C@@H]1C(=O)NC(=O)CN1C(=O)NC1(CC(=O)OCCOC(=O)c2ccc(-c3c4nc(c(-c5cc(S(=O)(=O)[O-])ccc5F)c5ccc([nH]5)c(-c5cc(S(=O)(=O)[O-])ccc5F)c5nc(c(-c6cc(S(=O)(=O)[O-])ccc6F)c6ccc3[nH]6)C=C5)C=C4)cc2)CCC1
REMARK SMILES IDX 18 1 17 2 15 3 16 4 14 5 13 6 86 7 88 8 87 9 12 10 10 11
REMARK SMILES IDX 11 12 9 14 1 15 2 16 3 17 4 18 5 19 8 20 6 21 7 23 19 24
REMARK SMILES IDX 20 25 21 26 22 27 23 28 24 29 85 30 25 31 84 32 26 33 27 34
REMARK SMILES IDX 28 35 78 36 29 37 83 38 77 39 79 40 30 41 82 42 76 43 75 44
REMARK SMILES IDX 31 46 63 47 43 48 62 49 44 50 47 51 61 52 80 53 45 54 46 55
REMARK SMILES IDX 60 57 81 58 48 59 32 60 33 61 41 62 34 63 40 64 42 65 39 66
REMARK SMILES IDX 35 67 36 68 37 69 38 70 64 71 65 72 73 73 66 74 72 75 74 76
REMARK SMILES IDX 71 77 67 78 68 79 69 80 70 81 49 82 50 83 58 84 51 85 57 86
REMARK SMILES IDX 59 87 56 88 52 89 53 90 54 91 55 92
REMARK H PARENT 12 13 5 22 79 45 47 56
REMARK Flexibility Score: inf
ROOT
ATOM      1  C   UNL A   1      34.963  22.639  24.096  1.00  0.00     0.274 C 
ENDROOT
BRANCH   1   2
ATOM      2  O   UNL A   1      34.712  23.305  22.828  1.00  0.00    -0.462 OA
BRANCH   2   3
ATOM      3  C   UNL A   1      33.530  23.906  22.493  1.00  0.00     0.308 C 
ATOM      4  O   UNL A   1      33.242  24.285  21.356  1.00  0.00    -0.252 OA
BRANCH   3   5
ATOM      5  C   UNL A   1      32.565  24.012  23.701  1.00  0.00     0.151 C 
BRANCH   5   6
ATOM      6  C   UNL A   1      32.177  25.454  23.967  1.00  0.00     0.052 C 
ATOM      7  C   UNL A   1      33.087  26.771  23.979  1.00  0.00     0.029 C 
ATOM      8  C   UNL A   1      32.224  25.649  25.536  1.00  0.00     0.029 C 
ATOM      9  C   UNL A   1      33.587  26.362  25.357  1.00  0.00     0.005 C 
BRANCH   6  10
ATOM     10  N   UNL A   1      30.990  25.815  23.095  1.00  0.00    -0.332 N 
ATOM     11  C   UNL A   1      30.691  26.931  22.413  1.00  0.00     0.318 C 
ATOM     12  O   UNL A   1      31.064  26.764  21.254  1.00  0.00    -0.249 OA
ATOM     13  H   UNL A   1      30.317  25.101  23.015  1.00  0.00     0.165 HD
BRANCH  11  14
ATOM     14  N   UNL A   1      29.953  28.001  22.886  1.00  0.00    -0.304 N 
ATOM     15  C   UNL A   1      30.550  29.993  24.242  1.00  0.00     0.042 C 
ATOM     16  C   UNL A   1      30.254  29.441  22.848  1.00  0.00     0.174 C 
ATOM     17  C   UNL A   1      29.049  30.256  22.287  1.00  0.00     0.249 C 
ATOM     18  O   UNL A   1      29.155  31.421  21.904  1.00  0.00    -0.272 OA
ATOM     19  N   UNL A   1      27.793  29.720  22.450  1.00  0.00    -0.293 N 
ATOM     20  C   UNL A   1      28.683  27.768  23.611  1.00  0.00     0.222 C 
ATOM     21  C   UNL A   1      27.494  28.575  23.129  1.00  0.00     0.246 C 
ATOM     22  H   UNL A   1      27.042  30.207  22.039  1.00  0.00     0.173 HD
ATOM     23  O   UNL A   1      26.332  28.308  23.432  1.00  0.00    -0.273 OA
ENDBRANCH  11  14
ENDBRANCH   6  10
ENDBRANCH   5   6
ENDBRANCH   3   5
ENDBRANCH   2   3
ENDBRANCH   1   2
BRANCH   1  24
ATOM     24  C   UNL A   1      36.439  22.072  24.182  1.00  0.00     0.275 C 
BRANCH  24  25
ATOM     25  O   UNL A   1      36.888  21.628  25.513  1.00  0.00    -0.458 OA
BRANCH  25  26
ATOM     26  C   UNL A   1      38.246  21.563  25.765  1.00  0.00     0.338 C 
ATOM     27  O   UNL A   1      38.908  20.570  25.481  1.00  0.00    -0.246 OA
BRANCH  26  28
ATOM     28  C   UNL A   1      38.926  22.791  26.432  1.00  0.00     0.060 A 
ATOM     29  C   UNL A   1      38.606  24.126  26.172  1.00  0.00     0.016 A 
ATOM     30  C   UNL A   1      40.050  22.631  27.255  1.00  0.00     0.016 A 
ATOM     31  C   UNL A   1      39.335  25.227  26.607  1.00  0.00     0.010 A 
ATOM     32  C   UNL A   1      40.768  23.755  27.780  1.00  0.00     0.010 A 
ATOM     33  C   UNL A   1      40.409  25.078  27.455  1.00  0.00    -0.014 A 
BRANCH  33  34
ATOM     34  C   UNL A   1      41.153  26.328  27.802  1.00  0.00     0.031 A 
ATOM     35  C   UNL A   1      40.514  27.320  28.731  1.00  0.00     0.074 A 
ATOM     36  C   UNL A   1      42.473  26.473  27.532  1.00  0.00     0.049 A 
ATOM     37  N   UNL A   1      40.880  28.539  29.028  1.00  0.00    -0.248 NA
ATOM     38  C   UNL A   1      39.316  26.856  29.445  1.00  0.00     0.031 C 
ATOM     39  C   UNL A   1      43.324  25.469  26.882  1.00  0.00     0.029 A 
ATOM     40  N   UNL A   1      43.352  27.493  27.821  1.00  0.00    -0.354 N 
ATOM     41  C   UNL A   1      39.910  29.020  29.899  1.00  0.00     0.074 A 
ATOM     42  C   UNL A   1      38.966  27.944  30.116  1.00  0.00     0.031 C 
ATOM     43  C   UNL A   1      44.596  25.900  26.874  1.00  0.00     0.029 A 
ATOM     44  C   UNL A   1      44.634  27.271  27.363  1.00  0.00     0.049 A 
ATOM     45  H   UNL A   1      43.090  28.306  28.310  1.00  0.00     0.167 HD
ATOM     46  C   UNL A   1      39.811  30.262  30.436  1.00  0.00     0.034 A 
ATOM     47  C   UNL A   1      45.693  28.104  27.255  1.00  0.00     0.034 A 
ATOM     48  C   UNL A   1      40.797  31.294  30.224  1.00  0.00     0.049 A 
ATOM     49  C   UNL A   1      45.495  29.540  27.665  1.00  0.00     0.074 A 
ATOM     50  C   UNL A   1      40.772  32.620  30.617  1.00  0.00     0.029 A 
ATOM     51  N   UNL A   1      42.006  31.103  29.562  1.00  0.00    -0.354 N 
ATOM     52  N   UNL A   1      44.469  30.088  28.276  1.00  0.00    -0.248 NA
ATOM     53  C   UNL A   1      46.564  30.483  27.318  1.00  0.00     0.031 C 
ATOM     54  C   UNL A   1      41.933  33.243  30.136  1.00  0.00     0.029 A 
ATOM     55  C   UNL A   1      42.716  32.290  29.502  1.00  0.00     0.049 A 
ATOM     56  H   UNL A   1      42.312  30.244  29.190  1.00  0.00     0.167 HD
ATOM     57  C   UNL A   1      44.763  31.444  28.371  1.00  0.00     0.074 A 
ATOM     58  C   UNL A   1      46.078  31.624  27.786  1.00  0.00     0.031 C 
ATOM     59  C   UNL A   1      44.012  32.451  28.884  1.00  0.00     0.034 A 
BRANCH  46  60
ATOM     60  C   UNL A   1      38.522  30.588  31.148  1.00  0.00     0.023 A 
ATOM     61  C   UNL A   1      37.426  31.185  30.502  1.00  0.00     0.031 A 
ATOM     62  C   UNL A   1      38.443  30.397  32.540  1.00  0.00     0.131 A 
ATOM     63  C   UNL A   1      36.340  31.652  31.264  1.00  0.00     0.055 A 
ATOM     64  C   UNL A   1      37.327  30.790  33.279  1.00  0.00     0.041 A 
ATOM     65  F   UNL A   1      39.471  29.858  33.216  1.00  0.00    -0.206 F 
ATOM     66  C   UNL A   1      36.275  31.440  32.643  1.00  0.00     0.022 A 
BRANCH  63  67
ATOM     67  S   UNL A   1      35.099  32.697  30.449  1.00  0.00     0.124 S 
ATOM     68  O   UNL A   1      34.782  31.904  29.257  1.00  0.00    -0.237 OA
ATOM     69  O   UNL A   1      34.057  32.795  31.448  1.00  0.00    -0.237 OA
ATOM     70  O   UNL A   1      35.829  33.941  30.173  1.00  0.00    -0.744 OA
ENDBRANCH  63  67
ENDBRANCH  46  60
BRANCH  47  71
ATOM     71  C   UNL A   1      46.949  27.670  26.565  1.00  0.00     0.023 A 
ATOM     72  C   UNL A   1      47.137  27.835  25.182  1.00  0.00     0.031 A 
ATOM     73  C   UNL A   1      47.968  27.013  27.285  1.00  0.00     0.131 A 
ATOM     74  C   UNL A   1      48.303  27.340  24.568  1.00  0.00     0.055 A 
ATOM     75  C   UNL A   1      49.147  26.573  26.681  1.00  0.00     0.041 A 
ATOM     76  F   UNL A   1      47.837  26.794  28.603  1.00  0.00    -0.206 F 
ATOM     77  C   UNL A   1      49.316  26.729  25.312  1.00  0.00     0.022 A 
BRANCH  74  78
ATOM     78  S   UNL A   1      48.462  27.445  22.762  1.00  0.00     0.124 S 
ATOM     79  O   UNL A   1      49.759  28.094  22.614  1.00  0.00    -0.237 OA
ATOM     80  O   UNL A   1      48.395  26.042  22.368  1.00  0.00    -0.237 OA
ATOM     81  O   UNL A   1      47.310  28.254  22.364  1.00  0.00    -0.744 OA
ENDBRANCH  74  78
ENDBRANCH  47  71
BRANCH  59  82
ATOM     82  C   UNL A   1      44.613  33.830  28.838  1.00  0.00     0.023 A 
ATOM     83  C   UNL A   1      45.425  34.309  29.881  1.00  0.00     0.031 A 
ATOM     84  C   UNL A   1      44.361  34.677  27.746  1.00  0.00     0.131 A 
ATOM     85  C   UNL A   1      45.920  35.620  29.831  1.00  0.00     0.055 A 
ATOM     86  C   UNL A   1      44.900  35.963  27.678  1.00  0.00     0.041 A 
ATOM     87  F   UNL A   1      43.588  34.268  26.729  1.00  0.00    -0.206 F 
ATOM     88  C   UNL A   1      45.676  36.445  28.729  1.00  0.00     0.022 A 
BRANCH  85  89
ATOM     89  S   UNL A   1      46.830  36.264  31.261  1.00  0.00     0.124 S 
ATOM     90  O   UNL A   1      47.698  35.140  31.598  1.00  0.00    -0.237 OA
ATOM     91  O   UNL A   1      47.495  37.440  30.709  1.00  0.00    -0.237 OA
ATOM     92  O   UNL A   1      45.779  36.551  32.237  1.00  0.00    -0.744 OA
ENDBRANCH  85  89
ENDBRANCH  59  82
ENDBRANCH  33  34
ENDBRANCH  26  28
ENDBRANCH  25  26
ENDBRANCH  24  25
ENDBRANCH   1  24
TORSDOF 17
ENDMDL
