MODEL 1
REMARK VINA RESULT:     -11.3      0.000      0.000
REMARK SMILES O=C(CCCNC(=O)N1CC[C@@H](C(=O)OCCOC(=O)c2ccc(-c3c4nc(c(-c5cc(S(=O)(=O)[O-])ccc5F)c5ccc([nH]5)c(-c5cc(S(=O)(=O)[O-])ccc5F)c5nc(c(-c6cc(S(=O)(=O)[O-])ccc6F)c6ccc3[nH]6)C=C5)C=C4)cc2)C1)NC1CC1
REMARK SMILES IDX 15 1 13 2 14 3 12 4 9 5 10 6 84 7 11 8 7 9 6 10 8 12 5 13
REMARK SMILES IDX 4 14 3 15 2 16 1 17 85 18 86 20 87 21 88 22 16 23 17 24
REMARK SMILES IDX 18 25 19 26 20 27 21 28 22 29 83 30 23 31 82 32 24 33 25 34
REMARK SMILES IDX 26 35 76 36 27 37 81 38 75 39 77 40 28 41 80 42 74 43 73 44
REMARK SMILES IDX 29 46 61 47 41 48 60 49 42 50 45 51 59 52 78 53 43 54 44 55
REMARK SMILES IDX 58 57 79 58 46 59 30 60 31 61 39 62 32 63 38 64 40 65 37 66
REMARK SMILES IDX 33 67 34 68 35 69 36 70 62 71 63 72 71 73 64 74 70 75 72 76
REMARK SMILES IDX 69 77 65 78 66 79 67 80 68 81 47 82 48 83 56 84 49 85 55 86
REMARK SMILES IDX 57 87 54 88 50 89 51 90 52 91 53 92
REMARK H PARENT 6 11 85 19 77 45 45 56
REMARK Flexibility Score: inf
ROOT
ATOM      1  O   UNL A   1      32.583  28.570  25.170  1.00  0.00    -0.462 OA
ENDROOT
BRANCH   1   2
ATOM      2  C   UNL A   1      32.600  27.399  24.469  1.00  0.00     0.310 C 
ATOM      3  O   UNL A   1      32.097  27.234  23.368  1.00  0.00    -0.252 OA
BRANCH   2   4
ATOM      4  C   UNL A   1      33.381  26.353  25.233  1.00  0.00     0.120 C 
ATOM      5  N   UNL A   1      32.314  24.383  26.029  1.00  0.00    -0.324 N 
ATOM      6  C   UNL A   1      32.528  24.212  24.607  1.00  0.00     0.122 C 
ATOM      7  C   UNL A   1      32.571  25.768  26.395  1.00  0.00     0.136 C 
ATOM      8  C   UNL A   1      33.692  25.151  24.337  1.00  0.00     0.039 C 
BRANCH   5   9
ATOM      9  C   UNL A   1      31.647  23.554  26.875  1.00  0.00     0.317 C 
ATOM     10  N   UNL A   1      32.297  22.507  27.435  1.00  0.00    -0.338 N 
ATOM     11  H   UNL A   1      31.745  21.716  27.632  1.00  0.00     0.165 HD
ATOM     12  O   UNL A   1      30.467  23.734  27.178  1.00  0.00    -0.249 OA
BRANCH  10  13
ATOM     13  C   UNL A   1      33.704  22.400  27.787  1.00  0.00     0.118 C 
BRANCH  13  14
ATOM     14  C   UNL A   1      34.555  21.900  26.620  1.00  0.00     0.031 C 
BRANCH  14  15
ATOM     15  C   UNL A   1      33.842  20.940  25.671  1.00  0.00     0.102 C 
BRANCH  15  16
ATOM     16  C   UNL A   1      34.798  19.903  25.118  1.00  0.00     0.220 C 
ATOM     17  O   UNL A   1      35.974  20.188  24.914  1.00  0.00    -0.275 OA
ATOM     18  N   UNL A   1      34.192  18.691  24.850  1.00  0.00    -0.353 N 
ATOM     19  H   UNL A   1      33.240  18.612  25.086  1.00  0.00     0.163 HD
BRANCH  18  20
ATOM     20  C   UNL A   1      34.805  17.535  24.263  1.00  0.00     0.082 C 
ATOM     21  C   UNL A   1      34.523  16.130  24.708  1.00  0.00     0.027 C 
ATOM     22  C   UNL A   1      34.069  16.597  23.352  1.00  0.00     0.027 C 
ENDBRANCH  18  20
ENDBRANCH  15  16
ENDBRANCH  14  15
ENDBRANCH  13  14
ENDBRANCH  10  13
ENDBRANCH   5   9
ENDBRANCH   2   4
ENDBRANCH   1   2
BRANCH   1  23
ATOM     23  C   UNL A   1      31.465  29.449  24.930  1.00  0.00     0.274 C 
BRANCH  23  24
ATOM     24  C   UNL A   1      31.529  30.644  25.875  1.00  0.00     0.275 C 
BRANCH  24  25
ATOM     25  O   UNL A   1      32.589  30.426  26.818  1.00  0.00    -0.458 OA
BRANCH  25  26
ATOM     26  C   UNL A   1      33.214  31.536  27.268  1.00  0.00     0.338 C 
ATOM     27  O   UNL A   1      32.755  32.668  27.314  1.00  0.00    -0.246 OA
BRANCH  26  28
ATOM     28  C   UNL A   1      34.575  31.185  27.721  1.00  0.00     0.060 A 
ATOM     29  C   UNL A   1      34.896  29.858  28.002  1.00  0.00     0.016 A 
ATOM     30  C   UNL A   1      35.505  32.190  27.972  1.00  0.00     0.016 A 
ATOM     31  C   UNL A   1      36.094  29.545  28.647  1.00  0.00     0.010 A 
ATOM     32  C   UNL A   1      36.754  31.858  28.510  1.00  0.00     0.010 A 
ATOM     33  C   UNL A   1      37.048  30.539  28.906  1.00  0.00    -0.014 A 
BRANCH  33  34
ATOM     34  C   UNL A   1      38.302  30.232  29.661  1.00  0.00     0.031 A 
ATOM     35  C   UNL A   1      39.343  29.326  29.044  1.00  0.00     0.074 A 
ATOM     36  C   UNL A   1      38.545  30.761  30.879  1.00  0.00     0.049 A 
ATOM     37  N   UNL A   1      40.374  28.740  29.596  1.00  0.00    -0.248 NA
ATOM     38  C   UNL A   1      39.180  29.028  27.614  1.00  0.00     0.031 C 
ATOM     39  C   UNL A   1      37.684  31.711  31.583  1.00  0.00     0.029 A 
ATOM     40  N   UNL A   1      39.602  30.577  31.739  1.00  0.00    -0.354 N 
ATOM     41  C   UNL A   1      40.945  27.951  28.599  1.00  0.00     0.074 A 
ATOM     42  C   UNL A   1      40.129  28.127  27.415  1.00  0.00     0.031 C 
ATOM     43  C   UNL A   1      38.265  32.058  32.742  1.00  0.00     0.029 A 
ATOM     44  C   UNL A   1      39.485  31.279  32.917  1.00  0.00     0.049 A 
ATOM     45  H   UNL A   1      40.370  29.997  31.532  1.00  0.00     0.167 HD
ATOM     46  C   UNL A   1      42.043  27.156  28.664  1.00  0.00     0.034 A 
ATOM     47  C   UNL A   1      40.239  31.262  34.034  1.00  0.00     0.034 A 
ATOM     48  C   UNL A   1      42.878  27.026  29.834  1.00  0.00     0.049 A 
ATOM     49  C   UNL A   1      41.419  30.329  34.111  1.00  0.00     0.074 A 
ATOM     50  C   UNL A   1      44.002  26.238  30.014  1.00  0.00     0.029 A 
ATOM     51  N   UNL A   1      42.693  27.722  31.022  1.00  0.00    -0.354 N 
ATOM     52  N   UNL A   1      41.881  29.502  33.202  1.00  0.00    -0.248 NA
ATOM     53  C   UNL A   1      42.167  30.314  35.375  1.00  0.00     0.031 C 
ATOM     54  C   UNL A   1      44.466  26.419  31.323  1.00  0.00     0.029 A 
ATOM     55  C   UNL A   1      43.672  27.371  31.940  1.00  0.00     0.049 A 
ATOM     56  H   UNL A   1      41.971  28.369  31.189  1.00  0.00     0.167 HD
ATOM     57  C   UNL A   1      42.984  28.881  33.782  1.00  0.00     0.074 A 
ATOM     58  C   UNL A   1      43.129  29.442  35.109  1.00  0.00     0.031 C 
ATOM     59  C   UNL A   1      43.802  27.929  33.265  1.00  0.00     0.034 A 
BRANCH  46  60
ATOM     60  C   UNL A   1      42.358  26.316  27.447  1.00  0.00     0.023 A 
ATOM     61  C   UNL A   1      41.936  24.980  27.332  1.00  0.00     0.031 A 
ATOM     62  C   UNL A   1      43.148  26.846  26.410  1.00  0.00     0.131 A 
ATOM     63  C   UNL A   1      42.380  24.196  26.255  1.00  0.00     0.055 A 
ATOM     64  C   UNL A   1      43.513  26.087  25.297  1.00  0.00     0.041 A 
ATOM     65  F   UNL A   1      43.599  28.109  26.473  1.00  0.00    -0.206 F 
ATOM     66  C   UNL A   1      43.145  24.747  25.225  1.00  0.00     0.022 A 
BRANCH  63  67
ATOM     67  S   UNL A   1      42.093  22.406  26.312  1.00  0.00     0.124 S 
ATOM     68  O   UNL A   1      42.777  21.959  25.101  1.00  0.00    -0.237 OA
ATOM     69  O   UNL A   1      42.716  22.028  27.575  1.00  0.00    -0.237 OA
ATOM     70  O   UNL A   1      40.637  22.291  26.274  1.00  0.00    -0.744 OA
ENDBRANCH  63  67
ENDBRANCH  46  60
BRANCH  47  71
ATOM     71  C   UNL A   1      39.868  32.102  35.208  1.00  0.00     0.023 A 
ATOM     72  C   UNL A   1      39.023  31.605  36.212  1.00  0.00     0.031 A 
ATOM     73  C   UNL A   1      40.316  33.432  35.321  1.00  0.00     0.131 A 
ATOM     74  C   UNL A   1      38.624  32.441  37.266  1.00  0.00     0.055 A 
ATOM     75  C   UNL A   1      39.959  34.241  36.399  1.00  0.00     0.041 A 
ATOM     76  F   UNL A   1      41.123  33.957  34.386  1.00  0.00    -0.206 F 
ATOM     77  C   UNL A   1      39.098  33.750  37.375  1.00  0.00     0.022 A 
BRANCH  74  78
ATOM     78  S   UNL A   1      37.417  31.809  38.463  1.00  0.00     0.124 S 
ATOM     79  O   UNL A   1      36.328  32.769  38.321  1.00  0.00    -0.237 OA
ATOM     80  O   UNL A   1      37.159  30.467  37.952  1.00  0.00    -0.237 OA
ATOM     81  O   UNL A   1      38.138  31.862  39.733  1.00  0.00    -0.744 OA
ENDBRANCH  74  78
ENDBRANCH  47  71
BRANCH  59  82
ATOM     82  C   UNL A   1      44.956  27.483  34.126  1.00  0.00     0.023 A 
ATOM     83  C   UNL A   1      44.826  26.436  35.055  1.00  0.00     0.031 A 
ATOM     84  C   UNL A   1      46.197  28.138  34.033  1.00  0.00     0.131 A 
ATOM     85  C   UNL A   1      45.903  26.110  35.895  1.00  0.00     0.055 A 
ATOM     86  C   UNL A   1      47.280  27.774  34.835  1.00  0.00     0.041 A 
ATOM     87  F   UNL A   1      46.375  29.145  33.164  1.00  0.00    -0.206 F 
ATOM     88  C   UNL A   1      47.132  26.765  35.782  1.00  0.00     0.022 A 
BRANCH  85  89
ATOM     89  S   UNL A   1      45.648  24.879  37.202  1.00  0.00     0.124 S 
ATOM     90  O   UNL A   1      44.595  25.496  38.002  1.00  0.00    -0.237 OA
ATOM     91  O   UNL A   1      45.261  23.693  36.443  1.00  0.00    -0.237 OA
ATOM     92  O   UNL A   1      46.953  24.796  37.855  1.00  0.00    -0.744 OA
ENDBRANCH  85  89
ENDBRANCH  59  82
ENDBRANCH  33  34
ENDBRANCH  26  28
ENDBRANCH  25  26
ENDBRANCH  24  25
ENDBRANCH  23  24
ENDBRANCH   1  23
TORSDOF 20
ENDMDL
MODEL 2
REMARK VINA RESULT:     -11.0      5.138     10.547
REMARK SMILES O=C(CCCNC(=O)N1CC[C@@H](C(=O)OCCOC(=O)c2ccc(-c3c4nc(c(-c5cc(S(=O)(=O)[O-])ccc5F)c5ccc([nH]5)c(-c5cc(S(=O)(=O)[O-])ccc5F)c5nc(c(-c6cc(S(=O)(=O)[O-])ccc6F)c6ccc3[nH]6)C=C5)C=C4)cc2)C1)NC1CC1
REMARK SMILES IDX 15 1 13 2 14 3 12 4 9 5 10 6 84 7 11 8 7 9 6 10 8 12 5 13
REMARK SMILES IDX 4 14 3 15 2 16 1 17 85 18 86 20 87 21 88 22 16 23 17 24
REMARK SMILES IDX 18 25 19 26 20 27 21 28 22 29 83 30 23 31 82 32 24 33 25 34
REMARK SMILES IDX 26 35 76 36 27 37 81 38 75 39 77 40 28 41 80 42 74 43 73 44
REMARK SMILES IDX 29 46 61 47 41 48 60 49 42 50 45 51 59 52 78 53 43 54 44 55
REMARK SMILES IDX 58 57 79 58 46 59 30 60 31 61 39 62 32 63 38 64 40 65 37 66
REMARK SMILES IDX 33 67 34 68 35 69 36 70 62 71 63 72 71 73 64 74 70 75 72 76
REMARK SMILES IDX 69 77 65 78 66 79 67 80 68 81 47 82 48 83 56 84 49 85 55 86
REMARK SMILES IDX 57 87 54 88 50 89 51 90 52 91 53 92
REMARK H PARENT 6 11 85 19 77 45 45 56
REMARK Flexibility Score: inf
ROOT
ATOM      1  O   UNL A   1      34.058  20.251  25.363  1.00  0.00    -0.462 OA
ENDROOT
BRANCH   1   2
ATOM      2  C   UNL A   1      33.150  19.909  24.403  1.00  0.00     0.310 C 
ATOM      3  O   UNL A   1      33.089  18.820  23.852  1.00  0.00    -0.252 OA
BRANCH   2   4
ATOM      4  C   UNL A   1      32.197  21.059  24.164  1.00  0.00     0.120 C 
ATOM      5  N   UNL A   1      32.853  23.296  24.631  1.00  0.00    -0.324 N 
ATOM      6  C   UNL A   1      33.483  22.914  23.384  1.00  0.00     0.122 C 
ATOM      7  C   UNL A   1      32.287  22.117  25.268  1.00  0.00     0.136 C 
ATOM      8  C   UNL A   1      32.568  21.809  22.882  1.00  0.00     0.039 C 
BRANCH   5   9
ATOM      9  C   UNL A   1      33.027  24.449  25.330  1.00  0.00     0.317 C 
ATOM     10  N   UNL A   1      32.362  25.566  24.954  1.00  0.00    -0.338 N 
ATOM     11  H   UNL A   1      32.819  26.419  25.137  1.00  0.00     0.165 HD
ATOM     12  O   UNL A   1      33.753  24.512  26.324  1.00  0.00    -0.249 OA
BRANCH  10  13
ATOM     13  C   UNL A   1      31.060  25.671  24.314  1.00  0.00     0.118 C 
BRANCH  13  14
ATOM     14  C   UNL A   1      30.594  27.122  24.188  1.00  0.00     0.031 C 
BRANCH  14  15
ATOM     15  C   UNL A   1      29.209  27.299  23.570  1.00  0.00     0.102 C 
BRANCH  15  16
ATOM     16  C   UNL A   1      29.148  28.542  22.708  1.00  0.00     0.220 C 
ATOM     17  O   UNL A   1      30.037  28.779  21.895  1.00  0.00    -0.275 OA
ATOM     18  N   UNL A   1      28.054  29.341  22.978  1.00  0.00    -0.353 N 
ATOM     19  H   UNL A   1      27.417  29.004  23.649  1.00  0.00     0.163 HD
BRANCH  18  20
ATOM     20  C   UNL A   1      27.747  30.609  22.383  1.00  0.00     0.082 C 
ATOM     21  C   UNL A   1      27.757  31.905  23.139  1.00  0.00     0.027 C 
ATOM     22  C   UNL A   1      28.794  31.641  22.081  1.00  0.00     0.027 C 
ENDBRANCH  18  20
ENDBRANCH  15  16
ENDBRANCH  14  15
ENDBRANCH  13  14
ENDBRANCH  10  13
ENDBRANCH   5   9
ENDBRANCH   2   4
ENDBRANCH   1   2
BRANCH   1  23
ATOM     23  C   UNL A   1      35.445  20.249  24.967  1.00  0.00     0.274 C 
BRANCH  23  24
ATOM     24  C   UNL A   1      36.189  21.379  25.671  1.00  0.00     0.275 C 
BRANCH  24  25
ATOM     25  O   UNL A   1      37.422  21.618  24.977  1.00  0.00    -0.458 OA
BRANCH  25  26
ATOM     26  C   UNL A   1      38.547  21.256  25.634  1.00  0.00     0.338 C 
ATOM     27  O   UNL A   1      39.040  20.139  25.683  1.00  0.00    -0.246 OA
BRANCH  26  28
ATOM     28  C   UNL A   1      39.127  22.438  26.302  1.00  0.00     0.060 A 
ATOM     29  C   UNL A   1      38.616  23.708  26.042  1.00  0.00     0.016 A 
ATOM     30  C   UNL A   1      40.254  22.297  27.108  1.00  0.00     0.016 A 
ATOM     31  C   UNL A   1      39.297  24.844  26.482  1.00  0.00     0.010 A 
ATOM     32  C   UNL A   1      40.867  23.435  27.645  1.00  0.00     0.010 A 
ATOM     33  C   UNL A   1      40.431  24.729  27.297  1.00  0.00    -0.014 A 
BRANCH  33  34
ATOM     34  C   UNL A   1      41.213  25.934  27.714  1.00  0.00     0.031 A 
ATOM     35  C   UNL A   1      40.557  26.988  28.576  1.00  0.00     0.074 A 
ATOM     36  C   UNL A   1      42.505  26.099  27.359  1.00  0.00     0.049 A 
ATOM     37  N   UNL A   1      40.953  28.204  28.856  1.00  0.00    -0.248 NA
ATOM     38  C   UNL A   1      39.271  26.622  29.186  1.00  0.00     0.031 C 
ATOM     39  C   UNL A   1      43.308  25.145  26.595  1.00  0.00     0.029 A 
ATOM     40  N   UNL A   1      43.374  27.137  27.604  1.00  0.00    -0.354 N 
ATOM     41  C   UNL A   1      39.934  28.771  29.618  1.00  0.00     0.074 A 
ATOM     42  C   UNL A   1      38.898  27.765  29.740  1.00  0.00     0.031 C 
ATOM     43  C   UNL A   1      44.558  25.619  26.473  1.00  0.00     0.029 A 
ATOM     44  C   UNL A   1      44.621  26.955  27.053  1.00  0.00     0.049 A 
ATOM     45  H   UNL A   1      43.125  27.935  28.125  1.00  0.00     0.167 HD
ATOM     46  C   UNL A   1      39.866  30.012  30.164  1.00  0.00     0.034 A 
ATOM     47  C   UNL A   1      45.681  27.785  26.973  1.00  0.00     0.034 A 
ATOM     48  C   UNL A   1      40.925  30.990  30.080  1.00  0.00     0.049 A 
ATOM     49  C   UNL A   1      45.568  29.179  27.532  1.00  0.00     0.074 A 
ATOM     50  C   UNL A   1      40.955  32.280  30.581  1.00  0.00     0.029 A 
ATOM     51  N   UNL A   1      42.155  30.778  29.470  1.00  0.00    -0.354 N 
ATOM     52  N   UNL A   1      44.556  29.743  28.149  1.00  0.00    -0.248 NA
ATOM     53  C   UNL A   1      46.735  30.055  27.363  1.00  0.00     0.031 C 
ATOM     54  C   UNL A   1      42.179  32.863  30.232  1.00  0.00     0.029 A 
ATOM     55  C   UNL A   1      42.942  31.915  29.571  1.00  0.00     0.049 A 
ATOM     56  H   UNL A   1      42.427  29.942  29.028  1.00  0.00     0.167 HD
ATOM     57  C   UNL A   1      44.974  31.036  28.455  1.00  0.00     0.074 A 
ATOM     58  C   UNL A   1      46.334  31.160  27.973  1.00  0.00     0.031 C 
ATOM     59  C   UNL A   1      44.293  32.032  29.078  1.00  0.00     0.034 A 
BRANCH  46  60
ATOM     60  C   UNL A   1      38.572  30.396  30.845  1.00  0.00     0.023 A 
ATOM     61  C   UNL A   1      37.520  31.019  30.151  1.00  0.00     0.031 A 
ATOM     62  C   UNL A   1      38.414  30.188  32.227  1.00  0.00     0.131 A 
ATOM     63  C   UNL A   1      36.402  31.493  30.855  1.00  0.00     0.055 A 
ATOM     64  C   UNL A   1      37.260  30.581  32.907  1.00  0.00     0.041 A 
ATOM     65  F   UNL A   1      39.392  29.616  32.948  1.00  0.00    -0.206 F 
ATOM     66  C   UNL A   1      36.254  31.256  32.224  1.00  0.00     0.022 A 
BRANCH  63  67
ATOM     67  S   UNL A   1      35.230  32.575  29.991  1.00  0.00     0.124 S 
ATOM     68  O   UNL A   1      34.711  31.681  28.957  1.00  0.00    -0.237 OA
ATOM     69  O   UNL A   1      34.296  32.937  31.050  1.00  0.00    -0.237 OA
ATOM     70  O   UNL A   1      36.069  33.664  29.497  1.00  0.00    -0.744 OA
ENDBRANCH  63  67
ENDBRANCH  46  60
BRANCH  47  71
ATOM     71  C   UNL A   1      46.926  27.354  26.276  1.00  0.00     0.023 A 
ATOM     72  C   UNL A   1      47.162  27.709  24.938  1.00  0.00     0.031 A 
ATOM     73  C   UNL A   1      47.877  26.542  26.921  1.00  0.00     0.131 A 
ATOM     74  C   UNL A   1      48.302  27.224  24.279  1.00  0.00     0.055 A 
ATOM     75  C   UNL A   1      49.035  26.108  26.277  1.00  0.00     0.041 A 
ATOM     76  F   UNL A   1      47.697  26.171  28.199  1.00  0.00    -0.206 F 
ATOM     77  C   UNL A   1      49.248  26.440  24.942  1.00  0.00     0.022 A 
BRANCH  74  78
ATOM     78  S   UNL A   1      48.498  27.584  22.512  1.00  0.00     0.124 S 
ATOM     79  O   UNL A   1      47.282  28.337  22.226  1.00  0.00    -0.237 OA
ATOM     80  O   UNL A   1      49.743  28.344  22.494  1.00  0.00    -0.237 OA
ATOM     81  O   UNL A   1      48.571  26.258  21.902  1.00  0.00    -0.744 OA
ENDBRANCH  74  78
ENDBRANCH  47  71
BRANCH  59  82
ATOM     82  C   UNL A   1      45.039  33.321  29.315  1.00  0.00     0.023 A 
ATOM     83  C   UNL A   1      45.014  34.374  28.384  1.00  0.00     0.031 A 
ATOM     84  C   UNL A   1      45.812  33.483  30.479  1.00  0.00     0.131 A 
ATOM     85  C   UNL A   1      45.790  35.521  28.607  1.00  0.00     0.055 A 
ATOM     86  C   UNL A   1      46.541  34.648  30.719  1.00  0.00     0.041 A 
ATOM     87  F   UNL A   1      45.873  32.508  31.399  1.00  0.00    -0.206 F 
ATOM     88  C   UNL A   1      46.544  35.670  29.774  1.00  0.00     0.022 A 
BRANCH  85  89
ATOM     89  S   UNL A   1      45.876  36.783  27.306  1.00  0.00     0.124 S 
ATOM     90  O   UNL A   1      44.466  37.088  27.085  1.00  0.00    -0.237 OA
ATOM     91  O   UNL A   1      46.664  37.834  27.942  1.00  0.00    -0.237 OA
ATOM     92  O   UNL A   1      46.541  36.093  26.202  1.00  0.00    -0.744 OA
ENDBRANCH  85  89
ENDBRANCH  59  82
ENDBRANCH  33  34
ENDBRANCH  26  28
ENDBRANCH  25  26
ENDBRANCH  24  25
ENDBRANCH  23  24
ENDBRANCH   1  23
TORSDOF 20
ENDMDL
MODEL 3
REMARK VINA RESULT:     -10.9      1.405      1.723
REMARK SMILES O=C(CCCNC(=O)N1CC[C@@H](C(=O)OCCOC(=O)c2ccc(-c3c4nc(c(-c5cc(S(=O)(=O)[O-])ccc5F)c5ccc([nH]5)c(-c5cc(S(=O)(=O)[O-])ccc5F)c5nc(c(-c6cc(S(=O)(=O)[O-])ccc6F)c6ccc3[nH]6)C=C5)C=C4)cc2)C1)NC1CC1
REMARK SMILES IDX 15 1 13 2 14 3 12 4 9 5 10 6 84 7 11 8 7 9 6 10 8 12 5 13
REMARK SMILES IDX 4 14 3 15 2 16 1 17 85 18 86 20 87 21 88 22 16 23 17 24
REMARK SMILES IDX 18 25 19 26 20 27 21 28 22 29 83 30 23 31 82 32 24 33 25 34
REMARK SMILES IDX 26 35 76 36 27 37 81 38 75 39 77 40 28 41 80 42 74 43 73 44
REMARK SMILES IDX 29 46 61 47 41 48 60 49 42 50 45 51 59 52 78 53 43 54 44 55
REMARK SMILES IDX 58 57 79 58 46 59 30 60 31 61 39 62 32 63 38 64 40 65 37 66
REMARK SMILES IDX 33 67 34 68 35 69 36 70 62 71 63 72 71 73 64 74 70 75 72 76
REMARK SMILES IDX 69 77 65 78 66 79 67 80 68 81 47 82 48 83 56 84 49 85 55 86
REMARK SMILES IDX 57 87 54 88 50 89 51 90 52 91 53 92
REMARK H PARENT 6 11 85 19 77 45 45 56
REMARK Flexibility Score: inf
ROOT
ATOM      1  O   UNL A   1      32.378  28.764  25.224  1.00  0.00    -0.462 OA
ENDROOT
BRANCH   1   2
ATOM      2  C   UNL A   1      32.368  27.543  24.614  1.00  0.00     0.310 C 
ATOM      3  O   UNL A   1      31.880  27.311  23.518  1.00  0.00    -0.252 OA
BRANCH   2   4
ATOM      4  C   UNL A   1      33.098  26.533  25.472  1.00  0.00     0.120 C 
ATOM      5  N   UNL A   1      32.048  24.498  26.109  1.00  0.00    -0.324 N 
ATOM      6  C   UNL A   1      32.459  24.356  24.728  1.00  0.00     0.122 C 
ATOM      7  C   UNL A   1      32.175  25.890  26.512  1.00  0.00     0.136 C 
ATOM      8  C   UNL A   1      33.594  25.361  24.621  1.00  0.00     0.039 C 
BRANCH   5   9
ATOM      9  C   UNL A   1      31.322  23.622  26.854  1.00  0.00     0.317 C 
ATOM     10  N   UNL A   1      31.909  22.498  27.325  1.00  0.00    -0.338 N 
ATOM     11  H   UNL A   1      31.318  21.717  27.430  1.00  0.00     0.165 HD
ATOM     12  O   UNL A   1      30.143  23.827  27.145  1.00  0.00    -0.249 OA
BRANCH  10  13
ATOM     13  C   UNL A   1      33.301  22.292  27.698  1.00  0.00     0.118 C 
BRANCH  13  14
ATOM     14  C   UNL A   1      33.994  21.267  26.800  1.00  0.00     0.031 C 
BRANCH  14  15
ATOM     15  C   UNL A   1      33.182  20.824  25.586  1.00  0.00     0.102 C 
BRANCH  15  16
ATOM     16  C   UNL A   1      33.701  19.516  25.026  1.00  0.00     0.220 C 
ATOM     17  O   UNL A   1      34.865  19.420  24.651  1.00  0.00    -0.275 OA
ATOM     18  N   UNL A   1      32.735  18.530  24.956  1.00  0.00    -0.353 N 
ATOM     19  H   UNL A   1      31.847  18.757  25.315  1.00  0.00     0.163 HD
BRANCH  18  20
ATOM     20  C   UNL A   1      32.891  17.211  24.417  1.00  0.00     0.082 C 
ATOM     21  C   UNL A   1      34.201  16.479  24.378  1.00  0.00     0.027 C 
ATOM     22  C   UNL A   1      33.096  15.999  25.278  1.00  0.00     0.027 C 
ENDBRANCH  18  20
ENDBRANCH  15  16
ENDBRANCH  14  15
ENDBRANCH  13  14
ENDBRANCH  10  13
ENDBRANCH   5   9
ENDBRANCH   2   4
ENDBRANCH   1   2
BRANCH   1  23
ATOM     23  C   UNL A   1      31.406  29.724  24.762  1.00  0.00     0.274 C 
BRANCH  23  24
ATOM     24  C   UNL A   1      31.254  30.845  25.784  1.00  0.00     0.275 C 
BRANCH  24  25
ATOM     25  O   UNL A   1      32.257  30.680  26.797  1.00  0.00    -0.458 OA
BRANCH  25  26
ATOM     26  C   UNL A   1      32.902  31.806  27.175  1.00  0.00     0.338 C 
ATOM     27  O   UNL A   1      32.468  32.948  27.137  1.00  0.00    -0.246 OA
BRANCH  26  28
ATOM     28  C   UNL A   1      34.250  31.459  27.667  1.00  0.00     0.060 A 
ATOM     29  C   UNL A   1      34.567  30.133  27.955  1.00  0.00     0.016 A 
ATOM     30  C   UNL A   1      35.169  32.467  27.947  1.00  0.00     0.016 A 
ATOM     31  C   UNL A   1      35.747  29.823  28.633  1.00  0.00     0.010 A 
ATOM     32  C   UNL A   1      36.404  32.138  28.520  1.00  0.00     0.010 A 
ATOM     33  C   UNL A   1      36.690  30.819  28.922  1.00  0.00    -0.014 A 
BRANCH  33  34
ATOM     34  C   UNL A   1      37.923  30.515  29.713  1.00  0.00     0.031 A 
ATOM     35  C   UNL A   1      38.997  29.637  29.113  1.00  0.00     0.074 A 
ATOM     36  C   UNL A   1      38.117  31.023  30.948  1.00  0.00     0.049 A 
ATOM     37  N   UNL A   1      40.018  29.054  29.688  1.00  0.00    -0.248 NA
ATOM     38  C   UNL A   1      38.886  29.365  27.673  1.00  0.00     0.031 C 
ATOM     39  C   UNL A   1      37.219  31.946  31.642  1.00  0.00     0.029 A 
ATOM     40  N   UNL A   1      39.147  30.837  31.840  1.00  0.00    -0.354 N 
ATOM     41  C   UNL A   1      40.633  28.294  28.696  1.00  0.00     0.074 A 
ATOM     42  C   UNL A   1      39.855  28.482  27.488  1.00  0.00     0.031 C 
ATOM     43  C   UNL A   1      37.756  32.278  32.826  1.00  0.00     0.029 A 
ATOM     44  C   UNL A   1      38.981  31.513  33.027  1.00  0.00     0.049 A 
ATOM     45  H   UNL A   1      39.930  30.272  31.647  1.00  0.00     0.167 HD
ATOM     46  C   UNL A   1      41.740  27.514  28.782  1.00  0.00     0.034 A 
ATOM     47  C   UNL A   1      39.698  31.485  34.168  1.00  0.00     0.034 A 
ATOM     48  C   UNL A   1      42.538  27.372  29.976  1.00  0.00     0.049 A 
ATOM     49  C   UNL A   1      40.888  30.567  34.266  1.00  0.00     0.074 A 
ATOM     50  C   UNL A   1      43.667  26.596  30.179  1.00  0.00     0.029 A 
ATOM     51  N   UNL A   1      42.303  28.041  31.171  1.00  0.00    -0.354 N 
ATOM     52  N   UNL A   1      41.392  29.765  33.357  1.00  0.00    -0.248 NA
ATOM     53  C   UNL A   1      41.594  30.537  35.554  1.00  0.00     0.031 C 
ATOM     54  C   UNL A   1      44.084  26.758  31.505  1.00  0.00     0.029 A 
ATOM     55  C   UNL A   1      43.256  27.685  32.114  1.00  0.00     0.049 A 
ATOM     56  H   UNL A   1      41.566  28.674  31.326  1.00  0.00     0.167 HD
ATOM     57  C   UNL A   1      42.484  29.148  33.961  1.00  0.00     0.074 A 
ATOM     58  C   UNL A   1      42.577  29.685  35.304  1.00  0.00     0.031 C 
ATOM     59  C   UNL A   1      43.333  28.219  33.453  1.00  0.00     0.034 A 
BRANCH  46  60
ATOM     60  C   UNL A   1      42.108  26.702  27.559  1.00  0.00     0.023 A 
ATOM     61  C   UNL A   1      41.717  25.361  27.408  1.00  0.00     0.031 A 
ATOM     62  C   UNL A   1      42.917  27.268  26.557  1.00  0.00     0.131 A 
ATOM     63  C   UNL A   1      42.209  24.606  26.331  1.00  0.00     0.055 A 
ATOM     64  C   UNL A   1      43.330  26.537  25.441  1.00  0.00     0.041 A 
ATOM     65  F   UNL A   1      43.340  28.538  26.655  1.00  0.00    -0.206 F 
ATOM     66  C   UNL A   1      42.993  25.192  25.334  1.00  0.00     0.022 A 
BRANCH  63  67
ATOM     67  S   UNL A   1      41.957  22.810  26.348  1.00  0.00     0.124 S 
ATOM     68  O   UNL A   1      40.501  22.717  26.444  1.00  0.00    -0.237 OA
ATOM     69  O   UNL A   1      42.541  22.399  25.077  1.00  0.00    -0.237 OA
ATOM     70  O   UNL A   1      42.681  22.373  27.539  1.00  0.00    -0.744 OA
ENDBRANCH  63  67
ENDBRANCH  46  60
BRANCH  47  71
ATOM     71  C   UNL A   1      39.275  32.296  35.345  1.00  0.00     0.023 A 
ATOM     72  C   UNL A   1      39.716  33.619  35.504  1.00  0.00     0.031 A 
ATOM     73  C   UNL A   1      38.463  31.745  36.353  1.00  0.00     0.131 A 
ATOM     74  C   UNL A   1      39.370  34.336  36.660  1.00  0.00     0.055 A 
ATOM     75  C   UNL A   1      38.078  32.480  37.474  1.00  0.00     0.041 A 
ATOM     76  F   UNL A   1      38.018  30.482  36.252  1.00  0.00    -0.206 F 
ATOM     77  C   UNL A   1      38.542  33.782  37.638  1.00  0.00     0.022 A 
BRANCH  74  78
ATOM     78  S   UNL A   1      40.077  35.989  36.897  1.00  0.00     0.124 S 
ATOM     79  O   UNL A   1      41.485  35.680  37.117  1.00  0.00    -0.237 OA
ATOM     80  O   UNL A   1      39.753  36.640  35.632  1.00  0.00    -0.237 OA
ATOM     81  O   UNL A   1      39.358  36.502  38.061  1.00  0.00    -0.744 OA
ENDBRANCH  74  78
ENDBRANCH  47  71
BRANCH  59  82
ATOM     82  C   UNL A   1      44.465  27.772  34.344  1.00  0.00     0.023 A 
ATOM     83  C   UNL A   1      44.349  26.649  35.182  1.00  0.00     0.031 A 
ATOM     84  C   UNL A   1      45.667  28.501  34.374  1.00  0.00     0.131 A 
ATOM     85  C   UNL A   1      45.397  26.319  36.056  1.00  0.00     0.055 A 
ATOM     86  C   UNL A   1      46.725  28.137  35.207  1.00  0.00     0.041 A 
ATOM     87  F   UNL A   1      45.829  29.582  33.595  1.00  0.00    -0.206 F 
ATOM     88  C   UNL A   1      46.589  27.049  36.065  1.00  0.00     0.022 A 
BRANCH  85  89
ATOM     89  S   UNL A   1      45.148  24.976  37.249  1.00  0.00     0.124 S 
ATOM     90  O   UNL A   1      46.488  24.805  37.800  1.00  0.00    -0.237 OA
ATOM     91  O   UNL A   1      44.153  25.542  38.154  1.00  0.00    -0.237 OA
ATOM     92  O   UNL A   1      44.672  23.867  36.423  1.00  0.00    -0.744 OA
ENDBRANCH  85  89
ENDBRANCH  59  82
ENDBRANCH  33  34
ENDBRANCH  26  28
ENDBRANCH  25  26
ENDBRANCH  24  25
ENDBRANCH  23  24
ENDBRANCH   1  23
TORSDOF 20
ENDMDL
