MODEL 1
REMARK VINA RESULT:     -12.6      0.000      0.000
REMARK SMILES Cc1cccc(S(=O)(=O)Nc2cc(C(=O)OCCOC(=O)c3ccc(-c4c5nc(c(-c6cc(S(=O)(=O)[O-])ccc6F)c6ccc([nH]6)c(-c6cc(S(=O)(=O)[O-])ccc6F)c6nc(c(-c7cc(S(=O)(=O)[O-])ccc7F)c7ccc4[nH]7)C=C6)C=C5)cc3)ccc2N2CCC[C@H](C[NH+]3CCCC3)C2)c1
REMARK SMILES IDX 17 1 16 2 14 3 15 4 13 5 11 6 12 7 87 8 86 9 85 10 10 11
REMARK SMILES IDX 7 13 8 14 9 15 6 16 1 17 2 18 3 19 100 20 4 21 5 22 88 23
REMARK SMILES IDX 89 24 99 25 90 26 92 27 91 28 93 29 94 30 95 31 98 32 96 34
REMARK SMILES IDX 97 35 18 36 19 37 20 38 21 39 22 40 23 41 84 42 24 43 83 44
REMARK SMILES IDX 25 45 26 46 27 47 77 48 28 49 82 50 76 51 78 52 29 53 81 54
REMARK SMILES IDX 75 55 74 56 30 58 62 59 42 60 61 61 43 62 46 63 60 64 79 65
REMARK SMILES IDX 44 66 45 67 59 69 80 70 47 71 31 72 32 73 40 74 33 75 39 76
REMARK SMILES IDX 41 77 38 78 34 79 35 80 36 81 37 82 63 83 64 84 72 85 65 86
REMARK SMILES IDX 71 87 73 88 70 89 66 90 67 91 68 92 69 93 48 94 49 95 57 96
REMARK SMILES IDX 50 97 56 98 58 99 55 100 51 101 52 102 53 103 54 104
REMARK H PARENT 10 12 94 33 78 57 46 68
REMARK Flexibility Score: inf
ROOT
ATOM      1  C   UNL A   1      33.706  32.471  27.557  1.00  0.00     0.275 C 
ENDROOT
BRANCH   1   2
ATOM      2  O   UNL A   1      33.648  31.060  27.818  1.00  0.00    -0.458 OA
BRANCH   2   3
ATOM      3  C   UNL A   1      32.682  30.473  27.088  1.00  0.00     0.338 C 
ATOM      4  O   UNL A   1      31.691  31.030  26.641  1.00  0.00    -0.246 OA
BRANCH   3   5
ATOM      5  C   UNL A   1      32.816  29.033  26.861  1.00  0.00     0.062 A 
ATOM      6  C   UNL A   1      31.954  27.442  25.230  1.00  0.00     0.073 A 
ATOM      7  C   UNL A   1      31.768  28.504  26.112  1.00  0.00     0.044 A 
ATOM      8  C   UNL A   1      33.197  26.738  25.254  1.00  0.00     0.061 A 
ATOM      9  C   UNL A   1      34.204  27.243  26.128  1.00  0.00     0.029 A 
ATOM     10  C   UNL A   1      34.036  28.388  26.912  1.00  0.00     0.018 A 
BRANCH   6  11
ATOM     11  N   UNL A   1      30.990  27.282  24.172  1.00  0.00    -0.277 N 
ATOM     12  H   UNL A   1      30.305  26.587  24.296  1.00  0.00     0.180 HD
BRANCH  11  13
ATOM     13  S   UNL A   1      30.928  28.171  22.746  1.00  0.00     0.261 S 
ATOM     14  O   UNL A   1      30.686  27.267  21.641  1.00  0.00    -0.201 OA
ATOM     15  O   UNL A   1      32.152  28.954  22.783  1.00  0.00    -0.201 OA
BRANCH  13  16
ATOM     16  C   UNL A   1      29.587  29.357  22.768  1.00  0.00     0.088 A 
ATOM     17  C   UNL A   1      28.836  33.101  22.907  1.00  0.00     0.044 C 
ATOM     18  C   UNL A   1      28.669  31.609  22.879  1.00  0.00    -0.050 A 
ATOM     19  C   UNL A   1      27.409  31.087  23.169  1.00  0.00     0.003 A 
ATOM     20  C   UNL A   1      29.748  30.734  22.622  1.00  0.00     0.025 A 
ATOM     21  C   UNL A   1      27.227  29.712  23.243  1.00  0.00     0.002 A 
ATOM     22  C   UNL A   1      28.312  28.850  23.064  1.00  0.00     0.022 A 
ENDBRANCH  13  16
ENDBRANCH  11  13
ENDBRANCH   6  11
BRANCH   8  23
ATOM     23  N   UNL A   1      33.549  25.605  24.504  1.00  0.00    -0.369 N 
ATOM     24  C   UNL A   1      33.610  25.802  23.044  1.00  0.00     0.116 C 
ATOM     25  C   UNL A   1      34.313  24.473  25.032  1.00  0.00     0.126 C 
ATOM     26  C   UNL A   1      33.220  24.520  22.317  1.00  0.00     0.022 C 
ATOM     27  C   UNL A   1      34.013  23.148  24.289  1.00  0.00     0.064 C 
ATOM     28  C   UNL A   1      34.109  23.371  22.773  1.00  0.00     0.013 C 
BRANCH  27  29
ATOM     29  C   UNL A   1      32.674  22.545  24.789  1.00  0.00     0.267 C 
BRANCH  29  30
ATOM     30  N   UNL A   1      32.650  21.175  25.311  1.00  0.00    -0.335 N 
ATOM     31  C   UNL A   1      33.858  20.717  25.989  1.00  0.00     0.262 C 
ATOM     32  C   UNL A   1      32.205  20.122  24.408  1.00  0.00     0.262 C 
ATOM     33  H   UNL A   1      31.917  21.315  26.006  1.00  0.00     0.348 HD
ATOM     34  C   UNL A   1      34.534  19.796  24.994  1.00  0.00     0.067 C 
ATOM     35  C   UNL A   1      33.377  19.160  24.243  1.00  0.00     0.067 C 
ENDBRANCH  29  30
ENDBRANCH  27  29
ENDBRANCH   8  23
ENDBRANCH   3   5
ENDBRANCH   2   3
ENDBRANCH   1   2
BRANCH   1  36
ATOM     36  C   UNL A   1      35.105  33.036  27.769  1.00  0.00     0.275 C 
BRANCH  36  37
ATOM     37  O   UNL A   1      35.573  33.200  29.135  1.00  0.00    -0.458 OA
BRANCH  37  38
ATOM     38  C   UNL A   1      35.678  32.274  30.127  1.00  0.00     0.338 C 
ATOM     39  O   UNL A   1      34.738  32.096  30.899  1.00  0.00    -0.246 OA
BRANCH  38  40
ATOM     40  C   UNL A   1      36.877  31.399  30.199  1.00  0.00     0.060 A 
ATOM     41  C   UNL A   1      36.764  30.086  30.712  1.00  0.00     0.016 A 
ATOM     42  C   UNL A   1      38.098  31.825  29.710  1.00  0.00     0.016 A 
ATOM     43  C   UNL A   1      37.832  29.175  30.636  1.00  0.00     0.010 A 
ATOM     44  C   UNL A   1      39.106  30.899  29.525  1.00  0.00     0.010 A 
ATOM     45  C   UNL A   1      39.009  29.577  30.016  1.00  0.00    -0.014 A 
BRANCH  45  46
ATOM     46  C   UNL A   1      40.284  28.839  29.973  1.00  0.00     0.031 A 
ATOM     47  C   UNL A   1      40.491  27.461  29.461  1.00  0.00     0.074 A 
ATOM     48  C   UNL A   1      41.349  29.625  30.258  1.00  0.00     0.049 A 
ATOM     49  N   UNL A   1      41.614  27.103  28.938  1.00  0.00    -0.248 NA
ATOM     50  C   UNL A   1      39.499  26.377  29.422  1.00  0.00     0.031 C 
ATOM     51  C   UNL A   1      42.773  29.441  30.040  1.00  0.00     0.029 A 
ATOM     52  N   UNL A   1      41.288  30.733  31.105  1.00  0.00    -0.354 N 
ATOM     53  C   UNL A   1      41.511  25.814  28.481  1.00  0.00     0.074 A 
ATOM     54  C   UNL A   1      40.147  25.422  28.724  1.00  0.00     0.031 C 
ATOM     55  C   UNL A   1      43.441  30.151  30.970  1.00  0.00     0.029 A 
ATOM     56  C   UNL A   1      42.443  30.680  31.888  1.00  0.00     0.049 A 
ATOM     57  H   UNL A   1      40.576  31.411  31.143  1.00  0.00     0.167 HD
ATOM     58  C   UNL A   1      42.647  25.189  28.077  1.00  0.00     0.034 A 
ATOM     59  C   UNL A   1      42.284  30.314  33.196  1.00  0.00     0.034 A 
ATOM     60  C   UNL A   1      43.743  25.667  28.902  1.00  0.00     0.049 A 
ATOM     61  C   UNL A   1      42.971  28.997  33.487  1.00  0.00     0.074 A 
ATOM     62  C   UNL A   1      44.769  26.579  28.767  1.00  0.00     0.029 A 
ATOM     63  N   UNL A   1      43.654  25.355  30.249  1.00  0.00    -0.354 N 
ATOM     64  N   UNL A   1      43.221  28.074  32.594  1.00  0.00    -0.248 NA
ATOM     65  C   UNL A   1      43.509  28.669  34.798  1.00  0.00     0.031 C 
ATOM     66  C   UNL A   1      45.203  26.914  30.088  1.00  0.00     0.029 A 
ATOM     67  C   UNL A   1      44.470  26.166  30.996  1.00  0.00     0.049 A 
ATOM     68  H   UNL A   1      43.080  24.646  30.621  1.00  0.00     0.167 HD
ATOM     69  C   UNL A   1      43.994  27.091  33.156  1.00  0.00     0.074 A 
ATOM     70  C   UNL A   1      44.139  27.511  34.541  1.00  0.00     0.031 C 
ATOM     71  C   UNL A   1      44.472  26.022  32.444  1.00  0.00     0.034 A 
BRANCH  58  72
ATOM     72  C   UNL A   1      42.828  24.252  26.915  1.00  0.00     0.023 A 
ATOM     73  C   UNL A   1      42.224  22.973  26.990  1.00  0.00     0.031 A 
ATOM     74  C   UNL A   1      43.697  24.454  25.831  1.00  0.00     0.131 A 
ATOM     75  C   UNL A   1      42.525  21.955  26.066  1.00  0.00     0.055 A 
ATOM     76  C   UNL A   1      43.989  23.443  24.900  1.00  0.00     0.041 A 
ATOM     77  F   UNL A   1      44.314  25.625  25.636  1.00  0.00    -0.206 F 
ATOM     78  C   UNL A   1      43.414  22.182  25.021  1.00  0.00     0.022 A 
BRANCH  75  79
ATOM     79  S   UNL A   1      41.793  20.307  26.295  1.00  0.00     0.124 S 
ATOM     80  O   UNL A   1      42.384  19.546  25.198  1.00  0.00    -0.237 OA
ATOM     81  O   UNL A   1      42.237  19.953  27.639  1.00  0.00    -0.237 OA
ATOM     82  O   UNL A   1      40.356  20.552  26.166  1.00  0.00    -0.744 OA
ENDBRANCH  75  79
ENDBRANCH  58  72
BRANCH  59  83
ATOM     83  C   UNL A   1      40.990  30.817  33.787  1.00  0.00     0.023 A 
ATOM     84  C   UNL A   1      40.872  32.219  33.963  1.00  0.00     0.031 A 
ATOM     85  C   UNL A   1      39.802  30.073  33.814  1.00  0.00     0.131 A 
ATOM     86  C   UNL A   1      39.617  32.847  33.941  1.00  0.00     0.055 A 
ATOM     87  C   UNL A   1      38.546  30.699  33.915  1.00  0.00     0.041 A 
ATOM     88  F   UNL A   1      39.822  28.744  33.640  1.00  0.00    -0.206 F 
ATOM     89  C   UNL A   1      38.447  32.094  33.930  1.00  0.00     0.022 A 
BRANCH  86  90
ATOM     90  S   UNL A   1      39.561  34.635  33.588  1.00  0.00     0.124 S 
ATOM     91  O   UNL A   1      40.958  35.023  33.756  1.00  0.00    -0.237 OA
ATOM     92  O   UNL A   1      39.049  34.678  32.219  1.00  0.00    -0.237 OA
ATOM     93  O   UNL A   1      38.636  35.155  34.591  1.00  0.00    -0.744 OA
ENDBRANCH  86  90
ENDBRANCH  59  83
BRANCH  71  94
ATOM     94  C   UNL A   1      45.021  24.744  33.048  1.00  0.00     0.023 A 
ATOM     95  C   UNL A   1      46.239  24.697  33.733  1.00  0.00     0.031 A 
ATOM     96  C   UNL A   1      44.282  23.532  33.045  1.00  0.00     0.131 A 
ATOM     97  C   UNL A   1      46.741  23.496  34.258  1.00  0.00     0.055 A 
ATOM     98  C   UNL A   1      44.733  22.361  33.665  1.00  0.00     0.041 A 
ATOM     99  F   UNL A   1      43.081  23.432  32.458  1.00  0.00    -0.206 F 
ATOM    100  C   UNL A   1      45.985  22.330  34.255  1.00  0.00     0.022 A 
BRANCH  97 101
ATOM    101  S   UNL A   1      48.452  23.496  34.843  1.00  0.00     0.124 S 
ATOM    102  O   UNL A   1      48.976  22.280  34.228  1.00  0.00    -0.237 OA
ATOM    103  O   UNL A   1      48.966  24.749  34.303  1.00  0.00    -0.237 OA
ATOM    104  O   UNL A   1      48.319  23.450  36.297  1.00  0.00    -0.744 OA
ENDBRANCH  97 101
ENDBRANCH  71  94
ENDBRANCH  45  46
ENDBRANCH  38  40
ENDBRANCH  37  38
ENDBRANCH  36  37
ENDBRANCH   1  36
TORSDOF 20
ENDMDL
MODEL 2
REMARK VINA RESULT:     -12.5      3.876     10.525
REMARK SMILES Cc1cccc(S(=O)(=O)Nc2cc(C(=O)OCCOC(=O)c3ccc(-c4c5nc(c(-c6cc(S(=O)(=O)[O-])ccc6F)c6ccc([nH]6)c(-c6cc(S(=O)(=O)[O-])ccc6F)c6nc(c(-c7cc(S(=O)(=O)[O-])ccc7F)c7ccc4[nH]7)C=C6)C=C5)cc3)ccc2N2CCC[C@H](C[NH+]3CCCC3)C2)c1
REMARK SMILES IDX 17 1 16 2 14 3 15 4 13 5 11 6 12 7 87 8 86 9 85 10 10 11
REMARK SMILES IDX 7 13 8 14 9 15 6 16 1 17 2 18 3 19 100 20 4 21 5 22 88 23
REMARK SMILES IDX 89 24 99 25 90 26 92 27 91 28 93 29 94 30 95 31 98 32 96 34
REMARK SMILES IDX 97 35 18 36 19 37 20 38 21 39 22 40 23 41 84 42 24 43 83 44
REMARK SMILES IDX 25 45 26 46 27 47 77 48 28 49 82 50 76 51 78 52 29 53 81 54
REMARK SMILES IDX 75 55 74 56 30 58 62 59 42 60 61 61 43 62 46 63 60 64 79 65
REMARK SMILES IDX 44 66 45 67 59 69 80 70 47 71 31 72 32 73 40 74 33 75 39 76
REMARK SMILES IDX 41 77 38 78 34 79 35 80 36 81 37 82 63 83 64 84 72 85 65 86
REMARK SMILES IDX 71 87 73 88 70 89 66 90 67 91 68 92 69 93 48 94 49 95 57 96
REMARK SMILES IDX 50 97 56 98 58 99 55 100 51 101 52 102 53 103 54 104
REMARK H PARENT 10 12 94 33 78 57 46 68
REMARK Flexibility Score: inf
ROOT
ATOM      1  C   UNL A   1      39.931  21.712  26.882  1.00  0.00     0.275 C 
ENDROOT
BRANCH   1   2
ATOM      2  O   UNL A   1      39.120  22.574  26.067  1.00  0.00    -0.458 OA
BRANCH   2   3
ATOM      3  C   UNL A   1      38.109  21.890  25.500  1.00  0.00     0.338 C 
ATOM      4  O   UNL A   1      38.039  20.674  25.403  1.00  0.00    -0.246 OA
BRANCH   3   5
ATOM      5  C   UNL A   1      37.033  22.684  24.905  1.00  0.00     0.062 A 
ATOM      6  C   UNL A   1      34.722  22.271  24.255  1.00  0.00     0.073 A 
ATOM      7  C   UNL A   1      36.065  21.901  24.281  1.00  0.00     0.044 A 
ATOM      8  C   UNL A   1      34.362  23.584  24.686  1.00  0.00     0.061 A 
ATOM      9  C   UNL A   1      35.410  24.399  25.207  1.00  0.00     0.029 A 
ATOM     10  C   UNL A   1      36.729  23.959  25.340  1.00  0.00     0.018 A 
BRANCH   6  11
ATOM     11  N   UNL A   1      33.751  21.228  24.044  1.00  0.00    -0.277 N 
ATOM     12  H   UNL A   1      33.492  21.042  23.114  1.00  0.00     0.180 HD
BRANCH  11  13
ATOM     13  S   UNL A   1      33.019  20.300  25.240  1.00  0.00     0.261 S 
ATOM     14  O   UNL A   1      31.584  20.469  25.152  1.00  0.00    -0.201 OA
ATOM     15  O   UNL A   1      33.719  20.697  26.451  1.00  0.00    -0.201 OA
BRANCH  13  16
ATOM     16  C   UNL A   1      33.364  18.556  25.023  1.00  0.00     0.088 A 
ATOM     17  C   UNL A   1      32.125  15.067  25.969  1.00  0.00     0.044 C 
ATOM     18  C   UNL A   1      32.951  16.188  25.405  1.00  0.00    -0.050 A 
ATOM     19  C   UNL A   1      34.220  15.882  24.916  1.00  0.00     0.003 A 
ATOM     20  C   UNL A   1      32.503  17.528  25.404  1.00  0.00     0.025 A 
ATOM     21  C   UNL A   1      35.055  16.897  24.467  1.00  0.00     0.002 A 
ATOM     22  C   UNL A   1      34.639  18.230  24.538  1.00  0.00     0.022 A 
ENDBRANCH  13  16
ENDBRANCH  11  13
ENDBRANCH   6  11
BRANCH   8  23
ATOM     23  N   UNL A   1      33.085  24.167  24.667  1.00  0.00    -0.369 N 
ATOM     24  C   UNL A   1      32.259  23.849  23.488  1.00  0.00     0.116 C 
ATOM     25  C   UNL A   1      32.359  24.602  25.861  1.00  0.00     0.126 C 
ATOM     26  C   UNL A   1      31.340  25.018  23.150  1.00  0.00     0.022 C 
ATOM     27  C   UNL A   1      31.357  25.744  25.573  1.00  0.00     0.064 C 
ATOM     28  C   UNL A   1      30.489  25.380  24.360  1.00  0.00     0.013 C 
BRANCH  27  29
ATOM     29  C   UNL A   1      32.104  27.100  25.472  1.00  0.00     0.267 C 
BRANCH  29  30
ATOM     30  N   UNL A   1      32.741  27.664  26.666  1.00  0.00    -0.335 N 
ATOM     31  C   UNL A   1      31.911  28.529  27.497  1.00  0.00     0.262 C 
ATOM     32  C   UNL A   1      34.039  28.302  26.495  1.00  0.00     0.262 C 
ATOM     33  H   UNL A   1      32.893  26.784  27.159  1.00  0.00     0.348 HD
ATOM     34  C   UNL A   1      32.387  29.934  27.188  1.00  0.00     0.067 C 
ATOM     35  C   UNL A   1      33.869  29.762  26.905  1.00  0.00     0.067 C 
ENDBRANCH  29  30
ENDBRANCH  27  29
ENDBRANCH   8  23
ENDBRANCH   3   5
ENDBRANCH   2   3
ENDBRANCH   1   2
BRANCH   1  36
ATOM     36  C   UNL A   1      41.139  21.177  26.122  1.00  0.00     0.275 C 
BRANCH  36  37
ATOM     37  O   UNL A   1      42.405  21.874  26.279  1.00  0.00    -0.458 OA
BRANCH  37  38
ATOM     38  C   UNL A   1      42.854  22.996  25.653  1.00  0.00     0.338 C 
ATOM     39  O   UNL A   1      43.171  22.950  24.467  1.00  0.00    -0.246 OA
BRANCH  38  40
ATOM     40  C   UNL A   1      42.844  24.298  26.372  1.00  0.00     0.060 A 
ATOM     41  C   UNL A   1      42.840  25.508  25.641  1.00  0.00     0.016 A 
ATOM     42  C   UNL A   1      42.772  24.348  27.752  1.00  0.00     0.016 A 
ATOM     43  C   UNL A   1      42.657  26.748  26.277  1.00  0.00     0.010 A 
ATOM     44  C   UNL A   1      42.473  25.548  28.365  1.00  0.00     0.010 A 
ATOM     45  C   UNL A   1      42.449  26.769  27.651  1.00  0.00    -0.014 A 
BRANCH  45  46
ATOM     46  C   UNL A   1      42.394  27.957  28.521  1.00  0.00     0.031 A 
ATOM     47  C   UNL A   1      41.253  28.894  28.667  1.00  0.00     0.074 A 
ATOM     48  C   UNL A   1      43.440  28.019  29.380  1.00  0.00     0.049 A 
ATOM     49  N   UNL A   1      41.038  29.521  29.774  1.00  0.00    -0.248 NA
ATOM     50  C   UNL A   1      40.225  29.195  27.661  1.00  0.00     0.031 C 
ATOM     51  C   UNL A   1      43.652  28.793  30.591  1.00  0.00     0.029 A 
ATOM     52  N   UNL A   1      44.704  27.499  29.098  1.00  0.00    -0.354 N 
ATOM     53  C   UNL A   1      39.886  30.256  29.663  1.00  0.00     0.074 A 
ATOM     54  C   UNL A   1      39.359  29.960  28.356  1.00  0.00     0.031 C 
ATOM     55  C   UNL A   1      44.976  28.977  30.752  1.00  0.00     0.029 A 
ATOM     56  C   UNL A   1      45.620  28.447  29.559  1.00  0.00     0.049 A 
ATOM     57  H   UNL A   1      44.907  26.639  28.665  1.00  0.00     0.167 HD
ATOM     58  C   UNL A   1      39.597  31.140  30.653  1.00  0.00     0.034 A 
ATOM     59  C   UNL A   1      46.275  29.182  28.609  1.00  0.00     0.034 A 
ATOM     60  C   UNL A   1      40.849  31.674  31.160  1.00  0.00     0.049 A 
ATOM     61  C   UNL A   1      45.905  30.646  28.694  1.00  0.00     0.074 A 
ATOM     62  C   UNL A   1      41.659  31.450  32.255  1.00  0.00     0.029 A 
ATOM     63  N   UNL A   1      41.589  32.418  30.256  1.00  0.00    -0.354 N 
ATOM     64  N   UNL A   1      44.785  31.105  29.192  1.00  0.00    -0.248 NA
ATOM     65  C   UNL A   1      46.821  31.708  28.303  1.00  0.00     0.031 C 
ATOM     66  C   UNL A   1      42.954  31.960  31.925  1.00  0.00     0.029 A 
ATOM     67  C   UNL A   1      42.895  32.527  30.661  1.00  0.00     0.049 A 
ATOM     68  H   UNL A   1      41.225  32.817  29.432  1.00  0.00     0.167 HD
ATOM     69  C   UNL A   1      44.844  32.473  29.266  1.00  0.00     0.074 A 
ATOM     70  C   UNL A   1      46.139  32.799  28.689  1.00  0.00     0.031 C 
ATOM     71  C   UNL A   1      43.841  33.232  29.809  1.00  0.00     0.034 A 
BRANCH  58  72
ATOM     72  C   UNL A   1      38.254  31.464  31.246  1.00  0.00     0.023 A 
ATOM     73  C   UNL A   1      38.122  32.669  31.978  1.00  0.00     0.031 A 
ATOM     74  C   UNL A   1      37.154  30.593  31.300  1.00  0.00     0.131 A 
ATOM     75  C   UNL A   1      36.980  32.943  32.755  1.00  0.00     0.055 A 
ATOM     76  C   UNL A   1      36.008  30.871  32.065  1.00  0.00     0.041 A 
ATOM     77  F   UNL A   1      37.146  29.432  30.635  1.00  0.00    -0.206 F 
ATOM     78  C   UNL A   1      35.922  32.044  32.808  1.00  0.00     0.022 A 
BRANCH  75  79
ATOM     79  S   UNL A   1      36.934  34.462  33.753  1.00  0.00     0.124 S 
ATOM     80  O   UNL A   1      38.327  34.897  33.728  1.00  0.00    -0.237 OA
ATOM     81  O   UNL A   1      35.986  35.291  33.016  1.00  0.00    -0.237 OA
ATOM     82  O   UNL A   1      36.461  33.998  35.057  1.00  0.00    -0.744 OA
ENDBRANCH  75  79
ENDBRANCH  58  72
BRANCH  59  83
ATOM     83  C   UNL A   1      46.569  28.387  27.360  1.00  0.00     0.023 A 
ATOM     84  C   UNL A   1      47.131  27.098  27.543  1.00  0.00     0.031 A 
ATOM     85  C   UNL A   1      45.996  28.657  26.110  1.00  0.00     0.131 A 
ATOM     86  C   UNL A   1      46.926  26.079  26.600  1.00  0.00     0.055 A 
ATOM     87  C   UNL A   1      45.900  27.663  25.117  1.00  0.00     0.041 A 
ATOM     88  F   UNL A   1      45.428  29.844  25.857  1.00  0.00    -0.206 F 
ATOM     89  C   UNL A   1      46.321  26.356  25.377  1.00  0.00     0.022 A 
BRANCH  86  90
ATOM     90  S   UNL A   1      47.154  24.354  27.142  1.00  0.00     0.124 S 
ATOM     91  O   UNL A   1      46.780  23.606  25.946  1.00  0.00    -0.237 OA
ATOM     92  O   UNL A   1      48.572  24.313  27.501  1.00  0.00    -0.237 OA
ATOM     93  O   UNL A   1      46.244  24.226  28.277  1.00  0.00    -0.744 OA
ENDBRANCH  86  90
ENDBRANCH  59  83
BRANCH  71  94
ATOM     94  C   UNL A   1      43.672  34.727  29.615  1.00  0.00     0.023 A 
ATOM     95  C   UNL A   1      44.083  35.661  30.571  1.00  0.00     0.031 A 
ATOM     96  C   UNL A   1      43.176  35.278  28.406  1.00  0.00     0.131 A 
ATOM     97  C   UNL A   1      43.890  37.038  30.383  1.00  0.00     0.055 A 
ATOM     98  C   UNL A   1      43.086  36.655  28.174  1.00  0.00     0.041 A 
ATOM     99  F   UNL A   1      42.776  34.508  27.384  1.00  0.00    -0.206 F 
ATOM    100  C   UNL A   1      43.419  37.548  29.179  1.00  0.00     0.022 A 
BRANCH  97 101
ATOM    101  S   UNL A   1      44.175  38.119  31.804  1.00  0.00     0.124 S 
ATOM    102  O   UNL A   1      43.477  37.402  32.868  1.00  0.00    -0.237 OA
ATOM    103  O   UNL A   1      45.631  38.131  31.900  1.00  0.00    -0.237 OA
ATOM    104  O   UNL A   1      43.564  39.384  31.403  1.00  0.00    -0.744 OA
ENDBRANCH  97 101
ENDBRANCH  71  94
ENDBRANCH  45  46
ENDBRANCH  38  40
ENDBRANCH  37  38
ENDBRANCH  36  37
ENDBRANCH   1  36
TORSDOF 20
ENDMDL
MODEL 3
REMARK VINA RESULT:     -12.3      2.086      2.522
REMARK SMILES Cc1cccc(S(=O)(=O)Nc2cc(C(=O)OCCOC(=O)c3ccc(-c4c5nc(c(-c6cc(S(=O)(=O)[O-])ccc6F)c6ccc([nH]6)c(-c6cc(S(=O)(=O)[O-])ccc6F)c6nc(c(-c7cc(S(=O)(=O)[O-])ccc7F)c7ccc4[nH]7)C=C6)C=C5)cc3)ccc2N2CCC[C@H](C[NH+]3CCCC3)C2)c1
REMARK SMILES IDX 17 1 16 2 14 3 15 4 13 5 11 6 12 7 87 8 86 9 85 10 10 11
REMARK SMILES IDX 7 13 8 14 9 15 6 16 1 17 2 18 3 19 100 20 4 21 5 22 88 23
REMARK SMILES IDX 89 24 99 25 90 26 92 27 91 28 93 29 94 30 95 31 98 32 96 34
REMARK SMILES IDX 97 35 18 36 19 37 20 38 21 39 22 40 23 41 84 42 24 43 83 44
REMARK SMILES IDX 25 45 26 46 27 47 77 48 28 49 82 50 76 51 78 52 29 53 81 54
REMARK SMILES IDX 75 55 74 56 30 58 62 59 42 60 61 61 43 62 46 63 60 64 79 65
REMARK SMILES IDX 44 66 45 67 59 69 80 70 47 71 31 72 32 73 40 74 33 75 39 76
REMARK SMILES IDX 41 77 38 78 34 79 35 80 36 81 37 82 63 83 64 84 72 85 65 86
REMARK SMILES IDX 71 87 73 88 70 89 66 90 67 91 68 92 69 93 48 94 49 95 57 96
REMARK SMILES IDX 50 97 56 98 58 99 55 100 51 101 52 102 53 103 54 104
REMARK H PARENT 10 12 94 33 78 57 46 68
REMARK Flexibility Score: inf
ROOT
ATOM      1  C   UNL A   1      33.399  33.284  27.586  1.00  0.00     0.275 C 
ENDROOT
BRANCH   1   2
ATOM      2  O   UNL A   1      33.588  31.863  27.676  1.00  0.00    -0.458 OA
BRANCH   2   3
ATOM      3  C   UNL A   1      32.593  31.204  27.054  1.00  0.00     0.338 C 
ATOM      4  O   UNL A   1      31.566  31.707  26.625  1.00  0.00    -0.246 OA
BRANCH   3   5
ATOM      5  C   UNL A   1      32.744  29.753  26.933  1.00  0.00     0.062 A 
ATOM      6  C   UNL A   1      31.920  28.039  25.409  1.00  0.00     0.073 A 
ATOM      7  C   UNL A   1      31.712  29.160  26.211  1.00  0.00     0.044 A 
ATOM      8  C   UNL A   1      33.170  27.353  25.500  1.00  0.00     0.061 A 
ATOM      9  C   UNL A   1      34.160  27.930  26.348  1.00  0.00     0.029 A 
ATOM     10  C   UNL A   1      33.970  29.127  27.045  1.00  0.00     0.018 A 
BRANCH   6  11
ATOM     11  N   UNL A   1      30.972  27.794  24.353  1.00  0.00    -0.277 N 
ATOM     12  H   UNL A   1      30.250  27.153  24.544  1.00  0.00     0.180 HD
BRANCH  11  13
ATOM     13  S   UNL A   1      30.986  28.497  22.826  1.00  0.00     0.261 S 
ATOM     14  O   UNL A   1      30.645  27.491  21.844  1.00  0.00    -0.201 OA
ATOM     15  O   UNL A   1      32.282  29.153  22.769  1.00  0.00    -0.201 OA
BRANCH  13  16
ATOM     16  C   UNL A   1      29.769  29.804  22.694  1.00  0.00     0.088 A 
ATOM     17  C   UNL A   1      27.964  32.040  20.174  1.00  0.00     0.044 C 
ATOM     18  C   UNL A   1      28.438  31.427  21.461  1.00  0.00    -0.050 A 
ATOM     19  C   UNL A   1      28.134  32.089  22.650  1.00  0.00     0.003 A 
ATOM     20  C   UNL A   1      29.213  30.247  21.494  1.00  0.00     0.025 A 
ATOM     21  C   UNL A   1      28.626  31.610  23.858  1.00  0.00     0.002 A 
ATOM     22  C   UNL A   1      29.455  30.486  23.879  1.00  0.00     0.022 A 
ENDBRANCH  13  16
ENDBRANCH  11  13
ENDBRANCH   6  11
BRANCH   8  23
ATOM     23  N   UNL A   1      33.543  26.173  24.838  1.00  0.00    -0.369 N 
ATOM     24  C   UNL A   1      33.570  26.251  23.366  1.00  0.00     0.116 C 
ATOM     25  C   UNL A   1      34.352  25.111  25.439  1.00  0.00     0.126 C 
ATOM     26  C   UNL A   1      33.208  24.902  22.754  1.00  0.00     0.022 C 
ATOM     27  C   UNL A   1      34.081  23.722  24.815  1.00  0.00     0.064 C 
ATOM     28  C   UNL A   1      34.141  23.821  23.283  1.00  0.00     0.013 C 
BRANCH  27  29
ATOM     29  C   UNL A   1      32.771  23.122  25.391  1.00  0.00     0.267 C 
BRANCH  29  30
ATOM     30  N   UNL A   1      32.693  21.683  25.659  1.00  0.00    -0.335 N 
ATOM     31  C   UNL A   1      33.898  21.056  26.192  1.00  0.00     0.262 C 
ATOM     32  C   UNL A   1      32.163  20.832  24.602  1.00  0.00     0.262 C 
ATOM     33  H   UNL A   1      31.992  21.727  26.398  1.00  0.00     0.348 HD
ATOM     34  C   UNL A   1      34.491  20.300  25.020  1.00  0.00     0.067 C 
ATOM     35  C   UNL A   1      33.278  19.864  24.217  1.00  0.00     0.067 C 
ENDBRANCH  29  30
ENDBRANCH  27  29
ENDBRANCH   8  23
ENDBRANCH   3   5
ENDBRANCH   2   3
ENDBRANCH   1   2
BRANCH   1  36
ATOM     36  C   UNL A   1      34.539  34.056  28.239  1.00  0.00     0.275 C 
BRANCH  36  37
ATOM     37  O   UNL A   1      34.471  34.289  29.671  1.00  0.00    -0.458 OA
BRANCH  37  38
ATOM     38  C   UNL A   1      34.852  33.478  30.696  1.00  0.00     0.338 C 
ATOM     39  O   UNL A   1      34.064  33.232  31.606  1.00  0.00    -0.246 OA
BRANCH  38  40
ATOM     40  C   UNL A   1      36.172  32.795  30.648  1.00  0.00     0.060 A 
ATOM     41  C   UNL A   1      36.537  31.891  31.672  1.00  0.00     0.016 A 
ATOM     42  C   UNL A   1      37.029  32.979  29.579  1.00  0.00     0.016 A 
ATOM     43  C   UNL A   1      37.695  31.101  31.573  1.00  0.00     0.010 A 
ATOM     44  C   UNL A   1      38.099  32.121  29.422  1.00  0.00     0.010 A 
ATOM     45  C   UNL A   1      38.474  31.199  30.427  1.00  0.00    -0.014 A 
BRANCH  45  46
ATOM     46  C   UNL A   1      39.793  30.583  30.197  1.00  0.00     0.031 A 
ATOM     47  C   UNL A   1      40.054  29.189  29.762  1.00  0.00     0.074 A 
ATOM     48  C   UNL A   1      40.799  31.491  30.211  1.00  0.00     0.049 A 
ATOM     49  N   UNL A   1      41.096  28.889  29.062  1.00  0.00    -0.248 NA
ATOM     50  C   UNL A   1      39.199  28.017  29.997  1.00  0.00     0.031 C 
ATOM     51  C   UNL A   1      42.171  31.421  29.740  1.00  0.00     0.029 A 
ATOM     52  N   UNL A   1      40.771  32.663  30.967  1.00  0.00    -0.354 N 
ATOM     53  C   UNL A   1      41.054  27.559  28.735  1.00  0.00     0.074 A 
ATOM     54  C   UNL A   1      39.810  27.065  29.263  1.00  0.00     0.031 C 
ATOM     55  C   UNL A   1      42.915  32.277  30.467  1.00  0.00     0.029 A 
ATOM     56  C   UNL A   1      42.048  32.796  31.516  1.00  0.00     0.049 A 
ATOM     57  H   UNL A   1      40.007  33.273  31.088  1.00  0.00     0.167 HD
ATOM     58  C   UNL A   1      42.160  27.007  28.169  1.00  0.00     0.034 A 
ATOM     59  C   UNL A   1      42.172  32.544  32.855  1.00  0.00     0.034 A 
ATOM     60  C   UNL A   1      43.328  27.663  28.730  1.00  0.00     0.049 A 
ATOM     61  C   UNL A   1      43.042  31.332  33.108  1.00  0.00     0.074 A 
ATOM     62  C   UNL A   1      44.206  28.651  28.332  1.00  0.00     0.029 A 
ATOM     63  N   UNL A   1      43.521  27.476  30.089  1.00  0.00    -0.354 N 
ATOM     64  N   UNL A   1      43.225  30.355  32.258  1.00  0.00    -0.248 NA
ATOM     65  C   UNL A   1      43.843  31.183  34.314  1.00  0.00     0.031 C 
ATOM     66  C   UNL A   1      44.833  29.151  29.515  1.00  0.00     0.029 A 
ATOM     67  C   UNL A   1      44.366  28.428  30.602  1.00  0.00     0.049 A 
ATOM     68  H   UNL A   1      43.107  26.755  30.617  1.00  0.00     0.167 HD
ATOM     69  C   UNL A   1      44.192  29.507  32.735  1.00  0.00     0.074 A 
ATOM     70  C   UNL A   1      44.540  30.070  34.030  1.00  0.00     0.031 C 
ATOM     71  C   UNL A   1      44.647  28.425  32.030  1.00  0.00     0.034 A 
BRANCH  58  72
ATOM     72  C   UNL A   1      42.229  25.984  27.070  1.00  0.00     0.023 A 
ATOM     73  C   UNL A   1      41.848  24.654  27.373  1.00  0.00     0.031 A 
ATOM     74  C   UNL A   1      42.811  26.180  25.808  1.00  0.00     0.131 A 
ATOM     75  C   UNL A   1      42.094  23.591  26.483  1.00  0.00     0.055 A 
ATOM     76  C   UNL A   1      43.047  25.122  24.913  1.00  0.00     0.041 A 
ATOM     77  F   UNL A   1      43.195  27.393  25.394  1.00  0.00    -0.206 F 
ATOM     78  C   UNL A   1      42.701  23.818  25.254  1.00  0.00     0.022 A 
BRANCH  75  79
ATOM     79  S   UNL A   1      41.676  21.897  26.992  1.00  0.00     0.124 S 
ATOM     80  O   UNL A   1      41.267  22.078  28.382  1.00  0.00    -0.237 OA
ATOM     81  O   UNL A   1      40.621  21.540  26.050  1.00  0.00    -0.237 OA
ATOM     82  O   UNL A   1      42.932  21.168  26.814  1.00  0.00    -0.744 OA
ENDBRANCH  75  79
ENDBRANCH  58  72
BRANCH  59  83
ATOM     83  C   UNL A   1      40.960  32.977  33.642  1.00  0.00     0.023 A 
ATOM     84  C   UNL A   1      40.060  31.955  34.040  1.00  0.00     0.031 A 
ATOM     85  C   UNL A   1      40.862  34.203  34.313  1.00  0.00     0.131 A 
ATOM     86  C   UNL A   1      39.268  32.096  35.189  1.00  0.00     0.055 A 
ATOM     87  C   UNL A   1      39.976  34.381  35.392  1.00  0.00     0.041 A 
ATOM     88  F   UNL A   1      41.684  35.218  34.011  1.00  0.00    -0.206 F 
ATOM     89  C   UNL A   1      39.210  33.311  35.866  1.00  0.00     0.022 A 
BRANCH  86  90
ATOM     90  S   UNL A   1      38.599  30.584  35.958  1.00  0.00     0.124 S 
ATOM     91  O   UNL A   1      39.810  29.812  36.218  1.00  0.00    -0.237 OA
ATOM     92  O   UNL A   1      37.908  31.102  37.139  1.00  0.00    -0.237 OA
ATOM     93  O   UNL A   1      37.711  30.041  34.933  1.00  0.00    -0.744 OA
ENDBRANCH  86  90
ENDBRANCH  59  83
BRANCH  71  94
ATOM     94  C   UNL A   1      45.435  27.268  32.614  1.00  0.00     0.023 A 
ATOM     95  C   UNL A   1      44.847  26.287  33.419  1.00  0.00     0.031 A 
ATOM     96  C   UNL A   1      46.801  27.050  32.296  1.00  0.00     0.131 A 
ATOM     97  C   UNL A   1      45.602  25.241  33.971  1.00  0.00     0.055 A 
ATOM     98  C   UNL A   1      47.526  25.946  32.759  1.00  0.00     0.041 A 
ATOM     99  F   UNL A   1      47.490  27.886  31.507  1.00  0.00    -0.206 F 
ATOM    100  C   UNL A   1      46.934  25.045  33.627  1.00  0.00     0.022 A 
BRANCH  97 101
ATOM    101  S   UNL A   1      44.807  24.220  35.235  1.00  0.00     0.124 S 
ATOM    102  O   UNL A   1      45.877  23.288  35.581  1.00  0.00    -0.237 OA
ATOM    103  O   UNL A   1      44.468  25.201  36.260  1.00  0.00    -0.237 OA
ATOM    104  O   UNL A   1      43.669  23.628  34.534  1.00  0.00    -0.744 OA
ENDBRANCH  97 101
ENDBRANCH  71  94
ENDBRANCH  45  46
ENDBRANCH  38  40
ENDBRANCH  37  38
ENDBRANCH  36  37
ENDBRANCH   1  36
TORSDOF 20
ENDMDL
