MODEL 1
REMARK VINA RESULT:     -10.2      0.000      0.000
REMARK SMILES O=C(OCCOC(=O)c1cnc(OCC2CC2)c(Cl)c1)c1ccc(-c2c3nc(c(-c4cc(S(=O)(=O)[O-])ccc4F)c4ccc([nH]4)c(-c4cc(S(=O)(=O)[O-])ccc4F)c4nc(c(-c5cc(S(=O)(=O)[O-])ccc5F)c5ccc2[nH]5)C=C4)C=C3)cc1
REMARK SMILES IDX 4 1 3 2 2 3 1 4 21 5 22 6 83 7 23 8 82 9 24 10 25 11 26 12
REMARK SMILES IDX 76 13 27 14 81 15 75 16 77 17 28 18 80 19 74 20 73 21 29 23
REMARK SMILES IDX 61 24 41 25 60 26 42 27 45 28 59 29 78 30 43 31 44 32 58 34
REMARK SMILES IDX 79 35 46 36 30 37 31 38 39 39 32 40 38 41 40 42 37 43 33 44
REMARK SMILES IDX 34 45 35 46 36 47 62 48 63 49 71 50 64 51 70 52 72 53 69 54
REMARK SMILES IDX 65 55 66 56 67 57 68 58 47 59 48 60 56 61 49 62 55 63 57 64
REMARK SMILES IDX 54 65 50 66 51 67 52 68 53 69 5 70 6 71 7 72 8 73 9 74 10 75
REMARK SMILES IDX 20 76 11 77 18 78 12 79 19 80 13 81 14 82 15 83 16 84 17 85
REMARK H PARENT 77 22 45 33
REMARK Flexibility Score: inf
ROOT
ATOM      1  C   UNL A   1      33.259  34.000  27.864  1.00  0.00     0.275 C 
ENDROOT
BRANCH   1   2
ATOM      2  O   UNL A   1      34.174  33.001  28.344  1.00  0.00    -0.458 OA
BRANCH   2   3
ATOM      3  C   UNL A   1      34.510  31.798  27.824  1.00  0.00     0.338 C 
ATOM      4  O   UNL A   1      33.774  31.310  26.966  1.00  0.00    -0.246 OA
BRANCH   3   5
ATOM      5  C   UNL A   1      35.641  30.958  28.334  1.00  0.00     0.060 A 
ATOM      6  C   UNL A   1      35.528  29.702  28.937  1.00  0.00     0.016 A 
ATOM      7  C   UNL A   1      36.934  31.486  28.164  1.00  0.00     0.016 A 
ATOM      8  C   UNL A   1      36.653  28.960  29.291  1.00  0.00     0.010 A 
ATOM      9  C   UNL A   1      38.067  30.746  28.507  1.00  0.00     0.010 A 
ATOM     10  C   UNL A   1      37.927  29.478  29.087  1.00  0.00    -0.014 A 
BRANCH  10  11
ATOM     11  C   UNL A   1      39.086  28.781  29.686  1.00  0.00     0.031 A 
ATOM     12  C   UNL A   1      39.642  29.351  30.961  1.00  0.00     0.074 A 
ATOM     13  C   UNL A   1      39.603  27.677  29.109  1.00  0.00     0.049 A 
ATOM     14  N   UNL A   1      40.676  28.971  31.660  1.00  0.00    -0.248 NA
ATOM     15  C   UNL A   1      38.927  30.511  31.527  1.00  0.00     0.031 C 
ATOM     16  C   UNL A   1      39.105  27.039  27.884  1.00  0.00     0.029 A 
ATOM     17  N   UNL A   1      40.712  26.937  29.433  1.00  0.00    -0.354 N 
ATOM     18  C   UNL A   1      40.706  29.815  32.767  1.00  0.00     0.074 A 
ATOM     19  C   UNL A   1      39.663  30.796  32.588  1.00  0.00     0.031 C 
ATOM     20  C   UNL A   1      39.955  26.061  27.517  1.00  0.00     0.029 A 
ATOM     21  C   UNL A   1      41.055  26.010  28.472  1.00  0.00     0.049 A 
ATOM     22  H   UNL A   1      41.213  27.056  30.272  1.00  0.00     0.167 HD
ATOM     23  C   UNL A   1      41.499  29.734  33.862  1.00  0.00     0.034 A 
ATOM     24  C   UNL A   1      42.163  25.249  28.367  1.00  0.00     0.034 A 
ATOM     25  C   UNL A   1      42.552  28.758  33.977  1.00  0.00     0.049 A 
ATOM     26  C   UNL A   1      43.158  25.315  29.497  1.00  0.00     0.074 A 
ATOM     27  C   UNL A   1      43.409  28.525  35.034  1.00  0.00     0.029 A 
ATOM     28  N   UNL A   1      42.903  27.865  32.969  1.00  0.00    -0.354 N 
ATOM     29  N   UNL A   1      43.148  26.076  30.570  1.00  0.00    -0.248 NA
ATOM     30  C   UNL A   1      44.285  24.381  29.425  1.00  0.00     0.031 C 
ATOM     31  C   UNL A   1      44.328  27.547  34.635  1.00  0.00     0.029 A 
ATOM     32  C   UNL A   1      43.989  27.104  33.364  1.00  0.00     0.049 A 
ATOM     33  H   UNL A   1      42.447  27.786  32.101  1.00  0.00     0.167 HD
ATOM     34  C   UNL A   1      44.223  25.651  31.344  1.00  0.00     0.074 A 
ATOM     35  C   UNL A   1      44.876  24.596  30.590  1.00  0.00     0.031 C 
ATOM     36  C   UNL A   1      44.611  26.060  32.581  1.00  0.00     0.034 A 
BRANCH  23  37
ATOM     37  C   UNL A   1      41.255  30.734  34.968  1.00  0.00     0.023 A 
ATOM     38  C   UNL A   1      40.108  30.661  35.784  1.00  0.00     0.031 A 
ATOM     39  C   UNL A   1      42.130  31.814  35.169  1.00  0.00     0.131 A 
ATOM     40  C   UNL A   1      39.817  31.695  36.687  1.00  0.00     0.055 A 
ATOM     41  C   UNL A   1      41.880  32.795  36.133  1.00  0.00     0.041 A 
ATOM     42  F   UNL A   1      43.227  31.955  34.410  1.00  0.00    -0.206 F 
ATOM     43  C   UNL A   1      40.708  32.751  36.884  1.00  0.00     0.022 A 
BRANCH  40  44
ATOM     44  S   UNL A   1      38.178  31.729  37.466  1.00  0.00     0.124 S 
ATOM     45  O   UNL A   1      37.689  30.381  37.188  1.00  0.00    -0.237 OA
ATOM     46  O   UNL A   1      38.497  32.017  38.860  1.00  0.00    -0.237 OA
ATOM     47  O   UNL A   1      37.481  32.798  36.753  1.00  0.00    -0.744 OA
ENDBRANCH  40  44
ENDBRANCH  23  37
BRANCH  24  48
ATOM     48  C   UNL A   1      42.407  24.366  27.189  1.00  0.00     0.023 A 
ATOM     49  C   UNL A   1      41.964  23.037  27.176  1.00  0.00     0.031 A 
ATOM     50  C   UNL A   1      43.175  24.802  26.095  1.00  0.00     0.131 A 
ATOM     51  C   UNL A   1      42.311  22.191  26.106  1.00  0.00     0.055 A 
ATOM     52  C   UNL A   1      43.460  23.981  25.001  1.00  0.00     0.041 A 
ATOM     53  F   UNL A   1      43.719  26.023  26.088  1.00  0.00    -0.206 F 
ATOM     54  C   UNL A   1      43.032  22.661  25.006  1.00  0.00     0.022 A 
BRANCH  51  55
ATOM     55  S   UNL A   1      41.914  20.426  26.227  1.00  0.00     0.124 S 
ATOM     56  O   UNL A   1      42.781  19.861  25.200  1.00  0.00    -0.237 OA
ATOM     57  O   UNL A   1      42.275  20.128  27.609  1.00  0.00    -0.237 OA
ATOM     58  O   UNL A   1      40.483  20.377  25.935  1.00  0.00    -0.744 OA
ENDBRANCH  51  55
ENDBRANCH  24  48
BRANCH  36  59
ATOM     59  C   UNL A   1      45.729  25.282  33.225  1.00  0.00     0.023 A 
ATOM     60  C   UNL A   1      45.496  24.125  33.983  1.00  0.00     0.031 A 
ATOM     61  C   UNL A   1      47.056  25.736  33.093  1.00  0.00     0.131 A 
ATOM     62  C   UNL A   1      46.563  23.502  34.643  1.00  0.00     0.055 A 
ATOM     63  C   UNL A   1      48.124  25.061  33.682  1.00  0.00     0.041 A 
ATOM     64  F   UNL A   1      47.333  26.842  32.385  1.00  0.00    -0.206 F 
ATOM     65  C   UNL A   1      47.878  23.948  34.478  1.00  0.00     0.022 A 
BRANCH  62  66
ATOM     66  S   UNL A   1      46.192  22.182  35.829  1.00  0.00     0.124 S 
ATOM     67  O   UNL A   1      46.018  22.932  37.068  1.00  0.00    -0.237 OA
ATOM     68  O   UNL A   1      44.982  21.590  35.266  1.00  0.00    -0.237 OA
ATOM     69  O   UNL A   1      47.380  21.333  35.778  1.00  0.00    -0.744 OA
ENDBRANCH  62  66
ENDBRANCH  36  59
ENDBRANCH  10  11
ENDBRANCH   3   5
ENDBRANCH   2   3
ENDBRANCH   1   2
BRANCH   1  70
ATOM     70  C   UNL A   1      33.088  35.226  28.770  1.00  0.00     0.275 C 
BRANCH  70  71
ATOM     71  O   UNL A   1      32.487  34.955  30.048  1.00  0.00    -0.458 OA
BRANCH  71  72
ATOM     72  C   UNL A   1      32.915  35.740  31.067  1.00  0.00     0.339 C 
ATOM     73  O   UNL A   1      32.421  36.798  31.433  1.00  0.00    -0.246 OA
BRANCH  72  74
ATOM     74  C   UNL A   1      34.028  35.095  31.772  1.00  0.00     0.080 A 
ATOM     75  C   UNL A   1      34.872  35.872  32.536  1.00  0.00     0.131 A 
ATOM     76  C   UNL A   1      34.316  33.741  31.658  1.00  0.00     0.043 A 
ATOM     77  N   UNL A   1      35.917  35.368  33.234  1.00  0.00    -0.220 NA
ATOM     78  C   UNL A   1      35.436  33.206  32.321  1.00  0.00     0.104 A 
ATOM     79  C   UNL A   1      36.199  34.038  33.150  1.00  0.00     0.232 A 
ATOM     80  Cl  UNL A   1      35.783  31.567  31.915  1.00  0.00    -0.078 Cl
BRANCH  79  81
ATOM     81  O   UNL A   1      37.268  33.770  33.936  1.00  0.00    -0.476 OA
BRANCH  81  82
ATOM     82  C   UNL A   1      38.433  34.573  34.051  1.00  0.00     0.235 C 
BRANCH  82  83
ATOM     83  C   UNL A   1      39.637  33.961  33.398  1.00  0.00     0.027 C 
ATOM     84  C   UNL A   1      40.141  34.364  32.041  1.00  0.00     0.007 C 
ATOM     85  C   UNL A   1      40.887  34.786  33.263  1.00  0.00     0.007 C 
ENDBRANCH  82  83
ENDBRANCH  81  82
ENDBRANCH  79  81
ENDBRANCH  72  74
ENDBRANCH  71  72
ENDBRANCH  70  71
ENDBRANCH   1  70
TORSDOF 17
ENDMDL
MODEL 2
REMARK VINA RESULT:     -10.1      1.690      1.913
REMARK SMILES O=C(OCCOC(=O)c1cnc(OCC2CC2)c(Cl)c1)c1ccc(-c2c3nc(c(-c4cc(S(=O)(=O)[O-])ccc4F)c4ccc([nH]4)c(-c4cc(S(=O)(=O)[O-])ccc4F)c4nc(c(-c5cc(S(=O)(=O)[O-])ccc5F)c5ccc2[nH]5)C=C4)C=C3)cc1
REMARK SMILES IDX 4 1 3 2 2 3 1 4 21 5 22 6 83 7 23 8 82 9 24 10 25 11 26 12
REMARK SMILES IDX 76 13 27 14 81 15 75 16 77 17 28 18 80 19 74 20 73 21 29 23
REMARK SMILES IDX 61 24 41 25 60 26 42 27 45 28 59 29 78 30 43 31 44 32 58 34
REMARK SMILES IDX 79 35 46 36 30 37 31 38 39 39 32 40 38 41 40 42 37 43 33 44
REMARK SMILES IDX 34 45 35 46 36 47 62 48 63 49 71 50 64 51 70 52 72 53 69 54
REMARK SMILES IDX 65 55 66 56 67 57 68 58 47 59 48 60 56 61 49 62 55 63 57 64
REMARK SMILES IDX 54 65 50 66 51 67 52 68 53 69 5 70 6 71 7 72 8 73 9 74 10 75
REMARK SMILES IDX 20 76 11 77 18 78 12 79 19 80 13 81 14 82 15 83 16 84 17 85
REMARK H PARENT 77 22 45 33
REMARK Flexibility Score: inf
ROOT
ATOM      1  C   UNL A   1      33.709  34.222  28.029  1.00  0.00     0.275 C 
ENDROOT
BRANCH   1   2
ATOM      2  O   UNL A   1      34.176  33.027  28.676  1.00  0.00    -0.458 OA
BRANCH   2   3
ATOM      3  C   UNL A   1      34.522  31.827  28.153  1.00  0.00     0.338 C 
ATOM      4  O   UNL A   1      33.748  31.294  27.358  1.00  0.00    -0.246 OA
BRANCH   3   5
ATOM      5  C   UNL A   1      35.719  31.043  28.595  1.00  0.00     0.060 A 
ATOM      6  C   UNL A   1      35.702  29.773  29.179  1.00  0.00     0.016 A 
ATOM      7  C   UNL A   1      36.973  31.644  28.377  1.00  0.00     0.016 A 
ATOM      8  C   UNL A   1      36.881  29.088  29.468  1.00  0.00     0.010 A 
ATOM      9  C   UNL A   1      38.159  30.961  28.654  1.00  0.00     0.010 A 
ATOM     10  C   UNL A   1      38.115  29.679  29.216  1.00  0.00    -0.014 A 
BRANCH  10  11
ATOM     11  C   UNL A   1      39.336  29.036  29.748  1.00  0.00     0.031 A 
ATOM     12  C   UNL A   1      39.980  29.680  30.945  1.00  0.00     0.074 A 
ATOM     13  C   UNL A   1      39.832  27.918  29.183  1.00  0.00     0.049 A 
ATOM     14  N   UNL A   1      41.077  29.357  31.573  1.00  0.00    -0.248 NA
ATOM     15  C   UNL A   1      39.285  30.850  31.514  1.00  0.00     0.031 C 
ATOM     16  C   UNL A   1      39.252  27.210  28.035  1.00  0.00     0.029 A 
ATOM     17  N   UNL A   1      40.982  27.218  29.448  1.00  0.00    -0.354 N 
ATOM     18  C   UNL A   1      41.177  30.254  32.632  1.00  0.00     0.074 A 
ATOM     19  C   UNL A   1      40.098  31.203  32.495  1.00  0.00     0.031 C 
ATOM     20  C   UNL A   1      40.093  26.234  27.645  1.00  0.00     0.029 A 
ATOM     21  C   UNL A   1      41.269  26.253  28.506  1.00  0.00     0.049 A 
ATOM     22  H   UNL A   1      41.547  27.388  30.236  1.00  0.00     0.167 HD
ATOM     23  C   UNL A   1      42.059  30.244  33.660  1.00  0.00     0.034 A 
ATOM     24  C   UNL A   1      42.384  25.512  28.345  1.00  0.00     0.034 A 
ATOM     25  C   UNL A   1      43.142  29.298  33.733  1.00  0.00     0.049 A 
ATOM     26  C   UNL A   1      43.466  25.654  29.385  1.00  0.00     0.074 A 
ATOM     27  C   UNL A   1      44.088  29.135  34.725  1.00  0.00     0.029 A 
ATOM     28  N   UNL A   1      43.432  28.364  32.742  1.00  0.00    -0.354 N 
ATOM     29  N   UNL A   1      43.524  26.466  30.417  1.00  0.00    -0.248 NA
ATOM     30  C   UNL A   1      44.607  24.742  29.262  1.00  0.00     0.031 C 
ATOM     31  C   UNL A   1      44.996  28.159  34.297  1.00  0.00     0.029 A 
ATOM     32  C   UNL A   1      44.565  27.647  33.081  1.00  0.00     0.049 A 
ATOM     33  H   UNL A   1      42.908  28.233  31.920  1.00  0.00     0.167 HD
ATOM     34  C   UNL A   1      44.670  26.102  31.118  1.00  0.00     0.074 A 
ATOM     35  C   UNL A   1      45.286  25.026  30.364  1.00  0.00     0.031 C 
ATOM     36  C   UNL A   1      45.147  26.579  32.299  1.00  0.00     0.034 A 
BRANCH  23  37
ATOM     37  C   UNL A   1      41.881  31.291  34.735  1.00  0.00     0.023 A 
ATOM     38  C   UNL A   1      42.596  32.505  34.703  1.00  0.00     0.031 A 
ATOM     39  C   UNL A   1      41.049  31.054  35.841  1.00  0.00     0.131 A 
ATOM     40  C   UNL A   1      42.544  33.384  35.795  1.00  0.00     0.055 A 
ATOM     41  C   UNL A   1      40.932  31.975  36.886  1.00  0.00     0.041 A 
ATOM     42  F   UNL A   1      40.359  29.908  35.944  1.00  0.00    -0.206 F 
ATOM     43  C   UNL A   1      41.698  33.138  36.877  1.00  0.00     0.022 A 
BRANCH  40  44
ATOM     44  S   UNL A   1      43.728  34.758  35.859  1.00  0.00     0.124 S 
ATOM     45  O   UNL A   1      44.779  34.206  36.712  1.00  0.00    -0.237 OA
ATOM     46  O   UNL A   1      44.077  34.941  34.455  1.00  0.00    -0.237 OA
ATOM     47  O   UNL A   1      42.958  35.848  36.457  1.00  0.00    -0.744 OA
ENDBRANCH  40  44
ENDBRANCH  23  37
BRANCH  24  48
ATOM     48  C   UNL A   1      42.553  24.577  27.194  1.00  0.00     0.023 A 
ATOM     49  C   UNL A   1      42.030  23.278  27.233  1.00  0.00     0.031 A 
ATOM     50  C   UNL A   1      43.325  24.931  26.073  1.00  0.00     0.131 A 
ATOM     51  C   UNL A   1      42.307  22.378  26.186  1.00  0.00     0.055 A 
ATOM     52  C   UNL A   1      43.540  24.059  25.003  1.00  0.00     0.041 A 
ATOM     53  F   UNL A   1      43.941  26.116  26.016  1.00  0.00    -0.206 F 
ATOM     54  C   UNL A   1      43.034  22.768  25.059  1.00  0.00     0.022 A 
BRANCH  51  55
ATOM     55  S   UNL A   1      41.807  20.645  26.372  1.00  0.00     0.124 S 
ATOM     56  O   UNL A   1      42.623  19.995  25.354  1.00  0.00    -0.237 OA
ATOM     57  O   UNL A   1      42.170  20.373  27.760  1.00  0.00    -0.237 OA
ATOM     58  O   UNL A   1      40.371  20.673  26.101  1.00  0.00    -0.744 OA
ENDBRANCH  51  55
ENDBRANCH  24  48
BRANCH  36  59
ATOM     59  C   UNL A   1      46.334  25.858  32.883  1.00  0.00     0.023 A 
ATOM     60  C   UNL A   1      46.193  24.735  33.713  1.00  0.00     0.031 A 
ATOM     61  C   UNL A   1      47.634  26.332  32.618  1.00  0.00     0.131 A 
ATOM     62  C   UNL A   1      47.326  24.169  34.310  1.00  0.00     0.055 A 
ATOM     63  C   UNL A   1      48.763  25.710  33.148  1.00  0.00     0.041 A 
ATOM     64  F   UNL A   1      47.823  27.407  31.837  1.00  0.00    -0.206 F 
ATOM     65  C   UNL A   1      48.612  24.633  34.014  1.00  0.00     0.022 A 
BRANCH  62  66
ATOM     66  S   UNL A   1      47.087  22.903  35.585  1.00  0.00     0.124 S 
ATOM     67  O   UNL A   1      45.642  22.936  35.774  1.00  0.00    -0.237 OA
ATOM     68  O   UNL A   1      47.619  21.707  34.939  1.00  0.00    -0.237 OA
ATOM     69  O   UNL A   1      47.872  23.401  36.713  1.00  0.00    -0.744 OA
ENDBRANCH  62  66
ENDBRANCH  36  59
ENDBRANCH  10  11
ENDBRANCH   3   5
ENDBRANCH   2   3
ENDBRANCH   1   2
BRANCH   1  70
ATOM     70  C   UNL A   1      33.401  35.399  28.966  1.00  0.00     0.275 C 
BRANCH  70  71
ATOM     71  O   UNL A   1      32.800  35.033  30.220  1.00  0.00    -0.458 OA
BRANCH  71  72
ATOM     72  C   UNL A   1      33.139  35.816  31.274  1.00  0.00     0.339 C 
ATOM     73  O   UNL A   1      32.762  36.960  31.487  1.00  0.00    -0.246 OA
BRANCH  72  74
ATOM     74  C   UNL A   1      33.968  35.061  32.220  1.00  0.00     0.080 A 
ATOM     75  C   UNL A   1      34.409  35.688  33.365  1.00  0.00     0.131 A 
ATOM     76  C   UNL A   1      34.387  33.757  31.989  1.00  0.00     0.043 A 
ATOM     77  N   UNL A   1      35.166  35.072  34.305  1.00  0.00    -0.220 NA
ATOM     78  C   UNL A   1      35.229  33.118  32.919  1.00  0.00     0.104 A 
ATOM     79  C   UNL A   1      35.567  33.785  34.103  1.00  0.00     0.232 A 
ATOM     80  Cl  UNL A   1      35.832  31.591  32.395  1.00  0.00    -0.078 Cl
BRANCH  79  81
ATOM     81  O   UNL A   1      36.294  33.385  35.172  1.00  0.00    -0.476 OA
BRANCH  81  82
ATOM     82  C   UNL A   1      37.522  33.956  35.599  1.00  0.00     0.235 C 
BRANCH  82  83
ATOM     83  C   UNL A   1      38.622  33.809  34.591  1.00  0.00     0.027 C 
ATOM     84  C   UNL A   1      38.660  34.558  33.287  1.00  0.00     0.007 C 
ATOM     85  C   UNL A   1      39.582  34.951  34.394  1.00  0.00     0.007 C 
ENDBRANCH  82  83
ENDBRANCH  81  82
ENDBRANCH  79  81
ENDBRANCH  72  74
ENDBRANCH  71  72
ENDBRANCH  70  71
ENDBRANCH   1  70
TORSDOF 17
ENDMDL
MODEL 3
REMARK VINA RESULT:     -10.1      5.152      7.712
REMARK SMILES O=C(OCCOC(=O)c1cnc(OCC2CC2)c(Cl)c1)c1ccc(-c2c3nc(c(-c4cc(S(=O)(=O)[O-])ccc4F)c4ccc([nH]4)c(-c4cc(S(=O)(=O)[O-])ccc4F)c4nc(c(-c5cc(S(=O)(=O)[O-])ccc5F)c5ccc2[nH]5)C=C4)C=C3)cc1
REMARK SMILES IDX 4 1 3 2 2 3 1 4 21 5 22 6 83 7 23 8 82 9 24 10 25 11 26 12
REMARK SMILES IDX 76 13 27 14 81 15 75 16 77 17 28 18 80 19 74 20 73 21 29 23
REMARK SMILES IDX 61 24 41 25 60 26 42 27 45 28 59 29 78 30 43 31 44 32 58 34
REMARK SMILES IDX 79 35 46 36 30 37 31 38 39 39 32 40 38 41 40 42 37 43 33 44
REMARK SMILES IDX 34 45 35 46 36 47 62 48 63 49 71 50 64 51 70 52 72 53 69 54
REMARK SMILES IDX 65 55 66 56 67 57 68 58 47 59 48 60 56 61 49 62 55 63 57 64
REMARK SMILES IDX 54 65 50 66 51 67 52 68 53 69 5 70 6 71 7 72 8 73 9 74 10 75
REMARK SMILES IDX 20 76 11 77 18 78 12 79 19 80 13 81 14 82 15 83 16 84 17 85
REMARK H PARENT 77 22 45 33
REMARK Flexibility Score: inf
ROOT
ATOM      1  C   UNL A   1      34.497  34.107  32.222  1.00  0.00     0.275 C 
ENDROOT
BRANCH   1   2
ATOM      2  O   UNL A   1      34.881  32.774  32.596  1.00  0.00    -0.458 OA
BRANCH   2   3
ATOM      3  C   UNL A   1      36.005  32.324  33.200  1.00  0.00     0.338 C 
ATOM      4  O   UNL A   1      36.170  32.587  34.391  1.00  0.00    -0.246 OA
BRANCH   3   5
ATOM      5  C   UNL A   1      37.129  31.653  32.471  1.00  0.00     0.060 A 
ATOM      6  C   UNL A   1      38.161  30.911  33.052  1.00  0.00     0.016 A 
ATOM      7  C   UNL A   1      37.120  31.771  31.069  1.00  0.00     0.016 A 
ATOM      8  C   UNL A   1      39.107  30.245  32.274  1.00  0.00     0.010 A 
ATOM      9  C   UNL A   1      38.058  31.101  30.282  1.00  0.00     0.010 A 
ATOM     10  C   UNL A   1      39.068  30.342  30.888  1.00  0.00    -0.014 A 
BRANCH  10  11
ATOM     11  C   UNL A   1      40.212  29.830  30.103  1.00  0.00     0.031 A 
ATOM     12  C   UNL A   1      41.332  30.794  29.820  1.00  0.00     0.074 A 
ATOM     13  C   UNL A   1      40.243  28.552  29.677  1.00  0.00     0.049 A 
ATOM     14  N   UNL A   1      42.418  30.623  29.118  1.00  0.00    -0.248 NA
ATOM     15  C   UNL A   1      41.208  32.137  30.419  1.00  0.00     0.031 C 
ATOM     16  C   UNL A   1      39.210  27.540  29.933  1.00  0.00     0.029 A 
ATOM     17  N   UNL A   1      41.143  27.900  28.873  1.00  0.00    -0.354 N 
ATOM     18  C   UNL A   1      43.123  31.818  29.228  1.00  0.00     0.074 A 
ATOM     19  C   UNL A   1      42.292  32.741  29.964  1.00  0.00     0.031 C 
ATOM     20  C   UNL A   1      39.494  26.429  29.228  1.00  0.00     0.029 A 
ATOM     21  C   UNL A   1      40.718  26.653  28.468  1.00  0.00     0.049 A 
ATOM     22  H   UNL A   1      42.010  28.287  28.610  1.00  0.00     0.167 HD
ATOM     23  C   UNL A   1      44.379  32.093  28.803  1.00  0.00     0.034 A 
ATOM     24  C   UNL A   1      41.246  25.820  27.549  1.00  0.00     0.034 A 
ATOM     25  C   UNL A   1      45.155  31.150  28.039  1.00  0.00     0.049 A 
ATOM     26  C   UNL A   1      42.551  26.226  26.914  1.00  0.00     0.074 A 
ATOM     27  C   UNL A   1      46.449  31.265  27.574  1.00  0.00     0.029 A 
ATOM     28  N   UNL A   1      44.679  29.915  27.608  1.00  0.00    -0.354 N 
ATOM     29  N   UNL A   1      43.240  27.335  27.069  1.00  0.00    -0.248 NA
ATOM     30  C   UNL A   1      43.172  25.245  26.021  1.00  0.00     0.031 C 
ATOM     31  C   UNL A   1      46.728  30.136  26.794  1.00  0.00     0.029 A 
ATOM     32  C   UNL A   1      45.642  29.274  26.849  1.00  0.00     0.049 A 
ATOM     33  H   UNL A   1      43.789  29.551  27.812  1.00  0.00     0.167 HD
ATOM     34  C   UNL A   1      44.421  27.148  26.358  1.00  0.00     0.074 A 
ATOM     35  C   UNL A   1      44.325  25.836  25.745  1.00  0.00     0.031 C 
ATOM     36  C   UNL A   1      45.505  27.962  26.255  1.00  0.00     0.034 A 
BRANCH  23  37
ATOM     37  C   UNL A   1      44.941  33.455  29.140  1.00  0.00     0.023 A 
ATOM     38  C   UNL A   1      44.772  34.554  28.273  1.00  0.00     0.031 A 
ATOM     39  C   UNL A   1      45.714  33.650  30.295  1.00  0.00     0.131 A 
ATOM     40  C   UNL A   1      45.445  35.759  28.523  1.00  0.00     0.055 A 
ATOM     41  C   UNL A   1      46.310  34.880  30.585  1.00  0.00     0.041 A 
ATOM     42  F   UNL A   1      45.934  32.638  31.149  1.00  0.00    -0.206 F 
ATOM     43  C   UNL A   1      46.195  35.938  29.686  1.00  0.00     0.022 A 
BRANCH  40  44
ATOM     44  S   UNL A   1      45.470  37.024  27.220  1.00  0.00     0.124 S 
ATOM     45  O   UNL A   1      44.051  37.137  26.890  1.00  0.00    -0.237 OA
ATOM     46  O   UNL A   1      46.059  38.170  27.903  1.00  0.00    -0.237 OA
ATOM     47  O   UNL A   1      46.301  36.426  26.176  1.00  0.00    -0.744 OA
ENDBRANCH  40  44
ENDBRANCH  23  37
BRANCH  24  48
ATOM     48  C   UNL A   1      40.582  24.538  27.169  1.00  0.00     0.023 A 
ATOM     49  C   UNL A   1      39.381  24.530  26.446  1.00  0.00     0.031 A 
ATOM     50  C   UNL A   1      41.081  23.298  27.607  1.00  0.00     0.131 A 
ATOM     51  C   UNL A   1      38.714  23.315  26.206  1.00  0.00     0.055 A 
ATOM     52  C   UNL A   1      40.454  22.087  27.307  1.00  0.00     0.041 A 
ATOM     53  F   UNL A   1      42.164  23.238  28.389  1.00  0.00    -0.206 F 
ATOM     54  C   UNL A   1      39.256  22.091  26.606  1.00  0.00     0.022 A 
BRANCH  51  55
ATOM     55  S   UNL A   1      37.059  23.361  25.468  1.00  0.00     0.124 S 
ATOM     56  O   UNL A   1      36.505  22.088  25.912  1.00  0.00    -0.237 OA
ATOM     57  O   UNL A   1      36.489  24.559  26.076  1.00  0.00    -0.237 OA
ATOM     58  O   UNL A   1      37.327  23.462  24.034  1.00  0.00    -0.744 OA
ENDBRANCH  51  55
ENDBRANCH  24  48
BRANCH  36  59
ATOM     59  C   UNL A   1      46.703  27.397  25.537  1.00  0.00     0.023 A 
ATOM     60  C   UNL A   1      47.075  27.824  24.253  1.00  0.00     0.031 A 
ATOM     61  C   UNL A   1      47.469  26.388  26.151  1.00  0.00     0.131 A 
ATOM     62  C   UNL A   1      48.136  27.191  23.594  1.00  0.00     0.055 A 
ATOM     63  C   UNL A   1      48.576  25.821  25.523  1.00  0.00     0.041 A 
ATOM     64  F   UNL A   1      47.150  25.938  27.376  1.00  0.00    -0.206 F 
ATOM     65  C   UNL A   1      48.905  26.210  24.228  1.00  0.00     0.022 A 
BRANCH  62  66
ATOM     66  S   UNL A   1      48.415  27.573  21.844  1.00  0.00     0.124 S 
ATOM     67  O   UNL A   1      47.139  28.167  21.460  1.00  0.00    -0.237 OA
ATOM     68  O   UNL A   1      49.552  28.485  21.901  1.00  0.00    -0.237 OA
ATOM     69  O   UNL A   1      48.695  26.267  21.249  1.00  0.00    -0.744 OA
ENDBRANCH  62  66
ENDBRANCH  36  59
ENDBRANCH  10  11
ENDBRANCH   3   5
ENDBRANCH   2   3
ENDBRANCH   1   2
BRANCH   1  70
ATOM     70  C   UNL A   1      34.388  34.361  30.713  1.00  0.00     0.275 C 
BRANCH  70  71
ATOM     71  O   UNL A   1      34.050  33.205  29.927  1.00  0.00    -0.458 OA
BRANCH  71  72
ATOM     72  C   UNL A   1      34.340  33.298  28.606  1.00  0.00     0.339 C 
ATOM     73  O   UNL A   1      34.567  34.323  27.977  1.00  0.00    -0.246 OA
BRANCH  72  74
ATOM     74  C   UNL A   1      34.451  31.960  28.016  1.00  0.00     0.080 A 
ATOM     75  C   UNL A   1      33.313  31.346  27.538  1.00  0.00     0.131 A 
ATOM     76  C   UNL A   1      35.642  31.246  27.971  1.00  0.00     0.043 A 
ATOM     77  N   UNL A   1      33.315  30.120  26.964  1.00  0.00    -0.220 NA
ATOM     78  C   UNL A   1      35.658  29.943  27.439  1.00  0.00     0.104 A 
ATOM     79  C   UNL A   1      34.481  29.416  26.892  1.00  0.00     0.232 A 
ATOM     80  Cl  UNL A   1      37.153  29.112  27.645  1.00  0.00    -0.078 Cl
BRANCH  79  81
ATOM     81  O   UNL A   1      34.239  28.238  26.273  1.00  0.00    -0.476 OA
BRANCH  81  82
ATOM     82  C   UNL A   1      33.304  28.030  25.224  1.00  0.00     0.235 C 
BRANCH  82  83
ATOM     83  C   UNL A   1      33.894  28.234  23.860  1.00  0.00     0.027 C 
ATOM     84  C   UNL A   1      33.536  27.394  22.666  1.00  0.00     0.007 C 
ATOM     85  C   UNL A   1      33.022  28.793  22.769  1.00  0.00     0.007 C 
ENDBRANCH  82  83
ENDBRANCH  81  82
ENDBRANCH  79  81
ENDBRANCH  72  74
ENDBRANCH  71  72
ENDBRANCH  70  71
ENDBRANCH   1  70
TORSDOF 17
ENDMDL
