MODEL 1
REMARK VINA RESULT:     -11.4      0.000      0.000
REMARK SMILES COc1ccc(C(=O)c2ccccc2)cc1[C@@H](C)C(=O)OCCOC(=O)c1ccc(-c2c3nc(c(-c4cc(S(=O)(=O)[O-])ccc4F)c4ccc([nH]4)c(-c4cc(S(=O)(=O)[O-])ccc4F)c4nc(c(-c5cc(S(=O)(=O)[O-])ccc5F)c5ccc2[nH]5)C=C4)C=C3)cc1
REMARK SMILES IDX 22 1 21 2 19 3 20 4 17 5 18 6 16 7 3 8 4 9 5 10 15 11 6 12
REMARK SMILES IDX 2 13 1 14 7 15 8 16 9 17 10 18 14 19 11 20 13 21 12 22 23 23
REMARK SMILES IDX 24 24 25 25 26 26 27 27 28 28 89 29 29 30 88 31 30 32 31 33
REMARK SMILES IDX 32 34 82 35 33 36 87 37 81 38 83 39 34 40 86 41 80 42 79 43
REMARK SMILES IDX 35 45 67 46 47 47 66 48 48 49 51 50 65 51 84 52 49 53 50 54
REMARK SMILES IDX 64 56 85 57 52 58 36 59 37 60 45 61 38 62 44 63 46 64 43 65
REMARK SMILES IDX 39 66 40 67 41 68 42 69 68 70 69 71 77 72 70 73 76 74 78 75
REMARK SMILES IDX 75 76 71 77 72 78 73 79 74 80 53 81 54 82 62 83 55 84 61 85
REMARK SMILES IDX 63 86 60 87 56 88 57 89 58 90 59 91
REMARK H PARENT 83 44 51 55
REMARK Flexibility Score: inf
ROOT
ATOM      1  C   UNL A   1      35.929  20.302  25.143  1.00  0.00     0.274 C 
ENDROOT
BRANCH   1   2
ATOM      2  O   UNL A   1      35.784  21.319  26.152  1.00  0.00    -0.462 OA
BRANCH   2   3
ATOM      3  C   UNL A   1      34.621  22.020  26.170  1.00  0.00     0.313 C 
ATOM      4  O   UNL A   1      33.720  21.821  26.979  1.00  0.00    -0.252 OA
BRANCH   3   5
ATOM      5  C   UNL A   1      34.505  23.073  25.068  1.00  0.00     0.130 C 
ATOM      6  C   UNL A   1      35.281  24.323  25.484  1.00  0.00     0.025 C 
BRANCH   5   7
ATOM      7  C   UNL A   1      33.104  23.451  24.595  1.00  0.00     0.009 A 
ATOM      8  C   UNL A   1      32.404  22.647  23.679  1.00  0.00     0.122 A 
ATOM      9  C   UNL A   1      31.147  23.035  23.203  1.00  0.00     0.047 A 
ATOM     10  C   UNL A   1      30.560  24.223  23.649  1.00  0.00     0.016 A 
ATOM     11  C   UNL A   1      32.498  24.645  25.021  1.00  0.00     0.020 A 
ATOM     12  C   UNL A   1      31.235  25.040  24.559  1.00  0.00     0.023 A 
BRANCH   8  13
ATOM     13  O   UNL A   1      33.034  21.527  23.203  1.00  0.00    -0.496 OA
ATOM     14  C   UNL A   1      32.449  20.310  23.664  1.00  0.00     0.278 C 
ENDBRANCH   8  13
BRANCH  12  15
ATOM     15  C   UNL A   1      30.579  26.297  25.033  1.00  0.00     0.193 C 
ATOM     16  O   UNL A   1      30.254  26.441  26.208  1.00  0.00    -0.289 OA
BRANCH  15  17
ATOM     17  C   UNL A   1      30.348  27.423  24.101  1.00  0.00     0.022 A 
ATOM     18  C   UNL A   1      31.451  28.146  23.641  1.00  0.00     0.012 A 
ATOM     19  C   UNL A   1      29.058  27.741  23.663  1.00  0.00     0.012 A 
ATOM     20  C   UNL A   1      31.268  29.156  22.697  1.00  0.00     0.001 A 
ATOM     21  C   UNL A   1      28.881  28.745  22.712  1.00  0.00     0.001 A 
ATOM     22  C   UNL A   1      29.986  29.446  22.225  1.00  0.00     0.000 A 
ENDBRANCH  15  17
ENDBRANCH  12  15
ENDBRANCH   5   7
ENDBRANCH   3   5
ENDBRANCH   2   3
ENDBRANCH   1   2
BRANCH   1  23
ATOM     23  C   UNL A   1      37.407  20.021  24.897  1.00  0.00     0.275 C 
BRANCH  23  24
ATOM     24  O   UNL A   1      38.179  21.181  25.250  1.00  0.00    -0.458 OA
BRANCH  24  25
ATOM     25  C   UNL A   1      39.233  20.945  26.064  1.00  0.00     0.338 C 
ATOM     26  O   UNL A   1      39.772  19.877  26.296  1.00  0.00    -0.246 OA
BRANCH  25  27
ATOM     27  C   UNL A   1      39.705  22.219  26.621  1.00  0.00     0.060 A 
ATOM     28  C   UNL A   1      39.143  23.402  26.151  1.00  0.00     0.016 A 
ATOM     29  C   UNL A   1      40.790  22.246  27.498  1.00  0.00     0.016 A 
ATOM     30  C   UNL A   1      39.718  24.623  26.494  1.00  0.00     0.010 A 
ATOM     31  C   UNL A   1      41.324  23.479  27.892  1.00  0.00     0.010 A 
ATOM     32  C   UNL A   1      40.824  24.680  27.359  1.00  0.00    -0.014 A 
BRANCH  32  33
ATOM     33  C   UNL A   1      41.486  25.990  27.623  1.00  0.00     0.031 A 
ATOM     34  C   UNL A   1      40.812  27.022  28.494  1.00  0.00     0.074 A 
ATOM     35  C   UNL A   1      42.721  26.235  27.139  1.00  0.00     0.049 A 
ATOM     36  N   UNL A   1      41.196  28.241  28.785  1.00  0.00    -0.248 NA
ATOM     37  C   UNL A   1      39.532  26.639  29.107  1.00  0.00     0.031 C 
ATOM     38  C   UNL A   1      43.499  25.315  26.307  1.00  0.00     0.029 A 
ATOM     39  N   UNL A   1      43.551  27.316  27.302  1.00  0.00    -0.354 N 
ATOM     40  C   UNL A   1      40.181  28.787  29.566  1.00  0.00     0.074 A 
ATOM     41  C   UNL A   1      39.161  27.767  29.695  1.00  0.00     0.031 C 
ATOM     42  C   UNL A   1      44.712  25.843  26.085  1.00  0.00     0.029 A 
ATOM     43  C   UNL A   1      44.776  27.167  26.692  1.00  0.00     0.049 A 
ATOM     44  H   UNL A   1      43.295  28.121  27.806  1.00  0.00     0.167 HD
ATOM     45  C   UNL A   1      40.105  30.023  30.122  1.00  0.00     0.034 A 
ATOM     46  C   UNL A   1      45.827  28.007  26.613  1.00  0.00     0.034 A 
ATOM     47  C   UNL A   1      41.150  31.016  30.031  1.00  0.00     0.049 A 
ATOM     48  C   UNL A   1      45.729  29.363  27.260  1.00  0.00     0.074 A 
ATOM     49  C   UNL A   1      41.175  32.296  30.563  1.00  0.00     0.029 A 
ATOM     50  N   UNL A   1      42.364  30.839  29.380  1.00  0.00    -0.354 N 
ATOM     51  N   UNL A   1      44.731  29.887  27.932  1.00  0.00    -0.248 NA
ATOM     52  C   UNL A   1      46.898  30.242  27.127  1.00  0.00     0.031 C 
ATOM     53  C   UNL A   1      42.380  32.905  30.194  1.00  0.00     0.029 A 
ATOM     54  C   UNL A   1      43.136  31.986  29.485  1.00  0.00     0.049 A 
ATOM     55  H   UNL A   1      42.636  30.017  28.911  1.00  0.00     0.167 HD
ATOM     56  C   UNL A   1      45.149  31.164  28.292  1.00  0.00     0.074 A 
ATOM     57  C   UNL A   1      46.505  31.312  27.802  1.00  0.00     0.031 C 
ATOM     58  C   UNL A   1      44.471  32.134  28.957  1.00  0.00     0.034 A 
BRANCH  45  59
ATOM     59  C   UNL A   1      38.820  30.389  30.827  1.00  0.00     0.023 A 
ATOM     60  C   UNL A   1      37.785  31.085  30.181  1.00  0.00     0.031 A 
ATOM     61  C   UNL A   1      38.645  30.054  32.182  1.00  0.00     0.131 A 
ATOM     62  C   UNL A   1      36.652  31.484  30.909  1.00  0.00     0.055 A 
ATOM     63  C   UNL A   1      37.484  30.389  32.881  1.00  0.00     0.041 A 
ATOM     64  F   UNL A   1      39.609  29.406  32.855  1.00  0.00    -0.206 F 
ATOM     65  C   UNL A   1      36.484  31.121  32.248  1.00  0.00     0.022 A 
BRANCH  62  66
ATOM     66  S   UNL A   1      35.461  32.600  30.119  1.00  0.00     0.124 S 
ATOM     67  O   UNL A   1      35.259  31.950  28.826  1.00  0.00    -0.237 OA
ATOM     68  O   UNL A   1      34.330  32.557  31.039  1.00  0.00    -0.237 OA
ATOM     69  O   UNL A   1      36.171  33.876  30.062  1.00  0.00    -0.744 OA
ENDBRANCH  62  66
ENDBRANCH  45  59
BRANCH  46  70
ATOM     70  C   UNL A   1      47.046  27.617  25.851  1.00  0.00     0.023 A 
ATOM     71  C   UNL A   1      47.163  27.889  24.478  1.00  0.00     0.031 A 
ATOM     72  C   UNL A   1      48.102  26.937  26.483  1.00  0.00     0.131 A 
ATOM     73  C   UNL A   1      48.298  27.454  23.776  1.00  0.00     0.055 A 
ATOM     74  C   UNL A   1      49.249  26.550  25.790  1.00  0.00     0.041 A 
ATOM     75  F   UNL A   1      48.039  26.656  27.795  1.00  0.00    -0.206 F 
ATOM     76  C   UNL A   1      49.347  26.800  24.425  1.00  0.00     0.022 A 
BRANCH  73  77
ATOM     77  S   UNL A   1      48.356  27.699  21.979  1.00  0.00     0.124 S 
ATOM     78  O   UNL A   1      49.442  28.662  21.844  1.00  0.00    -0.237 OA
ATOM     79  O   UNL A   1      48.633  26.349  21.498  1.00  0.00    -0.237 OA
ATOM     80  O   UNL A   1      47.024  28.209  21.661  1.00  0.00    -0.744 OA
ENDBRANCH  73  77
ENDBRANCH  46  70
BRANCH  58  81
ATOM     81  C   UNL A   1      45.204  33.432  29.182  1.00  0.00     0.023 A 
ATOM     82  C   UNL A   1      45.082  34.504  28.279  1.00  0.00     0.031 A 
ATOM     83  C   UNL A   1      46.074  33.580  30.275  1.00  0.00     0.131 A 
ATOM     84  C   UNL A   1      45.869  35.653  28.449  1.00  0.00     0.055 A 
ATOM     85  C   UNL A   1      46.813  34.748  30.469  1.00  0.00     0.041 A 
ATOM     86  F   UNL A   1      46.228  32.588  31.166  1.00  0.00    -0.206 F 
ATOM     87  C   UNL A   1      46.727  35.786  29.544  1.00  0.00     0.022 A 
BRANCH  84  88
ATOM     88  S   UNL A   1      45.843  36.925  27.155  1.00  0.00     0.124 S 
ATOM     89  O   UNL A   1      46.614  36.294  26.089  1.00  0.00    -0.237 OA
ATOM     90  O   UNL A   1      44.414  37.080  26.902  1.00  0.00    -0.237 OA
ATOM     91  O   UNL A   1      46.488  38.073  27.790  1.00  0.00    -0.744 OA
ENDBRANCH  84  88
ENDBRANCH  58  81
ENDBRANCH  32  33
ENDBRANCH  25  27
ENDBRANCH  24  25
ENDBRANCH  23  24
ENDBRANCH   1  23
TORSDOF 18
ENDMDL
MODEL 2
REMARK VINA RESULT:     -11.4      1.356      3.746
REMARK SMILES COc1ccc(C(=O)c2ccccc2)cc1[C@@H](C)C(=O)OCCOC(=O)c1ccc(-c2c3nc(c(-c4cc(S(=O)(=O)[O-])ccc4F)c4ccc([nH]4)c(-c4cc(S(=O)(=O)[O-])ccc4F)c4nc(c(-c5cc(S(=O)(=O)[O-])ccc5F)c5ccc2[nH]5)C=C4)C=C3)cc1
REMARK SMILES IDX 22 1 21 2 19 3 20 4 17 5 18 6 16 7 3 8 4 9 5 10 15 11 6 12
REMARK SMILES IDX 2 13 1 14 7 15 8 16 9 17 10 18 14 19 11 20 13 21 12 22 23 23
REMARK SMILES IDX 24 24 25 25 26 26 27 27 28 28 89 29 29 30 88 31 30 32 31 33
REMARK SMILES IDX 32 34 82 35 33 36 87 37 81 38 83 39 34 40 86 41 80 42 79 43
REMARK SMILES IDX 35 45 67 46 47 47 66 48 48 49 51 50 65 51 84 52 49 53 50 54
REMARK SMILES IDX 64 56 85 57 52 58 36 59 37 60 45 61 38 62 44 63 46 64 43 65
REMARK SMILES IDX 39 66 40 67 41 68 42 69 68 70 69 71 77 72 70 73 76 74 78 75
REMARK SMILES IDX 75 76 71 77 72 78 73 79 74 80 53 81 54 82 62 83 55 84 61 85
REMARK SMILES IDX 63 86 60 87 56 88 57 89 58 90 59 91
REMARK H PARENT 83 44 51 55
REMARK Flexibility Score: inf
ROOT
ATOM      1  C   UNL A   1      35.923  20.326  25.183  1.00  0.00     0.274 C 
ENDROOT
BRANCH   1   2
ATOM      2  O   UNL A   1      35.607  21.647  25.662  1.00  0.00    -0.462 OA
BRANCH   2   3
ATOM      3  C   UNL A   1      34.510  21.779  26.451  1.00  0.00     0.313 C 
ATOM      4  O   UNL A   1      34.453  21.373  27.609  1.00  0.00    -0.252 OA
BRANCH   3   5
ATOM      5  C   UNL A   1      33.321  22.453  25.768  1.00  0.00     0.130 C 
ATOM      6  C   UNL A   1      32.151  22.522  26.750  1.00  0.00     0.025 C 
BRANCH   5   7
ATOM      7  C   UNL A   1      32.857  21.885  24.430  1.00  0.00     0.009 A 
ATOM      8  C   UNL A   1      32.379  22.725  23.410  1.00  0.00     0.122 A 
ATOM      9  C   UNL A   1      31.896  22.189  22.211  1.00  0.00     0.047 A 
ATOM     10  C   UNL A   1      31.903  20.807  22.003  1.00  0.00     0.016 A 
ATOM     11  C   UNL A   1      32.845  20.498  24.202  1.00  0.00     0.020 A 
ATOM     12  C   UNL A   1      32.374  19.950  23.001  1.00  0.00     0.023 A 
BRANCH   8  13
ATOM     13  O   UNL A   1      32.315  24.069  23.669  1.00  0.00    -0.496 OA
ATOM     14  C   UNL A   1      31.283  24.736  22.945  1.00  0.00     0.278 C 
ENDBRANCH   8  13
BRANCH  12  15
ATOM     15  C   UNL A   1      32.386  18.476  22.749  1.00  0.00     0.193 C 
ATOM     16  O   UNL A   1      31.950  18.007  21.702  1.00  0.00    -0.289 OA
BRANCH  15  17
ATOM     17  C   UNL A   1      32.970  17.547  23.742  1.00  0.00     0.022 A 
ATOM     18  C   UNL A   1      34.310  17.179  23.603  1.00  0.00     0.012 A 
ATOM     19  C   UNL A   1      32.210  17.070  24.815  1.00  0.00     0.012 A 
ATOM     20  C   UNL A   1      34.907  16.373  24.572  1.00  0.00     0.001 A 
ATOM     21  C   UNL A   1      32.813  16.272  25.786  1.00  0.00     0.001 A 
ATOM     22  C   UNL A   1      34.162  15.930  25.667  1.00  0.00     0.000 A 
ENDBRANCH  15  17
ENDBRANCH  12  15
ENDBRANCH   5   7
ENDBRANCH   3   5
ENDBRANCH   2   3
ENDBRANCH   1   2
BRANCH   1  23
ATOM     23  C   UNL A   1      37.426  20.200  24.959  1.00  0.00     0.275 C 
BRANCH  23  24
ATOM     24  O   UNL A   1      38.084  21.374  25.465  1.00  0.00    -0.458 OA
BRANCH  24  25
ATOM     25  C   UNL A   1      39.247  21.145  26.118  1.00  0.00     0.338 C 
ATOM     26  O   UNL A   1      39.846  20.091  26.226  1.00  0.00    -0.246 OA
BRANCH  25  27
ATOM     27  C   UNL A   1      39.748  22.412  26.665  1.00  0.00     0.060 A 
ATOM     28  C   UNL A   1      39.185  23.604  26.215  1.00  0.00     0.016 A 
ATOM     29  C   UNL A   1      40.859  22.425  27.508  1.00  0.00     0.016 A 
ATOM     30  C   UNL A   1      39.782  24.817  26.545  1.00  0.00     0.010 A 
ATOM     31  C   UNL A   1      41.417  23.651  27.890  1.00  0.00     0.010 A 
ATOM     32  C   UNL A   1      40.913  24.859  27.376  1.00  0.00    -0.014 A 
BRANCH  32  33
ATOM     33  C   UNL A   1      41.596  26.162  27.624  1.00  0.00     0.031 A 
ATOM     34  C   UNL A   1      40.953  27.204  28.507  1.00  0.00     0.074 A 
ATOM     35  C   UNL A   1      42.825  26.391  27.115  1.00  0.00     0.049 A 
ATOM     36  N   UNL A   1      41.357  28.418  28.788  1.00  0.00    -0.248 NA
ATOM     37  C   UNL A   1      39.681  26.838  29.146  1.00  0.00     0.031 C 
ATOM     38  C   UNL A   1      43.575  25.460  26.270  1.00  0.00     0.029 A 
ATOM     39  N   UNL A   1      43.671  27.462  27.259  1.00  0.00    -0.354 N 
ATOM     40  C   UNL A   1      40.365  28.978  29.587  1.00  0.00     0.074 A 
ATOM     41  C   UNL A   1      39.336  27.971  29.738  1.00  0.00     0.031 C 
ATOM     42  C   UNL A   1      44.789  25.972  26.022  1.00  0.00     0.029 A 
ATOM     43  C   UNL A   1      44.882  27.297  26.626  1.00  0.00     0.049 A 
ATOM     44  H   UNL A   1      43.435  28.271  27.767  1.00  0.00     0.167 HD
ATOM     45  C   UNL A   1      40.315  30.216  30.143  1.00  0.00     0.034 A 
ATOM     46  C   UNL A   1      45.941  28.124  26.524  1.00  0.00     0.034 A 
ATOM     47  C   UNL A   1      41.370  31.196  30.029  1.00  0.00     0.049 A 
ATOM     48  C   UNL A   1      45.873  29.482  27.170  1.00  0.00     0.074 A 
ATOM     49  C   UNL A   1      41.421  32.476  30.557  1.00  0.00     0.029 A 
ATOM     50  N   UNL A   1      42.568  31.003  29.354  1.00  0.00    -0.354 N 
ATOM     51  N   UNL A   1      44.895  30.020  27.861  1.00  0.00    -0.248 NA
ATOM     52  C   UNL A   1      47.049  30.347  27.012  1.00  0.00     0.031 C 
ATOM     53  C   UNL A   1      42.627  33.070  30.164  1.00  0.00     0.029 A 
ATOM     54  C   UNL A   1      43.356  32.141  29.441  1.00  0.00     0.049 A 
ATOM     55  H   UNL A   1      42.822  30.176  28.882  1.00  0.00     0.167 HD
ATOM     56  C   UNL A   1      45.335  31.292  28.210  1.00  0.00     0.074 A 
ATOM     57  C   UNL A   1      46.683  31.422  27.694  1.00  0.00     0.031 C 
ATOM     58  C   UNL A   1      44.683  32.271  28.887  1.00  0.00     0.034 A 
BRANCH  45  59
ATOM     59  C   UNL A   1      39.049  30.598  30.872  1.00  0.00     0.023 A 
ATOM     60  C   UNL A   1      37.991  31.266  30.234  1.00  0.00     0.031 A 
ATOM     61  C   UNL A   1      38.917  30.311  32.243  1.00  0.00     0.131 A 
ATOM     62  C   UNL A   1      36.877  31.683  30.980  1.00  0.00     0.055 A 
ATOM     63  C   UNL A   1      37.774  30.663  32.964  1.00  0.00     0.041 A 
ATOM     64  F   UNL A   1      39.904  29.692  32.909  1.00  0.00    -0.206 F 
ATOM     65  C   UNL A   1      36.751  31.366  32.335  1.00  0.00     0.022 A 
BRANCH  62  66
ATOM     66  S   UNL A   1      35.655  32.764  30.187  1.00  0.00     0.124 S 
ATOM     67  O   UNL A   1      35.735  32.328  28.795  1.00  0.00    -0.237 OA
ATOM     68  O   UNL A   1      34.426  32.422  30.894  1.00  0.00    -0.237 OA
ATOM     69  O   UNL A   1      36.169  34.108  30.443  1.00  0.00    -0.744 OA
ENDBRANCH  62  66
ENDBRANCH  45  59
BRANCH  46  70
ATOM     70  C   UNL A   1      47.140  27.717  25.738  1.00  0.00     0.023 A 
ATOM     71  C   UNL A   1      47.227  27.974  24.361  1.00  0.00     0.031 A 
ATOM     72  C   UNL A   1      48.205  27.037  26.354  1.00  0.00     0.131 A 
ATOM     73  C   UNL A   1      48.343  27.524  23.637  1.00  0.00     0.055 A 
ATOM     74  C   UNL A   1      49.334  26.635  25.639  1.00  0.00     0.041 A 
ATOM     75  F   UNL A   1      48.170  26.770  27.670  1.00  0.00    -0.206 F 
ATOM     76  C   UNL A   1      49.402  26.870  24.270  1.00  0.00     0.022 A 
BRANCH  73  77
ATOM     77  S   UNL A   1      48.362  27.750  21.838  1.00  0.00     0.124 S 
ATOM     78  O   UNL A   1      47.032  28.294  21.590  1.00  0.00    -0.237 OA
ATOM     79  O   UNL A   1      49.476  28.674  21.659  1.00  0.00    -0.237 OA
ATOM     80  O   UNL A   1      48.589  26.399  21.328  1.00  0.00    -0.744 OA
ENDBRANCH  73  77
ENDBRANCH  46  70
BRANCH  58  81
ATOM     81  C   UNL A   1      45.435  33.561  29.094  1.00  0.00     0.023 A 
ATOM     82  C   UNL A   1      45.304  34.635  28.195  1.00  0.00     0.031 A 
ATOM     83  C   UNL A   1      46.334  33.698  30.166  1.00  0.00     0.131 A 
ATOM     84  C   UNL A   1      46.108  35.774  28.347  1.00  0.00     0.055 A 
ATOM     85  C   UNL A   1      47.091  34.857  30.343  1.00  0.00     0.041 A 
ATOM     86  F   UNL A   1      46.498  32.703  31.052  1.00  0.00    -0.206 F 
ATOM     87  C   UNL A   1      46.994  35.896  29.421  1.00  0.00     0.022 A 
BRANCH  84  88
ATOM     88  S   UNL A   1      46.064  37.048  27.055  1.00  0.00     0.124 S 
ATOM     89  O   UNL A   1      46.974  38.057  27.589  1.00  0.00    -0.237 OA
ATOM     90  O   UNL A   1      46.538  36.318  25.884  1.00  0.00    -0.237 OA
ATOM     91  O   UNL A   1      44.657  37.444  27.011  1.00  0.00    -0.744 OA
ENDBRANCH  84  88
ENDBRANCH  58  81
ENDBRANCH  32  33
ENDBRANCH  25  27
ENDBRANCH  24  25
ENDBRANCH  23  24
ENDBRANCH   1  23
TORSDOF 18
ENDMDL
MODEL 3
REMARK VINA RESULT:     -11.3      1.744      7.738
REMARK SMILES COc1ccc(C(=O)c2ccccc2)cc1[C@@H](C)C(=O)OCCOC(=O)c1ccc(-c2c3nc(c(-c4cc(S(=O)(=O)[O-])ccc4F)c4ccc([nH]4)c(-c4cc(S(=O)(=O)[O-])ccc4F)c4nc(c(-c5cc(S(=O)(=O)[O-])ccc5F)c5ccc2[nH]5)C=C4)C=C3)cc1
REMARK SMILES IDX 22 1 21 2 19 3 20 4 17 5 18 6 16 7 3 8 4 9 5 10 15 11 6 12
REMARK SMILES IDX 2 13 1 14 7 15 8 16 9 17 10 18 14 19 11 20 13 21 12 22 23 23
REMARK SMILES IDX 24 24 25 25 26 26 27 27 28 28 89 29 29 30 88 31 30 32 31 33
REMARK SMILES IDX 32 34 82 35 33 36 87 37 81 38 83 39 34 40 86 41 80 42 79 43
REMARK SMILES IDX 35 45 67 46 47 47 66 48 48 49 51 50 65 51 84 52 49 53 50 54
REMARK SMILES IDX 64 56 85 57 52 58 36 59 37 60 45 61 38 62 44 63 46 64 43 65
REMARK SMILES IDX 39 66 40 67 41 68 42 69 68 70 69 71 77 72 70 73 76 74 78 75
REMARK SMILES IDX 75 76 71 77 72 78 73 79 74 80 53 81 54 82 62 83 55 84 61 85
REMARK SMILES IDX 63 86 60 87 56 88 57 89 58 90 59 91
REMARK H PARENT 83 44 51 55
REMARK Flexibility Score: inf
ROOT
ATOM      1  C   UNL A   1      36.411  20.072  25.040  1.00  0.00     0.274 C 
ENDROOT
BRANCH   1   2
ATOM      2  O   UNL A   1      36.207  21.168  25.952  1.00  0.00    -0.462 OA
BRANCH   2   3
ATOM      3  C   UNL A   1      35.925  22.383  25.415  1.00  0.00     0.313 C 
ATOM      4  O   UNL A   1      36.001  23.437  26.040  1.00  0.00    -0.252 OA
BRANCH   3   5
ATOM      5  C   UNL A   1      35.469  22.335  23.957  1.00  0.00     0.130 C 
ATOM      6  C   UNL A   1      36.481  23.085  23.090  1.00  0.00     0.025 C 
BRANCH   5   7
ATOM      7  C   UNL A   1      34.051  22.804  23.643  1.00  0.00     0.009 A 
ATOM      8  C   UNL A   1      32.960  21.921  23.714  1.00  0.00     0.122 A 
ATOM      9  C   UNL A   1      31.674  22.345  23.362  1.00  0.00     0.047 A 
ATOM     10  C   UNL A   1      31.453  23.662  22.953  1.00  0.00     0.016 A 
ATOM     11  C   UNL A   1      33.806  24.121  23.218  1.00  0.00     0.020 A 
ATOM     12  C   UNL A   1      32.520  24.561  22.873  1.00  0.00     0.023 A 
BRANCH   8  13
ATOM     13  O   UNL A   1      33.218  20.617  24.048  1.00  0.00    -0.496 OA
ATOM     14  C   UNL A   1      32.393  20.131  25.106  1.00  0.00     0.278 C 
ENDBRANCH   8  13
BRANCH  12  15
ATOM     15  C   UNL A   1      32.256  25.969  22.447  1.00  0.00     0.193 C 
ATOM     16  O   UNL A   1      31.957  26.237  21.288  1.00  0.00    -0.289 OA
BRANCH  15  17
ATOM     17  C   UNL A   1      32.302  27.074  23.431  1.00  0.00     0.022 A 
ATOM     18  C   UNL A   1      31.412  27.046  24.507  1.00  0.00     0.012 A 
ATOM     19  C   UNL A   1      33.234  28.109  23.307  1.00  0.00     0.012 A 
ATOM     20  C   UNL A   1      31.492  28.031  25.492  1.00  0.00     0.001 A 
ATOM     21  C   UNL A   1      33.317  29.085  24.299  1.00  0.00     0.001 A 
ATOM     22  C   UNL A   1      32.451  29.041  25.394  1.00  0.00     0.000 A 
ENDBRANCH  15  17
ENDBRANCH  12  15
ENDBRANCH   5   7
ENDBRANCH   3   5
ENDBRANCH   2   3
ENDBRANCH   1   2
BRANCH   1  23
ATOM     23  C   UNL A   1      37.885  19.687  25.010  1.00  0.00     0.275 C 
BRANCH  23  24
ATOM     24  O   UNL A   1      38.688  20.854  25.260  1.00  0.00    -0.458 OA
BRANCH  24  25
ATOM     25  C   UNL A   1      39.680  20.687  26.164  1.00  0.00     0.338 C 
ATOM     26  O   UNL A   1      40.249  19.653  26.465  1.00  0.00    -0.246 OA
BRANCH  25  27
ATOM     27  C   UNL A   1      40.040  21.994  26.729  1.00  0.00     0.060 A 
ATOM     28  C   UNL A   1      39.447  23.137  26.199  1.00  0.00     0.016 A 
ATOM     29  C   UNL A   1      41.057  22.095  27.677  1.00  0.00     0.016 A 
ATOM     30  C   UNL A   1      39.927  24.394  26.559  1.00  0.00     0.010 A 
ATOM     31  C   UNL A   1      41.493  23.362  28.085  1.00  0.00     0.010 A 
ATOM     32  C   UNL A   1      40.965  24.525  27.497  1.00  0.00    -0.014 A 
BRANCH  32  33
ATOM     33  C   UNL A   1      41.532  25.875  27.781  1.00  0.00     0.031 A 
ATOM     34  C   UNL A   1      42.841  26.298  27.161  1.00  0.00     0.074 A 
ATOM     35  C   UNL A   1      40.845  26.753  28.541  1.00  0.00     0.049 A 
ATOM     36  N   UNL A   1      43.527  27.400  27.339  1.00  0.00    -0.248 NA
ATOM     37  C   UNL A   1      43.470  25.350  26.229  1.00  0.00     0.031 C 
ATOM     38  C   UNL A   1      39.554  26.486  29.180  1.00  0.00     0.029 A 
ATOM     39  N   UNL A   1      41.119  28.054  28.881  1.00  0.00    -0.354 N 
ATOM     40  C   UNL A   1      44.691  27.255  26.588  1.00  0.00     0.074 A 
ATOM     41  C   UNL A   1      44.619  25.952  25.960  1.00  0.00     0.031 C 
ATOM     42  C   UNL A   1      39.122  27.605  29.779  1.00  0.00     0.029 A 
ATOM     43  C   UNL A   1      40.132  28.647  29.635  1.00  0.00     0.049 A 
ATOM     44  H   UNL A   1      41.944  28.519  28.611  1.00  0.00     0.167 HD
ATOM     45  C   UNL A   1      45.722  28.125  26.437  1.00  0.00     0.034 A 
ATOM     46  C   UNL A   1      40.055  29.883  30.167  1.00  0.00     0.034 A 
ATOM     47  C   UNL A   1      45.761  29.442  27.027  1.00  0.00     0.049 A 
ATOM     48  C   UNL A   1      41.200  30.839  29.965  1.00  0.00     0.074 A 
ATOM     49  C   UNL A   1      46.755  30.403  26.932  1.00  0.00     0.029 A 
ATOM     50  N   UNL A   1      44.755  29.996  27.808  1.00  0.00    -0.354 N 
ATOM     51  N   UNL A   1      42.324  30.655  29.312  1.00  0.00    -0.248 NA
ATOM     52  C   UNL A   1      41.068  32.164  30.582  1.00  0.00     0.031 C 
ATOM     53  C   UNL A   1      46.372  31.515  27.692  1.00  0.00     0.029 A 
ATOM     54  C   UNL A   1      45.111  31.275  28.211  1.00  0.00     0.049 A 
ATOM     55  H   UNL A   1      43.911  29.545  28.043  1.00  0.00     0.167 HD
ATOM     56  C   UNL A   1      43.038  31.841  29.450  1.00  0.00     0.074 A 
ATOM     57  C   UNL A   1      42.198  32.746  30.208  1.00  0.00     0.031 C 
ATOM     58  C   UNL A   1      44.281  32.152  29.002  1.00  0.00     0.034 A 
BRANCH  45  59
ATOM     59  C   UNL A   1      46.920  27.649  25.651  1.00  0.00     0.023 A 
ATOM     60  C   UNL A   1      47.126  28.010  24.309  1.00  0.00     0.031 A 
ATOM     61  C   UNL A   1      47.859  26.792  26.255  1.00  0.00     0.131 A 
ATOM     62  C   UNL A   1      48.206  27.463  23.596  1.00  0.00     0.055 A 
ATOM     63  C   UNL A   1      48.971  26.310  25.562  1.00  0.00     0.041 A 
ATOM     64  F   UNL A   1      47.703  26.398  27.528  1.00  0.00    -0.206 F 
ATOM     65  C   UNL A   1      49.142  26.634  24.220  1.00  0.00     0.022 A 
BRANCH  62  66
ATOM     66  S   UNL A   1      48.295  27.741  21.806  1.00  0.00     0.124 S 
ATOM     67  O   UNL A   1      49.376  28.719  21.713  1.00  0.00    -0.237 OA
ATOM     68  O   UNL A   1      48.593  26.409  21.295  1.00  0.00    -0.237 OA
ATOM     69  O   UNL A   1      46.969  28.256  21.472  1.00  0.00    -0.744 OA
ENDBRANCH  62  66
ENDBRANCH  45  59
BRANCH  46  70
ATOM     70  C   UNL A   1      38.875  30.275  30.988  1.00  0.00     0.023 A 
ATOM     71  C   UNL A   1      37.822  31.023  30.436  1.00  0.00     0.031 A 
ATOM     72  C   UNL A   1      38.800  29.931  32.349  1.00  0.00     0.131 A 
ATOM     73  C   UNL A   1      36.754  31.428  31.251  1.00  0.00     0.055 A 
ATOM     74  C   UNL A   1      37.712  30.295  33.143  1.00  0.00     0.041 A 
ATOM     75  F   UNL A   1      39.781  29.214  32.922  1.00  0.00    -0.206 F 
ATOM     76  C   UNL A   1      36.685  31.057  32.596  1.00  0.00     0.022 A 
BRANCH  73  77
ATOM     77  S   UNL A   1      35.480  32.508  30.543  1.00  0.00     0.124 S 
ATOM     78  O   UNL A   1      36.117  33.817  30.625  1.00  0.00    -0.237 OA
ATOM     79  O   UNL A   1      35.323  31.954  29.203  1.00  0.00    -0.237 OA
ATOM     80  O   UNL A   1      34.336  32.313  31.432  1.00  0.00    -0.744 OA
ENDBRANCH  73  77
ENDBRANCH  46  70
BRANCH  58  81
ATOM     81  C   UNL A   1      44.788  33.532  29.333  1.00  0.00     0.023 A 
ATOM     82  C   UNL A   1      45.511  33.781  30.513  1.00  0.00     0.031 A 
ATOM     83  C   UNL A   1      44.498  34.620  28.490  1.00  0.00     0.131 A 
ATOM     84  C   UNL A   1      45.864  35.095  30.852  1.00  0.00     0.055 A 
ATOM     85  C   UNL A   1      44.900  35.918  28.807  1.00  0.00     0.041 A 
ATOM     86  F   UNL A   1      43.809  34.439  27.352  1.00  0.00    -0.206 F 
ATOM     87  C   UNL A   1      45.571  36.165  30.002  1.00  0.00     0.022 A 
BRANCH  84  88
ATOM     88  S   UNL A   1      46.610  35.404  32.478  1.00  0.00     0.124 S 
ATOM     89  O   UNL A   1      46.746  36.857  32.481  1.00  0.00    -0.237 OA
ATOM     90  O   UNL A   1      45.609  34.855  33.387  1.00  0.00    -0.237 OA
ATOM     91  O   UNL A   1      47.870  34.664  32.423  1.00  0.00    -0.744 OA
ENDBRANCH  84  88
ENDBRANCH  58  81
ENDBRANCH  32  33
ENDBRANCH  25  27
ENDBRANCH  24  25
ENDBRANCH  23  24
ENDBRANCH   1  23
TORSDOF 18
ENDMDL
