MODEL 1
REMARK VINA RESULT:     -12.3      0.000      0.000
REMARK SMILES CS(=O)(=O)c1ccc(/C=C(/C(=O)OCCOC(=O)c2ccc(-c3c4nc(c(-c5cc(S(=O)(=O)[O-])ccc5F)c5ccc([nH]5)c(-c5cc(S(=O)(=O)[O-])ccc5F)c5nc(c(-c6cc(S(=O)(=O)[O-])ccc6F)c6ccc3[nH]6)C=C5)C=C4)cc2)c2cccc(Br)c2)cc1
REMARK SMILES IDX 15 1 14 2 13 3 11 4 12 5 10 6 9 7 8 8 5 9 6 10 90 11 7 12
REMARK SMILES IDX 89 13 2 14 1 15 3 16 4 17 82 18 83 19 88 20 84 21 86 22
REMARK SMILES IDX 85 23 87 24 16 25 17 26 18 27 19 28 20 29 81 30 21 31 80 32
REMARK SMILES IDX 22 33 23 34 24 35 74 36 25 37 79 38 73 39 75 40 26 41 78 42
REMARK SMILES IDX 72 43 71 44 27 46 59 47 39 48 58 49 40 50 43 51 57 52 76 53
REMARK SMILES IDX 41 54 42 55 56 57 77 58 44 59 28 60 29 61 37 62 30 63 36 64
REMARK SMILES IDX 38 65 35 66 31 67 32 68 33 69 34 70 60 71 61 72 69 73 62 74
REMARK SMILES IDX 68 75 70 76 67 77 63 78 64 79 65 80 66 81 45 82 46 83 54 84
REMARK SMILES IDX 47 85 53 86 55 87 52 88 48 89 49 90 50 91 51 92
REMARK H PARENT 75 45 43 56
REMARK Flexibility Score: inf
ROOT
ATOM      1  C   UNL A   1      31.832  28.736  26.301  1.00  0.00     0.275 C 
ENDROOT
BRANCH   1   2
ATOM      2  C   UNL A   1      31.712  27.691  25.194  1.00  0.00     0.275 C 
BRANCH   2   3
ATOM      3  O   UNL A   1      32.496  26.521  25.504  1.00  0.00    -0.458 OA
BRANCH   3   4
ATOM      4  C   UNL A   1      33.158  25.974  24.452  1.00  0.00     0.338 C 
ATOM      5  O   UNL A   1      33.537  26.581  23.459  1.00  0.00    -0.246 OA
BRANCH   4   6
ATOM      6  C   UNL A   1      33.396  24.511  24.638  1.00  0.00     0.067 C 
ATOM      7  C   UNL A   1      32.328  23.685  24.700  1.00  0.00     0.024 C 
BRANCH   7   8
ATOM      8  C   UNL A   1      32.353  22.213  24.574  1.00  0.00    -0.025 A 
ATOM      9  C   UNL A   1      32.741  19.477  24.114  1.00  0.00     0.067 A 
ATOM     10  C   UNL A   1      32.864  19.982  25.407  1.00  0.00     0.021 A 
ATOM     11  C   UNL A   1      32.328  20.301  23.066  1.00  0.00     0.021 A 
ATOM     12  C   UNL A   1      32.642  21.342  25.634  1.00  0.00     0.009 A 
ATOM     13  C   UNL A   1      32.139  21.665  23.300  1.00  0.00     0.009 A 
BRANCH   9  14
ATOM     14  S   UNL A   1      33.163  17.782  23.800  1.00  0.00     0.175 S 
ATOM     15  C   UNL A   1      32.422  16.904  25.155  1.00  0.00     0.163 C 
ATOM     16  O   UNL A   1      34.604  17.657  23.938  1.00  0.00    -0.224 OA
ATOM     17  O   UNL A   1      32.501  17.395  22.572  1.00  0.00    -0.224 OA
ENDBRANCH   9  14
ENDBRANCH   7   8
BRANCH   6  18
ATOM     18  C   UNL A   1      34.785  24.017  24.562  1.00  0.00    -0.010 A 
ATOM     19  C   UNL A   1      35.222  23.362  23.399  1.00  0.00     0.009 A 
ATOM     20  C   UNL A   1      35.695  24.250  25.600  1.00  0.00     0.024 A 
ATOM     21  C   UNL A   1      36.554  22.967  23.264  1.00  0.00     0.002 A 
ATOM     22  C   UNL A   1      37.025  23.848  25.457  1.00  0.00     0.018 A 
ATOM     23  C   UNL A   1      37.459  23.210  24.296  1.00  0.00     0.016 A 
ATOM     24  Br  UNL A   1      38.257  24.205  26.845  1.00  0.00    -0.051 Br
ENDBRANCH   6  18
ENDBRANCH   4   6
ENDBRANCH   3   4
ENDBRANCH   2   3
ENDBRANCH   1   2
BRANCH   1  25
ATOM     25  O   UNL A   1      32.666  29.822  25.863  1.00  0.00    -0.458 OA
BRANCH  25  26
ATOM     26  C   UNL A   1      32.977  30.739  26.810  1.00  0.00     0.338 C 
ATOM     27  O   UNL A   1      32.239  31.589  27.278  1.00  0.00    -0.246 OA
BRANCH  26  28
ATOM     28  C   UNL A   1      34.380  30.579  27.239  1.00  0.00     0.060 A 
ATOM     29  C   UNL A   1      34.939  29.311  27.365  1.00  0.00     0.016 A 
ATOM     30  C   UNL A   1      35.090  31.698  27.676  1.00  0.00     0.016 A 
ATOM     31  C   UNL A   1      36.146  29.150  28.045  1.00  0.00     0.010 A 
ATOM     32  C   UNL A   1      36.354  31.537  28.256  1.00  0.00     0.010 A 
ATOM     33  C   UNL A   1      36.877  30.255  28.507  1.00  0.00    -0.014 A 
BRANCH  33  34
ATOM     34  C   UNL A   1      38.133  30.086  29.306  1.00  0.00     0.031 A 
ATOM     35  C   UNL A   1      39.259  29.225  28.776  1.00  0.00     0.074 A 
ATOM     36  C   UNL A   1      38.299  30.698  30.498  1.00  0.00     0.049 A 
ATOM     37  N   UNL A   1      40.290  28.719  29.406  1.00  0.00    -0.248 NA
ATOM     38  C   UNL A   1      39.203  28.871  27.349  1.00  0.00     0.031 C 
ATOM     39  C   UNL A   1      37.348  31.618  31.124  1.00  0.00     0.029 A 
ATOM     40  N   UNL A   1      39.336  30.638  31.401  1.00  0.00    -0.354 N 
ATOM     41  C   UNL A   1      40.952  27.917  28.480  1.00  0.00     0.074 A 
ATOM     42  C   UNL A   1      40.210  28.016  27.240  1.00  0.00     0.031 C 
ATOM     43  C   UNL A   1      37.863  32.074  32.275  1.00  0.00     0.029 A 
ATOM     44  C   UNL A   1      39.120  31.383  32.538  1.00  0.00     0.049 A 
ATOM     45  H   UNL A   1      40.154  30.113  31.248  1.00  0.00     0.167 HD
ATOM     46  C   UNL A   1      42.065  27.160  28.653  1.00  0.00     0.034 A 
ATOM     47  C   UNL A   1      39.807  31.456  33.696  1.00  0.00     0.034 A 
ATOM     48  C   UNL A   1      42.840  27.132  29.873  1.00  0.00     0.049 A 
ATOM     49  C   UNL A   1      41.025  30.594  33.880  1.00  0.00     0.074 A 
ATOM     50  C   UNL A   1      43.991  26.413  30.149  1.00  0.00     0.029 A 
ATOM     51  N   UNL A   1      42.557  27.874  31.012  1.00  0.00    -0.354 N 
ATOM     52  N   UNL A   1      41.567  29.741  33.042  1.00  0.00    -0.248 NA
ATOM     53  C   UNL A   1      41.709  30.686  35.177  1.00  0.00     0.031 C 
ATOM     54  C   UNL A   1      44.376  26.683  31.468  1.00  0.00     0.029 A 
ATOM     55  C   UNL A   1      43.502  27.620  31.994  1.00  0.00     0.049 A 
ATOM     56  H   UNL A   1      41.795  28.490  31.109  1.00  0.00     0.167 HD
ATOM     57  C   UNL A   1      42.658  29.195  33.713  1.00  0.00     0.074 A 
ATOM     58  C   UNL A   1      42.711  29.835  35.012  1.00  0.00     0.031 C 
ATOM     59  C   UNL A   1      43.533  28.247  33.293  1.00  0.00     0.034 A 
BRANCH  46  60
ATOM     60  C   UNL A   1      42.476  26.244  27.523  1.00  0.00     0.023 A 
ATOM     61  C   UNL A   1      42.106  24.890  27.476  1.00  0.00     0.031 A 
ATOM     62  C   UNL A   1      43.274  26.744  26.476  1.00  0.00     0.131 A 
ATOM     63  C   UNL A   1      42.585  24.071  26.441  1.00  0.00     0.055 A 
ATOM     64  C   UNL A   1      43.684  25.943  25.410  1.00  0.00     0.041 A 
ATOM     65  F   UNL A   1      43.676  28.026  26.477  1.00  0.00    -0.206 F 
ATOM     66  C   UNL A   1      43.350  24.592  25.395  1.00  0.00     0.022 A 
BRANCH  63  67
ATOM     67  S   UNL A   1      42.306  22.281  26.552  1.00  0.00     0.124 S 
ATOM     68  O   UNL A   1      43.383  21.763  25.712  1.00  0.00    -0.237 OA
ATOM     69  O   UNL A   1      42.434  22.030  27.982  1.00  0.00    -0.237 OA
ATOM     70  O   UNL A   1      40.962  22.109  26.004  1.00  0.00    -0.744 OA
ENDBRANCH  63  67
ENDBRANCH  46  60
BRANCH  47  71
ATOM     71  C   UNL A   1      39.302  32.308  34.811  1.00  0.00     0.023 A 
ATOM     72  C   UNL A   1      38.730  31.739  35.959  1.00  0.00     0.031 A 
ATOM     73  C   UNL A   1      39.368  33.712  34.731  1.00  0.00     0.131 A 
ATOM     74  C   UNL A   1      38.226  32.570  36.971  1.00  0.00     0.055 A 
ATOM     75  C   UNL A   1      38.916  34.532  35.764  1.00  0.00     0.041 A 
ATOM     76  F   UNL A   1      39.903  34.307  33.653  1.00  0.00    -0.206 F 
ATOM     77  C   UNL A   1      38.332  33.961  36.890  1.00  0.00     0.022 A 
BRANCH  74  78
ATOM     78  S   UNL A   1      37.365  31.808  38.374  1.00  0.00     0.124 S 
ATOM     79  O   UNL A   1      36.169  32.639  38.474  1.00  0.00    -0.237 OA
ATOM     80  O   UNL A   1      37.160  30.444  37.900  1.00  0.00    -0.237 OA
ATOM     81  O   UNL A   1      38.316  31.948  39.474  1.00  0.00    -0.744 OA
ENDBRANCH  74  78
ENDBRANCH  47  71
BRANCH  59  82
ATOM     82  C   UNL A   1      44.642  27.881  34.246  1.00  0.00     0.023 A 
ATOM     83  C   UNL A   1      44.509  26.820  35.158  1.00  0.00     0.031 A 
ATOM     84  C   UNL A   1      45.834  28.625  34.261  1.00  0.00     0.131 A 
ATOM     85  C   UNL A   1      45.530  26.566  36.086  1.00  0.00     0.055 A 
ATOM     86  C   UNL A   1      46.867  28.336  35.153  1.00  0.00     0.041 A 
ATOM     87  F   UNL A   1      46.010  29.650  33.412  1.00  0.00    -0.206 F 
ATOM     88  C   UNL A   1      46.713  27.309  36.081  1.00  0.00     0.022 A 
BRANCH  85  89
ATOM     89  S   UNL A   1      45.257  25.303  37.360  1.00  0.00     0.124 S 
ATOM     90  O   UNL A   1      45.752  24.097  36.703  1.00  0.00    -0.237 OA
ATOM     91  O   UNL A   1      46.062  25.801  38.471  1.00  0.00    -0.237 OA
ATOM     92  O   UNL A   1      43.812  25.342  37.577  1.00  0.00    -0.744 OA
ENDBRANCH  85  89
ENDBRANCH  59  82
ENDBRANCH  33  34
ENDBRANCH  26  28
ENDBRANCH  25  26
ENDBRANCH   1  25
TORSDOF 17
ENDMDL
MODEL 2
REMARK VINA RESULT:     -12.2      1.954      2.276
REMARK SMILES CS(=O)(=O)c1ccc(/C=C(/C(=O)OCCOC(=O)c2ccc(-c3c4nc(c(-c5cc(S(=O)(=O)[O-])ccc5F)c5ccc([nH]5)c(-c5cc(S(=O)(=O)[O-])ccc5F)c5nc(c(-c6cc(S(=O)(=O)[O-])ccc6F)c6ccc3[nH]6)C=C5)C=C4)cc2)c2cccc(Br)c2)cc1
REMARK SMILES IDX 15 1 14 2 13 3 11 4 12 5 10 6 9 7 8 8 5 9 6 10 90 11 7 12
REMARK SMILES IDX 89 13 2 14 1 15 3 16 4 17 82 18 83 19 88 20 84 21 86 22
REMARK SMILES IDX 85 23 87 24 16 25 17 26 18 27 19 28 20 29 81 30 21 31 80 32
REMARK SMILES IDX 22 33 23 34 24 35 74 36 25 37 79 38 73 39 75 40 26 41 78 42
REMARK SMILES IDX 72 43 71 44 27 46 59 47 39 48 58 49 40 50 43 51 57 52 76 53
REMARK SMILES IDX 41 54 42 55 56 57 77 58 44 59 28 60 29 61 37 62 30 63 36 64
REMARK SMILES IDX 38 65 35 66 31 67 32 68 33 69 34 70 60 71 61 72 69 73 62 74
REMARK SMILES IDX 68 75 70 76 67 77 63 78 64 79 65 80 66 81 45 82 46 83 54 84
REMARK SMILES IDX 47 85 53 86 55 87 52 88 48 89 49 90 50 91 51 92
REMARK H PARENT 75 45 43 56
REMARK Flexibility Score: inf
ROOT
ATOM      1  C   UNL A   1      32.248  29.033  26.284  1.00  0.00     0.275 C 
ENDROOT
BRANCH   1   2
ATOM      2  C   UNL A   1      32.158  28.018  25.147  1.00  0.00     0.275 C 
BRANCH   2   3
ATOM      3  O   UNL A   1      33.129  26.965  25.320  1.00  0.00    -0.458 OA
BRANCH   3   4
ATOM      4  C   UNL A   1      33.447  26.282  24.190  1.00  0.00     0.338 C 
ATOM      5  O   UNL A   1      33.661  26.783  23.095  1.00  0.00    -0.246 OA
BRANCH   4   6
ATOM      6  C   UNL A   1      33.526  24.810  24.429  1.00  0.00     0.067 C 
ATOM      7  C   UNL A   1      32.375  24.100  24.474  1.00  0.00     0.024 C 
BRANCH   7   8
ATOM      8  C   UNL A   1      32.253  22.629  24.393  1.00  0.00    -0.025 A 
ATOM      9  C   UNL A   1      32.391  19.851  24.066  1.00  0.00     0.067 A 
ATOM     10  C   UNL A   1      32.387  20.394  25.349  1.00  0.00     0.021 A 
ATOM     11  C   UNL A   1      32.223  20.669  22.949  1.00  0.00     0.021 A 
ATOM     12  C   UNL A   1      32.290  21.779  25.506  1.00  0.00     0.009 A 
ATOM     13  C   UNL A   1      32.158  22.055  23.116  1.00  0.00     0.009 A 
BRANCH   9  14
ATOM     14  S   UNL A   1      32.659  18.108  23.862  1.00  0.00     0.175 S 
ATOM     15  C   UNL A   1      34.391  17.904  24.201  1.00  0.00     0.163 C 
ATOM     16  O   UNL A   1      32.450  17.794  22.458  1.00  0.00    -0.224 OA
ATOM     17  O   UNL A   1      31.896  17.433  24.892  1.00  0.00    -0.224 OA
ENDBRANCH   9  14
ENDBRANCH   7   8
BRANCH   6  18
ATOM     18  C   UNL A   1      34.858  24.173  24.421  1.00  0.00    -0.010 A 
ATOM     19  C   UNL A   1      35.265  23.439  23.295  1.00  0.00     0.009 A 
ATOM     20  C   UNL A   1      35.749  24.346  25.486  1.00  0.00     0.024 A 
ATOM     21  C   UNL A   1      36.553  22.905  23.223  1.00  0.00     0.002 A 
ATOM     22  C   UNL A   1      37.034  23.805  25.407  1.00  0.00     0.018 A 
ATOM     23  C   UNL A   1      37.440  23.087  24.282  1.00  0.00     0.016 A 
ATOM     24  Br  UNL A   1      38.248  24.079  26.830  1.00  0.00    -0.051 Br
ENDBRANCH   6  18
ENDBRANCH   4   6
ENDBRANCH   3   4
ENDBRANCH   2   3
ENDBRANCH   1   2
BRANCH   1  25
ATOM     25  O   UNL A   1      33.320  29.958  26.034  1.00  0.00    -0.458 OA
BRANCH  25  26
ATOM     26  C   UNL A   1      33.580  30.835  27.032  1.00  0.00     0.338 C 
ATOM     27  O   UNL A   1      32.823  31.679  27.481  1.00  0.00    -0.246 OA
BRANCH  26  28
ATOM     28  C   UNL A   1      34.949  30.639  27.546  1.00  0.00     0.060 A 
ATOM     29  C   UNL A   1      35.411  29.362  27.852  1.00  0.00     0.016 A 
ATOM     30  C   UNL A   1      35.718  31.754  27.880  1.00  0.00     0.016 A 
ATOM     31  C   UNL A   1      36.575  29.209  28.606  1.00  0.00     0.010 A 
ATOM     32  C   UNL A   1      36.942  31.584  28.537  1.00  0.00     0.010 A 
ATOM     33  C   UNL A   1      37.363  30.312  28.966  1.00  0.00    -0.014 A 
BRANCH  33  34
ATOM     34  C   UNL A   1      38.570  30.162  29.841  1.00  0.00     0.031 A 
ATOM     35  C   UNL A   1      39.739  29.319  29.382  1.00  0.00     0.074 A 
ATOM     36  C   UNL A   1      38.652  30.775  31.042  1.00  0.00     0.049 A 
ATOM     37  N   UNL A   1      40.737  28.828  30.074  1.00  0.00    -0.248 NA
ATOM     38  C   UNL A   1      39.776  28.965  27.954  1.00  0.00     0.031 C 
ATOM     39  C   UNL A   1      37.651  31.680  31.607  1.00  0.00     0.029 A 
ATOM     40  N   UNL A   1      39.632  30.730  32.006  1.00  0.00    -0.354 N 
ATOM     41  C   UNL A   1      41.467  28.037  29.190  1.00  0.00     0.074 A 
ATOM     42  C   UNL A   1      40.801  28.126  27.907  1.00  0.00     0.031 C 
ATOM     43  C   UNL A   1      38.086  32.143  32.788  1.00  0.00     0.029 A 
ATOM     44  C   UNL A   1      39.335  31.471  33.128  1.00  0.00     0.049 A 
ATOM     45  H   UNL A   1      40.466  30.219  31.904  1.00  0.00     0.167 HD
ATOM     46  C   UNL A   1      42.579  27.297  29.433  1.00  0.00     0.034 A 
ATOM     47  C   UNL A   1      39.949  31.554  34.325  1.00  0.00     0.034 A 
ATOM     48  C   UNL A   1      43.277  27.280  30.697  1.00  0.00     0.049 A 
ATOM     49  C   UNL A   1      41.166  30.711  34.585  1.00  0.00     0.074 A 
ATOM     50  C   UNL A   1      44.420  26.579  31.044  1.00  0.00     0.029 A 
ATOM     51  N   UNL A   1      42.914  28.017  31.817  1.00  0.00    -0.354 N 
ATOM     52  N   UNL A   1      41.772  29.866  33.782  1.00  0.00    -0.248 NA
ATOM     53  C   UNL A   1      41.768  30.812  35.921  1.00  0.00     0.031 C 
ATOM     54  C   UNL A   1      44.719  26.854  32.385  1.00  0.00     0.029 A 
ATOM     55  C   UNL A   1      43.800  27.777  32.856  1.00  0.00     0.049 A 
ATOM     56  H   UNL A   1      42.138  28.621  31.866  1.00  0.00     0.167 HD
ATOM     57  C   UNL A   1      42.828  29.337  34.518  1.00  0.00     0.074 A 
ATOM     58  C   UNL A   1      42.791  29.976  35.818  1.00  0.00     0.031 C 
ATOM     59  C   UNL A   1      43.741  28.403  34.154  1.00  0.00     0.034 A 
BRANCH  46  60
ATOM     60  C   UNL A   1      43.073  26.389  28.330  1.00  0.00     0.023 A 
ATOM     61  C   UNL A   1      44.208  26.686  27.558  1.00  0.00     0.031 A 
ATOM     62  C   UNL A   1      42.372  25.202  28.039  1.00  0.00     0.131 A 
ATOM     63  C   UNL A   1      44.571  25.843  26.495  1.00  0.00     0.055 A 
ATOM     64  C   UNL A   1      42.783  24.329  27.030  1.00  0.00     0.041 A 
ATOM     65  F   UNL A   1      41.268  24.874  28.729  1.00  0.00    -0.206 F 
ATOM     66  C   UNL A   1      43.882  24.655  26.241  1.00  0.00     0.022 A 
BRANCH  63  67
ATOM     67  S   UNL A   1      45.877  26.390  25.362  1.00  0.00     0.124 S 
ATOM     68  O   UNL A   1      45.237  27.526  24.701  1.00  0.00    -0.237 OA
ATOM     69  O   UNL A   1      46.969  26.714  26.272  1.00  0.00    -0.237 OA
ATOM     70  O   UNL A   1      46.100  25.227  24.506  1.00  0.00    -0.744 OA
ENDBRANCH  63  67
ENDBRANCH  46  60
BRANCH  47  71
ATOM     71  C   UNL A   1      39.363  32.397  35.407  1.00  0.00     0.023 A 
ATOM     72  C   UNL A   1      39.828  33.698  35.648  1.00  0.00     0.031 A 
ATOM     73  C   UNL A   1      38.337  31.899  36.232  1.00  0.00     0.131 A 
ATOM     74  C   UNL A   1      39.285  34.449  36.702  1.00  0.00     0.055 A 
ATOM     75  C   UNL A   1      37.762  32.668  37.242  1.00  0.00     0.041 A 
ATOM     76  F   UNL A   1      37.859  30.658  36.046  1.00  0.00    -0.206 F 
ATOM     77  C   UNL A   1      38.243  33.951  37.488  1.00  0.00     0.022 A 
BRANCH  74  78
ATOM     78  S   UNL A   1      40.005  36.071  37.078  1.00  0.00     0.124 S 
ATOM     79  O   UNL A   1      41.398  35.723  37.340  1.00  0.00    -0.237 OA
ATOM     80  O   UNL A   1      39.749  36.809  35.846  1.00  0.00    -0.237 OA
ATOM     81  O   UNL A   1      39.244  36.521  38.242  1.00  0.00    -0.744 OA
ENDBRANCH  74  78
ENDBRANCH  47  71
BRANCH  59  82
ATOM     82  C   UNL A   1      44.795  28.053  35.173  1.00  0.00     0.023 A 
ATOM     83  C   UNL A   1      44.636  26.970  36.054  1.00  0.00     0.031 A 
ATOM     84  C   UNL A   1      45.957  28.835  35.283  1.00  0.00     0.131 A 
ATOM     85  C   UNL A   1      45.600  26.730  37.045  1.00  0.00     0.055 A 
ATOM     86  C   UNL A   1      46.938  28.561  36.238  1.00  0.00     0.041 A 
ATOM     87  F   UNL A   1      46.157  29.882  34.467  1.00  0.00    -0.206 F 
ATOM     88  C   UNL A   1      46.756  27.510  37.134  1.00  0.00     0.022 A 
BRANCH  85  89
ATOM     89  S   UNL A   1      45.284  25.433  38.274  1.00  0.00     0.124 S 
ATOM     90  O   UNL A   1      44.688  26.192  39.369  1.00  0.00    -0.237 OA
ATOM     91  O   UNL A   1      44.385  24.535  37.557  1.00  0.00    -0.237 OA
ATOM     92  O   UNL A   1      46.613  24.890  38.549  1.00  0.00    -0.744 OA
ENDBRANCH  85  89
ENDBRANCH  59  82
ENDBRANCH  33  34
ENDBRANCH  26  28
ENDBRANCH  25  26
ENDBRANCH   1  25
TORSDOF 17
ENDMDL
MODEL 3
REMARK VINA RESULT:     -11.8      5.397     10.144
REMARK SMILES CS(=O)(=O)c1ccc(/C=C(/C(=O)OCCOC(=O)c2ccc(-c3c4nc(c(-c5cc(S(=O)(=O)[O-])ccc5F)c5ccc([nH]5)c(-c5cc(S(=O)(=O)[O-])ccc5F)c5nc(c(-c6cc(S(=O)(=O)[O-])ccc6F)c6ccc3[nH]6)C=C5)C=C4)cc2)c2cccc(Br)c2)cc1
REMARK SMILES IDX 15 1 14 2 13 3 11 4 12 5 10 6 9 7 8 8 5 9 6 10 90 11 7 12
REMARK SMILES IDX 89 13 2 14 1 15 3 16 4 17 82 18 83 19 88 20 84 21 86 22
REMARK SMILES IDX 85 23 87 24 16 25 17 26 18 27 19 28 20 29 81 30 21 31 80 32
REMARK SMILES IDX 22 33 23 34 24 35 74 36 25 37 79 38 73 39 75 40 26 41 78 42
REMARK SMILES IDX 72 43 71 44 27 46 59 47 39 48 58 49 40 50 43 51 57 52 76 53
REMARK SMILES IDX 41 54 42 55 56 57 77 58 44 59 28 60 29 61 37 62 30 63 36 64
REMARK SMILES IDX 38 65 35 66 31 67 32 68 33 69 34 70 60 71 61 72 69 73 62 74
REMARK SMILES IDX 68 75 70 76 67 77 63 78 64 79 65 80 66 81 45 82 46 83 54 84
REMARK SMILES IDX 47 85 53 86 55 87 52 88 48 89 49 90 50 91 51 92
REMARK H PARENT 75 45 43 56
REMARK Flexibility Score: inf
ROOT
ATOM      1  C   UNL A   1      36.458  20.727  25.236  1.00  0.00     0.275 C 
ENDROOT
BRANCH   1   2
ATOM      2  C   UNL A   1      35.062  21.007  25.789  1.00  0.00     0.275 C 
BRANCH   2   3
ATOM      3  O   UNL A   1      34.936  22.387  26.188  1.00  0.00    -0.458 OA
BRANCH   3   4
ATOM      4  C   UNL A   1      33.787  22.694  26.845  1.00  0.00     0.338 C 
ATOM      5  O   UNL A   1      33.518  22.371  27.994  1.00  0.00    -0.246 OA
BRANCH   4   6
ATOM      6  C   UNL A   1      32.859  23.505  26.001  1.00  0.00     0.067 C 
ATOM      7  C   UNL A   1      32.106  24.456  26.598  1.00  0.00     0.024 C 
BRANCH   7   8
ATOM      8  C   UNL A   1      31.374  25.546  25.919  1.00  0.00    -0.025 A 
ATOM      9  C   UNL A   1      30.293  27.608  24.361  1.00  0.00     0.067 A 
ATOM     10  C   UNL A   1      29.637  26.380  24.430  1.00  0.00     0.021 A 
ATOM     11  C   UNL A   1      31.425  27.852  25.139  1.00  0.00     0.021 A 
ATOM     12  C   UNL A   1      30.166  25.366  25.231  1.00  0.00     0.009 A 
ATOM     13  C   UNL A   1      31.963  26.819  25.912  1.00  0.00     0.009 A 
BRANCH   9  14
ATOM     14  S   UNL A   1      29.703  28.845  23.235  1.00  0.00     0.175 S 
ATOM     15  C   UNL A   1      27.962  28.512  23.114  1.00  0.00     0.163 C 
ATOM     16  O   UNL A   1      30.289  28.570  21.934  1.00  0.00    -0.224 OA
ATOM     17  O   UNL A   1      29.891  30.132  23.873  1.00  0.00    -0.224 OA
ENDBRANCH   9  14
ENDBRANCH   7   8
BRANCH   6  18
ATOM     18  C   UNL A   1      32.941  23.355  24.534  1.00  0.00    -0.010 A 
ATOM     19  C   UNL A   1      33.676  24.289  23.786  1.00  0.00     0.009 A 
ATOM     20  C   UNL A   1      32.358  22.262  23.884  1.00  0.00     0.024 A 
ATOM     21  C   UNL A   1      33.848  24.120  22.411  1.00  0.00     0.002 A 
ATOM     22  C   UNL A   1      32.532  22.103  22.507  1.00  0.00     0.018 A 
ATOM     23  C   UNL A   1      33.273  23.025  21.768  1.00  0.00     0.016 A 
ATOM     24  Br  UNL A   1      31.778  20.601  21.643  1.00  0.00    -0.051 Br
ENDBRANCH   6  18
ENDBRANCH   4   6
ENDBRANCH   3   4
ENDBRANCH   2   3
ENDBRANCH   1   2
BRANCH   1  25
ATOM     25  O   UNL A   1      37.296  21.883  25.408  1.00  0.00    -0.458 OA
BRANCH  25  26
ATOM     26  C   UNL A   1      38.568  21.630  25.797  1.00  0.00     0.338 C 
ATOM     27  O   UNL A   1      39.198  20.602  25.617  1.00  0.00    -0.246 OA
BRANCH  26  28
ATOM     28  C   UNL A   1      39.137  22.801  26.490  1.00  0.00     0.060 A 
ATOM     29  C   UNL A   1      38.747  24.089  26.135  1.00  0.00     0.016 A 
ATOM     30  C   UNL A   1      40.187  22.617  27.389  1.00  0.00     0.016 A 
ATOM     31  C   UNL A   1      39.491  25.184  26.575  1.00  0.00     0.010 A 
ATOM     32  C   UNL A   1      40.857  23.728  27.915  1.00  0.00     0.010 A 
ATOM     33  C   UNL A   1      40.561  25.029  27.469  1.00  0.00    -0.014 A 
BRANCH  33  34
ATOM     34  C   UNL A   1      41.412  26.191  27.883  1.00  0.00     0.031 A 
ATOM     35  C   UNL A   1      40.834  27.281  28.759  1.00  0.00     0.074 A 
ATOM     36  C   UNL A   1      42.704  26.290  27.501  1.00  0.00     0.049 A 
ATOM     37  N   UNL A   1      41.285  28.487  28.996  1.00  0.00    -0.248 NA
ATOM     38  C   UNL A   1      39.567  26.975  29.441  1.00  0.00     0.031 C 
ATOM     39  C   UNL A   1      43.441  25.297  26.719  1.00  0.00     0.029 A 
ATOM     40  N   UNL A   1      43.631  27.281  27.726  1.00  0.00    -0.354 N 
ATOM     41  C   UNL A   1      40.317  29.113  29.778  1.00  0.00     0.074 A 
ATOM     42  C   UNL A   1      39.260  28.145  29.983  1.00  0.00     0.031 C 
ATOM     43  C   UNL A   1      44.711  25.700  26.572  1.00  0.00     0.029 A 
ATOM     44  C   UNL A   1      44.850  27.038  27.134  1.00  0.00     0.049 A 
ATOM     45  H   UNL A   1      43.441  28.086  28.258  1.00  0.00     0.167 HD
ATOM     46  C   UNL A   1      40.308  30.381  30.265  1.00  0.00     0.034 A 
ATOM     47  C   UNL A   1      45.940  27.820  26.992  1.00  0.00     0.034 A 
ATOM     48  C   UNL A   1      41.406  31.309  30.119  1.00  0.00     0.049 A 
ATOM     49  C   UNL A   1      45.904  29.229  27.517  1.00  0.00     0.074 A 
ATOM     50  C   UNL A   1      41.506  32.609  30.586  1.00  0.00     0.029 A 
ATOM     51  N   UNL A   1      42.604  31.030  29.476  1.00  0.00    -0.354 N 
ATOM     52  N   UNL A   1      44.932  29.853  28.141  1.00  0.00    -0.248 NA
ATOM     53  C   UNL A   1      47.104  30.046  27.295  1.00  0.00     0.031 C 
ATOM     54  C   UNL A   1      42.742  33.130  30.184  1.00  0.00     0.029 A 
ATOM     55  C   UNL A   1      43.441  32.134  29.523  1.00  0.00     0.049 A 
ATOM     56  H   UNL A   1      42.827  30.171  29.047  1.00  0.00     0.167 HD
ATOM     57  C   UNL A   1      45.406  31.138  28.387  1.00  0.00     0.074 A 
ATOM     58  C   UNL A   1      46.758  31.190  27.869  1.00  0.00     0.031 C 
ATOM     59  C   UNL A   1      44.778  32.182  28.984  1.00  0.00     0.034 A 
BRANCH  46  60
ATOM     60  C   UNL A   1      39.047  30.864  30.943  1.00  0.00     0.023 A 
ATOM     61  C   UNL A   1      37.939  31.342  30.224  1.00  0.00     0.031 A 
ATOM     62  C   UNL A   1      38.965  30.858  32.349  1.00  0.00     0.131 A 
ATOM     63  C   UNL A   1      36.826  31.852  30.912  1.00  0.00     0.055 A 
ATOM     64  C   UNL A   1      37.825  31.295  33.026  1.00  0.00     0.041 A 
ATOM     65  F   UNL A   1      40.000  30.431  33.091  1.00  0.00    -0.206 F 
ATOM     66  C   UNL A   1      36.751  31.809  32.307  1.00  0.00     0.022 A 
BRANCH  63  67
ATOM     67  S   UNL A   1      35.532  32.697  29.963  1.00  0.00     0.124 S 
ATOM     68  O   UNL A   1      35.411  31.829  28.793  1.00  0.00    -0.237 OA
ATOM     69  O   UNL A   1      34.404  32.684  30.887  1.00  0.00    -0.237 OA
ATOM     70  O   UNL A   1      36.106  34.014  29.695  1.00  0.00    -0.744 OA
ENDBRANCH  63  67
ENDBRANCH  46  60
BRANCH  47  71
ATOM     71  C   UNL A   1      47.122  27.321  26.232  1.00  0.00     0.023 A 
ATOM     72  C   UNL A   1      47.316  27.658  24.884  1.00  0.00     0.031 A 
ATOM     73  C   UNL A   1      48.068  26.478  26.845  1.00  0.00     0.131 A 
ATOM     74  C   UNL A   1      48.416  27.137  24.186  1.00  0.00     0.055 A 
ATOM     75  C   UNL A   1      49.189  26.008  26.164  1.00  0.00     0.041 A 
ATOM     76  F   UNL A   1      47.927  26.122  28.132  1.00  0.00    -0.206 F 
ATOM     77  C   UNL A   1      49.364  26.330  24.821  1.00  0.00     0.022 A 
BRANCH  74  78
ATOM     78  S   UNL A   1      48.561  27.475  22.410  1.00  0.00     0.124 S 
ATOM     79  O   UNL A   1      49.779  28.277  22.360  1.00  0.00    -0.237 OA
ATOM     80  O   UNL A   1      48.654  26.130  21.852  1.00  0.00    -0.237 OA
ATOM     81  O   UNL A   1      47.327  28.193  22.098  1.00  0.00    -0.744 OA
ENDBRANCH  74  78
ENDBRANCH  47  71
BRANCH  59  82
ATOM     82  C   UNL A   1      45.573  33.453  29.135  1.00  0.00     0.023 A 
ATOM     83  C   UNL A   1      45.731  34.354  28.068  1.00  0.00     0.031 A 
ATOM     84  C   UNL A   1      46.206  33.749  30.354  1.00  0.00     0.131 A 
ATOM     85  C   UNL A   1      46.549  35.483  28.224  1.00  0.00     0.055 A 
ATOM     86  C   UNL A   1      46.978  34.900  30.519  1.00  0.00     0.041 A 
ATOM     87  F   UNL A   1      46.089  32.920  31.404  1.00  0.00    -0.206 F 
ATOM     88  C   UNL A   1      47.164  35.768  29.447  1.00  0.00     0.022 A 
BRANCH  85  89
ATOM     89  S   UNL A   1      46.872  36.533  26.780  1.00  0.00     0.124 S 
ATOM     90  O   UNL A   1      48.309  36.357  26.592  1.00  0.00    -0.237 OA
ATOM     91  O   UNL A   1      46.017  35.934  25.761  1.00  0.00    -0.237 OA
ATOM     92  O   UNL A   1      46.465  37.864  27.227  1.00  0.00    -0.744 OA
ENDBRANCH  85  89
ENDBRANCH  59  82
ENDBRANCH  33  34
ENDBRANCH  26  28
ENDBRANCH  25  26
ENDBRANCH   1  25
TORSDOF 17
ENDMDL
