MODEL 1
REMARK VINA RESULT:      -9.4      0.000      0.000
REMARK SMILES C/C=C/c1cncc(-c2ccc([C@@H](C)C(=O)OCCOC(=O)c3ccc(-c4c5nc(c(-c6cc(S(=O)(=O)[O-])ccc6F)c6ccc([nH]6)c(-c6cc(S(=O)(=O)[O-])ccc6F)c6nc(c(-c7cc(S(=O)(=O)[O-])ccc7F)c7ccc4[nH]7)C=C6)C=C5)cc3)cc2)c1
REMARK SMILES IDX 18 1 17 2 15 3 16 4 13 5 14 6 12 7 9 8 10 9 87 10 11 11
REMARK SMILES IDX 86 12 8 13 4 14 5 15 88 16 6 17 7 18 3 19 1 20 2 21 19 22
REMARK SMILES IDX 20 23 21 24 22 25 23 26 24 27 85 28 25 29 84 30 26 31 27 32
REMARK SMILES IDX 28 33 78 34 29 35 83 36 77 37 79 38 30 39 82 40 76 41 75 42
REMARK SMILES IDX 31 44 63 45 43 46 62 47 44 48 47 49 61 50 80 51 45 52 46 53
REMARK SMILES IDX 60 55 81 56 48 57 32 58 33 59 41 60 34 61 40 62 42 63 39 64
REMARK SMILES IDX 35 65 36 66 37 67 38 68 64 69 65 70 73 71 66 72 72 73 74 74
REMARK SMILES IDX 71 75 67 76 68 77 69 78 70 79 49 80 50 81 58 82 51 83 57 84
REMARK SMILES IDX 59 85 56 86 52 87 53 88 54 89 55 90
REMARK H PARENT 79 43 47 54
REMARK Flexibility Score: inf
ROOT
ATOM      1  C   UNL A   1      34.070  34.455  29.107  1.00  0.00     0.274 C 
ENDROOT
BRANCH   1   2
ATOM      2  O   UNL A   1      33.665  34.147  30.453  1.00  0.00    -0.462 OA
BRANCH   2   3
ATOM      3  C   UNL A   1      34.602  34.306  31.426  1.00  0.00     0.313 C 
ATOM      4  O   UNL A   1      34.656  35.276  32.175  1.00  0.00    -0.252 OA
BRANCH   3   5
ATOM      5  C   UNL A   1      35.634  33.187  31.475  1.00  0.00     0.126 C 
ATOM      6  C   UNL A   1      35.640  32.555  32.867  1.00  0.00     0.025 C 
BRANCH   5   7
ATOM      7  C   UNL A   1      37.033  33.546  30.994  1.00  0.00    -0.034 A 
ATOM      8  C   UNL A   1      39.657  34.140  30.073  1.00  0.00    -0.017 A 
ATOM      9  C   UNL A   1      39.266  34.427  31.391  1.00  0.00     0.009 A 
ATOM     10  C   UNL A   1      38.705  33.575  29.215  1.00  0.00     0.009 A 
ATOM     11  C   UNL A   1      37.978  34.131  31.846  1.00  0.00     0.005 A 
ATOM     12  C   UNL A   1      37.413  33.279  29.670  1.00  0.00     0.005 A 
BRANCH   8  13
ATOM     13  C   UNL A   1      41.035  34.390  29.633  1.00  0.00     0.001 A 
ATOM     14  C   UNL A   1      43.390  33.809  29.483  1.00  0.00    -0.007 A 
ATOM     15  C   UNL A   1      43.569  34.975  28.741  1.00  0.00     0.119 A 
ATOM     16  C   UNL A   1      42.098  33.530  29.943  1.00  0.00     0.020 A 
ATOM     17  N   UNL A   1      42.580  35.836  28.414  1.00  0.00    -0.263 NA
ATOM     18  C   UNL A   1      41.346  35.521  28.872  1.00  0.00     0.119 A 
BRANCH  14  19
ATOM     19  C   UNL A   1      44.548  32.959  29.776  1.00  0.00     0.005 C 
ATOM     20  C   UNL A   1      45.697  30.751  30.006  1.00  0.00     0.035 C 
ATOM     21  C   UNL A   1      44.504  31.617  29.755  1.00  0.00    -0.030 C 
ENDBRANCH  14  19
ENDBRANCH   8  13
ENDBRANCH   5   7
ENDBRANCH   3   5
ENDBRANCH   2   3
ENDBRANCH   1   2
BRANCH   1  22
ATOM     22  C   UNL A   1      33.777  33.284  28.169  1.00  0.00     0.275 C 
BRANCH  22  23
ATOM     23  O   UNL A   1      34.173  32.039  28.768  1.00  0.00    -0.458 OA
BRANCH  23  24
ATOM     24  C   UNL A   1      34.481  31.049  27.898  1.00  0.00     0.338 C 
ATOM     25  O   UNL A   1      33.879  30.733  26.888  1.00  0.00    -0.246 OA
BRANCH  24  26
ATOM     26  C   UNL A   1      35.748  30.432  28.312  1.00  0.00     0.060 A 
ATOM     27  C   UNL A   1      35.829  29.860  29.583  1.00  0.00     0.016 A 
ATOM     28  C   UNL A   1      36.864  30.479  27.478  1.00  0.00     0.016 A 
ATOM     29  C   UNL A   1      37.036  29.338  30.036  1.00  0.00     0.010 A 
ATOM     30  C   UNL A   1      38.071  29.937  27.928  1.00  0.00     0.010 A 
ATOM     31  C   UNL A   1      38.168  29.372  29.212  1.00  0.00    -0.014 A 
BRANCH  31  32
ATOM     32  C   UNL A   1      39.464  28.849  29.710  1.00  0.00     0.031 A 
ATOM     33  C   UNL A   1      40.169  29.554  30.832  1.00  0.00     0.074 A 
ATOM     34  C   UNL A   1      40.001  27.751  29.149  1.00  0.00     0.049 A 
ATOM     35  N   UNL A   1      41.359  29.337  31.330  1.00  0.00    -0.248 NA
ATOM     36  C   UNL A   1      39.436  30.656  31.470  1.00  0.00     0.031 C 
ATOM     37  C   UNL A   1      39.385  26.964  28.079  1.00  0.00     0.029 A 
ATOM     38  N   UNL A   1      41.193  27.116  29.389  1.00  0.00    -0.354 N 
ATOM     39  C   UNL A   1      41.528  30.286  32.333  1.00  0.00     0.074 A 
ATOM     40  C   UNL A   1      40.328  31.098  32.345  1.00  0.00     0.031 C 
ATOM     41  C   UNL A   1      40.211  25.961  27.745  1.00  0.00     0.029 A 
ATOM     42  C   UNL A   1      41.434  26.065  28.535  1.00  0.00     0.049 A 
ATOM     43  H   UNL A   1      41.815  27.386  30.102  1.00  0.00     0.167 HD
ATOM     44  C   UNL A   1      42.587  30.458  33.164  1.00  0.00     0.034 A 
ATOM     45  C   UNL A   1      42.534  25.302  28.377  1.00  0.00     0.034 A 
ATOM     46  C   UNL A   1      43.776  29.641  33.125  1.00  0.00     0.049 A 
ATOM     47  C   UNL A   1      43.729  25.559  29.256  1.00  0.00     0.074 A 
ATOM     48  C   UNL A   1      44.903  29.714  33.925  1.00  0.00     0.029 A 
ATOM     49  N   UNL A   1      43.998  28.604  32.225  1.00  0.00    -0.354 N 
ATOM     50  N   UNL A   1      43.885  26.466  30.193  1.00  0.00    -0.248 NA
ATOM     51  C   UNL A   1      44.895  24.690  29.057  1.00  0.00     0.031 C 
ATOM     52  C   UNL A   1      45.830  28.768  33.470  1.00  0.00     0.029 A 
ATOM     53  C   UNL A   1      45.256  28.054  32.429  1.00  0.00     0.049 A 
ATOM     54  H   UNL A   1      43.357  28.303  31.542  1.00  0.00     0.167 HD
ATOM     55  C   UNL A   1      45.164  26.268  30.704  1.00  0.00     0.074 A 
ATOM     56  C   UNL A   1      45.728  25.144  29.983  1.00  0.00     0.031 C 
ATOM     57  C   UNL A   1      45.813  26.950  31.682  1.00  0.00     0.034 A 
BRANCH  44  58
ATOM     58  C   UNL A   1      42.516  31.613  34.136  1.00  0.00     0.023 A 
ATOM     59  C   UNL A   1      41.756  31.544  35.316  1.00  0.00     0.031 A 
ATOM     60  C   UNL A   1      43.176  32.821  33.848  1.00  0.00     0.131 A 
ATOM     61  C   UNL A   1      41.606  32.684  36.121  1.00  0.00     0.055 A 
ATOM     62  C   UNL A   1      43.089  33.927  34.696  1.00  0.00     0.041 A 
ATOM     63  F   UNL A   1      43.900  32.955  32.726  1.00  0.00    -0.206 F 
ATOM     64  C   UNL A   1      42.286  33.869  35.830  1.00  0.00     0.022 A 
BRANCH  61  65
ATOM     65  S   UNL A   1      40.382  32.645  37.460  1.00  0.00     0.124 S 
ATOM     66  O   UNL A   1      39.433  31.651  36.966  1.00  0.00    -0.237 OA
ATOM     67  O   UNL A   1      41.186  32.246  38.610  1.00  0.00    -0.237 OA
ATOM     68  O   UNL A   1      39.874  34.015  37.499  1.00  0.00    -0.744 OA
ENDBRANCH  61  65
ENDBRANCH  44  58
BRANCH  45  69
ATOM     69  C   UNL A   1      42.579  24.277  27.297  1.00  0.00     0.023 A 
ATOM     70  C   UNL A   1      41.964  23.025  27.450  1.00  0.00     0.031 A 
ATOM     71  C   UNL A   1      43.261  24.537  26.094  1.00  0.00     0.131 A 
ATOM     72  C   UNL A   1      42.066  22.069  26.427  1.00  0.00     0.055 A 
ATOM     73  C   UNL A   1      43.321  23.600  25.062  1.00  0.00     0.041 A 
ATOM     74  F   UNL A   1      43.866  25.720  25.899  1.00  0.00    -0.206 F 
ATOM     75  C   UNL A   1      42.728  22.353  25.230  1.00  0.00     0.022 A 
BRANCH  72  76
ATOM     76  S   UNL A   1      41.367  20.419  26.706  1.00  0.00     0.124 S 
ATOM     77  O   UNL A   1      42.047  20.011  27.930  1.00  0.00    -0.237 OA
ATOM     78  O   UNL A   1      39.942  20.709  26.829  1.00  0.00    -0.237 OA
ATOM     79  O   UNL A   1      41.748  19.681  25.504  1.00  0.00    -0.744 OA
ENDBRANCH  72  76
ENDBRANCH  45  69
BRANCH  57  80
ATOM     80  C   UNL A   1      47.198  26.472  32.039  1.00  0.00     0.023 A 
ATOM     81  C   UNL A   1      48.343  26.990  31.408  1.00  0.00     0.031 A 
ATOM     82  C   UNL A   1      47.372  25.472  33.011  1.00  0.00     0.131 A 
ATOM     83  C   UNL A   1      49.608  26.471  31.722  1.00  0.00     0.055 A 
ATOM     84  C   UNL A   1      48.638  24.997  33.358  1.00  0.00     0.041 A 
ATOM     85  F   UNL A   1      46.312  24.941  33.641  1.00  0.00    -0.206 F 
ATOM     86  C   UNL A   1      49.764  25.489  32.704  1.00  0.00     0.022 A 
BRANCH  83  87
ATOM     87  S   UNL A   1      51.046  27.042  30.775  1.00  0.00     0.124 S 
ATOM     88  O   UNL A   1      51.348  25.876  29.950  1.00  0.00    -0.237 OA
ATOM     89  O   UNL A   1      50.514  28.203  30.068  1.00  0.00    -0.237 OA
ATOM     90  O   UNL A   1      52.038  27.347  31.805  1.00  0.00    -0.744 OA
ENDBRANCH  83  87
ENDBRANCH  57  80
ENDBRANCH  31  32
ENDBRANCH  24  26
ENDBRANCH  23  24
ENDBRANCH  22  23
ENDBRANCH   1  22
TORSDOF 17
ENDMDL
MODEL 2
REMARK VINA RESULT:      -9.2      2.874     10.536
REMARK SMILES C/C=C/c1cncc(-c2ccc([C@@H](C)C(=O)OCCOC(=O)c3ccc(-c4c5nc(c(-c6cc(S(=O)(=O)[O-])ccc6F)c6ccc([nH]6)c(-c6cc(S(=O)(=O)[O-])ccc6F)c6nc(c(-c7cc(S(=O)(=O)[O-])ccc7F)c7ccc4[nH]7)C=C6)C=C5)cc3)cc2)c1
REMARK SMILES IDX 18 1 17 2 15 3 16 4 13 5 14 6 12 7 9 8 10 9 87 10 11 11
REMARK SMILES IDX 86 12 8 13 4 14 5 15 88 16 6 17 7 18 3 19 1 20 2 21 19 22
REMARK SMILES IDX 20 23 21 24 22 25 23 26 24 27 85 28 25 29 84 30 26 31 27 32
REMARK SMILES IDX 28 33 78 34 29 35 83 36 77 37 79 38 30 39 82 40 76 41 75 42
REMARK SMILES IDX 31 44 63 45 43 46 62 47 44 48 47 49 61 50 80 51 45 52 46 53
REMARK SMILES IDX 60 55 81 56 48 57 32 58 33 59 41 60 34 61 40 62 42 63 39 64
REMARK SMILES IDX 35 65 36 66 37 67 38 68 64 69 65 70 73 71 66 72 72 73 74 74
REMARK SMILES IDX 71 75 67 76 68 77 69 78 70 79 49 80 50 81 58 82 51 83 57 84
REMARK SMILES IDX 59 85 56 86 52 87 53 88 54 89 55 90
REMARK H PARENT 79 43 47 54
REMARK Flexibility Score: inf
ROOT
ATOM      1  C   UNL A   1      41.287  19.853  26.169  1.00  0.00     0.274 C 
ENDROOT
BRANCH   1   2
ATOM      2  O   UNL A   1      42.606  20.278  26.556  1.00  0.00    -0.462 OA
BRANCH   2   3
ATOM      3  C   UNL A   1      43.333  20.946  25.622  1.00  0.00     0.313 C 
ATOM      4  O   UNL A   1      44.048  20.399  24.788  1.00  0.00    -0.252 OA
BRANCH   3   5
ATOM      5  C   UNL A   1      43.233  22.463  25.733  1.00  0.00     0.126 C 
ATOM      6  C   UNL A   1      44.010  23.112  24.587  1.00  0.00     0.025 C 
BRANCH   5   7
ATOM      7  C   UNL A   1      43.589  23.059  27.088  1.00  0.00    -0.034 A 
ATOM      8  C   UNL A   1      44.193  24.229  29.607  1.00  0.00    -0.017 A 
ATOM      9  C   UNL A   1      45.186  24.048  28.632  1.00  0.00     0.009 A 
ATOM     10  C   UNL A   1      42.896  23.790  29.312  1.00  0.00     0.009 A 
ATOM     11  C   UNL A   1      44.890  23.477  27.391  1.00  0.00     0.005 A 
ATOM     12  C   UNL A   1      42.597  23.217  28.069  1.00  0.00     0.005 A 
BRANCH   8  13
ATOM     13  C   UNL A   1      44.507  24.897  30.877  1.00  0.00     0.001 A 
ATOM     14  C   UNL A   1      45.096  26.849  32.199  1.00  0.00    -0.007 A 
ATOM     15  C   UNL A   1      45.071  26.022  33.321  1.00  0.00     0.119 A 
ATOM     16  C   UNL A   1      44.820  26.261  30.959  1.00  0.00     0.020 A 
ATOM     17  N   UNL A   1      44.775  24.704  33.297  1.00  0.00    -0.263 NA
ATOM     18  C   UNL A   1      44.506  24.181  32.078  1.00  0.00     0.119 A 
BRANCH  14  19
ATOM     19  C   UNL A   1      45.438  28.265  32.358  1.00  0.00     0.005 C 
ATOM     20  C   UNL A   1      45.004  30.592  33.162  1.00  0.00     0.035 C 
ATOM     21  C   UNL A   1      44.634  29.157  32.957  1.00  0.00    -0.030 C 
ENDBRANCH  14  19
ENDBRANCH   8  13
ENDBRANCH   5   7
ENDBRANCH   3   5
ENDBRANCH   2   3
ENDBRANCH   1   2
BRANCH   1  22
ATOM     22  C   UNL A   1      40.222  20.781  26.752  1.00  0.00     0.275 C 
BRANCH  22  23
ATOM     23  O   UNL A   1      39.904  21.837  25.830  1.00  0.00    -0.458 OA
BRANCH  23  24
ATOM     24  C   UNL A   1      38.887  22.648  26.205  1.00  0.00     0.338 C 
ATOM     25  O   UNL A   1      37.699  22.385  26.231  1.00  0.00    -0.246 OA
BRANCH  24  26
ATOM     26  C   UNL A   1      39.445  23.922  26.677  1.00  0.00     0.060 A 
ATOM     27  C   UNL A   1      39.199  24.314  27.993  1.00  0.00     0.016 A 
ATOM     28  C   UNL A   1      40.147  24.753  25.804  1.00  0.00     0.016 A 
ATOM     29  C   UNL A   1      39.645  25.550  28.447  1.00  0.00     0.010 A 
ATOM     30  C   UNL A   1      40.612  25.986  26.267  1.00  0.00     0.010 A 
ATOM     31  C   UNL A   1      40.356  26.398  27.588  1.00  0.00    -0.014 A 
BRANCH  31  32
ATOM     32  C   UNL A   1      40.800  27.731  28.060  1.00  0.00     0.031 A 
ATOM     33  C   UNL A   1      42.265  28.058  28.100  1.00  0.00     0.074 A 
ATOM     34  C   UNL A   1      39.888  28.638  28.456  1.00  0.00     0.049 A 
ATOM     35  N   UNL A   1      42.867  29.110  28.589  1.00  0.00    -0.248 NA
ATOM     36  C   UNL A   1      43.169  27.057  27.515  1.00  0.00     0.031 C 
ATOM     37  C   UNL A   1      38.437  28.443  28.425  1.00  0.00     0.029 A 
ATOM     38  N   UNL A   1      40.046  29.897  28.977  1.00  0.00    -0.354 N 
ATOM     39  C   UNL A   1      44.227  28.895  28.388  1.00  0.00     0.074 A 
ATOM     40  C   UNL A   1      44.355  27.595  27.760  1.00  0.00     0.031 C 
ATOM     41  C   UNL A   1      37.839  29.538  28.920  1.00  0.00     0.029 A 
ATOM     42  C   UNL A   1      38.861  30.486  29.353  1.00  0.00     0.049 A 
ATOM     43  H   UNL A   1      40.921  30.336  29.073  1.00  0.00     0.167 HD
ATOM     44  C   UNL A   1      45.266  29.711  28.698  1.00  0.00     0.034 A 
ATOM     45  C   UNL A   1      38.629  31.638  30.013  1.00  0.00     0.034 A 
ATOM     46  C   UNL A   1      45.113  30.998  29.332  1.00  0.00     0.049 A 
ATOM     47  C   UNL A   1      39.800  32.493  30.418  1.00  0.00     0.074 A 
ATOM     48  C   UNL A   1      46.090  31.913  29.680  1.00  0.00     0.029 A 
ATOM     49  N   UNL A   1      43.898  31.549  29.727  1.00  0.00    -0.354 N 
ATOM     50  N   UNL A   1      41.082  32.277  30.235  1.00  0.00    -0.248 NA
ATOM     51  C   UNL A   1      39.493  33.746  31.118  1.00  0.00     0.031 C 
ATOM     52  C   UNL A   1      45.477  32.985  30.340  1.00  0.00     0.029 A 
ATOM     53  C   UNL A   1      44.106  32.774  30.345  1.00  0.00     0.049 A 
ATOM     54  H   UNL A   1      43.018  31.131  29.590  1.00  0.00     0.167 HD
ATOM     55  C   UNL A   1      41.735  33.374  30.787  1.00  0.00     0.074 A 
ATOM     56  C   UNL A   1      40.704  34.257  31.294  1.00  0.00     0.031 C 
ATOM     57  C   UNL A   1      43.067  33.630  30.867  1.00  0.00     0.034 A 
BRANCH  44  58
ATOM     58  C   UNL A   1      46.655  29.193  28.406  1.00  0.00     0.023 A 
ATOM     59  C   UNL A   1      47.367  28.413  29.334  1.00  0.00     0.031 A 
ATOM     60  C   UNL A   1      47.299  29.532  27.202  1.00  0.00     0.131 A 
ATOM     61  C   UNL A   1      48.704  28.068  29.081  1.00  0.00     0.055 A 
ATOM     62  C   UNL A   1      48.602  29.118  26.922  1.00  0.00     0.041 A 
ATOM     63  F   UNL A   1      46.680  30.293  26.286  1.00  0.00    -0.206 F 
ATOM     64  C   UNL A   1      49.319  28.397  27.872  1.00  0.00     0.022 A 
BRANCH  61  65
ATOM     65  S   UNL A   1      49.677  27.329  30.423  1.00  0.00     0.124 S 
ATOM     66  O   UNL A   1      50.388  26.263  29.721  1.00  0.00    -0.237 OA
ATOM     67  O   UNL A   1      50.492  28.450  30.875  1.00  0.00    -0.237 OA
ATOM     68  O   UNL A   1      48.663  26.871  31.370  1.00  0.00    -0.744 OA
ENDBRANCH  61  65
ENDBRANCH  44  58
BRANCH  45  69
ATOM     69  C   UNL A   1      37.237  32.009  30.393  1.00  0.00     0.023 A 
ATOM     70  C   UNL A   1      36.383  32.667  29.495  1.00  0.00     0.031 A 
ATOM     71  C   UNL A   1      36.748  31.721  31.681  1.00  0.00     0.131 A 
ATOM     72  C   UNL A   1      35.094  33.040  29.906  1.00  0.00     0.055 A 
ATOM     73  C   UNL A   1      35.450  32.053  32.069  1.00  0.00     0.041 A 
ATOM     74  F   UNL A   1      37.526  31.092  32.577  1.00  0.00    -0.206 F 
ATOM     75  C   UNL A   1      34.617  32.725  31.180  1.00  0.00     0.022 A 
BRANCH  72  76
ATOM     76  S   UNL A   1      34.060  33.999  28.764  1.00  0.00     0.124 S 
ATOM     77  O   UNL A   1      33.127  34.646  29.679  1.00  0.00    -0.237 OA
ATOM     78  O   UNL A   1      35.042  34.870  28.125  1.00  0.00    -0.237 OA
ATOM     79  O   UNL A   1      33.478  32.979  27.895  1.00  0.00    -0.744 OA
ENDBRANCH  72  76
ENDBRANCH  45  69
BRANCH  57  80
ATOM     80  C   UNL A   1      43.469  34.936  31.505  1.00  0.00     0.023 A 
ATOM     81  C   UNL A   1      43.662  35.051  32.893  1.00  0.00     0.031 A 
ATOM     82  C   UNL A   1      43.644  36.085  30.714  1.00  0.00     0.131 A 
ATOM     83  C   UNL A   1      43.973  36.299  33.454  1.00  0.00     0.055 A 
ATOM     84  C   UNL A   1      44.005  37.313  31.271  1.00  0.00     0.041 A 
ATOM     85  F   UNL A   1      43.468  36.031  29.384  1.00  0.00    -0.206 F 
ATOM     86  C   UNL A   1      44.160  37.427  32.650  1.00  0.00     0.022 A 
BRANCH  83  87
ATOM     87  S   UNL A   1      44.053  36.449  35.260  1.00  0.00     0.124 S 
ATOM     88  O   UNL A   1      45.426  36.900  35.466  1.00  0.00    -0.237 OA
ATOM     89  O   UNL A   1      43.011  37.431  35.539  1.00  0.00    -0.237 OA
ATOM     90  O   UNL A   1      43.768  35.095  35.730  1.00  0.00    -0.744 OA
ENDBRANCH  83  87
ENDBRANCH  57  80
ENDBRANCH  31  32
ENDBRANCH  24  26
ENDBRANCH  23  24
ENDBRANCH  22  23
ENDBRANCH   1  22
TORSDOF 17
ENDMDL
MODEL 3
REMARK VINA RESULT:      -9.1      1.913      2.214
REMARK SMILES C/C=C/c1cncc(-c2ccc([C@@H](C)C(=O)OCCOC(=O)c3ccc(-c4c5nc(c(-c6cc(S(=O)(=O)[O-])ccc6F)c6ccc([nH]6)c(-c6cc(S(=O)(=O)[O-])ccc6F)c6nc(c(-c7cc(S(=O)(=O)[O-])ccc7F)c7ccc4[nH]7)C=C6)C=C5)cc3)cc2)c1
REMARK SMILES IDX 18 1 17 2 15 3 16 4 13 5 14 6 12 7 9 8 10 9 87 10 11 11
REMARK SMILES IDX 86 12 8 13 4 14 5 15 88 16 6 17 7 18 3 19 1 20 2 21 19 22
REMARK SMILES IDX 20 23 21 24 22 25 23 26 24 27 85 28 25 29 84 30 26 31 27 32
REMARK SMILES IDX 28 33 78 34 29 35 83 36 77 37 79 38 30 39 82 40 76 41 75 42
REMARK SMILES IDX 31 44 63 45 43 46 62 47 44 48 47 49 61 50 80 51 45 52 46 53
REMARK SMILES IDX 60 55 81 56 48 57 32 58 33 59 41 60 34 61 40 62 42 63 39 64
REMARK SMILES IDX 35 65 36 66 37 67 38 68 64 69 65 70 73 71 66 72 72 73 74 74
REMARK SMILES IDX 71 75 67 76 68 77 69 78 70 79 49 80 50 81 58 82 51 83 57 84
REMARK SMILES IDX 59 85 56 86 52 87 53 88 54 89 55 90
REMARK H PARENT 79 43 47 54
REMARK Flexibility Score: inf
ROOT
ATOM      1  C   UNL A   1      34.213  34.308  28.728  1.00  0.00     0.274 C 
ENDROOT
BRANCH   1   2
ATOM      2  O   UNL A   1      33.625  34.068  30.019  1.00  0.00    -0.462 OA
BRANCH   2   3
ATOM      3  C   UNL A   1      34.404  34.321  31.103  1.00  0.00     0.313 C 
ATOM      4  O   UNL A   1      34.366  35.365  31.747  1.00  0.00    -0.252 OA
BRANCH   3   5
ATOM      5  C   UNL A   1      35.388  33.205  31.429  1.00  0.00     0.126 C 
ATOM      6  C   UNL A   1      35.212  32.775  32.886  1.00  0.00     0.025 C 
BRANCH   5   7
ATOM      7  C   UNL A   1      36.844  33.472  31.074  1.00  0.00    -0.034 A 
ATOM      8  C   UNL A   1      39.570  33.894  30.388  1.00  0.00    -0.017 A 
ATOM      9  C   UNL A   1      39.086  34.207  31.667  1.00  0.00     0.009 A 
ATOM     10  C   UNL A   1      38.663  33.390  29.448  1.00  0.00     0.009 A 
ATOM     11  C   UNL A   1      37.746  33.996  32.008  1.00  0.00     0.005 A 
ATOM     12  C   UNL A   1      37.320  33.178  29.787  1.00  0.00     0.005 A 
BRANCH   8  13
ATOM     13  C   UNL A   1      40.995  34.053  30.070  1.00  0.00     0.001 A 
ATOM     14  C   UNL A   1      43.299  33.278  30.043  1.00  0.00    -0.007 A 
ATOM     15  C   UNL A   1      43.632  34.477  29.415  1.00  0.00     0.119 A 
ATOM     16  C   UNL A   1      41.956  33.080  30.384  1.00  0.00     0.020 A 
ATOM     17  N   UNL A   1      42.746  35.446  29.090  1.00  0.00    -0.263 NA
ATOM     18  C   UNL A   1      41.458  35.206  29.431  1.00  0.00     0.119 A 
BRANCH  14  19
ATOM     19  C   UNL A   1      44.355  32.308  30.347  1.00  0.00     0.005 C 
ATOM     20  C   UNL A   1      46.248  31.424  31.718  1.00  0.00     0.035 C 
ATOM     21  C   UNL A   1      45.202  32.437  31.380  1.00  0.00    -0.030 C 
ENDBRANCH  14  19
ENDBRANCH   8  13
ENDBRANCH   5   7
ENDBRANCH   3   5
ENDBRANCH   2   3
ENDBRANCH   1   2
BRANCH   1  22
ATOM     22  C   UNL A   1      33.960  33.131  27.785  1.00  0.00     0.275 C 
BRANCH  22  23
ATOM     23  O   UNL A   1      34.037  31.883  28.495  1.00  0.00    -0.458 OA
BRANCH  23  24
ATOM     24  C   UNL A   1      34.490  30.832  27.772  1.00  0.00     0.338 C 
ATOM     25  O   UNL A   1      34.000  30.359  26.763  1.00  0.00    -0.246 OA
BRANCH  24  26
ATOM     26  C   UNL A   1      35.757  30.369  28.351  1.00  0.00     0.060 A 
ATOM     27  C   UNL A   1      36.913  30.435  27.573  1.00  0.00     0.016 A 
ATOM     28  C   UNL A   1      35.789  29.812  29.629  1.00  0.00     0.016 A 
ATOM     29  C   UNL A   1      38.113  29.932  28.062  1.00  0.00     0.010 A 
ATOM     30  C   UNL A   1      37.000  29.324  30.128  1.00  0.00     0.010 A 
ATOM     31  C   UNL A   1      38.167  29.371  29.345  1.00  0.00    -0.014 A 
BRANCH  31  32
ATOM     32  C   UNL A   1      39.438  28.801  29.853  1.00  0.00     0.031 A 
ATOM     33  C   UNL A   1      40.113  29.426  31.040  1.00  0.00     0.074 A 
ATOM     34  C   UNL A   1      39.983  27.732  29.244  1.00  0.00     0.049 A 
ATOM     35  N   UNL A   1      41.281  29.162  31.565  1.00  0.00    -0.248 NA
ATOM     36  C   UNL A   1      39.370  30.496  31.720  1.00  0.00     0.031 C 
ATOM     37  C   UNL A   1      39.396  27.021  28.107  1.00  0.00     0.029 A 
ATOM     38  N   UNL A   1      41.158  27.067  29.485  1.00  0.00    -0.354 N 
ATOM     39  C   UNL A   1      41.426  30.045  32.629  1.00  0.00     0.074 A 
ATOM     40  C   UNL A   1      40.236  30.871  32.651  1.00  0.00     0.031 C 
ATOM     41  C   UNL A   1      40.221  26.029  27.740  1.00  0.00     0.029 A 
ATOM     42  C   UNL A   1      41.416  26.067  28.576  1.00  0.00     0.049 A 
ATOM     43  H   UNL A   1      41.757  27.284  30.234  1.00  0.00     0.167 HD
ATOM     44  C   UNL A   1      42.457  30.151  33.505  1.00  0.00     0.034 A 
ATOM     45  C   UNL A   1      42.512  25.301  28.409  1.00  0.00     0.034 A 
ATOM     46  C   UNL A   1      43.638  29.321  33.457  1.00  0.00     0.049 A 
ATOM     47  C   UNL A   1      43.678  25.486  29.343  1.00  0.00     0.074 A 
ATOM     48  C   UNL A   1      44.736  29.330  34.298  1.00  0.00     0.029 A 
ATOM     49  N   UNL A   1      43.879  28.339  32.503  1.00  0.00    -0.354 N 
ATOM     50  N   UNL A   1      43.812  26.331  30.339  1.00  0.00    -0.248 NA
ATOM     51  C   UNL A   1      44.841  24.615  29.131  1.00  0.00     0.031 C 
ATOM     52  C   UNL A   1      45.667  28.401  33.817  1.00  0.00     0.029 A 
ATOM     53  C   UNL A   1      45.122  27.761  32.715  1.00  0.00     0.049 A 
ATOM     54  H   UNL A   1      43.259  28.090  31.780  1.00  0.00     0.167 HD
ATOM     55  C   UNL A   1      45.070  26.085  30.880  1.00  0.00     0.074 A 
ATOM     56  C   UNL A   1      45.646  25.000  30.111  1.00  0.00     0.031 C 
ATOM     57  C   UNL A   1      45.692  26.697  31.921  1.00  0.00     0.034 A 
BRANCH  44  58
ATOM     58  C   UNL A   1      42.366  31.245  34.544  1.00  0.00     0.023 A 
ATOM     59  C   UNL A   1      42.839  32.545  34.295  1.00  0.00     0.031 A 
ATOM     60  C   UNL A   1      41.848  30.967  35.821  1.00  0.00     0.131 A 
ATOM     61  C   UNL A   1      42.862  33.493  35.330  1.00  0.00     0.055 A 
ATOM     62  C   UNL A   1      41.800  31.938  36.823  1.00  0.00     0.041 A 
ATOM     63  F   UNL A   1      41.402  29.738  36.127  1.00  0.00    -0.206 F 
ATOM     64  C   UNL A   1      42.325  33.204  36.586  1.00  0.00     0.022 A 
BRANCH  61  65
ATOM     65  S   UNL A   1      43.752  35.051  35.059  1.00  0.00     0.124 S 
ATOM     66  O   UNL A   1      44.143  34.930  33.657  1.00  0.00    -0.237 OA
ATOM     67  O   UNL A   1      42.732  36.051  35.355  1.00  0.00    -0.237 OA
ATOM     68  O   UNL A   1      44.857  34.984  36.013  1.00  0.00    -0.744 OA
ENDBRANCH  61  65
ENDBRANCH  44  58
BRANCH  45  69
ATOM     69  C   UNL A   1      42.582  24.343  27.270  1.00  0.00     0.023 A 
ATOM     70  C   UNL A   1      42.014  23.064  27.353  1.00  0.00     0.031 A 
ATOM     71  C   UNL A   1      43.244  24.698  26.080  1.00  0.00     0.131 A 
ATOM     72  C   UNL A   1      42.140  22.173  26.274  1.00  0.00     0.055 A 
ATOM     73  C   UNL A   1      43.327  23.826  24.993  1.00  0.00     0.041 A 
ATOM     74  F   UNL A   1      43.804  25.911  25.950  1.00  0.00    -0.206 F 
ATOM     75  C   UNL A   1      42.780  22.552  25.091  1.00  0.00     0.022 A 
BRANCH  72  76
ATOM     76  S   UNL A   1      41.503  20.485  26.460  1.00  0.00     0.124 S 
ATOM     77  O   UNL A   1      41.955  20.143  27.803  1.00  0.00    -0.237 OA
ATOM     78  O   UNL A   1      40.066  20.684  26.297  1.00  0.00    -0.237 OA
ATOM     79  O   UNL A   1      42.155  19.755  25.376  1.00  0.00    -0.744 OA
ENDBRANCH  72  76
ENDBRANCH  45  69
BRANCH  57  80
ATOM     80  C   UNL A   1      47.058  26.178  32.294  1.00  0.00     0.023 A 
ATOM     81  C   UNL A   1      47.230  25.203  33.293  1.00  0.00     0.031 A 
ATOM     82  C   UNL A   1      48.204  26.680  31.653  1.00  0.00     0.131 A 
ATOM     83  C   UNL A   1      48.522  24.795  33.655  1.00  0.00     0.055 A 
ATOM     84  C   UNL A   1      49.485  26.231  31.981  1.00  0.00     0.041 A 
ATOM     85  F   UNL A   1      48.097  27.614  30.695  1.00  0.00    -0.206 F 
ATOM     86  C   UNL A   1      49.649  25.292  32.995  1.00  0.00     0.022 A 
BRANCH  83  87
ATOM     87  S   UNL A   1      48.719  23.661  35.057  1.00  0.00     0.124 S 
ATOM     88  O   UNL A   1      48.852  22.371  34.387  1.00  0.00    -0.237 OA
ATOM     89  O   UNL A   1      49.922  24.171  35.706  1.00  0.00    -0.237 OA
ATOM     90  O   UNL A   1      47.483  23.839  35.819  1.00  0.00    -0.744 OA
ENDBRANCH  83  87
ENDBRANCH  57  80
ENDBRANCH  31  32
ENDBRANCH  24  26
ENDBRANCH  23  24
ENDBRANCH  22  23
ENDBRANCH   1  22
TORSDOF 17
ENDMDL
