MODEL 1
REMARK VINA RESULT:     -11.4      0.000      0.000
REMARK SMILES O=C(Cc1c[nH]c(=O)n(Cc2ccccc2)c1=O)OCCOC(=O)c1ccc(-c2c3nc(c(-c4cc(S(=O)(=O)[O-])ccc4F)c4ccc([nH]4)c(-c4cc(S(=O)(=O)[O-])ccc4F)c4nc(c(-c5cc(S(=O)(=O)[O-])ccc5F)c5ccc2[nH]5)C=C4)C=C3)cc1
REMARK SMILES IDX 20 1 19 2 2 3 1 4 3 5 4 6 5 7 17 8 6 9 9 10 18 11 7 12 8 14
REMARK SMILES IDX 10 15 11 16 12 17 16 18 13 19 15 20 14 21 21 22 22 23 23 24
REMARK SMILES IDX 24 25 25 26 26 27 87 28 27 29 86 30 28 31 29 32 30 33 80 34
REMARK SMILES IDX 31 35 85 36 79 37 81 38 32 39 84 40 78 41 77 42 33 44 65 45
REMARK SMILES IDX 45 46 64 47 46 48 49 49 63 50 82 51 47 52 48 53 62 55 83 56
REMARK SMILES IDX 50 57 34 58 35 59 43 60 36 61 42 62 44 63 41 64 37 65 38 66
REMARK SMILES IDX 39 67 40 68 66 69 67 70 75 71 68 72 74 73 76 74 73 75 69 76
REMARK SMILES IDX 70 77 71 78 72 79 51 80 52 81 60 82 53 83 59 84 61 85 58 86
REMARK SMILES IDX 54 87 55 88 56 89 57 90
REMARK H PARENT 6 13 81 43 49 54
REMARK Flexibility Score: inf
ROOT
ATOM      1  C   UNL A   1      35.321  21.330  25.636  1.00  0.00     0.274 C 
ENDROOT
BRANCH   1   2
ATOM      2  O   UNL A   1      34.288  20.531  25.014  1.00  0.00    -0.462 OA
BRANCH   2   3
ATOM      3  C   UNL A   1      32.973  20.526  25.336  1.00  0.00     0.310 C 
ATOM      4  O   UNL A   1      32.268  19.567  25.023  1.00  0.00    -0.252 OA
BRANCH   3   5
ATOM      5  C   UNL A   1      32.410  21.667  26.154  1.00  0.00     0.165 C 
BRANCH   5   6
ATOM      6  C   UNL A   1      31.867  22.780  25.314  1.00  0.00     0.045 A 
ATOM      7  C   UNL A   1      31.773  22.766  23.982  1.00  0.00     0.097 A 
ATOM      8  C   UNL A   1      31.336  23.968  26.046  1.00  0.00     0.260 A 
ATOM      9  N   UNL A   1      31.134  23.761  23.314  1.00  0.00    -0.314 N 
ATOM     10  N   UNL A   1      30.780  24.970  25.273  1.00  0.00    -0.256 N 
ATOM     11  O   UNL A   1      31.378  23.991  27.274  1.00  0.00    -0.269 OA
ATOM     12  C   UNL A   1      30.575  24.858  23.911  1.00  0.00     0.328 A 
ATOM     13  H   UNL A   1      31.070  23.689  22.334  1.00  0.00     0.171 HD
ATOM     14  O   UNL A   1      29.938  25.655  23.225  1.00  0.00    -0.248 OA
BRANCH  10  15
ATOM     15  C   UNL A   1      30.440  26.230  25.917  1.00  0.00     0.166 C 
BRANCH  15  16
ATOM     16  C   UNL A   1      31.686  27.073  26.088  1.00  0.00    -0.028 A 
ATOM     17  C   UNL A   1      31.887  27.823  27.260  1.00  0.00     0.005 A 
ATOM     18  C   UNL A   1      32.613  27.184  25.049  1.00  0.00     0.005 A 
ATOM     19  C   UNL A   1      32.963  28.700  27.370  1.00  0.00     0.000 A 
ATOM     20  C   UNL A   1      33.704  28.041  25.177  1.00  0.00     0.000 A 
ATOM     21  C   UNL A   1      33.869  28.815  26.323  1.00  0.00     0.000 A 
ENDBRANCH  15  16
ENDBRANCH  10  15
ENDBRANCH   5   6
ENDBRANCH   3   5
ENDBRANCH   2   3
ENDBRANCH   1   2
BRANCH   1  22
ATOM     22  C   UNL A   1      36.710  20.777  25.322  1.00  0.00     0.275 C 
BRANCH  22  23
ATOM     23  O   UNL A   1      37.683  21.826  25.448  1.00  0.00    -0.458 OA
BRANCH  23  24
ATOM     24  C   UNL A   1      38.852  21.497  26.053  1.00  0.00     0.338 C 
ATOM     25  O   UNL A   1      39.385  20.401  26.043  1.00  0.00    -0.246 OA
BRANCH  24  26
ATOM     26  C   UNL A   1      39.508  22.748  26.506  1.00  0.00     0.060 A 
ATOM     27  C   UNL A   1      40.562  22.733  27.427  1.00  0.00     0.016 A 
ATOM     28  C   UNL A   1      38.969  23.969  26.078  1.00  0.00     0.016 A 
ATOM     29  C   UNL A   1      41.064  23.935  27.929  1.00  0.00     0.010 A 
ATOM     30  C   UNL A   1      39.469  25.171  26.585  1.00  0.00     0.010 A 
ATOM     31  C   UNL A   1      40.521  25.162  27.514  1.00  0.00    -0.014 A 
BRANCH  31  32
ATOM     32  C   UNL A   1      41.171  26.430  27.923  1.00  0.00     0.031 A 
ATOM     33  C   UNL A   1      42.625  26.701  27.675  1.00  0.00     0.074 A 
ATOM     34  C   UNL A   1      40.407  27.350  28.543  1.00  0.00     0.049 A 
ATOM     35  N   UNL A   1      43.304  27.785  27.950  1.00  0.00    -0.248 NA
ATOM     36  C   UNL A   1      43.422  25.636  27.047  1.00  0.00     0.031 C 
ATOM     37  C   UNL A   1      38.990  27.176  28.859  1.00  0.00     0.029 A 
ATOM     38  N   UNL A   1      40.710  28.598  29.028  1.00  0.00    -0.354 N 
ATOM     39  C   UNL A   1      44.600  27.550  27.508  1.00  0.00     0.074 A 
ATOM     40  C   UNL A   1      44.627  26.199  26.990  1.00  0.00     0.031 C 
ATOM     41  C   UNL A   1      38.549  28.269  29.499  1.00  0.00     0.029 A 
ATOM     42  C   UNL A   1      39.654  29.212  29.658  1.00  0.00     0.049 A 
ATOM     43  H   UNL A   1      41.599  29.012  28.935  1.00  0.00     0.167 HD
ATOM     44  C   UNL A   1      45.652  28.401  27.516  1.00  0.00     0.034 A 
ATOM     45  C   UNL A   1      39.577  30.396  30.300  1.00  0.00     0.034 A 
ATOM     46  C   UNL A   1      45.614  29.742  28.039  1.00  0.00     0.049 A 
ATOM     47  C   UNL A   1      40.775  31.308  30.307  1.00  0.00     0.074 A 
ATOM     48  C   UNL A   1      46.644  30.668  28.055  1.00  0.00     0.029 A 
ATOM     49  N   UNL A   1      44.520  30.348  28.628  1.00  0.00    -0.354 N 
ATOM     50  N   UNL A   1      41.956  31.115  29.771  1.00  0.00    -0.248 NA
ATOM     51  C   UNL A   1      40.631  32.607  30.980  1.00  0.00     0.031 C 
ATOM     52  C   UNL A   1      46.183  31.823  28.681  1.00  0.00     0.029 A 
ATOM     53  C   UNL A   1      44.854  31.632  29.024  1.00  0.00     0.049 A 
ATOM     54  H   UNL A   1      43.636  29.930  28.746  1.00  0.00     0.167 HD
ATOM     55  C   UNL A   1      42.684  32.273  30.021  1.00  0.00     0.074 A 
ATOM     56  C   UNL A   1      41.807  33.174  30.734  1.00  0.00     0.031 C 
ATOM     57  C   UNL A   1      43.971  32.551  29.695  1.00  0.00     0.034 A 
BRANCH  44  58
ATOM     58  C   UNL A   1      46.951  27.996  26.880  1.00  0.00     0.023 A 
ATOM     59  C   UNL A   1      47.143  28.116  25.493  1.00  0.00     0.031 A 
ATOM     60  C   UNL A   1      47.860  27.222  27.621  1.00  0.00     0.131 A 
ATOM     61  C   UNL A   1      48.217  27.450  24.888  1.00  0.00     0.055 A 
ATOM     62  C   UNL A   1      48.944  26.586  27.018  1.00  0.00     0.041 A 
ATOM     63  F   UNL A   1      47.678  27.041  28.939  1.00  0.00    -0.206 F 
ATOM     64  C   UNL A   1      49.120  26.691  25.642  1.00  0.00     0.022 A 
BRANCH  61  65
ATOM     65  S   UNL A   1      48.407  27.428  23.083  1.00  0.00     0.124 S 
ATOM     66  O   UNL A   1      47.244  28.201  22.655  1.00  0.00    -0.237 OA
ATOM     67  O   UNL A   1      49.697  28.086  22.895  1.00  0.00    -0.237 OA
ATOM     68  O   UNL A   1      48.372  26.009  22.745  1.00  0.00    -0.744 OA
ENDBRANCH  61  65
ENDBRANCH  44  58
BRANCH  45  69
ATOM     69  C   UNL A   1      38.289  30.778  30.942  1.00  0.00     0.023 A 
ATOM     70  C   UNL A   1      37.294  31.446  30.203  1.00  0.00     0.031 A 
ATOM     71  C   UNL A   1      38.078  30.589  32.317  1.00  0.00     0.131 A 
ATOM     72  C   UNL A   1      36.164  31.954  30.856  1.00  0.00     0.055 A 
ATOM     73  C   UNL A   1      36.919  31.036  32.951  1.00  0.00     0.041 A 
ATOM     74  F   UNL A   1      39.008  29.973  33.065  1.00  0.00    -0.206 F 
ATOM     75  C   UNL A   1      35.962  31.739  32.222  1.00  0.00     0.022 A 
BRANCH  72  76
ATOM     76  S   UNL A   1      34.995  33.032  29.982  1.00  0.00     0.124 S 
ATOM     77  O   UNL A   1      34.370  32.104  29.045  1.00  0.00    -0.237 OA
ATOM     78  O   UNL A   1      34.142  33.496  31.075  1.00  0.00    -0.237 OA
ATOM     79  O   UNL A   1      35.848  34.055  29.387  1.00  0.00    -0.744 OA
ENDBRANCH  72  76
ENDBRANCH  45  69
BRANCH  57  80
ATOM     80  C   UNL A   1      44.559  33.885  30.083  1.00  0.00     0.023 A 
ATOM     81  C   UNL A   1      44.531  34.959  29.173  1.00  0.00     0.031 A 
ATOM     82  C   UNL A   1      45.323  34.022  31.254  1.00  0.00     0.131 A 
ATOM     83  C   UNL A   1      45.298  36.103  29.423  1.00  0.00     0.055 A 
ATOM     84  C   UNL A   1      46.048  35.183  31.521  1.00  0.00     0.041 A 
ATOM     85  F   UNL A   1      45.393  33.017  32.142  1.00  0.00    -0.206 F 
ATOM     86  C   UNL A   1      46.052  36.222  30.596  1.00  0.00     0.022 A 
BRANCH  83  87
ATOM     87  S   UNL A   1      45.429  37.432  28.195  1.00  0.00     0.124 S 
ATOM     88  O   UNL A   1      46.747  37.180  27.616  1.00  0.00    -0.237 OA
ATOM     89  O   UNL A   1      44.298  37.151  27.315  1.00  0.00    -0.237 OA
ATOM     90  O   UNL A   1      45.321  38.654  28.985  1.00  0.00    -0.744 OA
ENDBRANCH  83  87
ENDBRANCH  57  80
ENDBRANCH  31  32
ENDBRANCH  24  26
ENDBRANCH  23  24
ENDBRANCH  22  23
ENDBRANCH   1  22
TORSDOF 17
ENDMDL
MODEL 2
REMARK VINA RESULT:     -11.3      2.197      8.295
REMARK SMILES O=C(Cc1c[nH]c(=O)n(Cc2ccccc2)c1=O)OCCOC(=O)c1ccc(-c2c3nc(c(-c4cc(S(=O)(=O)[O-])ccc4F)c4ccc([nH]4)c(-c4cc(S(=O)(=O)[O-])ccc4F)c4nc(c(-c5cc(S(=O)(=O)[O-])ccc5F)c5ccc2[nH]5)C=C4)C=C3)cc1
REMARK SMILES IDX 20 1 19 2 2 3 1 4 3 5 4 6 5 7 17 8 6 9 9 10 18 11 7 12 8 14
REMARK SMILES IDX 10 15 11 16 12 17 16 18 13 19 15 20 14 21 21 22 22 23 23 24
REMARK SMILES IDX 24 25 25 26 26 27 87 28 27 29 86 30 28 31 29 32 30 33 80 34
REMARK SMILES IDX 31 35 85 36 79 37 81 38 32 39 84 40 78 41 77 42 33 44 65 45
REMARK SMILES IDX 45 46 64 47 46 48 49 49 63 50 82 51 47 52 48 53 62 55 83 56
REMARK SMILES IDX 50 57 34 58 35 59 43 60 36 61 42 62 44 63 41 64 37 65 38 66
REMARK SMILES IDX 39 67 40 68 66 69 67 70 75 71 68 72 74 73 76 74 73 75 69 76
REMARK SMILES IDX 70 77 71 78 72 79 51 80 52 81 60 82 53 83 59 84 61 85 58 86
REMARK SMILES IDX 54 87 55 88 56 89 57 90
REMARK H PARENT 6 13 81 43 49 54
REMARK Flexibility Score: inf
ROOT
ATOM      1  C   UNL A   1      37.580  20.555  25.328  1.00  0.00     0.274 C 
ENDROOT
BRANCH   1   2
ATOM      2  O   UNL A   1      37.682  21.934  24.902  1.00  0.00    -0.462 OA
BRANCH   2   3
ATOM      3  C   UNL A   1      37.535  23.029  25.684  1.00  0.00     0.310 C 
ATOM      4  O   UNL A   1      38.512  23.723  25.960  1.00  0.00    -0.252 OA
BRANCH   3   5
ATOM      5  C   UNL A   1      36.148  23.431  26.137  1.00  0.00     0.165 C 
BRANCH   5   6
ATOM      6  C   UNL A   1      35.100  23.204  25.093  1.00  0.00     0.045 A 
ATOM      7  C   UNL A   1      34.997  23.879  23.944  1.00  0.00     0.097 A 
ATOM      8  C   UNL A   1      34.141  22.088  25.343  1.00  0.00     0.260 A 
ATOM      9  N   UNL A   1      34.103  23.508  22.992  1.00  0.00    -0.314 N 
ATOM     10  N   UNL A   1      33.211  21.840  24.350  1.00  0.00    -0.256 N 
ATOM     11  O   UNL A   1      34.237  21.428  26.376  1.00  0.00    -0.269 OA
ATOM     12  C   UNL A   1      33.224  22.467  23.120  1.00  0.00     0.328 A 
ATOM     13  H   UNL A   1      34.086  24.023  22.152  1.00  0.00     0.171 HD
ATOM     14  O   UNL A   1      32.520  22.155  22.161  1.00  0.00    -0.248 OA
BRANCH  10  15
ATOM     15  C   UNL A   1      32.131  20.908  24.635  1.00  0.00     0.166 C 
BRANCH  15  16
ATOM     16  C   UNL A   1      32.580  19.492  24.338  1.00  0.00    -0.028 A 
ATOM     17  C   UNL A   1      32.575  19.002  23.021  1.00  0.00     0.005 A 
ATOM     18  C   UNL A   1      32.926  18.627  25.379  1.00  0.00     0.005 A 
ATOM     19  C   UNL A   1      32.860  17.664  22.756  1.00  0.00     0.000 A 
ATOM     20  C   UNL A   1      33.240  17.298  25.105  1.00  0.00     0.000 A 
ATOM     21  C   UNL A   1      33.187  16.810  23.801  1.00  0.00     0.000 A 
ENDBRANCH  15  16
ENDBRANCH  10  15
ENDBRANCH   5   6
ENDBRANCH   3   5
ENDBRANCH   2   3
ENDBRANCH   1   2
BRANCH   1  22
ATOM     22  C   UNL A   1      38.873  19.793  25.040  1.00  0.00     0.275 C 
BRANCH  22  23
ATOM     23  O   UNL A   1      39.550  19.515  26.276  1.00  0.00    -0.458 OA
BRANCH  23  24
ATOM     24  C   UNL A   1      40.903  19.625  26.261  1.00  0.00     0.338 C 
ATOM     25  O   UNL A   1      41.690  18.789  25.854  1.00  0.00    -0.246 OA
BRANCH  24  26
ATOM     26  C   UNL A   1      41.256  21.032  26.577  1.00  0.00     0.060 A 
ATOM     27  C   UNL A   1      41.036  21.575  27.848  1.00  0.00     0.016 A 
ATOM     28  C   UNL A   1      41.710  21.850  25.534  1.00  0.00     0.016 A 
ATOM     29  C   UNL A   1      41.258  22.936  28.070  1.00  0.00     0.010 A 
ATOM     30  C   UNL A   1      41.925  23.212  25.756  1.00  0.00     0.010 A 
ATOM     31  C   UNL A   1      41.701  23.764  27.026  1.00  0.00    -0.014 A 
BRANCH  31  32
ATOM     32  C   UNL A   1      42.093  25.165  27.315  1.00  0.00     0.031 A 
ATOM     33  C   UNL A   1      41.183  26.121  28.026  1.00  0.00     0.074 A 
ATOM     34  C   UNL A   1      43.311  25.568  26.905  1.00  0.00     0.049 A 
ATOM     35  N   UNL A   1      41.421  27.360  28.371  1.00  0.00    -0.248 NA
ATOM     36  C   UNL A   1      39.841  25.643  28.396  1.00  0.00     0.031 C 
ATOM     37  C   UNL A   1      44.263  24.728  26.180  1.00  0.00     0.029 A 
ATOM     38  N   UNL A   1      43.950  26.776  27.025  1.00  0.00    -0.354 N 
ATOM     39  C   UNL A   1      40.278  27.806  29.022  1.00  0.00     0.074 A 
ATOM     40  C   UNL A   1      39.323  26.719  28.982  1.00  0.00     0.031 C 
ATOM     41  C   UNL A   1      45.359  25.449  25.904  1.00  0.00     0.029 A 
ATOM     42  C   UNL A   1      45.182  26.807  26.414  1.00  0.00     0.049 A 
ATOM     43  H   UNL A   1      43.564  27.547  27.501  1.00  0.00     0.167 HD
ATOM     44  C   UNL A   1      40.069  29.003  29.617  1.00  0.00     0.034 A 
ATOM     45  C   UNL A   1      46.069  27.813  26.268  1.00  0.00     0.034 A 
ATOM     46  C   UNL A   1      41.025  30.079  29.646  1.00  0.00     0.049 A 
ATOM     47  C   UNL A   1      45.793  29.138  26.926  1.00  0.00     0.074 A 
ATOM     48  C   UNL A   1      40.884  31.315  30.256  1.00  0.00     0.029 A 
ATOM     49  N   UNL A   1      42.277  30.062  29.059  1.00  0.00    -0.354 N 
ATOM     50  N   UNL A   1      44.757  29.497  27.645  1.00  0.00    -0.248 NA
ATOM     51  C   UNL A   1      46.809  30.191  26.778  1.00  0.00     0.031 C 
ATOM     52  C   UNL A   1      42.035  32.057  30.011  1.00  0.00     0.029 A 
ATOM     53  C   UNL A   1      42.912  31.272  29.279  1.00  0.00     0.049 A 
ATOM     54  H   UNL A   1      42.659  29.304  28.560  1.00  0.00     0.167 HD
ATOM     55  C   UNL A   1      45.007  30.803  28.054  1.00  0.00     0.074 A 
ATOM     56  C   UNL A   1      46.303  31.166  27.525  1.00  0.00     0.031 C 
ATOM     57  C   UNL A   1      44.222  31.625  28.793  1.00  0.00     0.034 A 
BRANCH  44  58
ATOM     58  C   UNL A   1      38.798  29.253  30.377  1.00  0.00     0.023 A 
ATOM     59  C   UNL A   1      37.850  30.180  29.911  1.00  0.00     0.031 A 
ATOM     60  C   UNL A   1      38.691  28.788  31.699  1.00  0.00     0.131 A 
ATOM     61  C   UNL A   1      36.843  30.628  30.777  1.00  0.00     0.055 A 
ATOM     62  C   UNL A   1      37.669  29.214  32.546  1.00  0.00     0.041 A 
ATOM     63  F   UNL A   1      39.609  27.943  32.195  1.00  0.00    -0.206 F 
ATOM     64  C   UNL A   1      36.745  30.146  32.088  1.00  0.00     0.022 A 
BRANCH  61  65
ATOM     65  S   UNL A   1      35.704  31.952  30.283  1.00  0.00     0.124 S 
ATOM     66  O   UNL A   1      35.184  31.438  29.019  1.00  0.00    -0.237 OA
ATOM     67  O   UNL A   1      34.750  31.972  31.388  1.00  0.00    -0.237 OA
ATOM     68  O   UNL A   1      36.561  33.127  30.173  1.00  0.00    -0.744 OA
ENDBRANCH  61  65
ENDBRANCH  44  58
BRANCH  45  69
ATOM     69  C   UNL A   1      47.318  27.558  25.497  1.00  0.00     0.023 A 
ATOM     70  C   UNL A   1      47.397  27.902  24.134  1.00  0.00     0.031 A 
ATOM     71  C   UNL A   1      48.398  26.870  26.071  1.00  0.00     0.131 A 
ATOM     72  C   UNL A   1      48.505  27.503  23.378  1.00  0.00     0.055 A 
ATOM     73  C   UNL A   1      49.531  26.534  25.330  1.00  0.00     0.041 A 
ATOM     74  F   UNL A   1      48.359  26.506  27.363  1.00  0.00    -0.206 F 
ATOM     75  C   UNL A   1      49.581  26.835  23.972  1.00  0.00     0.022 A 
BRANCH  72  76
ATOM     76  S   UNL A   1      48.521  27.708  21.576  1.00  0.00     0.124 S 
ATOM     77  O   UNL A   1      48.796  26.349  21.119  1.00  0.00    -0.237 OA
ATOM     78  O   UNL A   1      47.168  28.198  21.319  1.00  0.00    -0.237 OA
ATOM     79  O   UNL A   1      49.583  28.680  21.348  1.00  0.00    -0.744 OA
ENDBRANCH  72  76
ENDBRANCH  45  69
BRANCH  57  80
ATOM     80  C   UNL A   1      44.702  33.020  29.107  1.00  0.00     0.023 A 
ATOM     81  C   UNL A   1      44.225  34.114  28.358  1.00  0.00     0.031 A 
ATOM     82  C   UNL A   1      45.773  33.231  29.990  1.00  0.00     0.131 A 
ATOM     83  C   UNL A   1      44.856  35.358  28.468  1.00  0.00     0.055 A 
ATOM     84  C   UNL A   1      46.368  34.485  30.130  1.00  0.00     0.041 A 
ATOM     85  F   UNL A   1      46.272  32.214  30.712  1.00  0.00    -0.206 F 
ATOM     86  C   UNL A   1      45.921  35.551  29.354  1.00  0.00     0.022 A 
BRANCH  83  87
ATOM     87  S   UNL A   1      44.389  36.744  27.393  1.00  0.00     0.124 S 
ATOM     88  O   UNL A   1      45.692  37.240  26.956  1.00  0.00    -0.237 OA
ATOM     89  O   UNL A   1      43.596  36.081  26.362  1.00  0.00    -0.237 OA
ATOM     90  O   UNL A   1      43.648  37.640  28.275  1.00  0.00    -0.744 OA
ENDBRANCH  83  87
ENDBRANCH  57  80
ENDBRANCH  31  32
ENDBRANCH  24  26
ENDBRANCH  23  24
ENDBRANCH  22  23
ENDBRANCH   1  22
TORSDOF 17
ENDMDL
MODEL 3
REMARK VINA RESULT:     -11.2      4.954     10.090
REMARK SMILES O=C(Cc1c[nH]c(=O)n(Cc2ccccc2)c1=O)OCCOC(=O)c1ccc(-c2c3nc(c(-c4cc(S(=O)(=O)[O-])ccc4F)c4ccc([nH]4)c(-c4cc(S(=O)(=O)[O-])ccc4F)c4nc(c(-c5cc(S(=O)(=O)[O-])ccc5F)c5ccc2[nH]5)C=C4)C=C3)cc1
REMARK SMILES IDX 20 1 19 2 2 3 1 4 3 5 4 6 5 7 17 8 6 9 9 10 18 11 7 12 8 14
REMARK SMILES IDX 10 15 11 16 12 17 16 18 13 19 15 20 14 21 21 22 22 23 23 24
REMARK SMILES IDX 24 25 25 26 26 27 87 28 27 29 86 30 28 31 29 32 30 33 80 34
REMARK SMILES IDX 31 35 85 36 79 37 81 38 32 39 84 40 78 41 77 42 33 44 65 45
REMARK SMILES IDX 45 46 64 47 46 48 49 49 63 50 82 51 47 52 48 53 62 55 83 56
REMARK SMILES IDX 50 57 34 58 35 59 43 60 36 61 42 62 44 63 41 64 37 65 38 66
REMARK SMILES IDX 39 67 40 68 66 69 67 70 75 71 68 72 74 73 76 74 73 75 69 76
REMARK SMILES IDX 70 77 71 78 72 79 51 80 52 81 60 82 53 83 59 84 61 85 58 86
REMARK SMILES IDX 54 87 55 88 56 89 57 90
REMARK H PARENT 6 13 81 43 49 54
REMARK Flexibility Score: inf
ROOT
ATOM      1  C   UNL A   1      31.466  30.613  25.739  1.00  0.00     0.274 C 
ENDROOT
BRANCH   1   2
ATOM      2  O   UNL A   1      32.708  29.945  25.413  1.00  0.00    -0.462 OA
BRANCH   2   3
ATOM      3  C   UNL A   1      33.123  28.746  25.885  1.00  0.00     0.310 C 
ATOM      4  O   UNL A   1      34.161  28.670  26.541  1.00  0.00    -0.252 OA
BRANCH   3   5
ATOM      5  C   UNL A   1      32.252  27.528  25.670  1.00  0.00     0.165 C 
BRANCH   5   6
ATOM      6  C   UNL A   1      32.390  26.941  24.301  1.00  0.00     0.045 A 
ATOM      7  C   UNL A   1      31.702  27.329  23.223  1.00  0.00     0.097 A 
ATOM      8  C   UNL A   1      33.428  25.881  24.131  1.00  0.00     0.260 A 
ATOM      9  N   UNL A   1      31.996  26.838  21.991  1.00  0.00    -0.314 N 
ATOM     10  N   UNL A   1      33.597  25.382  22.853  1.00  0.00    -0.256 N 
ATOM     11  O   UNL A   1      34.099  25.532  25.101  1.00  0.00    -0.269 OA
ATOM     12  C   UNL A   1      32.965  25.906  21.741  1.00  0.00     0.328 A 
ATOM     13  H   UNL A   1      31.477  27.178  21.226  1.00  0.00     0.171 HD
ATOM     14  O   UNL A   1      33.216  25.597  20.578  1.00  0.00    -0.248 OA
BRANCH  10  15
ATOM     15  C   UNL A   1      34.442  24.212  22.677  1.00  0.00     0.166 C 
BRANCH  15  16
ATOM     16  C   UNL A   1      33.681  22.963  23.069  1.00  0.00    -0.028 A 
ATOM     17  C   UNL A   1      34.083  22.200  24.180  1.00  0.00     0.005 A 
ATOM     18  C   UNL A   1      32.621  22.505  22.284  1.00  0.00     0.005 A 
ATOM     19  C   UNL A   1      33.470  20.983  24.469  1.00  0.00     0.000 A 
ATOM     20  C   UNL A   1      31.993  21.302  22.596  1.00  0.00     0.000 A 
ATOM     21  C   UNL A   1      32.428  20.530  23.671  1.00  0.00     0.000 A 
ENDBRANCH  15  16
ENDBRANCH  10  15
ENDBRANCH   5   6
ENDBRANCH   3   5
ENDBRANCH   2   3
ENDBRANCH   1   2
BRANCH   1  22
ATOM     22  C   UNL A   1      31.707  31.804  26.665  1.00  0.00     0.275 C 
BRANCH  22  23
ATOM     23  O   UNL A   1      32.872  31.557  27.469  1.00  0.00    -0.458 OA
BRANCH  23  24
ATOM     24  C   UNL A   1      33.707  32.609  27.662  1.00  0.00     0.338 C 
ATOM     25  O   UNL A   1      33.424  33.787  27.537  1.00  0.00    -0.246 OA
BRANCH  24  26
ATOM     26  C   UNL A   1      34.948  32.104  28.301  1.00  0.00     0.060 A 
ATOM     27  C   UNL A   1      36.154  32.810  28.221  1.00  0.00     0.016 A 
ATOM     28  C   UNL A   1      34.916  30.834  28.892  1.00  0.00     0.016 A 
ATOM     29  C   UNL A   1      37.327  32.239  28.720  1.00  0.00     0.010 A 
ATOM     30  C   UNL A   1      36.091  30.263  29.386  1.00  0.00     0.010 A 
ATOM     31  C   UNL A   1      37.305  30.962  29.304  1.00  0.00    -0.014 A 
BRANCH  31  32
ATOM     32  C   UNL A   1      38.518  30.441  29.979  1.00  0.00     0.031 A 
ATOM     33  C   UNL A   1      38.952  30.924  31.331  1.00  0.00     0.074 A 
ATOM     34  C   UNL A   1      39.241  29.508  29.329  1.00  0.00     0.049 A 
ATOM     35  N   UNL A   1      39.972  30.521  32.044  1.00  0.00    -0.248 NA
ATOM     36  C   UNL A   1      38.158  31.987  31.966  1.00  0.00     0.031 C 
ATOM     37  C   UNL A   1      38.923  28.990  27.999  1.00  0.00     0.029 A 
ATOM     38  N   UNL A   1      40.387  28.843  29.685  1.00  0.00    -0.354 N 
ATOM     39  C   UNL A   1      39.933  31.256  33.222  1.00  0.00     0.074 A 
ATOM     40  C   UNL A   1      38.814  32.167  33.109  1.00  0.00     0.031 C 
ATOM     41  C   UNL A   1      39.860  28.100  27.643  1.00  0.00     0.029 A 
ATOM     42  C   UNL A   1      40.855  27.997  28.708  1.00  0.00     0.049 A 
ATOM     43  H   UNL A   1      40.831  28.961  30.556  1.00  0.00     0.167 HD
ATOM     44  C   UNL A   1      40.744  31.149  34.300  1.00  0.00     0.034 A 
ATOM     45  C   UNL A   1      41.964  27.229  28.662  1.00  0.00     0.034 A 
ATOM     46  C   UNL A   1      41.857  30.241  34.399  1.00  0.00     0.049 A 
ATOM     47  C   UNL A   1      42.855  27.153  29.873  1.00  0.00     0.074 A 
ATOM     48  C   UNL A   1      42.707  30.067  35.478  1.00  0.00     0.029 A 
ATOM     49  N   UNL A   1      42.276  29.369  33.412  1.00  0.00    -0.354 N 
ATOM     50  N   UNL A   1      42.726  27.763  31.026  1.00  0.00    -0.248 NA
ATOM     51  C   UNL A   1      44.027  26.269  29.795  1.00  0.00     0.031 C 
ATOM     52  C   UNL A   1      43.660  29.112  35.133  1.00  0.00     0.029 A 
ATOM     53  C   UNL A   1      43.383  28.664  33.852  1.00  0.00     0.049 A 
ATOM     54  H   UNL A   1      41.851  29.264  32.529  1.00  0.00     0.167 HD
ATOM     55  C   UNL A   1      43.783  27.321  31.815  1.00  0.00     0.074 A 
ATOM     56  C   UNL A   1      44.529  26.371  31.020  1.00  0.00     0.031 C 
ATOM     57  C   UNL A   1      44.105  27.683  33.081  1.00  0.00     0.034 A 
BRANCH  44  58
ATOM     58  C   UNL A   1      40.463  31.958  35.535  1.00  0.00     0.023 A 
ATOM     59  C   UNL A   1      39.408  31.614  36.396  1.00  0.00     0.031 A 
ATOM     60  C   UNL A   1      41.058  33.223  35.670  1.00  0.00     0.131 A 
ATOM     61  C   UNL A   1      38.967  32.544  37.348  1.00  0.00     0.055 A 
ATOM     62  C   UNL A   1      40.636  34.132  36.639  1.00  0.00     0.041 A 
ATOM     63  F   UNL A   1      42.034  33.606  34.830  1.00  0.00    -0.206 F 
ATOM     64  C   UNL A   1      39.579  33.798  37.477  1.00  0.00     0.022 A 
BRANCH  61  65
ATOM     65  S   UNL A   1      37.498  32.220  38.363  1.00  0.00     0.124 S 
ATOM     66  O   UNL A   1      37.974  32.584  39.695  1.00  0.00    -0.237 OA
ATOM     67  O   UNL A   1      36.511  33.128  37.784  1.00  0.00    -0.237 OA
ATOM     68  O   UNL A   1      37.238  30.800  38.160  1.00  0.00    -0.744 OA
ENDBRANCH  61  65
ENDBRANCH  44  58
BRANCH  45  69
ATOM     69  C   UNL A   1      42.241  26.446  27.426  1.00  0.00     0.023 A 
ATOM     70  C   UNL A   1      41.878  25.088  27.346  1.00  0.00     0.031 A 
ATOM     71  C   UNL A   1      42.967  27.003  26.362  1.00  0.00     0.131 A 
ATOM     72  C   UNL A   1      42.296  24.319  26.253  1.00  0.00     0.055 A 
ATOM     73  C   UNL A   1      43.322  26.250  25.243  1.00  0.00     0.041 A 
ATOM     74  F   UNL A   1      43.349  28.289  26.403  1.00  0.00    -0.206 F 
ATOM     75  C   UNL A   1      43.003  24.895  25.193  1.00  0.00     0.022 A 
BRANCH  72  76
ATOM     76  S   UNL A   1      42.064  22.520  26.244  1.00  0.00     0.124 S 
ATOM     77  O   UNL A   1      40.610  22.402  26.241  1.00  0.00    -0.237 OA
ATOM     78  O   UNL A   1      42.730  22.139  24.999  1.00  0.00    -0.237 OA
ATOM     79  O   UNL A   1      42.734  22.079  27.462  1.00  0.00    -0.744 OA
ENDBRANCH  72  76
ENDBRANCH  45  69
BRANCH  57  80
ATOM     80  C   UNL A   1      45.317  27.072  33.739  1.00  0.00     0.023 A 
ATOM     81  C   UNL A   1      45.171  25.957  34.588  1.00  0.00     0.031 A 
ATOM     82  C   UNL A   1      46.564  27.716  33.692  1.00  0.00     0.131 A 
ATOM     83  C   UNL A   1      46.240  25.554  35.396  1.00  0.00     0.055 A 
ATOM     84  C   UNL A   1      47.641  27.282  34.466  1.00  0.00     0.041 A 
ATOM     85  F   UNL A   1      46.745  28.793  32.911  1.00  0.00    -0.206 F 
ATOM     86  C   UNL A   1      47.475  26.208  35.336  1.00  0.00     0.022 A 
BRANCH  83  87
ATOM     87  S   UNL A   1      46.039  24.238  36.630  1.00  0.00     0.124 S 
ATOM     88  O   UNL A   1      44.758  24.589  37.240  1.00  0.00    -0.237 OA
ATOM     89  O   UNL A   1      46.026  23.037  35.799  1.00  0.00    -0.237 OA
ATOM     90  O   UNL A   1      47.202  24.388  37.498  1.00  0.00    -0.744 OA
ENDBRANCH  83  87
ENDBRANCH  57  80
ENDBRANCH  31  32
ENDBRANCH  24  26
ENDBRANCH  23  24
ENDBRANCH  22  23
ENDBRANCH   1  22
TORSDOF 17
ENDMDL
