MODEL 1
REMARK VINA RESULT:     -13.3      0.000      0.000
REMARK SMILES CC(C)n1c2c(c3ccccc31)[C@@H](c1ccccc1)N(CC(=O)OCCOC(=O)c1ccc(-c3c4nc(c(-c5cc(S(=O)(=O)[O-])ccc5F)c5ccc([nH]5)c(-c5cc(S(=O)(=O)[O-])ccc5F)c5nc(c(-c6cc(S(=O)(=O)[O-])ccc6F)c6ccc3[nH]6)C=C5)C=C4)cc1)C2=O
REMARK SMILES IDX 26 1 25 2 24 3 22 4 23 5 21 6 20 7 4 8 5 9 12 10 6 11 93 12
REMARK SMILES IDX 7 13 11 14 13 15 94 16 8 17 10 18 9 19 2 20 1 21 3 22 14 23
REMARK SMILES IDX 15 24 19 25 16 26 18 27 17 28 27 29 28 30 29 31 30 32 31 33
REMARK SMILES IDX 92 34 32 35 91 36 33 37 34 38 35 39 85 40 36 41 90 42 84 43
REMARK SMILES IDX 86 44 37 45 89 46 83 47 82 48 38 50 70 51 50 52 69 53 51 54
REMARK SMILES IDX 54 55 68 56 87 57 52 58 53 59 67 61 88 62 55 63 39 64 40 65
REMARK SMILES IDX 48 66 41 67 47 68 49 69 46 70 42 71 43 72 44 73 45 74 71 75
REMARK SMILES IDX 72 76 80 77 73 78 79 79 81 80 78 81 74 82 75 83 76 84 77 85
REMARK SMILES IDX 56 86 57 87 65 88 58 89 64 90 66 91 63 92 59 93 60 94 61 95
REMARK SMILES IDX 62 96
REMARK H PARENT 86 49 54 60
REMARK Flexibility Score: inf
ROOT
ATOM      1  C   UNL A   1      35.683  22.132  24.108  1.00  0.00     0.275 C 
ENDROOT
BRANCH   1   2
ATOM      2  C   UNL A   1      35.256  23.199  23.091  1.00  0.00     0.274 C 
BRANCH   2   3
ATOM      3  O   UNL A   1      33.853  23.063  22.735  1.00  0.00    -0.461 OA
BRANCH   3   4
ATOM      4  C   UNL A   1      33.450  23.712  21.603  1.00  0.00     0.325 C 
ATOM      5  O   UNL A   1      33.099  23.134  20.577  1.00  0.00    -0.250 OA
BRANCH   4   6
ATOM      6  C   UNL A   1      33.390  25.249  21.731  1.00  0.00     0.243 C 
BRANCH   6   7
ATOM      7  N   UNL A   1      32.721  25.883  22.853  1.00  0.00    -0.315 N 
ATOM      8  N   UNL A   1      30.993  28.800  23.935  1.00  0.00    -0.334 N 
ATOM      9  C   UNL A   1      31.625  27.648  23.614  1.00  0.00     0.114 A 
ATOM     10  C   UNL A   1      31.613  29.308  25.083  1.00  0.00     0.049 A 
ATOM     11  C   UNL A   1      32.573  27.344  24.556  1.00  0.00     0.018 A 
ATOM     12  C   UNL A   1      31.660  26.724  22.541  1.00  0.00     0.272 C 
ATOM     13  C   UNL A   1      32.628  28.407  25.470  1.00  0.00     0.006 A 
ATOM     14  C   UNL A   1      31.368  30.480  25.817  1.00  0.00     0.027 A 
ATOM     15  C   UNL A   1      33.252  26.048  24.245  1.00  0.00     0.150 C 
ATOM     16  O   UNL A   1      31.029  26.734  21.496  1.00  0.00    -0.267 OA
ATOM     17  C   UNL A   1      33.421  28.698  26.595  1.00  0.00     0.011 A 
ATOM     18  C   UNL A   1      32.170  30.746  26.931  1.00  0.00     0.002 A 
ATOM     19  C   UNL A   1      33.184  29.873  27.314  1.00  0.00     0.001 A 
BRANCH   8  20
ATOM     20  C   UNL A   1      29.854  29.419  23.258  1.00  0.00     0.082 C 
ATOM     21  C   UNL A   1      30.108  29.971  21.853  1.00  0.00     0.031 C 
ATOM     22  C   UNL A   1      28.669  28.453  23.228  1.00  0.00     0.031 C 
ENDBRANCH   8  20
BRANCH  15  23
ATOM     23  C   UNL A   1      32.775  24.996  25.276  1.00  0.00    -0.021 A 
ATOM     24  C   UNL A   1      33.695  24.361  26.133  1.00  0.00     0.006 A 
ATOM     25  C   UNL A   1      31.431  24.627  25.491  1.00  0.00     0.006 A 
ATOM     26  C   UNL A   1      33.329  23.453  27.136  1.00  0.00     0.000 A 
ATOM     27  C   UNL A   1      31.051  23.719  26.496  1.00  0.00     0.000 A 
ATOM     28  C   UNL A   1      32.000  23.130  27.320  1.00  0.00     0.000 A 
ENDBRANCH  15  23
ENDBRANCH   6   7
ENDBRANCH   4   6
ENDBRANCH   3   4
ENDBRANCH   2   3
ENDBRANCH   1   2
BRANCH   1  29
ATOM     29  O   UNL A   1      37.108  21.960  24.034  1.00  0.00    -0.458 OA
BRANCH  29  30
ATOM     30  C   UNL A   1      37.631  21.116  24.952  1.00  0.00     0.338 C 
ATOM     31  O   UNL A   1      37.579  19.896  24.945  1.00  0.00    -0.246 OA
BRANCH  30  32
ATOM     32  C   UNL A   1      38.672  21.892  25.642  1.00  0.00     0.060 A 
ATOM     33  C   UNL A   1      39.851  21.389  26.163  1.00  0.00     0.016 A 
ATOM     34  C   UNL A   1      38.300  23.200  25.919  1.00  0.00     0.016 A 
ATOM     35  C   UNL A   1      40.580  22.194  27.047  1.00  0.00     0.010 A 
ATOM     36  C   UNL A   1      39.042  24.018  26.756  1.00  0.00     0.010 A 
ATOM     37  C   UNL A   1      40.133  23.485  27.400  1.00  0.00    -0.014 A 
BRANCH  37  38
ATOM     38  C   UNL A   1      40.951  24.361  28.231  1.00  0.00     0.031 A 
ATOM     39  C   UNL A   1      40.274  25.652  28.457  1.00  0.00     0.074 A 
ATOM     40  C   UNL A   1      42.126  24.136  28.855  1.00  0.00     0.049 A 
ATOM     41  N   UNL A   1      40.398  26.683  27.697  1.00  0.00    -0.248 NA
ATOM     42  C   UNL A   1      39.199  25.747  29.448  1.00  0.00     0.031 C 
ATOM     43  C   UNL A   1      42.853  22.893  29.113  1.00  0.00     0.029 A 
ATOM     44  N   UNL A   1      42.938  25.082  29.421  1.00  0.00    -0.354 N 
ATOM     45  C   UNL A   1      39.569  27.651  28.231  1.00  0.00     0.074 A 
ATOM     46  C   UNL A   1      38.723  26.967  29.180  1.00  0.00     0.031 C 
ATOM     47  C   UNL A   1      43.911  23.148  29.930  1.00  0.00     0.029 A 
ATOM     48  C   UNL A   1      44.039  24.588  30.107  1.00  0.00     0.049 A 
ATOM     49  H   UNL A   1      42.753  26.046  29.347  1.00  0.00     0.167 HD
ATOM     50  C   UNL A   1      39.801  28.967  27.971  1.00  0.00     0.034 A 
ATOM     51  C   UNL A   1      44.998  25.318  30.740  1.00  0.00     0.034 A 
ATOM     52  C   UNL A   1      40.812  29.119  26.949  1.00  0.00     0.049 A 
ATOM     53  C   UNL A   1      44.992  26.684  30.161  1.00  0.00     0.074 A 
ATOM     54  C   UNL A   1      40.910  28.753  25.620  1.00  0.00     0.029 A 
ATOM     55  N   UNL A   1      42.101  29.345  27.374  1.00  0.00    -0.354 N 
ATOM     56  N   UNL A   1      45.406  26.968  28.961  1.00  0.00    -0.248 NA
ATOM     57  C   UNL A   1      44.128  27.676  30.777  1.00  0.00     0.031 C 
ATOM     58  C   UNL A   1      42.261  28.337  25.447  1.00  0.00     0.029 A 
ATOM     59  C   UNL A   1      42.938  28.531  26.654  1.00  0.00     0.049 A 
ATOM     60  H   UNL A   1      42.374  29.980  28.075  1.00  0.00     0.167 HD
ATOM     61  C   UNL A   1      44.485  27.891  28.494  1.00  0.00     0.074 A 
ATOM     62  C   UNL A   1      43.793  28.372  29.688  1.00  0.00     0.031 C 
ATOM     63  C   UNL A   1      44.175  27.970  27.167  1.00  0.00     0.034 A 
BRANCH  50  64
ATOM     64  C   UNL A   1      39.383  30.096  28.870  1.00  0.00     0.023 A 
ATOM     65  C   UNL A   1      38.192  30.820  28.693  1.00  0.00     0.031 A 
ATOM     66  C   UNL A   1      40.082  30.338  30.069  1.00  0.00     0.131 A 
ATOM     67  C   UNL A   1      37.738  31.731  29.653  1.00  0.00     0.055 A 
ATOM     68  C   UNL A   1      39.595  31.195  31.061  1.00  0.00     0.041 A 
ATOM     69  F   UNL A   1      41.234  29.702  30.338  1.00  0.00    -0.206 F 
ATOM     70  C   UNL A   1      38.416  31.898  30.856  1.00  0.00     0.022 A 
BRANCH  67  71
ATOM     71  S   UNL A   1      36.240  32.707  29.352  1.00  0.00     0.124 S 
ATOM     72  O   UNL A   1      36.197  32.752  27.895  1.00  0.00    -0.237 OA
ATOM     73  O   UNL A   1      35.219  31.880  29.992  1.00  0.00    -0.237 OA
ATOM     74  O   UNL A   1      36.518  33.974  30.023  1.00  0.00    -0.744 OA
ENDBRANCH  67  71
ENDBRANCH  50  64
BRANCH  51  75
ATOM     75  C   UNL A   1      45.594  25.091  32.081  1.00  0.00     0.023 A 
ATOM     76  C   UNL A   1      44.765  24.667  33.132  1.00  0.00     0.031 A 
ATOM     77  C   UNL A   1      46.843  25.648  32.424  1.00  0.00     0.131 A 
ATOM     78  C   UNL A   1      45.152  24.876  34.465  1.00  0.00     0.055 A 
ATOM     79  C   UNL A   1      47.238  25.829  33.756  1.00  0.00     0.041 A 
ATOM     80  F   UNL A   1      47.669  26.110  31.472  1.00  0.00    -0.206 F 
ATOM     81  C   UNL A   1      46.380  25.460  34.786  1.00  0.00     0.022 A 
BRANCH  78  82
ATOM     82  S   UNL A   1      44.005  24.501  35.819  1.00  0.00     0.124 S 
ATOM     83  O   UNL A   1      43.206  25.723  35.892  1.00  0.00    -0.237 OA
ATOM     84  O   UNL A   1      43.311  23.327  35.303  1.00  0.00    -0.237 OA
ATOM     85  O   UNL A   1      44.886  24.269  36.959  1.00  0.00    -0.744 OA
ENDBRANCH  78  82
ENDBRANCH  51  75
BRANCH  63  86
ATOM     86  C   UNL A   1      45.050  27.240  26.167  1.00  0.00     0.023 A 
ATOM     87  C   UNL A   1      44.725  25.897  25.903  1.00  0.00     0.031 A 
ATOM     88  C   UNL A   1      46.260  27.727  25.634  1.00  0.00     0.131 A 
ATOM     89  C   UNL A   1      45.602  25.078  25.184  1.00  0.00     0.055 A 
ATOM     90  C   UNL A   1      47.098  26.925  24.848  1.00  0.00     0.041 A 
ATOM     91  F   UNL A   1      46.712  28.955  25.917  1.00  0.00    -0.206 F 
ATOM     92  C   UNL A   1      46.780  25.588  24.637  1.00  0.00     0.022 A 
BRANCH  89  93
ATOM     93  S   UNL A   1      45.306  23.294  25.087  1.00  0.00     0.124 S 
ATOM     94  O   UNL A   1      44.012  23.158  25.750  1.00  0.00    -0.237 OA
ATOM     95  O   UNL A   1      45.297  23.059  23.644  1.00  0.00    -0.237 OA
ATOM     96  O   UNL A   1      46.437  22.707  25.798  1.00  0.00    -0.744 OA
ENDBRANCH  89  93
ENDBRANCH  63  86
ENDBRANCH  37  38
ENDBRANCH  30  32
ENDBRANCH  29  30
ENDBRANCH   1  29
TORSDOF 17
ENDMDL
MODEL 2
REMARK VINA RESULT:     -12.7      3.766      9.631
REMARK SMILES CC(C)n1c2c(c3ccccc31)[C@@H](c1ccccc1)N(CC(=O)OCCOC(=O)c1ccc(-c3c4nc(c(-c5cc(S(=O)(=O)[O-])ccc5F)c5ccc([nH]5)c(-c5cc(S(=O)(=O)[O-])ccc5F)c5nc(c(-c6cc(S(=O)(=O)[O-])ccc6F)c6ccc3[nH]6)C=C5)C=C4)cc1)C2=O
REMARK SMILES IDX 26 1 25 2 24 3 22 4 23 5 21 6 20 7 4 8 5 9 12 10 6 11 93 12
REMARK SMILES IDX 7 13 11 14 13 15 94 16 8 17 10 18 9 19 2 20 1 21 3 22 14 23
REMARK SMILES IDX 15 24 19 25 16 26 18 27 17 28 27 29 28 30 29 31 30 32 31 33
REMARK SMILES IDX 92 34 32 35 91 36 33 37 34 38 35 39 85 40 36 41 90 42 84 43
REMARK SMILES IDX 86 44 37 45 89 46 83 47 82 48 38 50 70 51 50 52 69 53 51 54
REMARK SMILES IDX 54 55 68 56 87 57 52 58 53 59 67 61 88 62 55 63 39 64 40 65
REMARK SMILES IDX 48 66 41 67 47 68 49 69 46 70 42 71 43 72 44 73 45 74 71 75
REMARK SMILES IDX 72 76 80 77 73 78 79 79 81 80 78 81 74 82 75 83 76 84 77 85
REMARK SMILES IDX 56 86 57 87 65 88 58 89 64 90 66 91 63 92 59 93 60 94 61 95
REMARK SMILES IDX 62 96
REMARK H PARENT 86 49 54 60
REMARK Flexibility Score: inf
ROOT
ATOM      1  C   UNL A   1      31.249  28.267  27.385  1.00  0.00     0.275 C 
ENDROOT
BRANCH   1   2
ATOM      2  C   UNL A   1      30.828  27.273  26.293  1.00  0.00     0.274 C 
BRANCH   2   3
ATOM      3  O   UNL A   1      31.387  25.952  26.532  1.00  0.00    -0.461 OA
BRANCH   3   4
ATOM      4  C   UNL A   1      30.489  24.936  26.696  1.00  0.00     0.325 C 
ATOM      5  O   UNL A   1      29.271  25.091  26.649  1.00  0.00    -0.250 OA
BRANCH   4   6
ATOM      6  C   UNL A   1      31.124  23.540  26.867  1.00  0.00     0.243 C 
BRANCH   6   7
ATOM      7  N   UNL A   1      32.134  23.056  25.942  1.00  0.00    -0.315 N 
ATOM      8  N   UNL A   1      34.052  20.226  24.954  1.00  0.00    -0.334 N 
ATOM      9  C   UNL A   1      33.361  21.351  25.247  1.00  0.00     0.114 A 
ATOM     10  C   UNL A   1      35.413  20.558  24.973  1.00  0.00     0.049 A 
ATOM     11  C   UNL A   1      34.213  22.417  25.371  1.00  0.00     0.018 A 
ATOM     12  C   UNL A   1      32.031  21.724  25.561  1.00  0.00     0.272 C 
ATOM     13  C   UNL A   1      35.526  21.935  25.258  1.00  0.00     0.006 A 
ATOM     14  C   UNL A   1      36.553  19.767  24.761  1.00  0.00     0.027 A 
ATOM     15  C   UNL A   1      33.464  23.682  25.648  1.00  0.00     0.150 C 
ATOM     16  O   UNL A   1      31.035  21.023  25.643  1.00  0.00    -0.267 OA
ATOM     17  C   UNL A   1      36.802  22.521  25.354  1.00  0.00     0.011 A 
ATOM     18  C   UNL A   1      37.810  20.373  24.861  1.00  0.00     0.002 A 
ATOM     19  C   UNL A   1      37.935  21.727  25.158  1.00  0.00     0.001 A 
BRANCH   8  20
ATOM     20  C   UNL A   1      33.521  18.901  24.638  1.00  0.00     0.082 C 
ATOM     21  C   UNL A   1      32.830  18.150  25.780  1.00  0.00     0.031 C 
ATOM     22  C   UNL A   1      32.586  18.980  23.431  1.00  0.00     0.031 C 
ENDBRANCH   8  20
BRANCH  15  23
ATOM     23  C   UNL A   1      33.527  24.567  24.379  1.00  0.00    -0.021 A 
ATOM     24  C   UNL A   1      33.043  24.089  23.147  1.00  0.00     0.006 A 
ATOM     25  C   UNL A   1      33.997  25.895  24.343  1.00  0.00     0.006 A 
ATOM     26  C   UNL A   1      33.002  24.855  21.973  1.00  0.00     0.000 A 
ATOM     27  C   UNL A   1      33.959  26.676  23.174  1.00  0.00     0.000 A 
ATOM     28  C   UNL A   1      33.461  26.157  21.987  1.00  0.00     0.000 A 
ENDBRANCH  15  23
ENDBRANCH   6   7
ENDBRANCH   4   6
ENDBRANCH   3   4
ENDBRANCH   2   3
ENDBRANCH   1   2
BRANCH   1  29
ATOM     29  O   UNL A   1      32.513  28.849  27.024  1.00  0.00    -0.458 OA
BRANCH  29  30
ATOM     30  C   UNL A   1      32.522  30.200  26.955  1.00  0.00     0.338 C 
ATOM     31  O   UNL A   1      31.560  30.935  26.800  1.00  0.00    -0.246 OA
BRANCH  30  32
ATOM     32  C   UNL A   1      33.780  30.611  27.597  1.00  0.00     0.060 A 
ATOM     33  C   UNL A   1      34.197  31.913  27.808  1.00  0.00     0.016 A 
ATOM     34  C   UNL A   1      34.658  29.561  27.826  1.00  0.00     0.016 A 
ATOM     35  C   UNL A   1      35.537  32.131  28.148  1.00  0.00     0.010 A 
ATOM     36  C   UNL A   1      35.974  29.768  28.208  1.00  0.00     0.010 A 
ATOM     37  C   UNL A   1      36.444  31.057  28.275  1.00  0.00    -0.014 A 
BRANCH  37  38
ATOM     38  C   UNL A   1      37.810  31.280  28.738  1.00  0.00     0.031 A 
ATOM     39  C   UNL A   1      38.641  30.083  28.511  1.00  0.00     0.074 A 
ATOM     40  C   UNL A   1      38.402  32.387  29.232  1.00  0.00     0.049 A 
ATOM     41  N   UNL A   1      38.785  29.123  29.356  1.00  0.00    -0.248 NA
ATOM     42  C   UNL A   1      39.162  29.801  27.170  1.00  0.00     0.031 C 
ATOM     43  C   UNL A   1      37.964  33.783  29.248  1.00  0.00     0.029 A 
ATOM     44  N   UNL A   1      39.619  32.446  29.857  1.00  0.00    -0.354 N 
ATOM     45  C   UNL A   1      39.595  28.189  28.739  1.00  0.00     0.074 A 
ATOM     46  C   UNL A   1      39.638  28.564  27.345  1.00  0.00     0.031 C 
ATOM     47  C   UNL A   1      38.977  34.570  29.702  1.00  0.00     0.029 A 
ATOM     48  C   UNL A   1      40.063  33.722  30.172  1.00  0.00     0.049 A 
ATOM     49  H   UNL A   1      40.141  31.639  30.067  1.00  0.00     0.167 HD
ATOM     50  C   UNL A   1      40.311  27.306  29.487  1.00  0.00     0.034 A 
ATOM     51  C   UNL A   1      41.225  34.046  30.804  1.00  0.00     0.034 A 
ATOM     52  C   UNL A   1      39.911  27.366  30.875  1.00  0.00     0.049 A 
ATOM     53  C   UNL A   1      41.684  32.854  31.559  1.00  0.00     0.074 A 
ATOM     54  C   UNL A   1      38.736  27.120  31.558  1.00  0.00     0.029 A 
ATOM     55  N   UNL A   1      40.677  28.146  31.712  1.00  0.00    -0.354 N 
ATOM     56  N   UNL A   1      41.097  32.397  32.627  1.00  0.00    -0.248 NA
ATOM     57  C   UNL A   1      42.561  31.917  30.878  1.00  0.00     0.031 C 
ATOM     58  C   UNL A   1      38.668  28.130  32.561  1.00  0.00     0.029 A 
ATOM     59  C   UNL A   1      39.833  28.899  32.488  1.00  0.00     0.049 A 
ATOM     60  H   UNL A   1      41.661  28.160  31.747  1.00  0.00     0.167 HD
ATOM     61  C   UNL A   1      41.130  31.022  32.470  1.00  0.00     0.074 A 
ATOM     62  C   UNL A   1      42.139  30.782  31.439  1.00  0.00     0.031 C 
ATOM     63  C   UNL A   1      40.143  30.229  32.981  1.00  0.00     0.034 A 
BRANCH  50  64
ATOM     64  C   UNL A   1      41.589  26.655  29.041  1.00  0.00     0.023 A 
ATOM     65  C   UNL A   1      41.647  25.354  28.515  1.00  0.00     0.031 A 
ATOM     66  C   UNL A   1      42.769  27.418  28.937  1.00  0.00     0.131 A 
ATOM     67  C   UNL A   1      42.815  24.850  27.932  1.00  0.00     0.055 A 
ATOM     68  C   UNL A   1      43.915  26.942  28.292  1.00  0.00     0.041 A 
ATOM     69  F   UNL A   1      42.825  28.674  29.410  1.00  0.00    -0.206 F 
ATOM     70  C   UNL A   1      43.943  25.651  27.784  1.00  0.00     0.022 A 
BRANCH  67  71
ATOM     71  S   UNL A   1      42.877  23.138  27.338  1.00  0.00     0.124 S 
ATOM     72  O   UNL A   1      42.002  23.191  26.172  1.00  0.00    -0.237 OA
ATOM     73  O   UNL A   1      44.301  22.977  27.057  1.00  0.00    -0.237 OA
ATOM     74  O   UNL A   1      42.381  22.365  28.474  1.00  0.00    -0.744 OA
ENDBRANCH  67  71
ENDBRANCH  50  64
BRANCH  51  75
ATOM     75  C   UNL A   1      42.196  35.114  30.459  1.00  0.00     0.023 A 
ATOM     76  C   UNL A   1      42.489  35.359  29.107  1.00  0.00     0.031 A 
ATOM     77  C   UNL A   1      43.104  35.609  31.418  1.00  0.00     0.131 A 
ATOM     78  C   UNL A   1      43.684  36.001  28.747  1.00  0.00     0.055 A 
ATOM     79  C   UNL A   1      44.282  36.274  31.055  1.00  0.00     0.041 A 
ATOM     80  F   UNL A   1      42.908  35.378  32.725  1.00  0.00    -0.206 F 
ATOM     81  C   UNL A   1      44.587  36.454  29.711  1.00  0.00     0.022 A 
BRANCH  78  82
ATOM     82  S   UNL A   1      44.151  36.150  27.001  1.00  0.00     0.124 S 
ATOM     83  O   UNL A   1      42.851  36.172  26.335  1.00  0.00    -0.237 OA
ATOM     84  O   UNL A   1      44.881  37.413  26.997  1.00  0.00    -0.237 OA
ATOM     85  O   UNL A   1      44.951  34.953  26.758  1.00  0.00    -0.744 OA
ENDBRANCH  78  82
ENDBRANCH  51  75
BRANCH  63  86
ATOM     86  C   UNL A   1      39.158  30.829  33.965  1.00  0.00     0.023 A 
ATOM     87  C   UNL A   1      38.112  31.598  33.425  1.00  0.00     0.031 A 
ATOM     88  C   UNL A   1      39.312  30.844  35.366  1.00  0.00     0.131 A 
ATOM     89  C   UNL A   1      37.299  32.380  34.253  1.00  0.00     0.055 A 
ATOM     90  C   UNL A   1      38.447  31.567  36.198  1.00  0.00     0.041 A 
ATOM     91  F   UNL A   1      40.341  30.234  35.969  1.00  0.00    -0.206 F 
ATOM     92  C   UNL A   1      37.447  32.355  35.641  1.00  0.00     0.022 A 
BRANCH  89  93
ATOM     93  S   UNL A   1      36.142  33.569  33.529  1.00  0.00     0.124 S 
ATOM     94  O   UNL A   1      36.701  34.848  33.958  1.00  0.00    -0.237 OA
ATOM     95  O   UNL A   1      36.256  33.284  32.099  1.00  0.00    -0.237 OA
ATOM     96  O   UNL A   1      34.855  33.219  34.124  1.00  0.00    -0.744 OA
ENDBRANCH  89  93
ENDBRANCH  63  86
ENDBRANCH  37  38
ENDBRANCH  30  32
ENDBRANCH  29  30
ENDBRANCH   1  29
TORSDOF 17
ENDMDL
MODEL 3
REMARK VINA RESULT:     -12.5      3.378      7.993
REMARK SMILES CC(C)n1c2c(c3ccccc31)[C@@H](c1ccccc1)N(CC(=O)OCCOC(=O)c1ccc(-c3c4nc(c(-c5cc(S(=O)(=O)[O-])ccc5F)c5ccc([nH]5)c(-c5cc(S(=O)(=O)[O-])ccc5F)c5nc(c(-c6cc(S(=O)(=O)[O-])ccc6F)c6ccc3[nH]6)C=C5)C=C4)cc1)C2=O
REMARK SMILES IDX 26 1 25 2 24 3 22 4 23 5 21 6 20 7 4 8 5 9 12 10 6 11 93 12
REMARK SMILES IDX 7 13 11 14 13 15 94 16 8 17 10 18 9 19 2 20 1 21 3 22 14 23
REMARK SMILES IDX 15 24 19 25 16 26 18 27 17 28 27 29 28 30 29 31 30 32 31 33
REMARK SMILES IDX 92 34 32 35 91 36 33 37 34 38 35 39 85 40 36 41 90 42 84 43
REMARK SMILES IDX 86 44 37 45 89 46 83 47 82 48 38 50 70 51 50 52 69 53 51 54
REMARK SMILES IDX 54 55 68 56 87 57 52 58 53 59 67 61 88 62 55 63 39 64 40 65
REMARK SMILES IDX 48 66 41 67 47 68 49 69 46 70 42 71 43 72 44 73 45 74 71 75
REMARK SMILES IDX 72 76 80 77 73 78 79 79 81 80 78 81 74 82 75 83 76 84 77 85
REMARK SMILES IDX 56 86 57 87 65 88 58 89 64 90 66 91 63 92 59 93 60 94 61 95
REMARK SMILES IDX 62 96
REMARK H PARENT 86 49 54 60
REMARK Flexibility Score: inf
ROOT
ATOM      1  C   UNL A   1      41.661  21.433  26.532  1.00  0.00     0.275 C 
ENDROOT
BRANCH   1   2
ATOM      2  C   UNL A   1      40.279  21.977  26.922  1.00  0.00     0.274 C 
BRANCH   2   3
ATOM      3  O   UNL A   1      39.213  21.256  26.245  1.00  0.00    -0.461 OA
BRANCH   3   4
ATOM      4  C   UNL A   1      38.196  22.014  25.740  1.00  0.00     0.325 C 
ATOM      5  O   UNL A   1      37.918  23.138  26.151  1.00  0.00    -0.250 OA
BRANCH   4   6
ATOM      6  C   UNL A   1      37.459  21.382  24.540  1.00  0.00     0.243 C 
BRANCH   6   7
ATOM      7  N   UNL A   1      36.045  21.623  24.316  1.00  0.00    -0.315 N 
ATOM      8  N   UNL A   1      33.571  24.128  23.795  1.00  0.00    -0.334 N 
ATOM      9  C   UNL A   1      34.438  23.106  23.972  1.00  0.00     0.114 A 
ATOM     10  C   UNL A   1      32.549  23.975  24.740  1.00  0.00     0.049 A 
ATOM     11  C   UNL A   1      33.976  22.249  24.937  1.00  0.00     0.018 A 
ATOM     12  C   UNL A   1      35.726  22.721  23.526  1.00  0.00     0.272 C 
ATOM     13  C   UNL A   1      32.808  22.804  25.483  1.00  0.00     0.006 A 
ATOM     14  C   UNL A   1      31.418  24.764  25.004  1.00  0.00     0.027 A 
ATOM     15  C   UNL A   1      34.898  21.085  25.117  1.00  0.00     0.150 C 
ATOM     16  O   UNL A   1      36.473  23.293  22.747  1.00  0.00    -0.267 OA
ATOM     17  C   UNL A   1      31.932  22.431  26.518  1.00  0.00     0.011 A 
ATOM     18  C   UNL A   1      30.563  24.372  26.039  1.00  0.00     0.002 A 
ATOM     19  C   UNL A   1      30.816  23.227  26.789  1.00  0.00     0.001 A 
BRANCH   8  20
ATOM     20  C   UNL A   1      33.632  25.195  22.796  1.00  0.00     0.082 C 
ATOM     21  C   UNL A   1      32.538  25.194  21.724  1.00  0.00     0.031 C 
ATOM     22  C   UNL A   1      33.681  26.560  23.483  1.00  0.00     0.031 C 
ENDBRANCH   8  20
BRANCH  15  23
ATOM     23  C   UNL A   1      34.204  19.828  24.538  1.00  0.00    -0.021 A 
ATOM     24  C   UNL A   1      34.859  18.582  24.539  1.00  0.00     0.006 A 
ATOM     25  C   UNL A   1      32.890  19.793  24.030  1.00  0.00     0.006 A 
ATOM     26  C   UNL A   1      34.270  17.389  24.097  1.00  0.00     0.000 A 
ATOM     27  C   UNL A   1      32.285  18.603  23.586  1.00  0.00     0.000 A 
ATOM     28  C   UNL A   1      32.974  17.399  23.619  1.00  0.00     0.000 A 
ENDBRANCH  15  23
ENDBRANCH   6   7
ENDBRANCH   4   6
ENDBRANCH   3   4
ENDBRANCH   2   3
ENDBRANCH   1   2
BRANCH   1  29
ATOM     29  O   UNL A   1      42.316  22.388  25.681  1.00  0.00    -0.458 OA
BRANCH  29  30
ATOM     30  C   UNL A   1      43.515  22.825  26.128  1.00  0.00     0.338 C 
ATOM     31  O   UNL A   1      44.618  22.449  25.764  1.00  0.00    -0.246 OA
BRANCH  30  32
ATOM     32  C   UNL A   1      43.248  24.142  26.725  1.00  0.00     0.060 A 
ATOM     33  C   UNL A   1      43.699  24.583  27.957  1.00  0.00     0.016 A 
ATOM     34  C   UNL A   1      42.314  24.893  26.025  1.00  0.00     0.016 A 
ATOM     35  C   UNL A   1      43.111  25.729  28.504  1.00  0.00     0.010 A 
ATOM     36  C   UNL A   1      41.761  26.054  26.541  1.00  0.00     0.010 A 
ATOM     37  C   UNL A   1      42.086  26.422  27.825  1.00  0.00    -0.014 A 
BRANCH  37  38
ATOM     38  C   UNL A   1      41.555  27.677  28.346  1.00  0.00     0.031 A 
ATOM     39  C   UNL A   1      42.323  28.826  27.830  1.00  0.00     0.074 A 
ATOM     40  C   UNL A   1      40.474  27.923  29.115  1.00  0.00     0.049 A 
ATOM     41  N   UNL A   1      43.361  29.325  28.402  1.00  0.00    -0.248 NA
ATOM     42  C   UNL A   1      42.081  29.311  26.468  1.00  0.00     0.031 C 
ATOM     43  C   UNL A   1      39.345  27.068  29.484  1.00  0.00     0.029 A 
ATOM     44  N   UNL A   1      40.180  29.100  29.750  1.00  0.00    -0.354 N 
ATOM     45  C   UNL A   1      43.800  30.343  27.577  1.00  0.00     0.074 A 
ATOM     46  C   UNL A   1      43.100  30.165  26.326  1.00  0.00     0.031 C 
ATOM     47  C   UNL A   1      38.410  27.811  30.137  1.00  0.00     0.029 A 
ATOM     48  C   UNL A   1      38.948  29.140  30.388  1.00  0.00     0.049 A 
ATOM     49  H   UNL A   1      40.800  29.864  29.753  1.00  0.00     0.167 HD
ATOM     50  C   UNL A   1      44.559  31.353  28.082  1.00  0.00     0.034 A 
ATOM     51  C   UNL A   1      38.432  30.182  31.095  1.00  0.00     0.034 A 
ATOM     52  C   UNL A   1      44.976  31.055  29.434  1.00  0.00     0.049 A 
ATOM     53  C   UNL A   1      39.558  31.047  31.525  1.00  0.00     0.074 A 
ATOM     54  C   UNL A   1      45.750  30.070  30.016  1.00  0.00     0.029 A 
ATOM     55  N   UNL A   1      44.223  31.593  30.452  1.00  0.00    -0.354 N 
ATOM     56  N   UNL A   1      40.430  30.712  32.433  1.00  0.00    -0.248 NA
ATOM     57  C   UNL A   1      39.962  32.124  30.637  1.00  0.00     0.031 C 
ATOM     58  C   UNL A   1      45.097  29.759  31.243  1.00  0.00     0.029 A 
ATOM     59  C   UNL A   1      44.000  30.613  31.385  1.00  0.00     0.049 A 
ATOM     60  H   UNL A   1      43.900  32.523  30.502  1.00  0.00     0.167 HD
ATOM     61  C   UNL A   1      41.636  31.167  31.929  1.00  0.00     0.074 A 
ATOM     62  C   UNL A   1      41.274  32.123  30.884  1.00  0.00     0.031 C 
ATOM     63  C   UNL A   1      42.806  30.521  32.207  1.00  0.00     0.034 A 
BRANCH  50  64
ATOM     64  C   UNL A   1      44.630  32.736  27.500  1.00  0.00     0.023 A 
ATOM     65  C   UNL A   1      43.752  33.770  27.865  1.00  0.00     0.031 A 
ATOM     66  C   UNL A   1      45.731  33.110  26.705  1.00  0.00     0.131 A 
ATOM     67  C   UNL A   1      43.962  35.090  27.453  1.00  0.00     0.055 A 
ATOM     68  C   UNL A   1      45.982  34.440  26.350  1.00  0.00     0.041 A 
ATOM     69  F   UNL A   1      46.630  32.201  26.297  1.00  0.00    -0.206 F 
ATOM     70  C   UNL A   1      45.095  35.440  26.725  1.00  0.00     0.022 A 
BRANCH  67  71
ATOM     71  S   UNL A   1      42.764  36.383  27.876  1.00  0.00     0.124 S 
ATOM     72  O   UNL A   1      41.533  35.855  27.297  1.00  0.00    -0.237 OA
ATOM     73  O   UNL A   1      42.832  36.379  29.335  1.00  0.00    -0.237 OA
ATOM     74  O   UNL A   1      43.309  37.577  27.236  1.00  0.00    -0.744 OA
ENDBRANCH  67  71
ENDBRANCH  50  64
BRANCH  51  75
ATOM     75  C   UNL A   1      37.056  30.738  31.048  1.00  0.00     0.023 A 
ATOM     76  C   UNL A   1      36.489  31.048  29.802  1.00  0.00     0.031 A 
ATOM     77  C   UNL A   1      36.468  31.319  32.191  1.00  0.00     0.131 A 
ATOM     78  C   UNL A   1      35.430  31.965  29.715  1.00  0.00     0.055 A 
ATOM     79  C   UNL A   1      35.393  32.213  32.102  1.00  0.00     0.041 A 
ATOM     80  F   UNL A   1      36.982  31.098  33.410  1.00  0.00    -0.206 F 
ATOM     81  C   UNL A   1      34.882  32.556  30.856  1.00  0.00     0.022 A 
BRANCH  78  82
ATOM     82  S   UNL A   1      34.821  32.508  28.095  1.00  0.00     0.124 S 
ATOM     83  O   UNL A   1      35.934  33.316  27.603  1.00  0.00    -0.237 OA
ATOM     84  O   UNL A   1      34.620  31.234  27.413  1.00  0.00    -0.237 OA
ATOM     85  O   UNL A   1      33.610  33.254  28.419  1.00  0.00    -0.744 OA
ENDBRANCH  78  82
ENDBRANCH  51  75
BRANCH  63  86
ATOM     86  C   UNL A   1      42.820  29.470  33.299  1.00  0.00     0.023 A 
ATOM     87  C   UNL A   1      43.460  29.816  34.504  1.00  0.00     0.031 A 
ATOM     88  C   UNL A   1      42.423  28.127  33.143  1.00  0.00     0.131 A 
ATOM     89  C   UNL A   1      43.730  28.845  35.473  1.00  0.00     0.055 A 
ATOM     90  C   UNL A   1      42.625  27.174  34.150  1.00  0.00     0.041 A 
ATOM     91  F   UNL A   1      41.905  27.673  31.994  1.00  0.00    -0.206 F 
ATOM     92  C   UNL A   1      43.299  27.527  35.314  1.00  0.00     0.022 A 
BRANCH  89  93
ATOM     93  S   UNL A   1      44.789  29.242  36.887  1.00  0.00     0.124 S 
ATOM     94  O   UNL A   1      45.646  30.294  36.346  1.00  0.00    -0.237 OA
ATOM     95  O   UNL A   1      43.818  29.679  37.890  1.00  0.00    -0.237 OA
ATOM     96  O   UNL A   1      45.462  27.983  37.191  1.00  0.00    -0.744 OA
ENDBRANCH  89  93
ENDBRANCH  63  86
ENDBRANCH  37  38
ENDBRANCH  30  32
ENDBRANCH  29  30
ENDBRANCH   1  29
TORSDOF 17
ENDMDL
