MODEL 1
REMARK VINA RESULT:     -10.5      0.000      0.000
REMARK SMILES CN(CC(N)=O)C(=O)c1csc(/C=C/C(=O)OCCOC(=O)c2ccc(-c3c4nc(c(-c5cc(S(=O)(=O)[O-])ccc5F)c5ccc([nH]5)c(-c5cc(S(=O)(=O)[O-])ccc5F)c5nc(c(-c6cc(S(=O)(=O)[O-])ccc6F)c6ccc3[nH]6)C=C5)C=C4)cc2)c1
REMARK SMILES IDX 18 1 17 2 15 3 16 4 14 5 13 6 12 7 9 8 10 9 86 10 11 11 7 12
REMARK SMILES IDX 8 13 2 14 1 15 3 16 4 17 5 18 6 19 19 22 20 23 21 24 22 25
REMARK SMILES IDX 23 26 24 27 85 28 25 29 84 30 26 31 27 32 28 33 78 34 29 35
REMARK SMILES IDX 83 36 77 37 79 38 30 39 82 40 76 41 75 42 31 44 63 45 43 46
REMARK SMILES IDX 62 47 44 48 47 49 61 50 80 51 45 52 46 53 60 55 81 56 48 57
REMARK SMILES IDX 32 58 33 59 41 60 34 61 40 62 42 63 39 64 35 65 36 66 37 67
REMARK SMILES IDX 38 68 64 69 65 70 73 71 66 72 72 73 74 74 71 75 67 76 68 77
REMARK SMILES IDX 69 78 70 79 49 80 50 81 58 82 51 83 57 84 59 85 56 86 52 87
REMARK SMILES IDX 53 88 54 89 55 90
REMARK H PARENT 5 20 5 21 79 43 47 54
REMARK Flexibility Score: inf
ROOT
ATOM      1  C   UNL A   1      35.860  21.066  24.851  1.00  0.00     0.275 C 
ENDROOT
BRANCH   1   2
ATOM      2  O   UNL A   1      35.737  22.497  24.936  1.00  0.00    -0.459 OA
BRANCH   2   3
ATOM      3  C   UNL A   1      35.599  23.136  23.751  1.00  0.00     0.330 C 
ATOM      4  O   UNL A   1      36.301  22.973  22.763  1.00  0.00    -0.247 OA
BRANCH   3   5
ATOM      5  C   UNL A   1      34.457  24.070  23.724  1.00  0.00     0.095 C 
ATOM      6  C   UNL A   1      33.323  23.951  24.432  1.00  0.00     0.026 C 
BRANCH   6   7
ATOM      7  C   UNL A   1      32.251  24.896  24.337  1.00  0.00     0.028 A 
ATOM      8  C   UNL A   1      30.947  26.752  23.644  1.00  0.00     0.051 A 
ATOM      9  C   UNL A   1      30.109  26.138  24.552  1.00  0.00     0.079 A 
ATOM     10  C   UNL A   1      32.171  26.009  23.513  1.00  0.00     0.033 A 
ATOM     11  S   UNL A   1      30.832  24.800  25.315  1.00  0.00    -0.144 S 
BRANCH   8  12
ATOM     12  C   UNL A   1      30.571  27.918  22.847  1.00  0.00     0.254 C 
ATOM     13  O   UNL A   1      30.704  27.896  21.624  1.00  0.00    -0.269 OA
BRANCH  12  14
ATOM     14  N   UNL A   1      30.084  29.040  23.515  1.00  0.00    -0.332 N 
ATOM     15  C   UNL A   1      30.930  29.639  24.530  1.00  0.00     0.147 C 
BRANCH  14  16
ATOM     16  C   UNL A   1      28.742  29.602  23.339  1.00  0.00     0.219 C 
BRANCH  16  17
ATOM     17  C   UNL A   1      28.754  30.921  22.562  1.00  0.00     0.237 C 
ATOM     18  N   UNL A   1      29.668  30.996  21.550  1.00  0.00    -0.368 N 
ATOM     19  O   UNL A   1      27.996  31.859  22.794  1.00  0.00    -0.273 OA
ATOM     20  H   UNL A   1      30.272  30.238  21.374  1.00  0.00     0.159 HD
ATOM     21  H   UNL A   1      29.725  31.808  20.997  1.00  0.00     0.159 HD
ENDBRANCH  16  17
ENDBRANCH  14  16
ENDBRANCH  12  14
ENDBRANCH   8  12
ENDBRANCH   6   7
ENDBRANCH   3   5
ENDBRANCH   2   3
ENDBRANCH   1   2
BRANCH   1  22
ATOM     22  C   UNL A   1      37.310  20.606  25.029  1.00  0.00     0.275 C 
BRANCH  22  23
ATOM     23  O   UNL A   1      38.211  21.706  25.253  1.00  0.00    -0.458 OA
BRANCH  23  24
ATOM     24  C   UNL A   1      39.162  21.485  26.194  1.00  0.00     0.338 C 
ATOM     25  O   UNL A   1      39.634  20.408  26.513  1.00  0.00    -0.246 OA
BRANCH  24  26
ATOM     26  C   UNL A   1      39.658  22.769  26.724  1.00  0.00     0.060 A 
ATOM     27  C   UNL A   1      39.146  23.948  26.173  1.00  0.00     0.016 A 
ATOM     28  C   UNL A   1      40.660  22.821  27.698  1.00  0.00     0.016 A 
ATOM     29  C   UNL A   1      39.639  25.184  26.588  1.00  0.00     0.010 A 
ATOM     30  C   UNL A   1      41.155  24.064  28.112  1.00  0.00     0.010 A 
ATOM     31  C   UNL A   1      40.655  25.253  27.550  1.00  0.00    -0.014 A 
BRANCH  31  32
ATOM     32  C   UNL A   1      41.225  26.571  27.929  1.00  0.00     0.031 A 
ATOM     33  C   UNL A   1      42.654  26.895  27.598  1.00  0.00     0.074 A 
ATOM     34  C   UNL A   1      40.454  27.482  28.551  1.00  0.00     0.049 A 
ATOM     35  N   UNL A   1      43.344  27.976  27.862  1.00  0.00    -0.248 NA
ATOM     36  C   UNL A   1      43.406  25.859  26.877  1.00  0.00     0.031 C 
ATOM     37  C   UNL A   1      39.046  27.292  28.902  1.00  0.00     0.029 A 
ATOM     38  N   UNL A   1      40.744  28.746  29.000  1.00  0.00    -0.354 N 
ATOM     39  C   UNL A   1      44.616  27.752  27.343  1.00  0.00     0.074 A 
ATOM     40  C   UNL A   1      44.607  26.413  26.787  1.00  0.00     0.031 C 
ATOM     41  C   UNL A   1      38.596  28.400  29.513  1.00  0.00     0.029 A 
ATOM     42  C   UNL A   1      39.690  29.360  29.634  1.00  0.00     0.049 A 
ATOM     43  H   UNL A   1      41.624  29.172  28.880  1.00  0.00     0.167 HD
ATOM     44  C   UNL A   1      45.685  28.588  27.325  1.00  0.00     0.034 A 
ATOM     45  C   UNL A   1      39.621  30.550  30.264  1.00  0.00     0.034 A 
ATOM     46  C   UNL A   1      45.681  29.913  27.901  1.00  0.00     0.049 A 
ATOM     47  C   UNL A   1      40.842  31.432  30.300  1.00  0.00     0.074 A 
ATOM     48  C   UNL A   1      46.700  30.849  27.920  1.00  0.00     0.029 A 
ATOM     49  N   UNL A   1      44.609  30.485  28.577  1.00  0.00    -0.354 N 
ATOM     50  N   UNL A   1      42.034  31.216  29.793  1.00  0.00    -0.248 NA
ATOM     51  C   UNL A   1      40.706  32.722  30.990  1.00  0.00     0.031 C 
ATOM     52  C   UNL A   1      46.271  31.954  28.666  1.00  0.00     0.029 A 
ATOM     53  C   UNL A   1      44.956  31.743  29.048  1.00  0.00     0.049 A 
ATOM     54  H   UNL A   1      43.730  30.058  28.703  1.00  0.00     0.167 HD
ATOM     55  C   UNL A   1      42.783  32.353  30.084  1.00  0.00     0.074 A 
ATOM     56  C   UNL A   1      41.903  33.257  30.797  1.00  0.00     0.031 C 
ATOM     57  C   UNL A   1      44.079  32.627  29.782  1.00  0.00     0.034 A 
BRANCH  44  58
ATOM     58  C   UNL A   1      46.959  28.061  26.706  1.00  0.00     0.023 A 
ATOM     59  C   UNL A   1      47.212  28.171  25.326  1.00  0.00     0.031 A 
ATOM     60  C   UNL A   1      47.910  27.392  27.496  1.00  0.00     0.131 A 
ATOM     61  C   UNL A   1      48.340  27.548  24.769  1.00  0.00     0.055 A 
ATOM     62  C   UNL A   1      49.073  26.848  26.948  1.00  0.00     0.041 A 
ATOM     63  F   UNL A   1      47.716  27.236  28.816  1.00  0.00    -0.206 F 
ATOM     64  C   UNL A   1      49.285  26.907  25.574  1.00  0.00     0.022 A 
BRANCH  61  65
ATOM     65  S   UNL A   1      48.464  27.443  22.962  1.00  0.00     0.124 S 
ATOM     66  O   UNL A   1      47.302  28.220  22.538  1.00  0.00    -0.237 OA
ATOM     67  O   UNL A   1      49.766  28.046  22.699  1.00  0.00    -0.237 OA
ATOM     68  O   UNL A   1      48.374  26.009  22.695  1.00  0.00    -0.744 OA
ENDBRANCH  61  65
ENDBRANCH  44  58
BRANCH  45  69
ATOM     69  C   UNL A   1      38.362  30.958  30.948  1.00  0.00     0.023 A 
ATOM     70  C   UNL A   1      37.350  31.647  30.265  1.00  0.00     0.031 A 
ATOM     71  C   UNL A   1      38.168  30.679  32.313  1.00  0.00     0.131 A 
ATOM     72  C   UNL A   1      36.199  32.062  30.955  1.00  0.00     0.055 A 
ATOM     73  C   UNL A   1      37.002  31.052  32.984  1.00  0.00     0.041 A 
ATOM     74  F   UNL A   1      39.106  30.021  33.013  1.00  0.00    -0.206 F 
ATOM     75  C   UNL A   1      36.013  31.757  32.306  1.00  0.00     0.022 A 
BRANCH  72  76
ATOM     76  S   UNL A   1      34.969  33.063  30.074  1.00  0.00     0.124 S 
ATOM     77  O   UNL A   1      34.407  32.091  29.143  1.00  0.00    -0.237 OA
ATOM     78  O   UNL A   1      34.094  33.492  31.160  1.00  0.00    -0.237 OA
ATOM     79  O   UNL A   1      35.767  34.124  29.464  1.00  0.00    -0.744 OA
ENDBRANCH  72  76
ENDBRANCH  45  69
BRANCH  57  80
ATOM     80  C   UNL A   1      44.606  33.980  30.197  1.00  0.00     0.023 A 
ATOM     81  C   UNL A   1      44.502  35.106  29.360  1.00  0.00     0.031 A 
ATOM     82  C   UNL A   1      45.238  34.140  31.444  1.00  0.00     0.131 A 
ATOM     83  C   UNL A   1      45.067  36.328  29.758  1.00  0.00     0.055 A 
ATOM     84  C   UNL A   1      45.748  35.372  31.858  1.00  0.00     0.041 A 
ATOM     85  F   UNL A   1      45.368  33.099  32.282  1.00  0.00    -0.206 F 
ATOM     86  C   UNL A   1      45.675  36.471  31.008  1.00  0.00     0.022 A 
BRANCH  83  87
ATOM     87  S   UNL A   1      45.076  37.709  28.582  1.00  0.00     0.124 S 
ATOM     88  O   UNL A   1      46.227  37.387  27.744  1.00  0.00    -0.237 OA
ATOM     89  O   UNL A   1      43.769  37.587  27.945  1.00  0.00    -0.237 OA
ATOM     90  O   UNL A   1      45.240  38.885  29.435  1.00  0.00    -0.744 OA
ENDBRANCH  83  87
ENDBRANCH  57  80
ENDBRANCH  31  32
ENDBRANCH  24  26
ENDBRANCH  23  24
ENDBRANCH  22  23
ENDBRANCH   1  22
TORSDOF 19
ENDMDL
MODEL 2
REMARK VINA RESULT:     -10.3      5.190      7.958
REMARK SMILES CN(CC(N)=O)C(=O)c1csc(/C=C/C(=O)OCCOC(=O)c2ccc(-c3c4nc(c(-c5cc(S(=O)(=O)[O-])ccc5F)c5ccc([nH]5)c(-c5cc(S(=O)(=O)[O-])ccc5F)c5nc(c(-c6cc(S(=O)(=O)[O-])ccc6F)c6ccc3[nH]6)C=C5)C=C4)cc2)c1
REMARK SMILES IDX 18 1 17 2 15 3 16 4 14 5 13 6 12 7 9 8 10 9 86 10 11 11 7 12
REMARK SMILES IDX 8 13 2 14 1 15 3 16 4 17 5 18 6 19 19 22 20 23 21 24 22 25
REMARK SMILES IDX 23 26 24 27 85 28 25 29 84 30 26 31 27 32 28 33 78 34 29 35
REMARK SMILES IDX 83 36 77 37 79 38 30 39 82 40 76 41 75 42 31 44 63 45 43 46
REMARK SMILES IDX 62 47 44 48 47 49 61 50 80 51 45 52 46 53 60 55 81 56 48 57
REMARK SMILES IDX 32 58 33 59 41 60 34 61 40 62 42 63 39 64 35 65 36 66 37 67
REMARK SMILES IDX 38 68 64 69 65 70 73 71 66 72 72 73 74 74 71 75 67 76 68 77
REMARK SMILES IDX 69 78 70 79 49 80 50 81 58 82 51 83 57 84 59 85 56 86 52 87
REMARK SMILES IDX 53 88 54 89 55 90
REMARK H PARENT 5 20 5 21 79 43 47 54
REMARK Flexibility Score: inf
ROOT
ATOM      1  C   UNL A   1      31.196  29.847  24.420  1.00  0.00     0.275 C 
ENDROOT
BRANCH   1   2
ATOM      2  O   UNL A   1      30.386  28.675  24.210  1.00  0.00    -0.459 OA
BRANCH   2   3
ATOM      3  C   UNL A   1      30.557  28.063  23.015  1.00  0.00     0.330 C 
ATOM      4  O   UNL A   1      30.101  28.440  21.944  1.00  0.00    -0.247 OA
BRANCH   3   5
ATOM      5  C   UNL A   1      31.406  26.860  23.095  1.00  0.00     0.095 C 
ATOM      6  C   UNL A   1      32.589  26.768  23.723  1.00  0.00     0.026 C 
BRANCH   6   7
ATOM      7  C   UNL A   1      33.363  25.563  23.740  1.00  0.00     0.028 A 
ATOM      8  C   UNL A   1      34.853  23.861  24.452  1.00  0.00     0.051 A 
ATOM      9  C   UNL A   1      34.381  23.347  23.261  1.00  0.00     0.079 A 
ATOM     10  C   UNL A   1      34.238  25.131  24.727  1.00  0.00     0.033 A 
ATOM     11  S   UNL A   1      33.344  24.422  22.445  1.00  0.00    -0.144 S 
BRANCH   8  12
ATOM     12  C   UNL A   1      35.754  23.141  25.350  1.00  0.00     0.254 C 
ATOM     13  O   UNL A   1      36.808  23.663  25.711  1.00  0.00    -0.269 OA
BRANCH  12  14
ATOM     14  N   UNL A   1      35.389  21.860  25.758  1.00  0.00    -0.332 N 
ATOM     15  C   UNL A   1      36.122  20.740  25.197  1.00  0.00     0.147 C 
BRANCH  14  16
ATOM     16  C   UNL A   1      34.255  21.551  26.635  1.00  0.00     0.219 C 
BRANCH  16  17
ATOM     17  C   UNL A   1      33.212  20.661  25.954  1.00  0.00     0.237 C 
ATOM     18  N   UNL A   1      33.084  19.405  26.476  1.00  0.00    -0.368 N 
ATOM     19  O   UNL A   1      32.509  21.025  25.016  1.00  0.00    -0.273 OA
ATOM     20  H   UNL A   1      33.655  19.124  27.228  1.00  0.00     0.159 HD
ATOM     21  H   UNL A   1      32.423  18.780  26.099  1.00  0.00     0.159 HD
ENDBRANCH  16  17
ENDBRANCH  14  16
ENDBRANCH  12  14
ENDBRANCH   8  12
ENDBRANCH   6   7
ENDBRANCH   3   5
ENDBRANCH   2   3
ENDBRANCH   1   2
BRANCH   1  22
ATOM     22  C   UNL A   1      31.495  30.074  25.906  1.00  0.00     0.275 C 
BRANCH  22  23
ATOM     23  O   UNL A   1      32.904  30.206  26.167  1.00  0.00    -0.458 OA
BRANCH  23  24
ATOM     24  C   UNL A   1      33.245  31.259  26.952  1.00  0.00     0.338 C 
ATOM     25  O   UNL A   1      32.569  32.248  27.176  1.00  0.00    -0.246 OA
BRANCH  24  26
ATOM     26  C   UNL A   1      34.534  30.997  27.620  1.00  0.00     0.060 A 
ATOM     27  C   UNL A   1      34.850  29.672  27.936  1.00  0.00     0.016 A 
ATOM     28  C   UNL A   1      35.389  32.037  27.994  1.00  0.00     0.016 A 
ATOM     29  C   UNL A   1      36.022  29.383  28.635  1.00  0.00     0.010 A 
ATOM     30  C   UNL A   1      36.565  31.744  28.697  1.00  0.00     0.010 A 
ATOM     31  C   UNL A   1      36.881  30.416  29.032  1.00  0.00    -0.014 A 
BRANCH  31  32
ATOM     32  C   UNL A   1      38.087  30.102  29.841  1.00  0.00     0.031 A 
ATOM     33  C   UNL A   1      39.105  29.126  29.322  1.00  0.00     0.074 A 
ATOM     34  C   UNL A   1      38.276  30.707  31.028  1.00  0.00     0.049 A 
ATOM     35  N   UNL A   1      40.209  28.700  29.883  1.00  0.00    -0.248 NA
ATOM     36  C   UNL A   1      38.839  28.549  27.998  1.00  0.00     0.031 C 
ATOM     37  C   UNL A   1      37.371  31.690  31.623  1.00  0.00     0.029 A 
ATOM     38  N   UNL A   1      39.288  30.583  31.946  1.00  0.00    -0.354 N 
ATOM     39  C   UNL A   1      40.771  27.801  28.982  1.00  0.00     0.074 A 
ATOM     40  C   UNL A   1      39.860  27.716  27.858  1.00  0.00     0.031 C 
ATOM     41  C   UNL A   1      37.868  32.079  32.808  1.00  0.00     0.029 A 
ATOM     42  C   UNL A   1      39.103  31.345  33.075  1.00  0.00     0.049 A 
ATOM     43  H   UNL A   1      40.072  30.003  31.810  1.00  0.00     0.167 HD
ATOM     44  C   UNL A   1      41.941  27.120  29.081  1.00  0.00     0.034 A 
ATOM     45  C   UNL A   1      39.831  31.424  34.207  1.00  0.00     0.034 A 
ATOM     46  C   UNL A   1      42.828  27.204  30.218  1.00  0.00     0.049 A 
ATOM     47  C   UNL A   1      41.087  30.601  34.329  1.00  0.00     0.074 A 
ATOM     48  C   UNL A   1      44.045  26.574  30.412  1.00  0.00     0.029 A 
ATOM     49  N   UNL A   1      42.586  27.951  31.365  1.00  0.00    -0.354 N 
ATOM     50  N   UNL A   1      41.617  29.767  33.465  1.00  0.00    -0.248 NA
ATOM     51  C   UNL A   1      41.847  30.735  35.579  1.00  0.00     0.031 C 
ATOM     52  C   UNL A   1      44.503  26.882  31.699  1.00  0.00     0.029 A 
ATOM     53  C   UNL A   1      43.611  27.767  32.283  1.00  0.00     0.049 A 
ATOM     54  H   UNL A   1      41.800  28.527  31.506  1.00  0.00     0.167 HD
ATOM     55  C   UNL A   1      42.784  29.293  34.059  1.00  0.00     0.074 A 
ATOM     56  C   UNL A   1      42.886  29.947  35.348  1.00  0.00     0.031 C 
ATOM     57  C   UNL A   1      43.691  28.404  33.578  1.00  0.00     0.034 A 
BRANCH  44  58
ATOM     58  C   UNL A   1      42.291  26.187  27.944  1.00  0.00     0.023 A 
ATOM     59  C   UNL A   1      41.739  24.897  27.850  1.00  0.00     0.031 A 
ATOM     60  C   UNL A   1      43.228  26.573  26.970  1.00  0.00     0.131 A 
ATOM     61  C   UNL A   1      42.193  24.012  26.859  1.00  0.00     0.055 A 
ATOM     62  C   UNL A   1      43.612  25.717  25.936  1.00  0.00     0.041 A 
ATOM     63  F   UNL A   1      43.806  27.785  27.017  1.00  0.00    -0.206 F 
ATOM     64  C   UNL A   1      43.109  24.421  25.887  1.00  0.00     0.022 A 
BRANCH  61  65
ATOM     65  S   UNL A   1      41.696  22.269  26.964  1.00  0.00     0.124 S 
ATOM     66  O   UNL A   1      40.274  22.384  27.277  1.00  0.00    -0.237 OA
ATOM     67  O   UNL A   1      42.018  21.769  25.632  1.00  0.00    -0.237 OA
ATOM     68  O   UNL A   1      42.522  21.741  28.047  1.00  0.00    -0.744 OA
ENDBRANCH  61  65
ENDBRANCH  44  58
BRANCH  45  69
ATOM     69  C   UNL A   1      39.367  32.283  35.332  1.00  0.00     0.023 A 
ATOM     70  C   UNL A   1      39.818  33.604  35.477  1.00  0.00     0.031 A 
ATOM     71  C   UNL A   1      38.476  31.779  36.297  1.00  0.00     0.131 A 
ATOM     72  C   UNL A   1      39.401  34.367  36.579  1.00  0.00     0.055 A 
ATOM     73  C   UNL A   1      38.026  32.558  37.365  1.00  0.00     0.041 A 
ATOM     74  F   UNL A   1      38.014  30.522  36.204  1.00  0.00    -0.206 F 
ATOM     75  C   UNL A   1      38.497  33.857  37.515  1.00  0.00     0.022 A 
BRANCH  72  76
ATOM     76  S   UNL A   1      40.102  36.024  36.806  1.00  0.00     0.124 S 
ATOM     77  O   UNL A   1      39.424  36.472  38.017  1.00  0.00    -0.237 OA
ATOM     78  O   UNL A   1      41.526  35.736  36.937  1.00  0.00    -0.237 OA
ATOM     79  O   UNL A   1      39.722  36.726  35.581  1.00  0.00    -0.744 OA
ENDBRANCH  72  76
ENDBRANCH  45  69
BRANCH  57  80
ATOM     80  C   UNL A   1      44.894  28.118  34.446  1.00  0.00     0.023 A 
ATOM     81  C   UNL A   1      44.905  27.060  35.372  1.00  0.00     0.031 A 
ATOM     82  C   UNL A   1      46.040  28.928  34.354  1.00  0.00     0.131 A 
ATOM     83  C   UNL A   1      46.018  26.872  36.207  1.00  0.00     0.055 A 
ATOM     84  C   UNL A   1      47.167  28.702  35.147  1.00  0.00     0.041 A 
ATOM     85  F   UNL A   1      46.084  29.954  33.489  1.00  0.00    -0.206 F 
ATOM     86  C   UNL A   1      47.154  27.677  36.088  1.00  0.00     0.022 A 
BRANCH  83  87
ATOM     87  S   UNL A   1      45.929  25.616  37.512  1.00  0.00     0.124 S 
ATOM     88  O   UNL A   1      45.016  26.236  38.468  1.00  0.00    -0.237 OA
ATOM     89  O   UNL A   1      45.411  24.455  36.795  1.00  0.00    -0.237 OA
ATOM     90  O   UNL A   1      47.313  25.494  37.967  1.00  0.00    -0.744 OA
ENDBRANCH  83  87
ENDBRANCH  57  80
ENDBRANCH  31  32
ENDBRANCH  24  26
ENDBRANCH  23  24
ENDBRANCH  22  23
ENDBRANCH   1  22
TORSDOF 19
ENDMDL
MODEL 3
REMARK VINA RESULT:     -10.1      4.731      9.909
REMARK SMILES CN(CC(N)=O)C(=O)c1csc(/C=C/C(=O)OCCOC(=O)c2ccc(-c3c4nc(c(-c5cc(S(=O)(=O)[O-])ccc5F)c5ccc([nH]5)c(-c5cc(S(=O)(=O)[O-])ccc5F)c5nc(c(-c6cc(S(=O)(=O)[O-])ccc6F)c6ccc3[nH]6)C=C5)C=C4)cc2)c1
REMARK SMILES IDX 18 1 17 2 15 3 16 4 14 5 13 6 12 7 9 8 10 9 86 10 11 11 7 12
REMARK SMILES IDX 8 13 2 14 1 15 3 16 4 17 5 18 6 19 19 22 20 23 21 24 22 25
REMARK SMILES IDX 23 26 24 27 85 28 25 29 84 30 26 31 27 32 28 33 78 34 29 35
REMARK SMILES IDX 83 36 77 37 79 38 30 39 82 40 76 41 75 42 31 44 63 45 43 46
REMARK SMILES IDX 62 47 44 48 47 49 61 50 80 51 45 52 46 53 60 55 81 56 48 57
REMARK SMILES IDX 32 58 33 59 41 60 34 61 40 62 42 63 39 64 35 65 36 66 37 67
REMARK SMILES IDX 38 68 64 69 65 70 73 71 66 72 72 73 74 74 71 75 67 76 68 77
REMARK SMILES IDX 69 78 70 79 49 80 50 81 58 82 51 83 57 84 59 85 56 86 52 87
REMARK SMILES IDX 53 88 54 89 55 90
REMARK H PARENT 5 20 5 21 79 43 47 54
REMARK Flexibility Score: inf
ROOT
ATOM      1  C   UNL A   1      31.821  30.047  25.988  1.00  0.00     0.275 C 
ENDROOT
BRANCH   1   2
ATOM      2  O   UNL A   1      32.798  29.276  25.265  1.00  0.00    -0.459 OA
BRANCH   2   3
ATOM      3  C   UNL A   1      32.309  28.538  24.241  1.00  0.00     0.330 C 
ATOM      4  O   UNL A   1      32.041  28.953  23.123  1.00  0.00    -0.247 OA
BRANCH   3   5
ATOM      5  C   UNL A   1      32.144  27.112  24.580  1.00  0.00     0.095 C 
ATOM      6  C   UNL A   1      32.376  26.553  25.778  1.00  0.00     0.026 C 
BRANCH   6   7
ATOM      7  C   UNL A   1      32.208  25.151  26.023  1.00  0.00     0.028 A 
ATOM      8  C   UNL A   1      32.698  22.860  26.391  1.00  0.00     0.051 A 
ATOM      9  C   UNL A   1      31.325  22.883  26.529  1.00  0.00     0.079 A 
ATOM     10  C   UNL A   1      33.195  24.182  26.121  1.00  0.00     0.033 A 
ATOM     11  S   UNL A   1      30.657  24.415  26.208  1.00  0.00    -0.144 S 
BRANCH   8  12
ATOM     12  C   UNL A   1      33.520  21.673  26.615  1.00  0.00     0.254 C 
ATOM     13  O   UNL A   1      34.020  21.472  27.720  1.00  0.00    -0.269 OA
BRANCH  12  14
ATOM     14  N   UNL A   1      33.726  20.805  25.544  1.00  0.00    -0.332 N 
ATOM     15  C   UNL A   1      35.070  20.707  25.006  1.00  0.00     0.147 C 
BRANCH  14  16
ATOM     16  C   UNL A   1      32.668  20.058  24.856  1.00  0.00     0.219 C 
BRANCH  16  17
ATOM     17  C   UNL A   1      32.716  18.558  25.161  1.00  0.00     0.237 C 
ATOM     18  N   UNL A   1      32.793  18.232  26.484  1.00  0.00    -0.368 N 
ATOM     19  O   UNL A   1      32.669  17.684  24.300  1.00  0.00    -0.273 OA
ATOM     20  H   UNL A   1      32.830  18.942  27.166  1.00  0.00     0.159 HD
ATOM     21  H   UNL A   1      32.812  17.286  26.758  1.00  0.00     0.159 HD
ENDBRANCH  16  17
ENDBRANCH  14  16
ENDBRANCH  12  14
ENDBRANCH   8  12
ENDBRANCH   6   7
ENDBRANCH   3   5
ENDBRANCH   2   3
ENDBRANCH   1   2
BRANCH   1  22
ATOM     22  C   UNL A   1      32.456  30.847  27.130  1.00  0.00     0.275 C 
BRANCH  22  23
ATOM     23  O   UNL A   1      33.886  30.945  27.002  1.00  0.00    -0.458 OA
BRANCH  23  24
ATOM     24  C   UNL A   1      34.500  31.670  27.970  1.00  0.00     0.338 C 
ATOM     25  O   UNL A   1      34.053  32.654  28.535  1.00  0.00    -0.246 OA
BRANCH  24  26
ATOM     26  C   UNL A   1      35.773  31.032  28.351  1.00  0.00     0.060 A 
ATOM     27  C   UNL A   1      35.722  29.757  28.921  1.00  0.00     0.016 A 
ATOM     28  C   UNL A   1      36.995  31.699  28.217  1.00  0.00     0.016 A 
ATOM     29  C   UNL A   1      36.894  29.145  29.368  1.00  0.00     0.010 A 
ATOM     30  C   UNL A   1      38.170  31.082  28.666  1.00  0.00     0.010 A 
ATOM     31  C   UNL A   1      38.124  29.807  29.256  1.00  0.00    -0.014 A 
BRANCH  31  32
ATOM     32  C   UNL A   1      39.352  29.176  29.802  1.00  0.00     0.031 A 
ATOM     33  C   UNL A   1      39.996  29.735  31.040  1.00  0.00     0.074 A 
ATOM     34  C   UNL A   1      39.877  28.094  29.200  1.00  0.00     0.049 A 
ATOM     35  N   UNL A   1      41.081  29.347  31.660  1.00  0.00    -0.248 NA
ATOM     36  C   UNL A   1      39.328  30.890  31.656  1.00  0.00     0.031 C 
ATOM     37  C   UNL A   1      39.327  27.447  28.008  1.00  0.00     0.029 A 
ATOM     38  N   UNL A   1      40.988  27.349  29.504  1.00  0.00    -0.354 N 
ATOM     39  C   UNL A   1      41.232  30.210  32.741  1.00  0.00     0.074 A 
ATOM     40  C   UNL A   1      40.146  31.167  32.661  1.00  0.00     0.031 C 
ATOM     41  C   UNL A   1      40.105  26.402  27.682  1.00  0.00     0.029 A 
ATOM     42  C   UNL A   1      41.228  26.329  28.613  1.00  0.00     0.049 A 
ATOM     43  H   UNL A   1      41.560  27.527  30.285  1.00  0.00     0.167 HD
ATOM     44  C   UNL A   1      42.181  30.198  33.711  1.00  0.00     0.034 A 
ATOM     45  C   UNL A   1      42.250  25.453  28.541  1.00  0.00     0.034 A 
ATOM     46  C   UNL A   1      43.268  29.247  33.763  1.00  0.00     0.049 A 
ATOM     47  C   UNL A   1      43.336  25.505  29.584  1.00  0.00     0.074 A 
ATOM     48  C   UNL A   1      44.270  29.133  34.711  1.00  0.00     0.029 A 
ATOM     49  N   UNL A   1      43.505  28.256  32.818  1.00  0.00    -0.354 N 
ATOM     50  N   UNL A   1      43.460  26.315  30.609  1.00  0.00    -0.248 NA
ATOM     51  C   UNL A   1      44.418  24.519  29.462  1.00  0.00     0.031 C 
ATOM     52  C   UNL A   1      45.151  28.123  34.302  1.00  0.00     0.029 A 
ATOM     53  C   UNL A   1      44.658  27.553  33.140  1.00  0.00     0.049 A 
ATOM     54  H   UNL A   1      42.938  28.079  32.033  1.00  0.00     0.167 HD
ATOM     55  C   UNL A   1      44.623  25.922  31.267  1.00  0.00     0.074 A 
ATOM     56  C   UNL A   1      45.153  24.794  30.530  1.00  0.00     0.031 C 
ATOM     57  C   UNL A   1      45.194  26.444  32.383  1.00  0.00     0.034 A 
BRANCH  44  58
ATOM     58  C   UNL A   1      42.106  31.285  34.759  1.00  0.00     0.023 A 
ATOM     59  C   UNL A   1      42.869  32.462  34.660  1.00  0.00     0.031 A 
ATOM     60  C   UNL A   1      41.300  31.119  35.899  1.00  0.00     0.131 A 
ATOM     61  C   UNL A   1      42.877  33.383  35.720  1.00  0.00     0.055 A 
ATOM     62  C   UNL A   1      41.247  32.080  36.910  1.00  0.00     0.041 A 
ATOM     63  F   UNL A   1      40.565  30.007  36.061  1.00  0.00    -0.206 F 
ATOM     64  C   UNL A   1      42.053  33.211  36.834  1.00  0.00     0.022 A 
BRANCH  61  65
ATOM     65  S   UNL A   1      44.104  34.720  35.694  1.00  0.00     0.124 S 
ATOM     66  O   UNL A   1      43.301  35.869  36.101  1.00  0.00    -0.237 OA
ATOM     67  O   UNL A   1      45.094  34.258  36.661  1.00  0.00    -0.237 OA
ATOM     68  O   UNL A   1      44.553  34.746  34.304  1.00  0.00    -0.744 OA
ENDBRANCH  61  65
ENDBRANCH  44  58
BRANCH  45  69
ATOM     69  C   UNL A   1      42.316  24.478  27.416  1.00  0.00     0.023 A 
ATOM     70  C   UNL A   1      41.594  23.276  27.447  1.00  0.00     0.031 A 
ATOM     71  C   UNL A   1      43.128  24.733  26.296  1.00  0.00     0.131 A 
ATOM     72  C   UNL A   1      41.722  22.357  26.393  1.00  0.00     0.055 A 
ATOM     73  C   UNL A   1      43.215  23.838  25.228  1.00  0.00     0.041 A 
ATOM     74  F   UNL A   1      43.839  25.870  26.217  1.00  0.00    -0.206 F 
ATOM     75  C   UNL A   1      42.516  22.637  25.278  1.00  0.00     0.022 A 
BRANCH  72  76
ATOM     76  S   UNL A   1      40.878  20.757  26.525  1.00  0.00     0.124 S 
ATOM     77  O   UNL A   1      40.957  20.496  27.958  1.00  0.00    -0.237 OA
ATOM     78  O   UNL A   1      39.552  21.069  26.002  1.00  0.00    -0.237 OA
ATOM     79  O   UNL A   1      41.685  19.876  25.684  1.00  0.00    -0.744 OA
ENDBRANCH  72  76
ENDBRANCH  45  69
BRANCH  57  80
ATOM     80  C   UNL A   1      46.446  25.767  32.890  1.00  0.00     0.023 A 
ATOM     81  C   UNL A   1      47.712  26.048  32.347  1.00  0.00     0.031 A 
ATOM     82  C   UNL A   1      46.365  24.813  33.921  1.00  0.00     0.131 A 
ATOM     83  C   UNL A   1      48.840  25.345  32.802  1.00  0.00     0.055 A 
ATOM     84  C   UNL A   1      47.498  24.159  34.408  1.00  0.00     0.041 A 
ATOM     85  F   UNL A   1      45.182  24.503  34.474  1.00  0.00    -0.206 F 
ATOM     86  C   UNL A   1      48.742  24.414  33.839  1.00  0.00     0.022 A 
BRANCH  83  87
ATOM     87  S   UNL A   1      50.426  25.599  31.959  1.00  0.00     0.124 S 
ATOM     88  O   UNL A   1      50.212  26.879  31.289  1.00  0.00    -0.237 OA
ATOM     89  O   UNL A   1      51.373  25.610  33.069  1.00  0.00    -0.237 OA
ATOM     90  O   UNL A   1      50.530  24.444  31.069  1.00  0.00    -0.744 OA
ENDBRANCH  83  87
ENDBRANCH  57  80
ENDBRANCH  31  32
ENDBRANCH  24  26
ENDBRANCH  23  24
ENDBRANCH  22  23
ENDBRANCH   1  22
TORSDOF 19
ENDMDL
