MODEL 1
REMARK VINA RESULT:     -13.1      0.000      0.000
REMARK SMILES Cc1cc(C(=O)OCCOC(=O)c2ccc(-c3c4nc(c(-c5cc(S(=O)(=O)[O-])ccc5F)c5ccc([nH]5)c(-c5cc(S(=O)(=O)[O-])ccc5F)c5nc(c(-c6cc(S(=O)(=O)[O-])ccc6F)c6ccc3[nH]6)C=C5)C=C4)cc2)ccc1NS(=O)(=O)c1ccc2c(c1)CCC2
REMARK SMILES IDX 8 1 7 2 5 3 6 4 4 5 1 6 2 7 3 8 78 9 77 10 76 11 79 12 80 14
REMARK SMILES IDX 81 15 82 16 83 17 84 18 88 19 85 20 87 21 86 22 89 23 91 24
REMARK SMILES IDX 90 25 9 26 10 27 11 28 12 29 13 30 14 31 75 32 15 33 74 34
REMARK SMILES IDX 16 35 17 36 18 37 68 38 19 39 73 40 67 41 69 42 20 43 72 44
REMARK SMILES IDX 66 45 65 46 21 48 53 49 33 50 52 51 34 52 37 53 51 54 70 55
REMARK SMILES IDX 35 56 36 57 50 59 71 60 38 61 22 62 23 63 31 64 24 65 30 66
REMARK SMILES IDX 32 67 29 68 25 69 26 70 27 71 28 72 54 73 55 74 63 75 56 76
REMARK SMILES IDX 62 77 64 78 61 79 57 80 58 81 59 82 60 83 39 84 40 85 48 86
REMARK SMILES IDX 41 87 47 88 49 89 46 90 42 91 43 92 44 93 45 94
REMARK H PARENT 79 13 69 47 37 58
REMARK Flexibility Score: inf
ROOT
ATOM      1  C   UNL A   1      33.119  28.844  26.077  1.00  0.00     0.275 C 
ENDROOT
BRANCH   1   2
ATOM      2  O   UNL A   1      32.896  29.383  24.758  1.00  0.00    -0.458 OA
BRANCH   2   3
ATOM      3  C   UNL A   1      31.620  29.159  24.337  1.00  0.00     0.338 C 
ATOM      4  O   UNL A   1      30.741  30.015  24.344  1.00  0.00    -0.246 OA
BRANCH   3   5
ATOM      5  C   UNL A   1      31.302  27.763  23.909  1.00  0.00     0.060 A 
ATOM      6  C   UNL A   1      32.622  24.562  22.362  1.00  0.00     0.046 C 
ATOM      7  C   UNL A   1      31.829  25.466  23.271  1.00  0.00    -0.026 A 
ATOM      8  C   UNL A   1      32.203  26.831  23.381  1.00  0.00     0.021 A 
ATOM      9  C   UNL A   1      30.594  25.057  23.810  1.00  0.00     0.052 A 
ATOM     10  C   UNL A   1      29.622  26.011  24.068  1.00  0.00     0.028 A 
ATOM     11  C   UNL A   1      29.974  27.356  24.110  1.00  0.00     0.018 A 
BRANCH   9  12
ATOM     12  N   UNL A   1      30.320  23.723  24.280  1.00  0.00    -0.279 N 
ATOM     13  H   UNL A   1      29.756  23.111  23.753  1.00  0.00     0.180 HD
BRANCH  12  14
ATOM     14  S   UNL A   1      31.002  23.218  25.796  1.00  0.00     0.261 S 
ATOM     15  O   UNL A   1      31.044  24.434  26.606  1.00  0.00    -0.201 OA
ATOM     16  O   UNL A   1      30.242  22.088  26.256  1.00  0.00    -0.201 OA
BRANCH  14  17
ATOM     17  C   UNL A   1      32.697  22.675  25.593  1.00  0.00     0.088 A 
ATOM     18  C   UNL A   1      32.959  21.390  25.093  1.00  0.00     0.022 A 
ATOM     19  C   UNL A   1      33.768  23.493  25.980  1.00  0.00     0.026 A 
ATOM     20  C   UNL A   1      34.243  21.045  24.658  1.00  0.00     0.005 A 
ATOM     21  C   UNL A   1      35.056  23.080  25.662  1.00  0.00    -0.043 A 
ATOM     22  C   UNL A   1      35.273  21.931  24.895  1.00  0.00    -0.045 A 
ATOM     23  C   UNL A   1      36.374  23.669  26.055  1.00  0.00     0.036 C 
ATOM     24  C   UNL A   1      36.698  21.838  24.444  1.00  0.00     0.036 C 
ATOM     25  C   UNL A   1      37.254  23.203  24.890  1.00  0.00     0.010 C 
ENDBRANCH  14  17
ENDBRANCH  12  14
ENDBRANCH   9  12
ENDBRANCH   3   5
ENDBRANCH   2   3
ENDBRANCH   1   2
BRANCH   1  26
ATOM     26  C   UNL A   1      33.470  29.858  27.186  1.00  0.00     0.275 C 
BRANCH  26  27
ATOM     27  O   UNL A   1      34.737  30.557  27.224  1.00  0.00    -0.458 OA
BRANCH  27  28
ATOM     28  C   UNL A   1      35.322  30.892  28.398  1.00  0.00     0.338 C 
ATOM     29  O   UNL A   1      34.733  31.478  29.296  1.00  0.00    -0.246 OA
BRANCH  28  30
ATOM     30  C   UNL A   1      36.667  30.291  28.552  1.00  0.00     0.060 A 
ATOM     31  C   UNL A   1      36.904  29.465  29.662  1.00  0.00     0.016 A 
ATOM     32  C   UNL A   1      37.559  30.325  27.480  1.00  0.00     0.016 A 
ATOM     33  C   UNL A   1      37.989  28.601  29.662  1.00  0.00     0.010 A 
ATOM     34  C   UNL A   1      38.527  29.358  27.397  1.00  0.00     0.010 A 
ATOM     35  C   UNL A   1      38.773  28.543  28.510  1.00  0.00    -0.014 A 
BRANCH  35  36
ATOM     36  C   UNL A   1      40.114  27.992  28.505  1.00  0.00     0.031 A 
ATOM     37  C   UNL A   1      40.375  26.580  28.211  1.00  0.00     0.074 A 
ATOM     38  C   UNL A   1      41.027  28.965  28.712  1.00  0.00     0.049 A 
ATOM     39  N   UNL A   1      41.387  25.921  28.650  1.00  0.00    -0.248 NA
ATOM     40  C   UNL A   1      39.462  25.744  27.434  1.00  0.00     0.031 C 
ATOM     41  C   UNL A   1      42.467  28.996  28.578  1.00  0.00     0.029 A 
ATOM     42  N   UNL A   1      40.732  30.195  29.298  1.00  0.00    -0.354 N 
ATOM     43  C   UNL A   1      41.452  24.742  27.931  1.00  0.00     0.074 A 
ATOM     44  C   UNL A   1      40.146  24.597  27.344  1.00  0.00     0.031 C 
ATOM     45  C   UNL A   1      42.935  30.026  29.320  1.00  0.00     0.029 A 
ATOM     46  C   UNL A   1      41.808  30.596  30.061  1.00  0.00     0.049 A 
ATOM     47  H   UNL A   1      39.892  30.694  29.187  1.00  0.00     0.167 HD
ATOM     48  C   UNL A   1      42.675  24.162  27.744  1.00  0.00     0.034 A 
ATOM     49  C   UNL A   1      41.639  30.559  31.417  1.00  0.00     0.034 A 
ATOM     50  C   UNL A   1      43.688  24.956  28.441  1.00  0.00     0.049 A 
ATOM     51  C   UNL A   1      42.489  29.454  31.997  1.00  0.00     0.074 A 
ATOM     52  C   UNL A   1      44.520  25.970  27.994  1.00  0.00     0.029 A 
ATOM     53  N   UNL A   1      43.650  25.049  29.825  1.00  0.00    -0.354 N 
ATOM     54  N   UNL A   1      42.746  28.319  31.397  1.00  0.00    -0.248 NA
ATOM     55  C   UNL A   1      43.230  29.634  33.236  1.00  0.00     0.031 C 
ATOM     56  C   UNL A   1      44.878  26.754  29.124  1.00  0.00     0.029 A 
ATOM     57  C   UNL A   1      44.281  26.202  30.247  1.00  0.00     0.049 A 
ATOM     58  H   UNL A   1      43.232  24.386  30.421  1.00  0.00     0.167 HD
ATOM     59  C   UNL A   1      43.747  27.677  32.081  1.00  0.00     0.074 A 
ATOM     60  C   UNL A   1      44.000  28.534  33.232  1.00  0.00     0.031 C 
ATOM     61  C   UNL A   1      44.349  26.522  31.661  1.00  0.00     0.034 A 
BRANCH  48  62
ATOM     62  C   UNL A   1      43.052  23.129  26.698  1.00  0.00     0.023 A 
ATOM     63  C   UNL A   1      42.638  21.791  26.904  1.00  0.00     0.031 A 
ATOM     64  C   UNL A   1      43.818  23.342  25.537  1.00  0.00     0.131 A 
ATOM     65  C   UNL A   1      43.034  20.745  26.049  1.00  0.00     0.055 A 
ATOM     66  C   UNL A   1      44.226  22.296  24.690  1.00  0.00     0.041 A 
ATOM     67  F   UNL A   1      44.179  24.566  25.137  1.00  0.00    -0.206 F 
ATOM     68  C   UNL A   1      43.843  20.988  24.948  1.00  0.00     0.022 A 
BRANCH  65  69
ATOM     69  S   UNL A   1      42.481  19.056  26.417  1.00  0.00     0.124 S 
ATOM     70  O   UNL A   1      43.607  18.255  25.949  1.00  0.00    -0.237 OA
ATOM     71  O   UNL A   1      42.274  19.103  27.861  1.00  0.00    -0.237 OA
ATOM     72  O   UNL A   1      41.258  18.920  25.625  1.00  0.00    -0.744 OA
ENDBRANCH  65  69
ENDBRANCH  48  62
BRANCH  49  73
ATOM     73  C   UNL A   1      40.274  30.978  31.907  1.00  0.00     0.023 A 
ATOM     74  C   UNL A   1      39.743  32.196  31.412  1.00  0.00     0.031 A 
ATOM     75  C   UNL A   1      39.387  30.152  32.611  1.00  0.00     0.131 A 
ATOM     76  C   UNL A   1      38.372  32.488  31.494  1.00  0.00     0.055 A 
ATOM     77  C   UNL A   1      38.023  30.479  32.754  1.00  0.00     0.041 A 
ATOM     78  F   UNL A   1      39.793  28.973  33.105  1.00  0.00    -0.206 F 
ATOM     79  C   UNL A   1      37.502  31.633  32.166  1.00  0.00     0.022 A 
BRANCH  76  80
ATOM     80  S   UNL A   1      37.724  33.858  30.486  1.00  0.00     0.124 S 
ATOM     81  O   UNL A   1      36.326  33.909  30.901  1.00  0.00    -0.237 OA
ATOM     82  O   UNL A   1      38.559  34.980  30.910  1.00  0.00    -0.237 OA
ATOM     83  O   UNL A   1      37.957  33.416  29.116  1.00  0.00    -0.744 OA
ENDBRANCH  76  80
ENDBRANCH  49  73
BRANCH  61  84
ATOM     84  C   UNL A   1      45.165  25.627  32.557  1.00  0.00     0.023 A 
ATOM     85  C   UNL A   1      44.591  24.549  33.236  1.00  0.00     0.031 A 
ATOM     86  C   UNL A   1      46.568  25.759  32.685  1.00  0.00     0.131 A 
ATOM     87  C   UNL A   1      45.343  23.764  34.113  1.00  0.00     0.055 A 
ATOM     88  C   UNL A   1      47.342  24.884  33.451  1.00  0.00     0.041 A 
ATOM     89  F   UNL A   1      47.254  26.730  32.063  1.00  0.00    -0.206 F 
ATOM     90  C   UNL A   1      46.725  23.896  34.202  1.00  0.00     0.022 A 
BRANCH  87  91
ATOM     91  S   UNL A   1      44.431  22.678  35.230  1.00  0.00     0.124 S 
ATOM     92  O   UNL A   1      45.047  22.997  36.518  1.00  0.00    -0.237 OA
ATOM     93  O   UNL A   1      43.055  23.136  35.061  1.00  0.00    -0.237 OA
ATOM     94  O   UNL A   1      44.715  21.341  34.718  1.00  0.00    -0.744 OA
ENDBRANCH  87  91
ENDBRANCH  61  84
ENDBRANCH  35  36
ENDBRANCH  28  30
ENDBRANCH  27  28
ENDBRANCH  26  27
ENDBRANCH   1  26
TORSDOF 17
ENDMDL
MODEL 2
REMARK VINA RESULT:     -13.0      1.978      2.658
REMARK SMILES Cc1cc(C(=O)OCCOC(=O)c2ccc(-c3c4nc(c(-c5cc(S(=O)(=O)[O-])ccc5F)c5ccc([nH]5)c(-c5cc(S(=O)(=O)[O-])ccc5F)c5nc(c(-c6cc(S(=O)(=O)[O-])ccc6F)c6ccc3[nH]6)C=C5)C=C4)cc2)ccc1NS(=O)(=O)c1ccc2c(c1)CCC2
REMARK SMILES IDX 8 1 7 2 5 3 6 4 4 5 1 6 2 7 3 8 78 9 77 10 76 11 79 12 80 14
REMARK SMILES IDX 81 15 82 16 83 17 84 18 88 19 85 20 87 21 86 22 89 23 91 24
REMARK SMILES IDX 90 25 9 26 10 27 11 28 12 29 13 30 14 31 75 32 15 33 74 34
REMARK SMILES IDX 16 35 17 36 18 37 68 38 19 39 73 40 67 41 69 42 20 43 72 44
REMARK SMILES IDX 66 45 65 46 21 48 53 49 33 50 52 51 34 52 37 53 51 54 70 55
REMARK SMILES IDX 35 56 36 57 50 59 71 60 38 61 22 62 23 63 31 64 24 65 30 66
REMARK SMILES IDX 32 67 29 68 25 69 26 70 27 71 28 72 54 73 55 74 63 75 56 76
REMARK SMILES IDX 62 77 64 78 61 79 57 80 58 81 59 82 60 83 39 84 40 85 48 86
REMARK SMILES IDX 41 87 47 88 49 89 46 90 42 91 43 92 44 93 45 94
REMARK H PARENT 79 13 69 47 37 58
REMARK Flexibility Score: inf
ROOT
ATOM      1  C   UNL A   1      32.850  30.333  27.207  1.00  0.00     0.275 C 
ENDROOT
BRANCH   1   2
ATOM      2  O   UNL A   1      33.038  28.907  27.107  1.00  0.00    -0.458 OA
BRANCH   2   3
ATOM      3  C   UNL A   1      31.848  28.253  27.003  1.00  0.00     0.338 C 
ATOM      4  O   UNL A   1      31.219  27.828  27.967  1.00  0.00    -0.246 OA
BRANCH   3   5
ATOM      5  C   UNL A   1      31.350  28.005  25.616  1.00  0.00     0.060 A 
ATOM      6  C   UNL A   1      30.542  29.528  22.238  1.00  0.00     0.046 C 
ATOM      7  C   UNL A   1      31.025  28.523  23.252  1.00  0.00    -0.026 A 
ATOM      8  C   UNL A   1      31.258  28.949  24.586  1.00  0.00     0.021 A 
ATOM      9  C   UNL A   1      31.011  27.143  22.975  1.00  0.00     0.052 A 
ATOM     10  C   UNL A   1      30.828  26.248  24.017  1.00  0.00     0.028 A 
ATOM     11  C   UNL A   1      30.990  26.679  25.330  1.00  0.00     0.018 A 
BRANCH   9  12
ATOM     12  N   UNL A   1      31.347  26.572  21.696  1.00  0.00    -0.279 N 
ATOM     13  H   UNL A   1      30.687  26.553  20.965  1.00  0.00     0.180 HD
BRANCH  12  14
ATOM     14  S   UNL A   1      32.940  25.915  21.469  1.00  0.00     0.261 S 
ATOM     15  O   UNL A   1      32.902  25.304  20.141  1.00  0.00    -0.201 OA
ATOM     16  O   UNL A   1      33.883  26.967  21.737  1.00  0.00    -0.201 OA
BRANCH  14  17
ATOM     17  C   UNL A   1      33.267  24.595  22.635  1.00  0.00     0.088 A 
ATOM     18  C   UNL A   1      34.135  24.823  23.715  1.00  0.00     0.022 A 
ATOM     19  C   UNL A   1      32.714  23.319  22.454  1.00  0.00     0.026 A 
ATOM     20  C   UNL A   1      34.188  23.923  24.785  1.00  0.00     0.005 A 
ATOM     21  C   UNL A   1      32.883  22.383  23.467  1.00  0.00    -0.043 A 
ATOM     22  C   UNL A   1      33.503  22.731  24.671  1.00  0.00    -0.045 A 
ATOM     23  C   UNL A   1      32.527  20.930  23.495  1.00  0.00     0.036 C 
ATOM     24  C   UNL A   1      33.325  21.662  25.705  1.00  0.00     0.036 C 
ATOM     25  C   UNL A   1      32.338  20.712  25.001  1.00  0.00     0.010 C 
ENDBRANCH  14  17
ENDBRANCH  12  14
ENDBRANCH   9  12
ENDBRANCH   3   5
ENDBRANCH   2   3
ENDBRANCH   1   2
BRANCH   1  26
ATOM     26  C   UNL A   1      34.077  31.163  27.640  1.00  0.00     0.275 C 
BRANCH  26  27
ATOM     27  O   UNL A   1      35.342  30.551  27.988  1.00  0.00    -0.458 OA
BRANCH  27  28
ATOM     28  C   UNL A   1      36.002  30.895  29.120  1.00  0.00     0.338 C 
ATOM     29  O   UNL A   1      35.516  31.606  29.988  1.00  0.00    -0.246 OA
BRANCH  28  30
ATOM     30  C   UNL A   1      37.275  30.153  29.280  1.00  0.00     0.060 A 
ATOM     31  C   UNL A   1      37.288  29.031  30.124  1.00  0.00     0.016 A 
ATOM     32  C   UNL A   1      38.328  30.402  28.401  1.00  0.00     0.016 A 
ATOM     33  C   UNL A   1      38.316  28.105  30.026  1.00  0.00     0.010 A 
ATOM     34  C   UNL A   1      39.248  29.411  28.178  1.00  0.00     0.010 A 
ATOM     35  C   UNL A   1      39.272  28.298  29.029  1.00  0.00    -0.014 A 
BRANCH  35  36
ATOM     36  C   UNL A   1      40.568  27.648  29.052  1.00  0.00     0.031 A 
ATOM     37  C   UNL A   1      40.752  26.262  28.615  1.00  0.00     0.074 A 
ATOM     38  C   UNL A   1      41.527  28.518  29.434  1.00  0.00     0.049 A 
ATOM     39  N   UNL A   1      41.679  25.481  29.043  1.00  0.00    -0.248 NA
ATOM     40  C   UNL A   1      39.846  25.591  27.685  1.00  0.00     0.031 C 
ATOM     41  C   UNL A   1      42.972  28.453  29.405  1.00  0.00     0.029 A 
ATOM     42  N   UNL A   1      41.274  29.695  30.137  1.00  0.00    -0.354 N 
ATOM     43  C   UNL A   1      41.717  24.388  28.199  1.00  0.00     0.074 A 
ATOM     44  C   UNL A   1      40.454  24.411  27.510  1.00  0.00     0.031 C 
ATOM     45  C   UNL A   1      43.452  29.354  30.292  1.00  0.00     0.029 A 
ATOM     46  C   UNL A   1      42.313  29.924  31.014  1.00  0.00     0.049 A 
ATOM     47  H   UNL A   1      40.481  30.267  30.026  1.00  0.00     0.167 HD
ATOM     48  C   UNL A   1      42.908  23.739  28.031  1.00  0.00     0.034 A 
ATOM     49  C   UNL A   1      42.036  29.751  32.342  1.00  0.00     0.034 A 
ATOM     50  C   UNL A   1      43.916  24.370  28.883  1.00  0.00     0.049 A 
ATOM     51  C   UNL A   1      42.760  28.525  32.846  1.00  0.00     0.074 A 
ATOM     52  C   UNL A   1      44.849  25.359  28.617  1.00  0.00     0.029 A 
ATOM     53  N   UNL A   1      43.778  24.312  30.263  1.00  0.00    -0.354 N 
ATOM     54  N   UNL A   1      42.984  27.447  32.138  1.00  0.00    -0.248 NA
ATOM     55  C   UNL A   1      43.413  28.509  34.147  1.00  0.00     0.031 C 
ATOM     56  C   UNL A   1      45.171  25.983  29.852  1.00  0.00     0.029 A 
ATOM     57  C   UNL A   1      44.452  25.358  30.859  1.00  0.00     0.049 A 
ATOM     58  H   UNL A   1      43.270  23.621  30.748  1.00  0.00     0.167 HD
ATOM     59  C   UNL A   1      43.881  26.657  32.811  1.00  0.00     0.074 A 
ATOM     60  C   UNL A   1      44.103  27.360  34.068  1.00  0.00     0.031 C 
ATOM     61  C   UNL A   1      44.432  25.513  32.302  1.00  0.00     0.034 A 
BRANCH  48  62
ATOM     62  C   UNL A   1      43.293  22.802  26.901  1.00  0.00     0.023 A 
ATOM     63  C   UNL A   1      42.790  21.479  26.933  1.00  0.00     0.031 A 
ATOM     64  C   UNL A   1      44.142  23.089  25.817  1.00  0.00     0.131 A 
ATOM     65  C   UNL A   1      43.180  20.507  25.992  1.00  0.00     0.055 A 
ATOM     66  C   UNL A   1      44.545  22.116  24.884  1.00  0.00     0.041 A 
ATOM     67  F   UNL A   1      44.598  24.323  25.576  1.00  0.00    -0.206 F 
ATOM     68  C   UNL A   1      44.072  20.814  24.973  1.00  0.00     0.022 A 
BRANCH  65  69
ATOM     69  S   UNL A   1      42.510  18.827  26.137  1.00  0.00     0.124 S 
ATOM     70  O   UNL A   1      41.116  19.017  25.751  1.00  0.00    -0.237 OA
ATOM     71  O   UNL A   1      43.345  18.077  25.204  1.00  0.00    -0.237 OA
ATOM     72  O   UNL A   1      42.719  18.499  27.547  1.00  0.00    -0.744 OA
ENDBRANCH  65  69
ENDBRANCH  48  62
BRANCH  49  73
ATOM     73  C   UNL A   1      40.670  30.218  32.781  1.00  0.00     0.023 A 
ATOM     74  C   UNL A   1      40.369  31.596  32.640  1.00  0.00     0.031 A 
ATOM     75  C   UNL A   1      39.593  29.373  33.083  1.00  0.00     0.131 A 
ATOM     76  C   UNL A   1      39.045  32.065  32.654  1.00  0.00     0.055 A 
ATOM     77  C   UNL A   1      38.271  29.855  33.167  1.00  0.00     0.041 A 
ATOM     78  F   UNL A   1      39.776  28.052  33.223  1.00  0.00    -0.206 F 
ATOM     79  C   UNL A   1      37.987  31.200  32.919  1.00  0.00     0.022 A 
BRANCH  76  80
ATOM     80  S   UNL A   1      38.727  33.757  32.063  1.00  0.00     0.124 S 
ATOM     81  O   UNL A   1      37.970  34.331  33.170  1.00  0.00    -0.237 OA
ATOM     82  O   UNL A   1      40.079  34.281  31.873  1.00  0.00    -0.237 OA
ATOM     83  O   UNL A   1      37.979  33.555  30.827  1.00  0.00    -0.744 OA
ENDBRANCH  76  80
ENDBRANCH  49  73
BRANCH  61  84
ATOM     84  C   UNL A   1      45.112  24.463  33.142  1.00  0.00     0.023 A 
ATOM     85  C   UNL A   1      46.399  24.651  33.651  1.00  0.00     0.031 A 
ATOM     86  C   UNL A   1      44.455  23.278  33.551  1.00  0.00     0.131 A 
ATOM     87  C   UNL A   1      47.044  23.646  34.376  1.00  0.00     0.055 A 
ATOM     88  C   UNL A   1      45.051  22.338  34.394  1.00  0.00     0.041 A 
ATOM     89  F   UNL A   1      43.205  22.984  33.163  1.00  0.00    -0.206 F 
ATOM     90  C   UNL A   1      46.370  22.502  34.787  1.00  0.00     0.022 A 
BRANCH  87  91
ATOM     91  S   UNL A   1      48.823  23.829  34.628  1.00  0.00     0.124 S 
ATOM     92  O   UNL A   1      48.870  24.437  35.957  1.00  0.00    -0.237 OA
ATOM     93  O   UNL A   1      49.296  22.451  34.548  1.00  0.00    -0.237 OA
ATOM     94  O   UNL A   1      49.237  24.699  33.531  1.00  0.00    -0.744 OA
ENDBRANCH  87  91
ENDBRANCH  61  84
ENDBRANCH  35  36
ENDBRANCH  28  30
ENDBRANCH  27  28
ENDBRANCH  26  27
ENDBRANCH   1  26
TORSDOF 17
ENDMDL
MODEL 3
REMARK VINA RESULT:     -12.9      3.353      9.830
REMARK SMILES Cc1cc(C(=O)OCCOC(=O)c2ccc(-c3c4nc(c(-c5cc(S(=O)(=O)[O-])ccc5F)c5ccc([nH]5)c(-c5cc(S(=O)(=O)[O-])ccc5F)c5nc(c(-c6cc(S(=O)(=O)[O-])ccc6F)c6ccc3[nH]6)C=C5)C=C4)cc2)ccc1NS(=O)(=O)c1ccc2c(c1)CCC2
REMARK SMILES IDX 8 1 7 2 5 3 6 4 4 5 1 6 2 7 3 8 78 9 77 10 76 11 79 12 80 14
REMARK SMILES IDX 81 15 82 16 83 17 84 18 88 19 85 20 87 21 86 22 89 23 91 24
REMARK SMILES IDX 90 25 9 26 10 27 11 28 12 29 13 30 14 31 75 32 15 33 74 34
REMARK SMILES IDX 16 35 17 36 18 37 68 38 19 39 73 40 67 41 69 42 20 43 72 44
REMARK SMILES IDX 66 45 65 46 21 48 53 49 33 50 52 51 34 52 37 53 51 54 70 55
REMARK SMILES IDX 35 56 36 57 50 59 71 60 38 61 22 62 23 63 31 64 24 65 30 66
REMARK SMILES IDX 32 67 29 68 25 69 26 70 27 71 28 72 54 73 55 74 63 75 56 76
REMARK SMILES IDX 62 77 64 78 61 79 57 80 58 81 59 82 60 83 39 84 40 85 48 86
REMARK SMILES IDX 41 87 47 88 49 89 46 90 42 91 43 92 44 93 45 94
REMARK H PARENT 79 13 69 47 37 58
REMARK Flexibility Score: inf
ROOT
ATOM      1  C   UNL A   1      36.681  21.932  25.429  1.00  0.00     0.275 C 
ENDROOT
BRANCH   1   2
ATOM      2  O   UNL A   1      35.514  21.435  26.115  1.00  0.00    -0.458 OA
BRANCH   2   3
ATOM      3  C   UNL A   1      34.692  20.752  25.271  1.00  0.00     0.338 C 
ATOM      4  O   UNL A   1      34.947  19.637  24.826  1.00  0.00    -0.246 OA
BRANCH   3   5
ATOM      5  C   UNL A   1      33.451  21.464  24.839  1.00  0.00     0.060 A 
ATOM      6  C   UNL A   1      30.649  23.813  25.851  1.00  0.00     0.046 C 
ATOM      7  C   UNL A   1      31.704  23.163  24.990  1.00  0.00    -0.026 A 
ATOM      8  C   UNL A   1      32.696  22.357  25.608  1.00  0.00     0.021 A 
ATOM      9  C   UNL A   1      31.582  23.130  23.588  1.00  0.00     0.052 A 
ATOM     10  C   UNL A   1      32.127  22.065  22.889  1.00  0.00     0.028 A 
ATOM     11  C   UNL A   1      33.051  21.234  23.514  1.00  0.00     0.018 A 
BRANCH   9  12
ATOM     12  N   UNL A   1      31.075  24.221  22.795  1.00  0.00    -0.279 N 
ATOM     13  H   UNL A   1      30.154  24.203  22.446  1.00  0.00     0.180 HD
BRANCH  12  14
ATOM     14  S   UNL A   1      32.121  25.569  22.466  1.00  0.00     0.261 S 
ATOM     15  O   UNL A   1      33.371  24.963  22.007  1.00  0.00    -0.201 OA
ATOM     16  O   UNL A   1      31.410  26.467  21.598  1.00  0.00    -0.201 OA
BRANCH  14  17
ATOM     17  C   UNL A   1      32.507  26.469  23.967  1.00  0.00     0.088 A 
ATOM     18  C   UNL A   1      33.483  25.970  24.843  1.00  0.00     0.022 A 
ATOM     19  C   UNL A   1      31.808  27.636  24.307  1.00  0.00     0.026 A 
ATOM     20  C   UNL A   1      34.005  26.778  25.859  1.00  0.00     0.005 A 
ATOM     21  C   UNL A   1      32.252  28.368  25.402  1.00  0.00    -0.043 A 
ATOM     22  C   UNL A   1      33.416  28.005  26.085  1.00  0.00    -0.045 A 
ATOM     23  C   UNL A   1      31.638  29.559  26.069  1.00  0.00     0.036 C 
ATOM     24  C   UNL A   1      33.849  29.080  27.034  1.00  0.00     0.036 C 
ATOM     25  C   UNL A   1      32.882  30.221  26.672  1.00  0.00     0.010 C 
ENDBRANCH  14  17
ENDBRANCH  12  14
ENDBRANCH   9  12
ENDBRANCH   3   5
ENDBRANCH   2   3
ENDBRANCH   1   2
BRANCH   1  26
ATOM     26  C   UNL A   1      37.212  23.310  25.879  1.00  0.00     0.275 C 
BRANCH  26  27
ATOM     27  O   UNL A   1      38.591  23.707  25.692  1.00  0.00    -0.458 OA
BRANCH  27  28
ATOM     28  C   UNL A   1      39.495  23.603  26.694  1.00  0.00     0.338 C 
ATOM     29  O   UNL A   1      40.190  22.611  26.868  1.00  0.00    -0.246 OA
BRANCH  28  30
ATOM     30  C   UNL A   1      39.695  24.883  27.413  1.00  0.00     0.060 A 
ATOM     31  C   UNL A   1      40.061  26.014  26.666  1.00  0.00     0.016 A 
ATOM     32  C   UNL A   1      39.254  25.005  28.730  1.00  0.00     0.016 A 
ATOM     33  C   UNL A   1      39.900  27.281  27.208  1.00  0.00     0.010 A 
ATOM     34  C   UNL A   1      38.932  26.250  29.205  1.00  0.00     0.010 A 
ATOM     35  C   UNL A   1      39.310  27.379  28.467  1.00  0.00    -0.014 A 
BRANCH  35  36
ATOM     36  C   UNL A   1      39.425  28.565  29.294  1.00  0.00     0.031 A 
ATOM     37  C   UNL A   1      38.484  29.684  29.185  1.00  0.00     0.074 A 
ATOM     38  C   UNL A   1      40.428  28.425  30.187  1.00  0.00     0.049 A 
ATOM     39  N   UNL A   1      38.768  30.903  29.476  1.00  0.00    -0.248 NA
ATOM     40  C   UNL A   1      37.128  29.539  28.662  1.00  0.00     0.031 C 
ATOM     41  C   UNL A   1      40.808  29.188  31.355  1.00  0.00     0.029 A 
ATOM     42  N   UNL A   1      41.475  27.517  30.042  1.00  0.00    -0.354 N 
ATOM     43  C   UNL A   1      37.576  31.599  29.539  1.00  0.00     0.074 A 
ATOM     44  C   UNL A   1      36.628  30.768  28.844  1.00  0.00     0.031 C 
ATOM     45  C   UNL A   1      42.104  28.920  31.629  1.00  0.00     0.029 A 
ATOM     46  C   UNL A   1      42.627  28.078  30.551  1.00  0.00     0.049 A 
ATOM     47  H   UNL A   1      41.403  26.621  29.641  1.00  0.00     0.167 HD
ATOM     48  C   UNL A   1      37.499  32.680  30.371  1.00  0.00     0.034 A 
ATOM     49  C   UNL A   1      43.579  28.441  29.639  1.00  0.00     0.034 A 
ATOM     50  C   UNL A   1      38.803  32.888  31.001  1.00  0.00     0.049 A 
ATOM     51  C   UNL A   1      43.665  29.947  29.579  1.00  0.00     0.074 A 
ATOM     52  C   UNL A   1      39.308  32.462  32.219  1.00  0.00     0.029 A 
ATOM     53  N   UNL A   1      39.892  33.238  30.216  1.00  0.00    -0.354 N 
ATOM     54  N   UNL A   1      42.649  30.758  29.735  1.00  0.00    -0.248 NA
ATOM     55  C   UNL A   1      44.945  30.634  29.490  1.00  0.00     0.031 C 
ATOM     56  C   UNL A   1      40.725  32.439  32.106  1.00  0.00     0.029 A 
ATOM     57  C   UNL A   1      41.070  32.868  30.835  1.00  0.00     0.049 A 
ATOM     58  H   UNL A   1      39.834  33.686  29.341  1.00  0.00     0.167 HD
ATOM     59  C   UNL A   1      43.125  32.036  29.882  1.00  0.00     0.074 A 
ATOM     60  C   UNL A   1      44.565  31.903  29.704  1.00  0.00     0.031 C 
ATOM     61  C   UNL A   1      42.345  33.118  30.188  1.00  0.00     0.034 A 
BRANCH  48  62
ATOM     62  C   UNL A   1      36.241  33.342  30.905  1.00  0.00     0.023 A 
ATOM     63  C   UNL A   1      35.435  34.070  29.997  1.00  0.00     0.031 A 
ATOM     64  C   UNL A   1      35.789  33.348  32.237  1.00  0.00     0.131 A 
ATOM     65  C   UNL A   1      34.314  34.809  30.418  1.00  0.00     0.055 A 
ATOM     66  C   UNL A   1      34.677  34.097  32.663  1.00  0.00     0.041 A 
ATOM     67  F   UNL A   1      36.368  32.607  33.189  1.00  0.00    -0.206 F 
ATOM     68  C   UNL A   1      33.938  34.840  31.754  1.00  0.00     0.022 A 
BRANCH  65  69
ATOM     69  S   UNL A   1      33.364  35.742  29.184  1.00  0.00     0.124 S 
ATOM     70  O   UNL A   1      32.529  34.704  28.589  1.00  0.00    -0.237 OA
ATOM     71  O   UNL A   1      32.678  36.734  30.005  1.00  0.00    -0.237 OA
ATOM     72  O   UNL A   1      34.396  36.283  28.301  1.00  0.00    -0.744 OA
ENDBRANCH  65  69
ENDBRANCH  48  62
BRANCH  49  73
ATOM     73  C   UNL A   1      43.749  27.495  28.475  1.00  0.00     0.023 A 
ATOM     74  C   UNL A   1      43.964  26.124  28.767  1.00  0.00     0.031 A 
ATOM     75  C   UNL A   1      43.468  27.811  27.139  1.00  0.00     0.131 A 
ATOM     76  C   UNL A   1      43.759  25.125  27.801  1.00  0.00     0.055 A 
ATOM     77  C   UNL A   1      43.331  26.813  26.153  1.00  0.00     0.041 A 
ATOM     78  F   UNL A   1      43.236  29.078  26.767  1.00  0.00    -0.206 F 
ATOM     79  C   UNL A   1      43.443  25.461  26.487  1.00  0.00     0.022 A 
BRANCH  76  80
ATOM     80  S   UNL A   1      43.657  23.397  28.362  1.00  0.00     0.124 S 
ATOM     81  O   UNL A   1      42.421  23.398  29.136  1.00  0.00    -0.237 OA
ATOM     82  O   UNL A   1      43.621  22.661  27.099  1.00  0.00    -0.237 OA
ATOM     83  O   UNL A   1      44.882  23.213  29.132  1.00  0.00    -0.744 OA
ENDBRANCH  76  80
ENDBRANCH  49  73
BRANCH  61  84
ATOM     84  C   UNL A   1      42.779  34.547  29.991  1.00  0.00     0.023 A 
ATOM     85  C   UNL A   1      42.554  35.224  28.790  1.00  0.00     0.031 A 
ATOM     86  C   UNL A   1      43.342  35.318  31.036  1.00  0.00     0.131 A 
ATOM     87  C   UNL A   1      43.016  36.528  28.597  1.00  0.00     0.055 A 
ATOM     88  C   UNL A   1      43.673  36.666  30.885  1.00  0.00     0.041 A 
ATOM     89  F   UNL A   1      43.584  34.805  32.252  1.00  0.00    -0.206 F 
ATOM     90  C   UNL A   1      43.543  37.274  29.646  1.00  0.00     0.022 A 
BRANCH  87  91
ATOM     91  S   UNL A   1      43.036  37.148  26.902  1.00  0.00     0.124 S 
ATOM     92  O   UNL A   1      42.806  35.923  26.138  1.00  0.00    -0.237 OA
ATOM     93  O   UNL A   1      41.935  38.106  26.903  1.00  0.00    -0.237 OA
ATOM     94  O   UNL A   1      44.370  37.726  26.763  1.00  0.00    -0.744 OA
ENDBRANCH  87  91
ENDBRANCH  61  84
ENDBRANCH  35  36
ENDBRANCH  28  30
ENDBRANCH  27  28
ENDBRANCH  26  27
ENDBRANCH   1  26
TORSDOF 17
ENDMDL
