MODEL 1
REMARK VINA RESULT:     -12.3      0.000      0.000
REMARK SMILES CN(C)C(=O)c1cccc(N2CCC3(CC2)[C@H](C(=O)OCCOC(=O)c2ccc(-c4c5nc(c(-c6cc(S(=O)(=O)[O-])ccc6F)c6ccc([nH]6)c(-c6cc(S(=O)(=O)[O-])ccc6F)c6nc(c(-c7cc(S(=O)(=O)[O-])ccc7F)c7ccc4[nH]7)C=C6)C=C5)cc2)CC(=O)N3C)n1
REMARK SMILES IDX 22 1 21 2 20 3 18 4 19 5 17 6 11 7 12 8 16 9 13 10 15 11
REMARK SMILES IDX 14 12 92 13 89 14 90 15 93 16 91 17 10 18 6 19 7 20 94 21
REMARK SMILES IDX 8 22 9 23 4 24 1 25 2 26 3 27 5 28 23 29 24 30 25 31 26 32
REMARK SMILES IDX 27 33 88 34 28 35 87 36 29 37 30 38 31 39 81 40 32 41 86 42
REMARK SMILES IDX 80 43 82 44 33 45 85 46 79 47 78 48 34 50 66 51 46 52 65 53
REMARK SMILES IDX 47 54 50 55 64 56 83 57 48 58 49 59 63 61 84 62 51 63 35 64
REMARK SMILES IDX 36 65 44 66 37 67 43 68 45 69 42 70 38 71 39 72 40 73 41 74
REMARK SMILES IDX 67 75 68 76 76 77 69 78 75 79 77 80 74 81 70 82 71 83 72 84
REMARK SMILES IDX 73 85 52 86 53 87 61 88 54 89 60 90 62 91 59 92 55 93 56 94
REMARK SMILES IDX 57 95 58 96
REMARK H PARENT 82 49 50 60
REMARK Flexibility Score: inf
ROOT
ATOM      1  C   UNL A   1      38.757  19.379  25.629  1.00  0.00     0.275 C 
ENDROOT
BRANCH   1   2
ATOM      2  C   UNL A   1      37.768  20.067  24.681  1.00  0.00     0.274 C 
BRANCH   2   3
ATOM      3  O   UNL A   1      36.410  19.968  25.159  1.00  0.00    -0.462 OA
BRANCH   3   4
ATOM      4  C   UNL A   1      35.816  21.140  25.469  1.00  0.00     0.311 C 
ATOM      5  O   UNL A   1      36.424  22.117  25.900  1.00  0.00    -0.252 OA
BRANCH   4   6
ATOM      6  C   UNL A   1      34.309  21.181  25.317  1.00  0.00     0.134 C 
ATOM      7  N   UNL A   1      33.184  24.819  23.490  1.00  0.00    -0.356 N 
ATOM      8  C   UNL A   1      33.759  23.950  22.483  1.00  0.00     0.120 C 
ATOM      9  C   UNL A   1      32.116  24.240  24.287  1.00  0.00     0.120 C 
ATOM     10  C   UNL A   1      34.420  22.768  23.209  1.00  0.00     0.051 C 
ATOM     11  C   UNL A   1      32.680  23.059  25.064  1.00  0.00     0.051 C 
ATOM     12  C   UNL A   1      33.534  22.037  24.249  1.00  0.00     0.060 C 
ATOM     13  N   UNL A   1      32.684  21.007  23.604  1.00  0.00    -0.339 N 
ATOM     14  C   UNL A   1      33.786  19.749  25.251  1.00  0.00     0.118 C 
ATOM     15  C   UNL A   1      32.856  19.723  24.088  1.00  0.00     0.223 C 
ATOM     16  C   UNL A   1      31.834  21.233  22.453  1.00  0.00     0.147 C 
ATOM     17  O   UNL A   1      32.332  18.706  23.658  1.00  0.00    -0.275 OA
BRANCH   7  18
ATOM     18  C   UNL A   1      33.180  26.191  23.294  1.00  0.00     0.129 A 
ATOM     19  C   UNL A   1      32.677  28.344  23.990  1.00  0.00     0.130 A 
ATOM     20  C   UNL A   1      33.317  28.926  22.901  1.00  0.00     0.034 A 
ATOM     21  N   UNL A   1      32.588  27.001  24.198  1.00  0.00    -0.226 NA
ATOM     22  C   UNL A   1      33.862  28.087  21.946  1.00  0.00     0.006 A 
ATOM     23  C   UNL A   1      33.790  26.714  22.148  1.00  0.00     0.047 A 
BRANCH  19  24
ATOM     24  C   UNL A   1      32.131  29.227  25.073  1.00  0.00     0.272 C 
ATOM     25  C   UNL A   1      32.166  29.980  27.395  1.00  0.00     0.146 C 
ATOM     26  N   UNL A   1      32.851  29.374  26.270  1.00  0.00    -0.343 N 
ATOM     27  C   UNL A   1      34.269  29.090  26.429  1.00  0.00     0.146 C 
ATOM     28  O   UNL A   1      31.034  29.766  24.913  1.00  0.00    -0.267 OA
ENDBRANCH  19  24
ENDBRANCH   7  18
ENDBRANCH   4   6
ENDBRANCH   3   4
ENDBRANCH   2   3
ENDBRANCH   1   2
BRANCH   1  29
ATOM     29  O   UNL A   1      39.989  20.119  25.739  1.00  0.00    -0.458 OA
BRANCH  29  30
ATOM     30  C   UNL A   1      40.469  20.267  26.995  1.00  0.00     0.338 C 
ATOM     31  O   UNL A   1      40.721  19.386  27.796  1.00  0.00    -0.246 OA
BRANCH  30  32
ATOM     32  C   UNL A   1      40.698  21.686  27.297  1.00  0.00     0.060 A 
ATOM     33  C   UNL A   1      40.092  22.659  26.500  1.00  0.00     0.016 A 
ATOM     34  C   UNL A   1      41.639  22.047  28.261  1.00  0.00     0.016 A 
ATOM     35  C   UNL A   1      40.454  23.997  26.636  1.00  0.00     0.010 A 
ATOM     36  C   UNL A   1      41.970  23.394  28.425  1.00  0.00     0.010 A 
ATOM     37  C   UNL A   1      41.397  24.379  27.599  1.00  0.00    -0.014 A 
BRANCH  37  38
ATOM     38  C   UNL A   1      41.807  25.799  27.727  1.00  0.00     0.031 A 
ATOM     39  C   UNL A   1      43.120  26.256  27.156  1.00  0.00     0.074 A 
ATOM     40  C   UNL A   1      40.999  26.673  28.357  1.00  0.00     0.049 A 
ATOM     41  N   UNL A   1      43.729  27.405  27.292  1.00  0.00    -0.248 NA
ATOM     42  C   UNL A   1      43.845  25.285  26.320  1.00  0.00     0.031 C 
ATOM     43  C   UNL A   1      39.678  26.357  28.903  1.00  0.00     0.029 A 
ATOM     44  N   UNL A   1      41.171  28.001  28.656  1.00  0.00    -0.354 N 
ATOM     45  C   UNL A   1      44.920  27.293  26.581  1.00  0.00     0.074 A 
ATOM     46  C   UNL A   1      44.951  25.954  26.028  1.00  0.00     0.031 C 
ATOM     47  C   UNL A   1      39.163  27.457  29.472  1.00  0.00     0.029 A 
ATOM     48  C   UNL A   1      40.141  28.537  29.393  1.00  0.00     0.049 A 
ATOM     49  H   UNL A   1      41.958  28.520  28.370  1.00  0.00     0.167 HD
ATOM     50  C   UNL A   1      45.893  28.223  26.407  1.00  0.00     0.034 A 
ATOM     51  C   UNL A   1      40.020  29.744  29.979  1.00  0.00     0.034 A 
ATOM     52  C   UNL A   1      45.839  29.552  26.968  1.00  0.00     0.049 A 
ATOM     53  C   UNL A   1      41.147  30.734  29.834  1.00  0.00     0.074 A 
ATOM     54  C   UNL A   1      46.774  30.569  26.874  1.00  0.00     0.029 A 
ATOM     55  N   UNL A   1      44.789  30.052  27.729  1.00  0.00    -0.354 N 
ATOM     56  N   UNL A   1      42.289  30.599  29.198  1.00  0.00    -0.248 NA
ATOM     57  C   UNL A   1      40.971  32.037  30.487  1.00  0.00     0.031 C 
ATOM     58  C   UNL A   1      46.315  31.661  27.620  1.00  0.00     0.029 A 
ATOM     59  C   UNL A   1      45.063  31.351  28.125  1.00  0.00     0.049 A 
ATOM     60  H   UNL A   1      43.971  29.554  27.953  1.00  0.00     0.167 HD
ATOM     61  C   UNL A   1      42.954  31.811  29.357  1.00  0.00     0.074 A 
ATOM     62  C   UNL A   1      42.081  32.667  30.131  1.00  0.00     0.031 C 
ATOM     63  C   UNL A   1      44.179  32.184  28.904  1.00  0.00     0.034 A 
BRANCH  50  64
ATOM     64  C   UNL A   1      47.118  27.812  25.628  1.00  0.00     0.023 A 
ATOM     65  C   UNL A   1      47.242  28.068  24.251  1.00  0.00     0.031 A 
ATOM     66  C   UNL A   1      48.173  27.138  26.270  1.00  0.00     0.131 A 
ATOM     67  C   UNL A   1      48.366  27.601  23.552  1.00  0.00     0.055 A 
ATOM     68  C   UNL A   1      49.322  26.743  25.583  1.00  0.00     0.041 A 
ATOM     69  F   UNL A   1      48.099  26.845  27.578  1.00  0.00    -0.206 F 
ATOM     70  C   UNL A   1      49.419  26.963  24.213  1.00  0.00     0.022 A 
BRANCH  67  71
ATOM     71  S   UNL A   1      48.378  27.730  21.742  1.00  0.00     0.124 S 
ATOM     72  O   UNL A   1      47.036  28.243  21.477  1.00  0.00    -0.237 OA
ATOM     73  O   UNL A   1      49.477  28.656  21.498  1.00  0.00    -0.237 OA
ATOM     74  O   UNL A   1      48.610  26.356  21.303  1.00  0.00    -0.744 OA
ENDBRANCH  67  71
ENDBRANCH  50  64
BRANCH  51  75
ATOM     75  C   UNL A   1      38.824  30.066  30.808  1.00  0.00     0.023 A 
ATOM     76  C   UNL A   1      37.751  30.801  30.281  1.00  0.00     0.031 A 
ATOM     77  C   UNL A   1      38.761  29.686  32.162  1.00  0.00     0.131 A 
ATOM     78  C   UNL A   1      36.684  31.173  31.114  1.00  0.00     0.055 A 
ATOM     79  C   UNL A   1      37.671  30.010  32.971  1.00  0.00     0.041 A 
ATOM     80  F   UNL A   1      39.762  28.984  32.718  1.00  0.00    -0.206 F 
ATOM     81  C   UNL A   1      36.630  30.771  32.450  1.00  0.00     0.022 A 
BRANCH  78  82
ATOM     82  S   UNL A   1      35.411  32.281  30.448  1.00  0.00     0.124 S 
ATOM     83  O   UNL A   1      36.145  33.532  30.311  1.00  0.00    -0.237 OA
ATOM     84  O   UNL A   1      35.049  31.610  29.204  1.00  0.00    -0.237 OA
ATOM     85  O   UNL A   1      34.379  32.272  31.483  1.00  0.00    -0.744 OA
ENDBRANCH  78  82
ENDBRANCH  51  75
BRANCH  63  86
ATOM     86  C   UNL A   1      44.607  33.597  29.204  1.00  0.00     0.023 A 
ATOM     87  C   UNL A   1      45.334  33.917  30.363  1.00  0.00     0.031 A 
ATOM     88  C   UNL A   1      44.254  34.641  28.331  1.00  0.00     0.131 A 
ATOM     89  C   UNL A   1      45.637  35.258  30.648  1.00  0.00     0.055 A 
ATOM     90  C   UNL A   1      44.603  35.965  28.592  1.00  0.00     0.041 A 
ATOM     91  F   UNL A   1      43.559  34.387  27.210  1.00  0.00    -0.206 F 
ATOM     92  C   UNL A   1      45.288  36.282  29.763  1.00  0.00     0.022 A 
BRANCH  89  93
ATOM     93  S   UNL A   1      46.421  35.654  32.234  1.00  0.00     0.124 S 
ATOM     94  O   UNL A   1      46.218  34.422  32.990  1.00  0.00    -0.237 OA
ATOM     95  O   UNL A   1      47.797  35.940  31.841  1.00  0.00    -0.237 OA
ATOM     96  O   UNL A   1      45.662  36.808  32.712  1.00  0.00    -0.744 OA
ENDBRANCH  89  93
ENDBRANCH  63  86
ENDBRANCH  37  38
ENDBRANCH  30  32
ENDBRANCH  29  30
ENDBRANCH   1  29
TORSDOF 16
ENDMDL
MODEL 2
REMARK VINA RESULT:     -12.1      1.557      1.888
REMARK SMILES CN(C)C(=O)c1cccc(N2CCC3(CC2)[C@H](C(=O)OCCOC(=O)c2ccc(-c4c5nc(c(-c6cc(S(=O)(=O)[O-])ccc6F)c6ccc([nH]6)c(-c6cc(S(=O)(=O)[O-])ccc6F)c6nc(c(-c7cc(S(=O)(=O)[O-])ccc7F)c7ccc4[nH]7)C=C6)C=C5)cc2)CC(=O)N3C)n1
REMARK SMILES IDX 22 1 21 2 20 3 18 4 19 5 17 6 11 7 12 8 16 9 13 10 15 11
REMARK SMILES IDX 14 12 92 13 89 14 90 15 93 16 91 17 10 18 6 19 7 20 94 21
REMARK SMILES IDX 8 22 9 23 4 24 1 25 2 26 3 27 5 28 23 29 24 30 25 31 26 32
REMARK SMILES IDX 27 33 88 34 28 35 87 36 29 37 30 38 31 39 81 40 32 41 86 42
REMARK SMILES IDX 80 43 82 44 33 45 85 46 79 47 78 48 34 50 66 51 46 52 65 53
REMARK SMILES IDX 47 54 50 55 64 56 83 57 48 58 49 59 63 61 84 62 51 63 35 64
REMARK SMILES IDX 36 65 44 66 37 67 43 68 45 69 42 70 38 71 39 72 40 73 41 74
REMARK SMILES IDX 67 75 68 76 76 77 69 78 75 79 77 80 74 81 70 82 71 83 72 84
REMARK SMILES IDX 73 85 52 86 53 87 61 88 54 89 60 90 62 91 59 92 55 93 56 94
REMARK SMILES IDX 57 95 58 96
REMARK H PARENT 82 49 50 60
REMARK Flexibility Score: inf
ROOT
ATOM      1  C   UNL A   1      38.825  19.539  25.625  1.00  0.00     0.275 C 
ENDROOT
BRANCH   1   2
ATOM      2  C   UNL A   1      37.797  20.431  24.920  1.00  0.00     0.274 C 
BRANCH   2   3
ATOM      3  O   UNL A   1      36.466  19.879  24.994  1.00  0.00    -0.462 OA
BRANCH   3   4
ATOM      4  C   UNL A   1      35.515  20.715  25.461  1.00  0.00     0.311 C 
ATOM      5  O   UNL A   1      35.761  21.729  26.109  1.00  0.00    -0.252 OA
BRANCH   4   6
ATOM      6  C   UNL A   1      34.081  20.301  25.200  1.00  0.00     0.134 C 
ATOM      7  N   UNL A   1      31.794  23.717  24.231  1.00  0.00    -0.356 N 
ATOM      8  C   UNL A   1      32.623  23.374  23.093  1.00  0.00     0.120 C 
ATOM      9  C   UNL A   1      30.985  22.638  24.770  1.00  0.00     0.120 C 
ATOM     10  C   UNL A   1      33.645  22.326  23.561  1.00  0.00     0.051 C 
ATOM     11  C   UNL A   1      31.915  21.546  25.279  1.00  0.00     0.051 C 
ATOM     12  C   UNL A   1      33.060  21.104  24.312  1.00  0.00     0.060 C 
ATOM     13  N   UNL A   1      32.602  20.057  23.367  1.00  0.00    -0.339 N 
ATOM     14  C   UNL A   1      34.068  18.846  24.742  1.00  0.00     0.118 C 
ATOM     15  C   UNL A   1      33.197  18.820  23.535  1.00  0.00     0.223 C 
ATOM     16  C   UNL A   1      31.721  20.284  22.239  1.00  0.00     0.147 C 
ATOM     17  O   UNL A   1      33.042  17.835  22.828  1.00  0.00    -0.275 OA
BRANCH   7  18
ATOM     18  C   UNL A   1      31.330  25.015  24.376  1.00  0.00     0.129 A 
ATOM     19  C   UNL A   1      31.319  27.062  25.465  1.00  0.00     0.130 A 
ATOM     20  C   UNL A   1      30.456  27.635  24.537  1.00  0.00     0.034 A 
ATOM     21  N   UNL A   1      31.753  25.771  25.411  1.00  0.00    -0.226 NA
ATOM     22  C   UNL A   1      29.974  26.833  23.519  1.00  0.00     0.006 A 
ATOM     23  C   UNL A   1      30.416  25.517  23.443  1.00  0.00     0.047 A 
BRANCH  19  24
ATOM     24  C   UNL A   1      31.907  27.922  26.544  1.00  0.00     0.272 C 
ATOM     25  C   UNL A   1      33.769  29.246  27.403  1.00  0.00     0.146 C 
ATOM     26  N   UNL A   1      33.063  28.670  26.275  1.00  0.00    -0.343 N 
ATOM     27  C   UNL A   1      33.534  29.027  24.945  1.00  0.00     0.146 C 
ATOM     28  O   UNL A   1      31.393  27.915  27.665  1.00  0.00    -0.267 OA
ENDBRANCH  19  24
ENDBRANCH   7  18
ENDBRANCH   4   6
ENDBRANCH   3   4
ENDBRANCH   2   3
ENDBRANCH   1   2
BRANCH   1  29
ATOM     29  O   UNL A   1      40.094  20.205  25.773  1.00  0.00    -0.458 OA
BRANCH  29  30
ATOM     30  C   UNL A   1      40.528  20.354  27.045  1.00  0.00     0.338 C 
ATOM     31  O   UNL A   1      40.752  19.474  27.856  1.00  0.00    -0.246 OA
BRANCH  30  32
ATOM     32  C   UNL A   1      40.745  21.774  27.355  1.00  0.00     0.060 A 
ATOM     33  C   UNL A   1      40.137  22.746  26.558  1.00  0.00     0.016 A 
ATOM     34  C   UNL A   1      41.679  22.137  28.325  1.00  0.00     0.016 A 
ATOM     35  C   UNL A   1      40.487  24.085  26.701  1.00  0.00     0.010 A 
ATOM     36  C   UNL A   1      41.999  23.487  28.496  1.00  0.00     0.010 A 
ATOM     37  C   UNL A   1      41.422  24.470  27.671  1.00  0.00    -0.014 A 
BRANCH  37  38
ATOM     38  C   UNL A   1      41.821  25.893  27.807  1.00  0.00     0.031 A 
ATOM     39  C   UNL A   1      43.140  26.359  27.255  1.00  0.00     0.074 A 
ATOM     40  C   UNL A   1      40.998  26.761  28.427  1.00  0.00     0.049 A 
ATOM     41  N   UNL A   1      43.739  27.512  27.402  1.00  0.00    -0.248 NA
ATOM     42  C   UNL A   1      43.882  25.395  26.428  1.00  0.00     0.031 C 
ATOM     43  C   UNL A   1      39.672  26.435  28.954  1.00  0.00     0.029 A 
ATOM     44  N   UNL A   1      41.159  28.089  28.731  1.00  0.00    -0.354 N 
ATOM     45  C   UNL A   1      44.940  27.409  26.707  1.00  0.00     0.074 A 
ATOM     46  C   UNL A   1      44.989  26.071  26.153  1.00  0.00     0.031 C 
ATOM     47  C   UNL A   1      39.142  27.531  29.517  1.00  0.00     0.029 A 
ATOM     48  C   UNL A   1      40.114  28.617  29.453  1.00  0.00     0.049 A 
ATOM     49  H   UNL A   1      41.946  28.614  28.456  1.00  0.00     0.167 HD
ATOM     50  C   UNL A   1      45.910  28.345  26.549  1.00  0.00     0.034 A 
ATOM     51  C   UNL A   1      39.977  29.823  30.040  1.00  0.00     0.034 A 
ATOM     52  C   UNL A   1      45.839  29.673  27.111  1.00  0.00     0.049 A 
ATOM     53  C   UNL A   1      41.100  30.820  29.913  1.00  0.00     0.074 A 
ATOM     54  C   UNL A   1      46.769  30.697  27.032  1.00  0.00     0.029 A 
ATOM     55  N   UNL A   1      44.776  30.165  27.858  1.00  0.00    -0.354 N 
ATOM     56  N   UNL A   1      42.251  30.694  29.293  1.00  0.00    -0.248 NA
ATOM     57  C   UNL A   1      40.906  32.121  30.565  1.00  0.00     0.031 C 
ATOM     58  C   UNL A   1      46.292  31.784  27.773  1.00  0.00     0.029 A 
ATOM     59  C   UNL A   1      45.035  31.466  28.260  1.00  0.00     0.049 A 
ATOM     60  H   UNL A   1      43.957  29.661  28.070  1.00  0.00     0.167 HD
ATOM     61  C   UNL A   1      42.906  31.909  29.462  1.00  0.00     0.074 A 
ATOM     62  C   UNL A   1      42.017  32.759  30.225  1.00  0.00     0.031 C 
ATOM     63  C   UNL A   1      44.135  32.291  29.027  1.00  0.00     0.034 A 
BRANCH  50  64
ATOM     64  C   UNL A   1      47.148  27.944  25.787  1.00  0.00     0.023 A 
ATOM     65  C   UNL A   1      47.257  28.129  24.397  1.00  0.00     0.031 A 
ATOM     66  C   UNL A   1      48.233  27.351  26.459  1.00  0.00     0.131 A 
ATOM     67  C   UNL A   1      48.397  27.672  23.718  1.00  0.00     0.055 A 
ATOM     68  C   UNL A   1      49.395  26.967  25.788  1.00  0.00     0.041 A 
ATOM     69  F   UNL A   1      48.176  27.127  27.781  1.00  0.00    -0.206 F 
ATOM     70  C   UNL A   1      49.478  27.115  24.407  1.00  0.00     0.022 A 
BRANCH  67  71
ATOM     71  S   UNL A   1      48.398  27.701  21.904  1.00  0.00     0.124 S 
ATOM     72  O   UNL A   1      48.654  26.296  21.590  1.00  0.00    -0.237 OA
ATOM     73  O   UNL A   1      47.061  28.192  21.595  1.00  0.00    -0.237 OA
ATOM     74  O   UNL A   1      49.490  28.613  21.577  1.00  0.00    -0.744 OA
ENDBRANCH  67  71
ENDBRANCH  50  64
BRANCH  51  75
ATOM     75  C   UNL A   1      38.767  30.135  30.853  1.00  0.00     0.023 A 
ATOM     76  C   UNL A   1      37.721  30.909  30.329  1.00  0.00     0.031 A 
ATOM     77  C   UNL A   1      38.666  29.707  32.189  1.00  0.00     0.131 A 
ATOM     78  C   UNL A   1      36.640  31.269  31.150  1.00  0.00     0.055 A 
ATOM     79  C   UNL A   1      37.563  30.020  32.984  1.00  0.00     0.041 A 
ATOM     80  F   UNL A   1      39.640  28.965  32.741  1.00  0.00    -0.206 F 
ATOM     81  C   UNL A   1      36.547  30.819  32.468  1.00  0.00     0.022 A 
BRANCH  78  82
ATOM     82  S   UNL A   1      35.403  32.424  30.497  1.00  0.00     0.124 S 
ATOM     83  O   UNL A   1      34.999  31.763  29.262  1.00  0.00    -0.237 OA
ATOM     84  O   UNL A   1      34.413  32.443  31.568  1.00  0.00    -0.237 OA
ATOM     85  O   UNL A   1      36.155  33.665  30.323  1.00  0.00    -0.744 OA
ENDBRANCH  78  82
ENDBRANCH  51  75
BRANCH  63  86
ATOM     86  C   UNL A   1      44.549  33.707  29.335  1.00  0.00     0.023 A 
ATOM     87  C   UNL A   1      44.294  34.760  28.441  1.00  0.00     0.031 A 
ATOM     88  C   UNL A   1      45.236  33.997  30.527  1.00  0.00     0.131 A 
ATOM     89  C   UNL A   1      44.774  36.048  28.726  1.00  0.00     0.055 A 
ATOM     90  C   UNL A   1      45.665  35.289  30.830  1.00  0.00     0.041 A 
ATOM     91  F   UNL A   1      45.504  33.025  31.414  1.00  0.00    -0.206 F 
ATOM     92  C   UNL A   1      45.446  36.321  29.920  1.00  0.00     0.022 A 
BRANCH  89  93
ATOM     93  S   UNL A   1      44.582  37.345  27.473  1.00  0.00     0.124 S 
ATOM     94  O   UNL A   1      44.342  38.527  28.294  1.00  0.00    -0.237 OA
ATOM     95  O   UNL A   1      45.866  37.303  26.780  1.00  0.00    -0.237 OA
ATOM     96  O   UNL A   1      43.439  36.893  26.684  1.00  0.00    -0.744 OA
ENDBRANCH  89  93
ENDBRANCH  63  86
ENDBRANCH  37  38
ENDBRANCH  30  32
ENDBRANCH  29  30
ENDBRANCH   1  29
TORSDOF 16
ENDMDL
MODEL 3
REMARK VINA RESULT:     -12.0      1.931      2.204
REMARK SMILES CN(C)C(=O)c1cccc(N2CCC3(CC2)[C@H](C(=O)OCCOC(=O)c2ccc(-c4c5nc(c(-c6cc(S(=O)(=O)[O-])ccc6F)c6ccc([nH]6)c(-c6cc(S(=O)(=O)[O-])ccc6F)c6nc(c(-c7cc(S(=O)(=O)[O-])ccc7F)c7ccc4[nH]7)C=C6)C=C5)cc2)CC(=O)N3C)n1
REMARK SMILES IDX 22 1 21 2 20 3 18 4 19 5 17 6 11 7 12 8 16 9 13 10 15 11
REMARK SMILES IDX 14 12 92 13 89 14 90 15 93 16 91 17 10 18 6 19 7 20 94 21
REMARK SMILES IDX 8 22 9 23 4 24 1 25 2 26 3 27 5 28 23 29 24 30 25 31 26 32
REMARK SMILES IDX 27 33 88 34 28 35 87 36 29 37 30 38 31 39 81 40 32 41 86 42
REMARK SMILES IDX 80 43 82 44 33 45 85 46 79 47 78 48 34 50 66 51 46 52 65 53
REMARK SMILES IDX 47 54 50 55 64 56 83 57 48 58 49 59 63 61 84 62 51 63 35 64
REMARK SMILES IDX 36 65 44 66 37 67 43 68 45 69 42 70 38 71 39 72 40 73 41 74
REMARK SMILES IDX 67 75 68 76 76 77 69 78 75 79 77 80 74 81 70 82 71 83 72 84
REMARK SMILES IDX 73 85 52 86 53 87 61 88 54 89 60 90 62 91 59 92 55 93 56 94
REMARK SMILES IDX 57 95 58 96
REMARK H PARENT 82 49 50 60
REMARK Flexibility Score: inf
ROOT
ATOM      1  C   UNL A   1      38.786  19.317  25.712  1.00  0.00     0.275 C 
ENDROOT
BRANCH   1   2
ATOM      2  C   UNL A   1      37.854  19.877  24.631  1.00  0.00     0.274 C 
BRANCH   2   3
ATOM      3  O   UNL A   1      36.469  19.808  25.029  1.00  0.00    -0.462 OA
BRANCH   3   4
ATOM      4  C   UNL A   1      35.931  20.965  25.468  1.00  0.00     0.311 C 
ATOM      5  O   UNL A   1      36.586  21.863  25.992  1.00  0.00    -0.252 OA
BRANCH   4   6
ATOM      6  C   UNL A   1      34.425  21.087  25.343  1.00  0.00     0.134 C 
ATOM      7  N   UNL A   1      33.454  24.909  23.831  1.00  0.00    -0.356 N 
ATOM      8  C   UNL A   1      33.976  24.100  22.748  1.00  0.00     0.120 C 
ATOM      9  C   UNL A   1      32.369  24.318  24.594  1.00  0.00     0.120 C 
ATOM     10  C   UNL A   1      34.589  22.834  23.368  1.00  0.00     0.051 C 
ATOM     11  C   UNL A   1      32.885  23.053  25.265  1.00  0.00     0.051 C 
ATOM     12  C   UNL A   1      33.681  22.062  24.358  1.00  0.00     0.060 C 
ATOM     13  N   UNL A   1      32.776  21.129  23.645  1.00  0.00    -0.339 N 
ATOM     14  C   UNL A   1      33.836  19.692  25.169  1.00  0.00     0.118 C 
ATOM     15  C   UNL A   1      32.893  19.803  24.021  1.00  0.00     0.223 C 
ATOM     16  C   UNL A   1      31.925  21.486  22.528  1.00  0.00     0.147 C 
ATOM     17  O   UNL A   1      32.316  18.849  23.519  1.00  0.00    -0.275 OA
BRANCH   7  18
ATOM     18  C   UNL A   1      33.513  26.292  23.746  1.00  0.00     0.129 A 
ATOM     19  C   UNL A   1      33.683  28.385  24.727  1.00  0.00     0.130 A 
ATOM     20  C   UNL A   1      33.754  29.037  23.500  1.00  0.00     0.034 A 
ATOM     21  N   UNL A   1      33.554  27.037  24.871  1.00  0.00    -0.226 NA
ATOM     22  C   UNL A   1      33.643  28.272  22.353  1.00  0.00     0.006 A 
ATOM     23  C   UNL A   1      33.522  26.893  22.482  1.00  0.00     0.047 A 
BRANCH  19  24
ATOM     24  C   UNL A   1      33.861  29.179  25.987  1.00  0.00     0.272 C 
ATOM     25  C   UNL A   1      33.282  31.114  27.358  1.00  0.00     0.146 C 
ATOM     26  N   UNL A   1      32.927  30.175  26.312  1.00  0.00    -0.343 N 
ATOM     27  C   UNL A   1      31.577  30.258  25.775  1.00  0.00     0.146 C 
ATOM     28  O   UNL A   1      34.855  28.978  26.688  1.00  0.00    -0.267 OA
ENDBRANCH  19  24
ENDBRANCH   7  18
ENDBRANCH   4   6
ENDBRANCH   3   4
ENDBRANCH   2   3
ENDBRANCH   1   2
BRANCH   1  29
ATOM     29  O   UNL A   1      40.013  20.068  25.796  1.00  0.00    -0.458 OA
BRANCH  29  30
ATOM     30  C   UNL A   1      40.520  20.217  27.041  1.00  0.00     0.338 C 
ATOM     31  O   UNL A   1      40.781  19.338  27.841  1.00  0.00    -0.246 OA
BRANCH  30  32
ATOM     32  C   UNL A   1      40.769  21.636  27.331  1.00  0.00     0.060 A 
ATOM     33  C   UNL A   1      40.218  22.610  26.496  1.00  0.00     0.016 A 
ATOM     34  C   UNL A   1      41.680  21.991  28.326  1.00  0.00     0.016 A 
ATOM     35  C   UNL A   1      40.603  23.941  26.626  1.00  0.00     0.010 A 
ATOM     36  C   UNL A   1      42.034  23.333  28.483  1.00  0.00     0.010 A 
ATOM     37  C   UNL A   1      41.516  24.317  27.621  1.00  0.00    -0.014 A 
BRANCH  37  38
ATOM     38  C   UNL A   1      41.952  25.730  27.744  1.00  0.00     0.031 A 
ATOM     39  C   UNL A   1      43.297  26.149  27.219  1.00  0.00     0.074 A 
ATOM     40  C   UNL A   1      41.140  26.631  28.329  1.00  0.00     0.049 A 
ATOM     41  N   UNL A   1      43.926  27.286  27.362  1.00  0.00    -0.248 NA
ATOM     42  C   UNL A   1      44.032  25.150  26.426  1.00  0.00     0.031 C 
ATOM     43  C   UNL A   1      39.792  26.353  28.826  1.00  0.00     0.029 A 
ATOM     44  N   UNL A   1      41.331  27.959  28.615  1.00  0.00    -0.354 N 
ATOM     45  C   UNL A   1      45.141  27.137  26.700  1.00  0.00     0.074 A 
ATOM     46  C   UNL A   1      45.164  25.789  26.169  1.00  0.00     0.031 C 
ATOM     47  C   UNL A   1      39.279  27.473  29.358  1.00  0.00     0.029 A 
ATOM     48  C   UNL A   1      40.284  28.529  29.302  1.00  0.00     0.049 A 
ATOM     49  H   UNL A   1      42.139  28.457  28.352  1.00  0.00     0.167 HD
ATOM     50  C   UNL A   1      46.141  28.043  26.552  1.00  0.00     0.034 A 
ATOM     51  C   UNL A   1      40.167  29.748  29.865  1.00  0.00     0.034 A 
ATOM     52  C   UNL A   1      46.095  29.381  27.091  1.00  0.00     0.049 A 
ATOM     53  C   UNL A   1      41.321  30.711  29.751  1.00  0.00     0.074 A 
ATOM     54  C   UNL A   1      47.056  30.376  27.019  1.00  0.00     0.029 A 
ATOM     55  N   UNL A   1      45.027  29.916  27.802  1.00  0.00    -0.354 N 
ATOM     56  N   UNL A   1      42.484  30.541  29.163  1.00  0.00    -0.248 NA
ATOM     57  C   UNL A   1      41.149  32.027  30.377  1.00  0.00     0.031 C 
ATOM     58  C   UNL A   1      46.592  31.490  27.730  1.00  0.00     0.029 A 
ATOM     59  C   UNL A   1      45.314  31.215  28.190  1.00  0.00     0.049 A 
ATOM     60  H   UNL A   1      44.189  29.440  28.001  1.00  0.00     0.167 HD
ATOM     61  C   UNL A   1      43.169  31.740  29.330  1.00  0.00     0.074 A 
ATOM     62  C   UNL A   1      42.286  32.627  30.056  1.00  0.00     0.031 C 
ATOM     63  C   UNL A   1      44.419  32.079  28.920  1.00  0.00     0.034 A 
BRANCH  50  64
ATOM     64  C   UNL A   1      47.386  27.593  25.828  1.00  0.00     0.023 A 
ATOM     65  C   UNL A   1      48.491  27.059  26.514  1.00  0.00     0.031 A 
ATOM     66  C   UNL A   1      47.476  27.718  24.430  1.00  0.00     0.131 A 
ATOM     67  C   UNL A   1      49.657  26.724  25.807  1.00  0.00     0.055 A 
ATOM     68  C   UNL A   1      48.611  27.313  23.725  1.00  0.00     0.041 A 
ATOM     69  F   UNL A   1      46.462  28.244  23.725  1.00  0.00    -0.206 F 
ATOM     70  C   UNL A   1      49.716  26.823  24.415  1.00  0.00     0.022 A 
BRANCH  67  71
ATOM     71  S   UNL A   1      51.142  26.273  26.747  1.00  0.00     0.124 S 
ATOM     72  O   UNL A   1      51.095  27.235  27.846  1.00  0.00    -0.237 OA
ATOM     73  O   UNL A   1      50.882  24.883  27.101  1.00  0.00    -0.237 OA
ATOM     74  O   UNL A   1      52.227  26.482  25.792  1.00  0.00    -0.744 OA
ENDBRANCH  67  71
ENDBRANCH  50  64
BRANCH  51  75
ATOM     75  C   UNL A   1      38.947  30.108  30.642  1.00  0.00     0.023 A 
ATOM     76  C   UNL A   1      38.004  31.015  30.133  1.00  0.00     0.031 A 
ATOM     77  C   UNL A   1      38.734  29.590  31.932  1.00  0.00     0.131 A 
ATOM     78  C   UNL A   1      36.917  31.410  30.928  1.00  0.00     0.055 A 
ATOM     79  C   UNL A   1      37.621  29.942  32.696  1.00  0.00     0.041 A 
ATOM     80  F   UNL A   1      39.606  28.720  32.468  1.00  0.00    -0.206 F 
ATOM     81  C   UNL A   1      36.711  30.870  32.199  1.00  0.00     0.022 A 
BRANCH  78  82
ATOM     82  S   UNL A   1      35.826  32.723  30.313  1.00  0.00     0.124 S 
ATOM     83  O   UNL A   1      36.296  33.879  31.066  1.00  0.00    -0.237 OA
ATOM     84  O   UNL A   1      36.127  32.720  28.886  1.00  0.00    -0.237 OA
ATOM     85  O   UNL A   1      34.490  32.248  30.668  1.00  0.00    -0.744 OA
ENDBRANCH  78  82
ENDBRANCH  51  75
BRANCH  63  86
ATOM     86  C   UNL A   1      44.867  33.487  29.216  1.00  0.00     0.023 A 
ATOM     87  C   UNL A   1      44.412  34.579  28.458  1.00  0.00     0.031 A 
ATOM     88  C   UNL A   1      45.785  33.733  30.252  1.00  0.00     0.131 A 
ATOM     89  C   UNL A   1      44.921  35.863  28.710  1.00  0.00     0.055 A 
ATOM     90  C   UNL A   1      46.248  35.018  30.532  1.00  0.00     0.041 A 
ATOM     91  F   UNL A   1      46.250  32.723  31.005  1.00  0.00    -0.206 F 
ATOM     92  C   UNL A   1      45.825  36.091  29.750  1.00  0.00     0.022 A 
BRANCH  89  93
ATOM     93  S   UNL A   1      44.448  37.219  27.603  1.00  0.00     0.124 S 
ATOM     94  O   UNL A   1      43.583  36.540  26.643  1.00  0.00    -0.237 OA
ATOM     95  O   UNL A   1      43.784  38.148  28.512  1.00  0.00    -0.237 OA
ATOM     96  O   UNL A   1      45.725  37.685  27.067  1.00  0.00    -0.744 OA
ENDBRANCH  89  93
ENDBRANCH  63  86
ENDBRANCH  37  38
ENDBRANCH  30  32
ENDBRANCH  29  30
ENDBRANCH   1  29
TORSDOF 16
ENDMDL
