MODEL 1
REMARK VINA RESULT:     -11.0      0.000      0.000
REMARK SMILES C=CCN(CC(=O)OCCOC(=O)c1ccc(-c2c3nc(c(-c4cc(S(=O)(=O)[O-])ccc4F)c4ccc([nH]4)c(-c4cc(S(=O)(=O)[O-])ccc4F)c4nc(c(-c5cc(S(=O)(=O)[O-])ccc5F)c5ccc2[nH]5)C=C4)C=C3)cc1)C(=O)N1CC[C@@H]([NH+]2CCCCC2)C1
REMARK SMILES IDX 9 1 8 2 6 3 7 4 5 5 4 6 3 7 2 8 1 9 77 10 78 11 79 12 80 13
REMARK SMILES IDX 89 14 81 15 82 16 83 17 84 18 88 19 85 21 87 22 86 23 10 24
REMARK SMILES IDX 11 25 12 26 13 27 14 28 15 29 76 30 16 31 75 32 17 33 18 34
REMARK SMILES IDX 19 35 69 36 20 37 74 38 68 39 70 40 21 41 73 42 67 43 66 44
REMARK SMILES IDX 22 46 54 47 34 48 53 49 35 50 38 51 52 52 71 53 36 54 37 55
REMARK SMILES IDX 51 57 72 58 39 59 23 60 24 61 32 62 25 63 31 64 33 65 30 66
REMARK SMILES IDX 26 67 27 68 28 69 29 70 55 71 56 72 64 73 57 74 63 75 65 76
REMARK SMILES IDX 62 77 58 78 59 79 60 80 61 81 40 82 41 83 49 84 42 85 48 86
REMARK SMILES IDX 50 87 47 88 43 89 44 90 45 91 46 92
REMARK H PARENT 83 20 70 45 38 56
REMARK Flexibility Score: inf
ROOT
ATOM      1  C   UNL A   1      36.273  20.213  25.006  1.00  0.00     0.274 C 
ENDROOT
BRANCH   1   2
ATOM      2  O   UNL A   1      35.588  21.432  25.356  1.00  0.00    -0.461 OA
BRANCH   2   3
ATOM      3  C   UNL A   1      34.298  21.536  24.929  1.00  0.00     0.325 C 
ATOM      4  O   UNL A   1      33.626  20.595  24.521  1.00  0.00    -0.250 OA
BRANCH   3   5
ATOM      5  C   UNL A   1      33.695  22.927  25.155  1.00  0.00     0.244 C 
BRANCH   5   6
ATOM      6  N   UNL A   1      32.924  23.509  24.046  1.00  0.00    -0.310 N 
BRANCH   6   7
ATOM      7  C   UNL A   1      31.478  23.423  24.239  1.00  0.00     0.149 C 
BRANCH   7   8
ATOM      8  C   UNL A   1      31.134  23.784  25.660  1.00  0.00    -0.013 C 
ATOM      9  C   UNL A   1      30.391  23.019  26.471  1.00  0.00     0.006 C 
ENDBRANCH   7   8
ENDBRANCH   6   7
BRANCH   6  10
ATOM     10  C   UNL A   1      33.355  24.263  22.965  1.00  0.00     0.321 C 
ATOM     11  O   UNL A   1      33.683  23.702  21.913  1.00  0.00    -0.248 OA
BRANCH  10  12
ATOM     12  N   UNL A   1      33.440  25.627  23.028  1.00  0.00    -0.318 N 
ATOM     13  C   UNL A   1      32.929  26.615  22.130  1.00  0.00     0.128 C 
ATOM     14  C   UNL A   1      33.802  26.295  24.293  1.00  0.00     0.186 C 
ATOM     15  C   UNL A   1      33.627  27.888  22.525  1.00  0.00     0.088 C 
ATOM     16  C   UNL A   1      33.755  27.834  24.034  1.00  0.00     0.205 C 
BRANCH  16  17
ATOM     17  N   UNL A   1      32.794  28.682  24.761  1.00  0.00    -0.331 N 
ATOM     18  C   UNL A   1      33.262  29.509  25.862  1.00  0.00     0.262 C 
ATOM     19  C   UNL A   1      31.482  28.064  25.022  1.00  0.00     0.262 C 
ATOM     20  H   UNL A   1      32.655  29.385  24.035  1.00  0.00     0.348 HD
ATOM     21  C   UNL A   1      33.199  28.844  27.234  1.00  0.00     0.062 C 
ATOM     22  C   UNL A   1      31.261  27.458  26.417  1.00  0.00     0.062 C 
ATOM     23  C   UNL A   1      31.811  28.311  27.551  1.00  0.00     0.012 C 
ENDBRANCH  16  17
ENDBRANCH  10  12
ENDBRANCH   6  10
ENDBRANCH   5   6
ENDBRANCH   3   5
ENDBRANCH   2   3
ENDBRANCH   1   2
BRANCH   1  24
ATOM     24  C   UNL A   1      37.775  20.468  24.823  1.00  0.00     0.275 C 
BRANCH  24  25
ATOM     25  O   UNL A   1      38.364  21.393  25.758  1.00  0.00    -0.458 OA
BRANCH  25  26
ATOM     26  C   UNL A   1      39.646  21.199  26.151  1.00  0.00     0.338 C 
ATOM     27  O   UNL A   1      40.276  20.160  26.108  1.00  0.00    -0.246 OA
BRANCH  26  28
ATOM     28  C   UNL A   1      40.101  22.447  26.802  1.00  0.00     0.060 A 
ATOM     29  C   UNL A   1      41.139  22.391  27.742  1.00  0.00     0.016 A 
ATOM     30  C   UNL A   1      39.447  23.655  26.546  1.00  0.00     0.016 A 
ATOM     31  C   UNL A   1      41.507  23.544  28.450  1.00  0.00     0.010 A 
ATOM     32  C   UNL A   1      39.820  24.807  27.244  1.00  0.00     0.010 A 
ATOM     33  C   UNL A   1      40.862  24.766  28.191  1.00  0.00    -0.014 A 
BRANCH  33  34
ATOM     34  C   UNL A   1      41.481  26.054  28.595  1.00  0.00     0.031 A 
ATOM     35  C   UNL A   1      40.721  27.225  29.142  1.00  0.00     0.074 A 
ATOM     36  C   UNL A   1      42.783  26.168  28.270  1.00  0.00     0.049 A 
ATOM     37  N   UNL A   1      41.144  28.448  29.346  1.00  0.00    -0.248 NA
ATOM     38  C   UNL A   1      39.317  27.010  29.509  1.00  0.00     0.031 C 
ATOM     39  C   UNL A   1      43.599  25.080  27.717  1.00  0.00     0.029 A 
ATOM     40  N   UNL A   1      43.622  27.248  28.273  1.00  0.00    -0.354 N 
ATOM     41  C   UNL A   1      40.066  29.154  29.874  1.00  0.00     0.074 A 
ATOM     42  C   UNL A   1      38.958  28.219  29.933  1.00  0.00     0.031 C 
ATOM     43  C   UNL A   1      44.784  25.570  27.342  1.00  0.00     0.029 A 
ATOM     44  C   UNL A   1      44.802  26.999  27.615  1.00  0.00     0.049 A 
ATOM     45  H   UNL A   1      43.405  28.108  28.699  1.00  0.00     0.167 HD
ATOM     46  C   UNL A   1      40.025  30.453  30.271  1.00  0.00     0.034 A 
ATOM     47  C   UNL A   1      45.779  27.832  27.220  1.00  0.00     0.034 A 
ATOM     48  C   UNL A   1      41.161  31.352  30.184  1.00  0.00     0.049 A 
ATOM     49  C   UNL A   1      45.698  29.269  27.615  1.00  0.00     0.074 A 
ATOM     50  C   UNL A   1      41.277  32.646  30.667  1.00  0.00     0.029 A 
ATOM     51  N   UNL A   1      42.362  31.066  29.544  1.00  0.00    -0.354 N 
ATOM     52  N   UNL A   1      44.708  29.901  28.199  1.00  0.00    -0.248 NA
ATOM     53  C   UNL A   1      46.879  30.092  27.345  1.00  0.00     0.031 C 
ATOM     54  C   UNL A   1      42.508  33.167  30.248  1.00  0.00     0.029 A 
ATOM     55  C   UNL A   1      43.200  32.174  29.575  1.00  0.00     0.049 A 
ATOM     56  H   UNL A   1      42.585  30.203  29.127  1.00  0.00     0.167 HD
ATOM     57  C   UNL A   1      45.164  31.196  28.409  1.00  0.00     0.074 A 
ATOM     58  C   UNL A   1      46.514  31.250  27.876  1.00  0.00     0.031 C 
ATOM     59  C   UNL A   1      44.530  32.233  29.011  1.00  0.00     0.034 A 
BRANCH  46  60
ATOM     60  C   UNL A   1      38.723  31.012  30.808  1.00  0.00     0.023 A 
ATOM     61  C   UNL A   1      37.723  31.530  29.966  1.00  0.00     0.031 A 
ATOM     62  C   UNL A   1      38.450  30.966  32.190  1.00  0.00     0.131 A 
ATOM     63  C   UNL A   1      36.521  32.014  30.512  1.00  0.00     0.055 A 
ATOM     64  C   UNL A   1      37.229  31.389  32.721  1.00  0.00     0.041 A 
ATOM     65  F   UNL A   1      39.366  30.496  33.050  1.00  0.00    -0.206 F 
ATOM     66  C   UNL A   1      36.258  31.925  31.882  1.00  0.00     0.022 A 
BRANCH  63  67
ATOM     67  S   UNL A   1      35.339  32.856  29.422  1.00  0.00     0.124 S 
ATOM     68  O   UNL A   1      35.367  32.000  28.238  1.00  0.00    -0.237 OA
ATOM     69  O   UNL A   1      34.110  32.823  30.205  1.00  0.00    -0.237 OA
ATOM     70  O   UNL A   1      35.927  34.182  29.238  1.00  0.00    -0.744 OA
ENDBRANCH  63  67
ENDBRANCH  46  60
BRANCH  47  71
ATOM     71  C   UNL A   1      46.896  27.281  26.416  1.00  0.00     0.023 A 
ATOM     72  C   UNL A   1      48.020  26.729  27.039  1.00  0.00     0.031 A 
ATOM     73  C   UNL A   1      46.793  27.196  25.014  1.00  0.00     0.131 A 
ATOM     74  C   UNL A   1      49.010  26.114  26.260  1.00  0.00     0.055 A 
ATOM     75  C   UNL A   1      47.766  26.557  24.247  1.00  0.00     0.041 A 
ATOM     76  F   UNL A   1      45.712  27.681  24.382  1.00  0.00    -0.206 F 
ATOM     77  C   UNL A   1      48.885  26.014  24.871  1.00  0.00     0.022 A 
BRANCH  74  78
ATOM     78  S   UNL A   1      50.471  25.451  27.098  1.00  0.00     0.124 S 
ATOM     79  O   UNL A   1      51.353  25.156  25.973  1.00  0.00    -0.237 OA
ATOM     80  O   UNL A   1      50.866  26.570  27.947  1.00  0.00    -0.237 OA
ATOM     81  O   UNL A   1      49.953  24.283  27.808  1.00  0.00    -0.744 OA
ENDBRANCH  74  78
ENDBRANCH  47  71
BRANCH  59  82
ATOM     82  C   UNL A   1      45.321  33.505  29.158  1.00  0.00     0.023 A 
ATOM     83  C   UNL A   1      45.115  34.603  28.304  1.00  0.00     0.031 A 
ATOM     84  C   UNL A   1      46.320  33.604  30.141  1.00  0.00     0.131 A 
ATOM     85  C   UNL A   1      45.939  35.733  28.413  1.00  0.00     0.055 A 
ATOM     86  C   UNL A   1      47.098  34.754  30.281  1.00  0.00     0.041 A 
ATOM     87  F   UNL A   1      46.562  32.581  30.976  1.00  0.00    -0.206 F 
ATOM     88  C   UNL A   1      46.917  35.822  29.407  1.00  0.00     0.022 A 
BRANCH  85  89
ATOM     89  S   UNL A   1      45.771  37.053  27.182  1.00  0.00     0.124 S 
ATOM     90  O   UNL A   1      45.821  38.250  28.015  1.00  0.00    -0.237 OA
ATOM     91  O   UNL A   1      46.927  36.827  26.320  1.00  0.00    -0.237 OA
ATOM     92  O   UNL A   1      44.475  36.781  26.562  1.00  0.00    -0.744 OA
ENDBRANCH  85  89
ENDBRANCH  59  82
ENDBRANCH  33  34
ENDBRANCH  26  28
ENDBRANCH  25  26
ENDBRANCH  24  25
ENDBRANCH   1  24
TORSDOF 20
ENDMDL
MODEL 2
REMARK VINA RESULT:     -11.0      1.271      1.473
REMARK SMILES C=CCN(CC(=O)OCCOC(=O)c1ccc(-c2c3nc(c(-c4cc(S(=O)(=O)[O-])ccc4F)c4ccc([nH]4)c(-c4cc(S(=O)(=O)[O-])ccc4F)c4nc(c(-c5cc(S(=O)(=O)[O-])ccc5F)c5ccc2[nH]5)C=C4)C=C3)cc1)C(=O)N1CC[C@@H]([NH+]2CCCCC2)C1
REMARK SMILES IDX 9 1 8 2 6 3 7 4 5 5 4 6 3 7 2 8 1 9 77 10 78 11 79 12 80 13
REMARK SMILES IDX 89 14 81 15 82 16 83 17 84 18 88 19 85 21 87 22 86 23 10 24
REMARK SMILES IDX 11 25 12 26 13 27 14 28 15 29 76 30 16 31 75 32 17 33 18 34
REMARK SMILES IDX 19 35 69 36 20 37 74 38 68 39 70 40 21 41 73 42 67 43 66 44
REMARK SMILES IDX 22 46 54 47 34 48 53 49 35 50 38 51 52 52 71 53 36 54 37 55
REMARK SMILES IDX 51 57 72 58 39 59 23 60 24 61 32 62 25 63 31 64 33 65 30 66
REMARK SMILES IDX 26 67 27 68 28 69 29 70 55 71 56 72 64 73 57 74 63 75 65 76
REMARK SMILES IDX 62 77 58 78 59 79 60 80 61 81 40 82 41 83 49 84 42 85 48 86
REMARK SMILES IDX 50 87 47 88 43 89 44 90 45 91 46 92
REMARK H PARENT 83 20 70 45 38 56
REMARK Flexibility Score: inf
ROOT
ATOM      1  C   UNL A   1      36.319  20.202  25.002  1.00  0.00     0.274 C 
ENDROOT
BRANCH   1   2
ATOM      2  O   UNL A   1      35.627  21.422  25.335  1.00  0.00    -0.461 OA
BRANCH   2   3
ATOM      3  C   UNL A   1      34.348  21.527  24.878  1.00  0.00     0.325 C 
ATOM      4  O   UNL A   1      33.690  20.588  24.443  1.00  0.00    -0.250 OA
BRANCH   3   5
ATOM      5  C   UNL A   1      33.735  22.913  25.105  1.00  0.00     0.244 C 
BRANCH   5   6
ATOM      6  N   UNL A   1      32.974  23.498  23.991  1.00  0.00    -0.310 N 
BRANCH   6   7
ATOM      7  C   UNL A   1      31.526  23.397  24.160  1.00  0.00     0.149 C 
BRANCH   7   8
ATOM      8  C   UNL A   1      31.159  23.726  25.583  1.00  0.00    -0.013 C 
ATOM      9  C   UNL A   1      30.413  22.938  26.369  1.00  0.00     0.006 C 
ENDBRANCH   7   8
ENDBRANCH   6   7
BRANCH   6  10
ATOM     10  C   UNL A   1      33.414  24.268  22.924  1.00  0.00     0.321 C 
ATOM     11  O   UNL A   1      33.770  23.720  21.874  1.00  0.00    -0.248 OA
BRANCH  10  12
ATOM     12  N   UNL A   1      33.477  25.633  23.000  1.00  0.00    -0.318 N 
ATOM     13  C   UNL A   1      32.941  26.620  22.115  1.00  0.00     0.128 C 
ATOM     14  C   UNL A   1      33.840  26.294  24.267  1.00  0.00     0.186 C 
ATOM     15  C   UNL A   1      33.621  27.901  22.516  1.00  0.00     0.088 C 
ATOM     16  C   UNL A   1      33.764  27.834  24.023  1.00  0.00     0.205 C 
BRANCH  16  17
ATOM     17  N   UNL A   1      32.796  28.659  24.767  1.00  0.00    -0.331 N 
ATOM     18  C   UNL A   1      33.266  29.507  25.852  1.00  0.00     0.262 C 
ATOM     19  C   UNL A   1      31.509  28.007  25.062  1.00  0.00     0.262 C 
ATOM     20  H   UNL A   1      32.622  29.354  24.041  1.00  0.00     0.348 HD
ATOM     21  C   UNL A   1      33.254  28.848  27.230  1.00  0.00     0.062 C 
ATOM     22  C   UNL A   1      31.338  27.403  26.465  1.00  0.00     0.062 C 
ATOM     23  C   UNL A   1      31.889  28.278  27.582  1.00  0.00     0.012 C 
ENDBRANCH  16  17
ENDBRANCH  10  12
ENDBRANCH   6  10
ENDBRANCH   5   6
ENDBRANCH   3   5
ENDBRANCH   2   3
ENDBRANCH   1   2
BRANCH   1  24
ATOM     24  C   UNL A   1      37.824  20.458  24.843  1.00  0.00     0.275 C 
BRANCH  24  25
ATOM     25  O   UNL A   1      38.392  21.406  25.768  1.00  0.00    -0.458 OA
BRANCH  25  26
ATOM     26  C   UNL A   1      39.658  21.213  26.208  1.00  0.00     0.338 C 
ATOM     27  O   UNL A   1      40.281  20.169  26.212  1.00  0.00    -0.246 OA
BRANCH  26  28
ATOM     28  C   UNL A   1      40.102  22.475  26.840  1.00  0.00     0.060 A 
ATOM     29  C   UNL A   1      41.104  22.436  27.818  1.00  0.00     0.016 A 
ATOM     30  C   UNL A   1      39.470  23.681  26.526  1.00  0.00     0.016 A 
ATOM     31  C   UNL A   1      41.458  23.605  28.506  1.00  0.00     0.010 A 
ATOM     32  C   UNL A   1      39.829  24.849  27.206  1.00  0.00     0.010 A 
ATOM     33  C   UNL A   1      40.835  24.826  28.190  1.00  0.00    -0.014 A 
BRANCH  33  34
ATOM     34  C   UNL A   1      41.453  26.118  28.581  1.00  0.00     0.031 A 
ATOM     35  C   UNL A   1      40.690  27.296  29.110  1.00  0.00     0.074 A 
ATOM     36  C   UNL A   1      42.755  26.229  28.259  1.00  0.00     0.049 A 
ATOM     37  N   UNL A   1      41.111  28.521  29.301  1.00  0.00    -0.248 NA
ATOM     38  C   UNL A   1      39.285  27.084  29.476  1.00  0.00     0.031 C 
ATOM     39  C   UNL A   1      43.574  25.136  27.721  1.00  0.00     0.029 A 
ATOM     40  N   UNL A   1      43.594  27.310  28.251  1.00  0.00    -0.354 N 
ATOM     41  C   UNL A   1      40.031  29.233  29.817  1.00  0.00     0.074 A 
ATOM     42  C   UNL A   1      38.924  28.298  29.884  1.00  0.00     0.031 C 
ATOM     43  C   UNL A   1      44.760  25.621  27.344  1.00  0.00     0.029 A 
ATOM     44  C   UNL A   1      44.776  27.054  27.600  1.00  0.00     0.049 A 
ATOM     45  H   UNL A   1      43.375  28.175  28.666  1.00  0.00     0.167 HD
ATOM     46  C   UNL A   1      39.989  30.536  30.198  1.00  0.00     0.034 A 
ATOM     47  C   UNL A   1      45.754  27.883  27.198  1.00  0.00     0.034 A 
ATOM     48  C   UNL A   1      41.124  31.435  30.104  1.00  0.00     0.049 A 
ATOM     49  C   UNL A   1      45.671  29.324  27.575  1.00  0.00     0.074 A 
ATOM     50  C   UNL A   1      41.238  32.735  30.572  1.00  0.00     0.029 A 
ATOM     51  N   UNL A   1      42.327  31.142  29.471  1.00  0.00    -0.354 N 
ATOM     52  N   UNL A   1      44.678  29.963  28.149  1.00  0.00    -0.248 NA
ATOM     53  C   UNL A   1      46.852  30.144  27.299  1.00  0.00     0.031 C 
ATOM     54  C   UNL A   1      42.470  33.252  30.151  1.00  0.00     0.029 A 
ATOM     55  C   UNL A   1      43.164  32.251  29.492  1.00  0.00     0.049 A 
ATOM     56  H   UNL A   1      42.552  30.275  29.066  1.00  0.00     0.167 HD
ATOM     57  C   UNL A   1      45.133  31.260  28.344  1.00  0.00     0.074 A 
ATOM     58  C   UNL A   1      46.484  31.309  27.815  1.00  0.00     0.031 C 
ATOM     59  C   UNL A   1      44.496  32.304  28.932  1.00  0.00     0.034 A 
BRANCH  46  60
ATOM     60  C   UNL A   1      38.684  31.101  30.725  1.00  0.00     0.023 A 
ATOM     61  C   UNL A   1      37.691  31.618  29.874  1.00  0.00     0.031 A 
ATOM     62  C   UNL A   1      38.402  31.063  32.105  1.00  0.00     0.131 A 
ATOM     63  C   UNL A   1      36.486  32.107  30.410  1.00  0.00     0.055 A 
ATOM     64  C   UNL A   1      37.179  31.491  32.626  1.00  0.00     0.041 A 
ATOM     65  F   UNL A   1      39.312  30.594  32.973  1.00  0.00    -0.206 F 
ATOM     66  C   UNL A   1      36.214  32.025  31.778  1.00  0.00     0.022 A 
BRANCH  63  67
ATOM     67  S   UNL A   1      35.314  32.946  29.308  1.00  0.00     0.124 S 
ATOM     68  O   UNL A   1      35.314  32.061  28.145  1.00  0.00    -0.237 OA
ATOM     69  O   UNL A   1      34.091  32.959  30.101  1.00  0.00    -0.237 OA
ATOM     70  O   UNL A   1      35.927  34.254  29.086  1.00  0.00    -0.744 OA
ENDBRANCH  63  67
ENDBRANCH  46  60
BRANCH  47  71
ATOM     71  C   UNL A   1      46.874  27.322  26.404  1.00  0.00     0.023 A 
ATOM     72  C   UNL A   1      47.981  26.750  27.037  1.00  0.00     0.031 A 
ATOM     73  C   UNL A   1      46.788  27.250  25.001  1.00  0.00     0.131 A 
ATOM     74  C   UNL A   1      48.973  26.128  26.267  1.00  0.00     0.055 A 
ATOM     75  C   UNL A   1      47.762  26.604  24.241  1.00  0.00     0.041 A 
ATOM     76  F   UNL A   1      45.722  27.755  24.359  1.00  0.00    -0.206 F 
ATOM     77  C   UNL A   1      48.866  26.040  24.875  1.00  0.00     0.022 A 
BRANCH  74  78
ATOM     78  S   UNL A   1      50.414  25.437  27.118  1.00  0.00     0.124 S 
ATOM     79  O   UNL A   1      51.333  25.203  26.010  1.00  0.00    -0.237 OA
ATOM     80  O   UNL A   1      50.771  26.518  28.031  1.00  0.00    -0.237 OA
ATOM     81  O   UNL A   1      49.885  24.234  27.757  1.00  0.00    -0.744 OA
ENDBRANCH  74  78
ENDBRANCH  47  71
BRANCH  59  82
ATOM     82  C   UNL A   1      45.286  33.578  29.066  1.00  0.00     0.023 A 
ATOM     83  C   UNL A   1      46.087  33.835  30.192  1.00  0.00     0.031 A 
ATOM     84  C   UNL A   1      45.204  34.565  28.069  1.00  0.00     0.131 A 
ATOM     85  C   UNL A   1      46.730  35.074  30.322  1.00  0.00     0.055 A 
ATOM     86  C   UNL A   1      45.893  35.774  28.177  1.00  0.00     0.041 A 
ATOM     87  F   UNL A   1      44.448  34.373  26.977  1.00  0.00    -0.206 F 
ATOM     88  C   UNL A   1      46.652  36.038  29.313  1.00  0.00     0.022 A 
BRANCH  85  89
ATOM     89  S   UNL A   1      47.603  35.444  31.868  1.00  0.00     0.124 S 
ATOM     90  O   UNL A   1      48.436  36.576  31.479  1.00  0.00    -0.237 OA
ATOM     91  O   UNL A   1      46.506  35.744  32.783  1.00  0.00    -0.237 OA
ATOM     92  O   UNL A   1      48.328  34.208  32.155  1.00  0.00    -0.744 OA
ENDBRANCH  85  89
ENDBRANCH  59  82
ENDBRANCH  33  34
ENDBRANCH  26  28
ENDBRANCH  25  26
ENDBRANCH  24  25
ENDBRANCH   1  24
TORSDOF 20
ENDMDL
MODEL 3
REMARK VINA RESULT:     -11.0      5.033     10.310
REMARK SMILES C=CCN(CC(=O)OCCOC(=O)c1ccc(-c2c3nc(c(-c4cc(S(=O)(=O)[O-])ccc4F)c4ccc([nH]4)c(-c4cc(S(=O)(=O)[O-])ccc4F)c4nc(c(-c5cc(S(=O)(=O)[O-])ccc5F)c5ccc2[nH]5)C=C4)C=C3)cc1)C(=O)N1CC[C@@H]([NH+]2CCCCC2)C1
REMARK SMILES IDX 9 1 8 2 6 3 7 4 5 5 4 6 3 7 2 8 1 9 77 10 78 11 79 12 80 13
REMARK SMILES IDX 89 14 81 15 82 16 83 17 84 18 88 19 85 21 87 22 86 23 10 24
REMARK SMILES IDX 11 25 12 26 13 27 14 28 15 29 76 30 16 31 75 32 17 33 18 34
REMARK SMILES IDX 19 35 69 36 20 37 74 38 68 39 70 40 21 41 73 42 67 43 66 44
REMARK SMILES IDX 22 46 54 47 34 48 53 49 35 50 38 51 52 52 71 53 36 54 37 55
REMARK SMILES IDX 51 57 72 58 39 59 23 60 24 61 32 62 25 63 31 64 33 65 30 66
REMARK SMILES IDX 26 67 27 68 28 69 29 70 55 71 56 72 64 73 57 74 63 75 65 76
REMARK SMILES IDX 62 77 58 78 59 79 60 80 61 81 40 82 41 83 49 84 42 85 48 86
REMARK SMILES IDX 50 87 47 88 43 89 44 90 45 91 46 92
REMARK H PARENT 83 20 70 45 38 56
REMARK Flexibility Score: inf
ROOT
ATOM      1  C   UNL A   1      32.647  31.235  27.154  1.00  0.00     0.274 C 
ENDROOT
BRANCH   1   2
ATOM      2  O   UNL A   1      33.340  30.289  26.316  1.00  0.00    -0.461 OA
BRANCH   2   3
ATOM      3  C   UNL A   1      34.004  29.291  26.965  1.00  0.00     0.325 C 
ATOM      4  O   UNL A   1      35.177  29.358  27.319  1.00  0.00    -0.250 OA
BRANCH   3   5
ATOM      5  C   UNL A   1      33.100  28.120  27.364  1.00  0.00     0.244 C 
BRANCH   5   6
ATOM      6  N   UNL A   1      32.580  27.278  26.277  1.00  0.00    -0.310 N 
BRANCH   6   7
ATOM      7  C   UNL A   1      33.587  26.391  25.698  1.00  0.00     0.149 C 
BRANCH   7   8
ATOM      8  C   UNL A   1      33.830  26.773  24.261  1.00  0.00    -0.013 C 
ATOM      9  C   UNL A   1      33.601  25.963  23.219  1.00  0.00     0.006 C 
ENDBRANCH   7   8
ENDBRANCH   6   7
BRANCH   6  10
ATOM     10  C   UNL A   1      31.273  27.079  25.856  1.00  0.00     0.321 C 
ATOM     11  O   UNL A   1      30.525  26.333  26.498  1.00  0.00    -0.248 OA
BRANCH  10  12
ATOM     12  N   UNL A   1      30.782  27.681  24.730  1.00  0.00    -0.318 N 
ATOM     13  C   UNL A   1      29.990  27.131  23.673  1.00  0.00     0.128 C 
ATOM     14  C   UNL A   1      30.722  29.151  24.635  1.00  0.00     0.186 C 
ATOM     15  C   UNL A   1      30.062  28.152  22.571  1.00  0.00     0.088 C 
ATOM     16  C   UNL A   1      30.067  29.501  23.261  1.00  0.00     0.205 C 
BRANCH  16  17
ATOM     17  N   UNL A   1      28.781  30.219  23.211  1.00  0.00    -0.331 N 
ATOM     18  C   UNL A   1      27.901  30.028  22.069  1.00  0.00     0.262 C 
ATOM     19  C   UNL A   1      28.822  31.615  23.680  1.00  0.00     0.262 C 
ATOM     20  H   UNL A   1      28.293  29.677  23.924  1.00  0.00     0.348 HD
ATOM     21  C   UNL A   1      28.113  31.015  20.924  1.00  0.00     0.062 C 
ATOM     22  C   UNL A   1      28.921  32.709  22.604  1.00  0.00     0.062 C 
ATOM     23  C   UNL A   1      28.037  32.460  21.391  1.00  0.00     0.012 C 
ENDBRANCH  16  17
ENDBRANCH  10  12
ENDBRANCH   6  10
ENDBRANCH   5   6
ENDBRANCH   3   5
ENDBRANCH   2   3
ENDBRANCH   1   2
BRANCH   1  24
ATOM     24  C   UNL A   1      33.520  32.469  27.416  1.00  0.00     0.275 C 
BRANCH  24  25
ATOM     25  O   UNL A   1      32.854  33.573  28.061  1.00  0.00    -0.458 OA
BRANCH  25  26
ATOM     26  C   UNL A   1      33.504  34.249  29.038  1.00  0.00     0.338 C 
ATOM     27  O   UNL A   1      33.200  35.327  29.510  1.00  0.00    -0.246 OA
BRANCH  26  28
ATOM     28  C   UNL A   1      34.755  33.513  29.325  1.00  0.00     0.060 A 
ATOM     29  C   UNL A   1      35.947  33.924  28.713  1.00  0.00     0.016 A 
ATOM     30  C   UNL A   1      34.734  32.371  30.129  1.00  0.00     0.016 A 
ATOM     31  C   UNL A   1      37.118  33.173  28.884  1.00  0.00     0.010 A 
ATOM     32  C   UNL A   1      35.903  31.627  30.308  1.00  0.00     0.010 A 
ATOM     33  C   UNL A   1      37.109  32.028  29.700  1.00  0.00    -0.014 A 
BRANCH  33  34
ATOM     34  C   UNL A   1      38.375  31.462  30.232  1.00  0.00     0.031 A 
ATOM     35  C   UNL A   1      39.124  30.325  29.605  1.00  0.00     0.074 A 
ATOM     36  C   UNL A   1      38.726  31.935  31.443  1.00  0.00     0.049 A 
ATOM     37  N   UNL A   1      40.130  29.643  30.094  1.00  0.00    -0.248 NA
ATOM     38  C   UNL A   1      38.704  29.893  28.267  1.00  0.00     0.031 C 
ATOM     39  C   UNL A   1      38.041  33.032  32.137  1.00  0.00     0.029 A 
ATOM     40  N   UNL A   1      39.673  31.513  32.335  1.00  0.00    -0.354 N 
ATOM     41  C   UNL A   1      40.476  28.704  29.126  1.00  0.00     0.074 A 
ATOM     42  C   UNL A   1      39.548  28.892  28.027  1.00  0.00     0.031 C 
ATOM     43  C   UNL A   1      38.521  33.131  33.380  1.00  0.00     0.029 A 
ATOM     44  C   UNL A   1      39.531  32.100  33.569  1.00  0.00     0.049 A 
ATOM     45  H   UNL A   1      40.378  30.862  32.118  1.00  0.00     0.167 HD
ATOM     46  C   UNL A   1      41.478  27.787  29.165  1.00  0.00     0.034 A 
ATOM     47  C   UNL A   1      40.107  31.814  34.749  1.00  0.00     0.034 A 
ATOM     48  C   UNL A   1      42.378  27.632  30.293  1.00  0.00     0.049 A 
ATOM     49  C   UNL A   1      41.169  30.766  34.792  1.00  0.00     0.074 A 
ATOM     50  C   UNL A   1      43.502  26.828  30.397  1.00  0.00     0.029 A 
ATOM     51  N   UNL A   1      42.236  28.264  31.523  1.00  0.00    -0.354 N 
ATOM     52  N   UNL A   1      41.550  29.949  33.838  1.00  0.00    -0.248 NA
ATOM     53  C   UNL A   1      41.911  30.635  36.047  1.00  0.00     0.031 C 
ATOM     54  C   UNL A   1      43.987  26.911  31.709  1.00  0.00     0.029 A 
ATOM     55  C   UNL A   1      43.219  27.831  32.403  1.00  0.00     0.049 A 
ATOM     56  H   UNL A   1      41.539  28.925  31.739  1.00  0.00     0.167 HD
ATOM     57  C   UNL A   1      42.613  29.230  34.366  1.00  0.00     0.074 A 
ATOM     58  C   UNL A   1      42.801  29.705  35.725  1.00  0.00     0.031 C 
ATOM     59  C   UNL A   1      43.378  28.283  33.768  1.00  0.00     0.034 A 
BRANCH  46  60
ATOM     60  C   UNL A   1      41.659  26.852  27.986  1.00  0.00     0.023 A 
ATOM     61  C   UNL A   1      41.174  25.532  27.992  1.00  0.00     0.031 A 
ATOM     62  C   UNL A   1      42.274  27.313  26.804  1.00  0.00     0.131 A 
ATOM     63  C   UNL A   1      41.344  24.712  26.862  1.00  0.00     0.055 A 
ATOM     64  C   UNL A   1      42.384  26.515  25.663  1.00  0.00     0.041 A 
ATOM     65  F   UNL A   1      42.771  28.558  26.736  1.00  0.00    -0.206 F 
ATOM     66  C   UNL A   1      41.925  25.202  25.690  1.00  0.00     0.022 A 
BRANCH  63  67
ATOM     67  S   UNL A   1      40.887  22.959  26.975  1.00  0.00     0.124 S 
ATOM     68  O   UNL A   1      39.430  23.027  26.890  1.00  0.00    -0.237 OA
ATOM     69  O   UNL A   1      41.568  22.382  25.823  1.00  0.00    -0.237 OA
ATOM     70  O   UNL A   1      41.409  22.551  28.278  1.00  0.00    -0.744 OA
ENDBRANCH  63  67
ENDBRANCH  46  60
BRANCH  47  71
ATOM     71  C   UNL A   1      39.664  32.559  35.952  1.00  0.00     0.023 A 
ATOM     72  C   UNL A   1      40.229  33.797  36.273  1.00  0.00     0.031 A 
ATOM     73  C   UNL A   1      38.584  32.090  36.724  1.00  0.00     0.131 A 
ATOM     74  C   UNL A   1      39.716  34.532  37.350  1.00  0.00     0.055 A 
ATOM     75  C   UNL A   1      38.058  32.840  37.775  1.00  0.00     0.041 A 
ATOM     76  F   UNL A   1      37.990  30.924  36.424  1.00  0.00    -0.206 F 
ATOM     77  C   UNL A   1      38.628  34.069  38.096  1.00  0.00     0.022 A 
BRANCH  74  78
ATOM     78  S   UNL A   1      40.503  36.109  37.765  1.00  0.00     0.124 S 
ATOM     79  O   UNL A   1      41.452  35.708  38.797  1.00  0.00    -0.237 OA
ATOM     80  O   UNL A   1      41.078  36.505  36.483  1.00  0.00    -0.237 OA
ATOM     81  O   UNL A   1      39.388  36.933  38.226  1.00  0.00    -0.744 OA
ENDBRANCH  74  78
ENDBRANCH  47  71
BRANCH  59  82
ATOM     82  C   UNL A   1      44.518  27.732  34.583  1.00  0.00     0.023 A 
ATOM     83  C   UNL A   1      44.427  26.488  35.231  1.00  0.00     0.031 A 
ATOM     84  C   UNL A   1      45.696  28.481  34.743  1.00  0.00     0.131 A 
ATOM     85  C   UNL A   1      45.473  26.056  36.058  1.00  0.00     0.055 A 
ATOM     86  C   UNL A   1      46.758  28.019  35.521  1.00  0.00     0.041 A 
ATOM     87  F   UNL A   1      45.830  29.678  34.150  1.00  0.00    -0.206 F 
ATOM     88  C   UNL A   1      46.645  26.805  36.193  1.00  0.00     0.022 A 
BRANCH  85  89
ATOM     89  S   UNL A   1      45.249  24.538  37.024  1.00  0.00     0.124 S 
ATOM     90  O   UNL A   1      46.517  23.851  36.804  1.00  0.00    -0.237 OA
ATOM     91  O   UNL A   1      45.028  25.054  38.372  1.00  0.00    -0.237 OA
ATOM     92  O   UNL A   1      44.084  23.907  36.406  1.00  0.00    -0.744 OA
ENDBRANCH  85  89
ENDBRANCH  59  82
ENDBRANCH  33  34
ENDBRANCH  26  28
ENDBRANCH  25  26
ENDBRANCH  24  25
ENDBRANCH   1  24
TORSDOF 20
ENDMDL
