MODEL 1
REMARK VINA RESULT:     -12.8      0.000      0.000
REMARK SMILES Cc1ccc(S(=O)(=O)Nc2ccc(N3CCNC3=O)cc2)cc1C(=O)OCCOC(=O)c1ccc(-c2c3nc(c(-c4cc(S(=O)(=O)[O-])ccc4F)c4ccc([nH]4)c(-c4cc(S(=O)(=O)[O-])ccc4F)c4nc(c(-c5cc(S(=O)(=O)[O-])ccc5F)c5ccc2[nH]5)C=C4)C=C3)cc1
REMARK SMILES IDX 27 1 26 2 24 3 25 4 23 5 1 6 2 7 3 8 4 9 22 10 5 11 6 12
REMARK SMILES IDX 7 13 8 14 9 15 10 17 11 18 21 19 12 20 20 21 13 22 14 23
REMARK SMILES IDX 15 24 18 25 16 26 17 27 19 28 28 30 29 31 30 32 31 33 32 34
REMARK SMILES IDX 33 35 94 36 34 37 93 38 35 39 36 40 37 41 87 42 38 43 92 44
REMARK SMILES IDX 86 45 88 46 39 47 91 48 85 49 84 50 40 52 72 53 52 54 71 55
REMARK SMILES IDX 53 56 56 57 70 58 89 59 54 60 55 61 69 63 90 64 57 65 41 66
REMARK SMILES IDX 42 67 50 68 43 69 49 70 51 71 48 72 44 73 45 74 46 75 47 76
REMARK SMILES IDX 73 77 74 78 82 79 75 80 81 81 83 82 80 83 76 84 77 85 78 86
REMARK SMILES IDX 79 87 58 88 59 89 67 90 60 91 66 92 68 93 65 94 61 95 62 96
REMARK SMILES IDX 63 97 64 98
REMARK H PARENT 9 16 17 29 88 51 56 62
REMARK Flexibility Score: inf
ROOT
ATOM      1  C   UNL A   1      32.933  28.475  26.039  1.00  0.00     0.275 C 
ENDROOT
BRANCH   1   2
ATOM      2  O   UNL A   1      33.696  27.264  25.780  1.00  0.00    -0.458 OA
BRANCH   2   3
ATOM      3  C   UNL A   1      33.823  26.949  24.469  1.00  0.00     0.338 C 
ATOM      4  O   UNL A   1      33.693  27.745  23.547  1.00  0.00    -0.246 OA
BRANCH   3   5
ATOM      5  C   UNL A   1      34.014  25.510  24.163  1.00  0.00     0.064 A 
ATOM      6  C   UNL A   1      32.270  25.754  22.318  1.00  0.00     0.045 C 
ATOM      7  C   UNL A   1      33.372  25.005  23.018  1.00  0.00    -0.036 A 
ATOM      8  C   UNL A   1      33.738  23.738  22.543  1.00  0.00     0.006 A 
ATOM      9  C   UNL A   1      34.753  23.003  23.166  1.00  0.00     0.022 A 
ATOM     10  C   UNL A   1      35.003  24.742  24.819  1.00  0.00     0.038 A 
ATOM     11  C   UNL A   1      35.387  23.494  24.315  1.00  0.00     0.088 A 
BRANCH  11  12
ATOM     12  S   UNL A   1      36.644  22.444  25.059  1.00  0.00     0.261 S 
ATOM     13  O   UNL A   1      37.298  21.731  23.988  1.00  0.00    -0.201 OA
ATOM     14  O   UNL A   1      37.411  23.324  25.927  1.00  0.00    -0.201 OA
BRANCH  12  15
ATOM     15  N   UNL A   1      35.933  21.374  26.127  1.00  0.00    -0.280 N 
ATOM     16  H   UNL A   1      36.524  20.699  26.534  1.00  0.00     0.180 HD
BRANCH  15  17
ATOM     17  C   UNL A   1      34.555  21.337  26.512  1.00  0.00     0.049 A 
ATOM     18  C   UNL A   1      34.227  21.927  27.730  1.00  0.00     0.029 A 
ATOM     19  C   UNL A   1      33.508  21.025  25.651  1.00  0.00     0.029 A 
ATOM     20  C   UNL A   1      32.940  22.439  27.932  1.00  0.00     0.028 A 
ATOM     21  C   UNL A   1      32.224  21.570  25.865  1.00  0.00     0.028 A 
ATOM     22  C   UNL A   1      32.015  22.466  26.904  1.00  0.00     0.046 A 
BRANCH  22  23
ATOM     23  N   UNL A   1      31.073  23.523  26.800  1.00  0.00    -0.293 N 
ATOM     24  C   UNL A   1      31.398  24.812  26.191  1.00  0.00     0.149 C 
ATOM     25  C   UNL A   1      29.710  23.471  27.097  1.00  0.00     0.321 C 
ATOM     26  C   UNL A   1      30.052  25.459  25.902  1.00  0.00     0.139 C 
ATOM     27  N   UNL A   1      29.125  24.647  26.635  1.00  0.00    -0.336 N 
ATOM     28  O   UNL A   1      29.084  22.588  27.658  1.00  0.00    -0.248 OA
ATOM     29  H   UNL A   1      28.185  24.892  26.794  1.00  0.00     0.165 HD
ENDBRANCH  22  23
ENDBRANCH  15  17
ENDBRANCH  12  15
ENDBRANCH  11  12
ENDBRANCH   3   5
ENDBRANCH   2   3
ENDBRANCH   1   2
BRANCH   1  30
ATOM     30  C   UNL A   1      33.435  29.264  27.270  1.00  0.00     0.275 C 
BRANCH  30  31
ATOM     31  O   UNL A   1      34.148  30.475  26.976  1.00  0.00    -0.458 OA
BRANCH  31  32
ATOM     32  C   UNL A   1      34.843  30.973  28.024  1.00  0.00     0.338 C 
ATOM     33  O   UNL A   1      34.392  31.721  28.866  1.00  0.00    -0.246 OA
BRANCH  32  34
ATOM     34  C   UNL A   1      36.073  30.157  28.183  1.00  0.00     0.060 A 
ATOM     35  C   UNL A   1      37.025  30.101  27.152  1.00  0.00     0.016 A 
ATOM     36  C   UNL A   1      36.373  29.667  29.453  1.00  0.00     0.016 A 
ATOM     37  C   UNL A   1      38.316  29.668  27.398  1.00  0.00     0.010 A 
ATOM     38  C   UNL A   1      37.651  29.280  29.719  1.00  0.00     0.010 A 
ATOM     39  C   UNL A   1      38.608  29.290  28.693  1.00  0.00    -0.014 A 
BRANCH  39  40
ATOM     40  C   UNL A   1      39.864  28.720  29.106  1.00  0.00     0.031 A 
ATOM     41  C   UNL A   1      40.160  27.311  28.781  1.00  0.00     0.074 A 
ATOM     42  C   UNL A   1      40.757  29.714  29.287  1.00  0.00     0.049 A 
ATOM     43  N   UNL A   1      41.250  26.717  29.104  1.00  0.00    -0.248 NA
ATOM     44  C   UNL A   1      39.221  26.407  28.116  1.00  0.00     0.031 C 
ATOM     45  C   UNL A   1      42.138  29.778  28.846  1.00  0.00     0.029 A 
ATOM     46  N   UNL A   1      40.534  30.980  29.810  1.00  0.00    -0.354 N 
ATOM     47  C   UNL A   1      41.301  25.522  28.408  1.00  0.00     0.074 A 
ATOM     48  C   UNL A   1      39.961  25.306  27.937  1.00  0.00     0.031 C 
ATOM     49  C   UNL A   1      42.681  30.925  29.305  1.00  0.00     0.029 A 
ATOM     50  C   UNL A   1      41.737  31.536  30.234  1.00  0.00     0.049 A 
ATOM     51  H   UNL A   1      39.655  31.420  29.871  1.00  0.00     0.167 HD
ATOM     52  C   UNL A   1      42.523  24.963  28.183  1.00  0.00     0.034 A 
ATOM     53  C   UNL A   1      41.985  31.668  31.577  1.00  0.00     0.034 A 
ATOM     54  C   UNL A   1      43.544  25.800  28.811  1.00  0.00     0.049 A 
ATOM     55  C   UNL A   1      42.908  30.614  32.122  1.00  0.00     0.074 A 
ATOM     56  C   UNL A   1      44.306  26.842  28.313  1.00  0.00     0.029 A 
ATOM     57  N   UNL A   1      43.586  25.894  30.193  1.00  0.00    -0.354 N 
ATOM     58  N   UNL A   1      43.344  29.587  31.452  1.00  0.00    -0.248 NA
ATOM     59  C   UNL A   1      43.342  30.625  33.512  1.00  0.00     0.031 C 
ATOM     60  C   UNL A   1      44.687  27.650  29.418  1.00  0.00     0.029 A 
ATOM     61  C   UNL A   1      44.202  27.070  30.581  1.00  0.00     0.049 A 
ATOM     62  H   UNL A   1      43.228  25.216  30.812  1.00  0.00     0.167 HD
ATOM     63  C   UNL A   1      43.944  28.725  32.320  1.00  0.00     0.074 A 
ATOM     64  C   UNL A   1      44.025  29.475  33.564  1.00  0.00     0.031 C 
ATOM     65  C   UNL A   1      44.236  27.433  31.988  1.00  0.00     0.034 A 
BRANCH  52  66
ATOM     66  C   UNL A   1      42.902  23.866  27.213  1.00  0.00     0.023 A 
ATOM     67  C   UNL A   1      42.078  22.718  27.193  1.00  0.00     0.031 A 
ATOM     68  C   UNL A   1      44.010  23.816  26.347  1.00  0.00     0.131 A 
ATOM     69  C   UNL A   1      42.378  21.591  26.412  1.00  0.00     0.055 A 
ATOM     70  C   UNL A   1      44.312  22.691  25.560  1.00  0.00     0.041 A 
ATOM     71  F   UNL A   1      44.853  24.844  26.200  1.00  0.00    -0.206 F 
ATOM     72  C   UNL A   1      43.499  21.566  25.595  1.00  0.00     0.022 A 
BRANCH  69  73
ATOM     73  S   UNL A   1      41.281  20.153  26.513  1.00  0.00     0.124 S 
ATOM     74  O   UNL A   1      41.758  19.325  25.411  1.00  0.00    -0.237 OA
ATOM     75  O   UNL A   1      41.545  19.656  27.859  1.00  0.00    -0.237 OA
ATOM     76  O   UNL A   1      39.951  20.729  26.320  1.00  0.00    -0.744 OA
ENDBRANCH  69  73
ENDBRANCH  52  66
BRANCH  53  77
ATOM     77  C   UNL A   1      40.804  32.116  32.362  1.00  0.00     0.023 A 
ATOM     78  C   UNL A   1      40.321  31.230  33.337  1.00  0.00     0.031 A 
ATOM     79  C   UNL A   1      40.566  33.497  32.486  1.00  0.00     0.131 A 
ATOM     80  C   UNL A   1      39.846  31.755  34.531  1.00  0.00     0.055 A 
ATOM     81  C   UNL A   1      40.135  34.017  33.691  1.00  0.00     0.041 A 
ATOM     82  F   UNL A   1      40.941  34.359  31.529  1.00  0.00    -0.206 F 
ATOM     83  C   UNL A   1      39.836  33.136  34.721  1.00  0.00     0.022 A 
BRANCH  80  84
ATOM     84  S   UNL A   1      39.452  30.620  35.891  1.00  0.00     0.124 S 
ATOM     85  O   UNL A   1      39.488  31.496  37.053  1.00  0.00    -0.237 OA
ATOM     86  O   UNL A   1      38.138  30.126  35.486  1.00  0.00    -0.237 OA
ATOM     87  O   UNL A   1      40.525  29.631  35.834  1.00  0.00    -0.744 OA
ENDBRANCH  80  84
ENDBRANCH  53  77
BRANCH  65  88
ATOM     88  C   UNL A   1      44.641  26.436  33.032  1.00  0.00     0.023 A 
ATOM     89  C   UNL A   1      43.732  25.969  33.985  1.00  0.00     0.031 A 
ATOM     90  C   UNL A   1      45.957  25.945  33.125  1.00  0.00     0.131 A 
ATOM     91  C   UNL A   1      44.188  25.324  35.133  1.00  0.00     0.055 A 
ATOM     92  C   UNL A   1      46.371  25.132  34.179  1.00  0.00     0.041 A 
ATOM     93  F   UNL A   1      46.892  26.258  32.217  1.00  0.00    -0.206 F 
ATOM     94  C   UNL A   1      45.500  24.874  35.230  1.00  0.00     0.022 A 
BRANCH  91  95
ATOM     95  S   UNL A   1      43.095  25.360  36.575  1.00  0.00     0.124 S 
ATOM     96  O   UNL A   1      43.976  24.860  37.628  1.00  0.00    -0.237 OA
ATOM     97  O   UNL A   1      42.740  26.772  36.668  1.00  0.00    -0.237 OA
ATOM     98  O   UNL A   1      42.007  24.461  36.199  1.00  0.00    -0.744 OA
ENDBRANCH  91  95
ENDBRANCH  65  88
ENDBRANCH  39  40
ENDBRANCH  32  34
ENDBRANCH  31  32
ENDBRANCH  30  31
ENDBRANCH   1  30
TORSDOF 18
ENDMDL
MODEL 2
REMARK VINA RESULT:     -12.8      4.499      9.550
REMARK SMILES Cc1ccc(S(=O)(=O)Nc2ccc(N3CCNC3=O)cc2)cc1C(=O)OCCOC(=O)c1ccc(-c2c3nc(c(-c4cc(S(=O)(=O)[O-])ccc4F)c4ccc([nH]4)c(-c4cc(S(=O)(=O)[O-])ccc4F)c4nc(c(-c5cc(S(=O)(=O)[O-])ccc5F)c5ccc2[nH]5)C=C4)C=C3)cc1
REMARK SMILES IDX 27 1 26 2 24 3 25 4 23 5 1 6 2 7 3 8 4 9 22 10 5 11 6 12
REMARK SMILES IDX 7 13 8 14 9 15 10 17 11 18 21 19 12 20 20 21 13 22 14 23
REMARK SMILES IDX 15 24 18 25 16 26 17 27 19 28 28 30 29 31 30 32 31 33 32 34
REMARK SMILES IDX 33 35 94 36 34 37 93 38 35 39 36 40 37 41 87 42 38 43 92 44
REMARK SMILES IDX 86 45 88 46 39 47 91 48 85 49 84 50 40 52 72 53 52 54 71 55
REMARK SMILES IDX 53 56 56 57 70 58 89 59 54 60 55 61 69 63 90 64 57 65 41 66
REMARK SMILES IDX 42 67 50 68 43 69 49 70 51 71 48 72 44 73 45 74 46 75 47 76
REMARK SMILES IDX 73 77 74 78 82 79 75 80 81 81 83 82 80 83 76 84 77 85 78 86
REMARK SMILES IDX 79 87 58 88 59 89 67 90 60 91 66 92 68 93 65 94 61 95 62 96
REMARK SMILES IDX 63 97 64 98
REMARK H PARENT 9 16 17 29 88 51 56 62
REMARK Flexibility Score: inf
ROOT
ATOM      1  C   UNL A   1      43.298  19.682  25.742  1.00  0.00     0.275 C 
ENDROOT
BRANCH   1   2
ATOM      2  O   UNL A   1      42.201  20.637  25.711  1.00  0.00    -0.458 OA
BRANCH   2   3
ATOM      3  C   UNL A   1      41.293  20.484  26.704  1.00  0.00     0.338 C 
ATOM      4  O   UNL A   1      41.249  19.523  27.463  1.00  0.00    -0.246 OA
BRANCH   3   5
ATOM      5  C   UNL A   1      40.224  21.510  26.770  1.00  0.00     0.064 A 
ATOM      6  C   UNL A   1      41.724  22.858  28.331  1.00  0.00     0.045 C 
ATOM      7  C   UNL A   1      40.527  22.714  27.430  1.00  0.00    -0.036 A 
ATOM      8  C   UNL A   1      39.656  23.802  27.282  1.00  0.00     0.006 A 
ATOM      9  C   UNL A   1      38.527  23.712  26.460  1.00  0.00     0.022 A 
ATOM     10  C   UNL A   1      39.056  21.408  25.981  1.00  0.00     0.038 A 
ATOM     11  C   UNL A   1      38.212  22.511  25.810  1.00  0.00     0.088 A 
BRANCH  11  12
ATOM     12  S   UNL A   1      36.713  22.497  24.815  1.00  0.00     0.261 S 
ATOM     13  O   UNL A   1      36.007  23.727  25.083  1.00  0.00    -0.201 OA
ATOM     14  O   UNL A   1      37.155  22.186  23.464  1.00  0.00    -0.201 OA
BRANCH  12  15
ATOM     15  N   UNL A   1      35.771  21.180  25.224  1.00  0.00    -0.280 N 
ATOM     16  H   UNL A   1      36.208  20.298  25.194  1.00  0.00     0.180 HD
BRANCH  15  17
ATOM     17  C   UNL A   1      34.393  21.200  25.614  1.00  0.00     0.049 A 
ATOM     18  C   UNL A   1      34.116  21.601  26.918  1.00  0.00     0.029 A 
ATOM     19  C   UNL A   1      33.326  21.134  24.725  1.00  0.00     0.029 A 
ATOM     20  C   UNL A   1      32.879  22.184  27.219  1.00  0.00     0.028 A 
ATOM     21  C   UNL A   1      32.095  21.747  25.043  1.00  0.00     0.028 A 
ATOM     22  C   UNL A   1      31.963  22.468  26.222  1.00  0.00     0.046 A 
BRANCH  22  23
ATOM     23  N   UNL A   1      31.121  23.607  26.310  1.00  0.00    -0.293 N 
ATOM     24  C   UNL A   1      31.371  24.833  25.556  1.00  0.00     0.149 C 
ATOM     25  C   UNL A   1      29.893  23.699  26.968  1.00  0.00     0.321 C 
ATOM     26  C   UNL A   1      30.056  25.598  25.602  1.00  0.00     0.139 C 
ATOM     27  N   UNL A   1      29.303  24.908  26.608  1.00  0.00    -0.336 N 
ATOM     28  O   UNL A   1      29.374  22.903  27.733  1.00  0.00    -0.248 OA
ATOM     29  H   UNL A   1      28.467  25.249  27.001  1.00  0.00     0.165 HD
ENDBRANCH  22  23
ENDBRANCH  15  17
ENDBRANCH  12  15
ENDBRANCH  11  12
ENDBRANCH   3   5
ENDBRANCH   2   3
ENDBRANCH   1   2
BRANCH   1  30
ATOM     30  C   UNL A   1      44.253  19.808  24.533  1.00  0.00     0.275 C 
BRANCH  30  31
ATOM     31  O   UNL A   1      44.586  21.150  24.148  1.00  0.00    -0.458 OA
BRANCH  31  32
ATOM     32  C   UNL A   1      45.588  21.699  24.872  1.00  0.00     0.338 C 
ATOM     33  O   UNL A   1      46.765  21.436  24.741  1.00  0.00    -0.246 OA
BRANCH  32  34
ATOM     34  C   UNL A   1      45.059  22.919  25.531  1.00  0.00     0.060 A 
ATOM     35  C   UNL A   1      45.086  23.037  26.931  1.00  0.00     0.016 A 
ATOM     36  C   UNL A   1      44.778  24.026  24.732  1.00  0.00     0.016 A 
ATOM     37  C   UNL A   1      44.951  24.269  27.544  1.00  0.00     0.010 A 
ATOM     38  C   UNL A   1      44.689  25.250  25.319  1.00  0.00     0.010 A 
ATOM     39  C   UNL A   1      44.781  25.360  26.715  1.00  0.00    -0.014 A 
BRANCH  39  40
ATOM     40  C   UNL A   1      44.524  26.698  27.180  1.00  0.00     0.031 A 
ATOM     41  C   UNL A   1      43.134  27.193  27.226  1.00  0.00     0.074 A 
ATOM     42  C   UNL A   1      45.551  27.095  27.960  1.00  0.00     0.049 A 
ATOM     43  N   UNL A   1      42.807  28.367  27.626  1.00  0.00    -0.248 NA
ATOM     44  C   UNL A   1      41.976  26.433  26.754  1.00  0.00     0.031 C 
ATOM     45  C   UNL A   1      45.500  27.773  29.242  1.00  0.00     0.029 A 
ATOM     46  N   UNL A   1      46.902  26.823  27.799  1.00  0.00    -0.354 N 
ATOM     47  C   UNL A   1      41.433  28.385  27.797  1.00  0.00     0.074 A 
ATOM     48  C   UNL A   1      40.953  27.225  27.099  1.00  0.00     0.031 C 
ATOM     49  C   UNL A   1      46.764  28.042  29.633  1.00  0.00     0.029 A 
ATOM     50  C   UNL A   1      47.658  27.740  28.522  1.00  0.00     0.049 A 
ATOM     51  H   UNL A   1      47.270  26.090  27.256  1.00  0.00     0.167 HD
ATOM     52  C   UNL A   1      40.908  29.301  28.659  1.00  0.00     0.034 A 
ATOM     53  C   UNL A   1      48.375  28.702  27.854  1.00  0.00     0.034 A 
ATOM     54  C   UNL A   1      41.994  30.119  29.194  1.00  0.00     0.049 A 
ATOM     55  C   UNL A   1      47.720  30.055  27.868  1.00  0.00     0.074 A 
ATOM     56  C   UNL A   1      42.761  29.987  30.338  1.00  0.00     0.029 A 
ATOM     57  N   UNL A   1      42.680  30.972  28.345  1.00  0.00    -0.354 N 
ATOM     58  N   UNL A   1      46.532  30.302  28.339  1.00  0.00    -0.248 NA
ATOM     59  C   UNL A   1      48.359  31.218  27.268  1.00  0.00     0.031 C 
ATOM     60  C   UNL A   1      43.990  30.659  30.101  1.00  0.00     0.029 A 
ATOM     61  C   UNL A   1      43.943  31.239  28.842  1.00  0.00     0.049 A 
ATOM     62  H   UNL A   1      42.318  31.338  27.506  1.00  0.00     0.167 HD
ATOM     63  C   UNL A   1      46.170  31.562  27.965  1.00  0.00     0.074 A 
ATOM     64  C   UNL A   1      47.389  32.130  27.410  1.00  0.00     0.031 C 
ATOM     65  C   UNL A   1      44.882  32.010  28.042  1.00  0.00     0.034 A 
BRANCH  52  66
ATOM     66  C   UNL A   1      39.524  29.346  29.267  1.00  0.00     0.023 A 
ATOM     67  C   UNL A   1      38.792  30.545  29.103  1.00  0.00     0.031 A 
ATOM     68  C   UNL A   1      38.876  28.354  30.028  1.00  0.00     0.131 A 
ATOM     69  C   UNL A   1      37.540  30.748  29.705  1.00  0.00     0.055 A 
ATOM     70  C   UNL A   1      37.620  28.553  30.628  1.00  0.00     0.041 A 
ATOM     71  F   UNL A   1      39.405  27.142  30.225  1.00  0.00    -0.206 F 
ATOM     72  C   UNL A   1      36.947  29.758  30.475  1.00  0.00     0.022 A 
BRANCH  69  73
ATOM     73  S   UNL A   1      36.721  32.348  29.473  1.00  0.00     0.124 S 
ATOM     74  O   UNL A   1      37.823  33.286  29.658  1.00  0.00    -0.237 OA
ATOM     75  O   UNL A   1      36.189  32.231  28.120  1.00  0.00    -0.237 OA
ATOM     76  O   UNL A   1      35.712  32.366  30.531  1.00  0.00    -0.744 OA
ENDBRANCH  69  73
ENDBRANCH  52  66
BRANCH  53  77
ATOM     77  C   UNL A   1      49.046  28.202  26.625  1.00  0.00     0.023 A 
ATOM     78  C   UNL A   1      50.352  27.710  26.774  1.00  0.00     0.031 A 
ATOM     79  C   UNL A   1      48.244  27.758  25.556  1.00  0.00     0.131 A 
ATOM     80  C   UNL A   1      50.733  26.608  26.021  1.00  0.00     0.055 A 
ATOM     81  C   UNL A   1      48.610  26.636  24.840  1.00  0.00     0.041 A 
ATOM     82  F   UNL A   1      47.025  28.272  25.338  1.00  0.00    -0.206 F 
ATOM     83  C   UNL A   1      49.831  26.038  25.126  1.00  0.00     0.022 A 
BRANCH  80  84
ATOM     84  S   UNL A   1      52.324  25.812  26.381  1.00  0.00     0.124 S 
ATOM     85  O   UNL A   1      52.410  25.920  27.831  1.00  0.00    -0.237 OA
ATOM     86  O   UNL A   1      52.109  24.473  25.837  1.00  0.00    -0.237 OA
ATOM     87  O   UNL A   1      53.289  26.626  25.647  1.00  0.00    -0.744 OA
ENDBRANCH  80  84
ENDBRANCH  53  77
BRANCH  65  88
ATOM     88  C   UNL A   1      44.463  33.287  27.379  1.00  0.00     0.023 A 
ATOM     89  C   UNL A   1      44.376  34.484  28.094  1.00  0.00     0.031 A 
ATOM     90  C   UNL A   1      44.107  33.340  26.018  1.00  0.00     0.131 A 
ATOM     91  C   UNL A   1      43.672  35.567  27.568  1.00  0.00     0.055 A 
ATOM     92  C   UNL A   1      43.580  34.492  25.436  1.00  0.00     0.041 A 
ATOM     93  F   UNL A   1      44.231  32.275  25.215  1.00  0.00    -0.206 F 
ATOM     94  C   UNL A   1      43.294  35.594  26.231  1.00  0.00     0.022 A 
BRANCH  91  95
ATOM     95  S   UNL A   1      43.034  36.776  28.754  1.00  0.00     0.124 S 
ATOM     96  O   UNL A   1      43.798  37.970  28.398  1.00  0.00    -0.237 OA
ATOM     97  O   UNL A   1      41.613  36.816  28.431  1.00  0.00    -0.237 OA
ATOM     98  O   UNL A   1      43.369  36.190  30.050  1.00  0.00    -0.744 OA
ENDBRANCH  91  95
ENDBRANCH  65  88
ENDBRANCH  39  40
ENDBRANCH  32  34
ENDBRANCH  31  32
ENDBRANCH  30  31
ENDBRANCH   1  30
TORSDOF 18
ENDMDL
MODEL 3
REMARK VINA RESULT:     -12.7      1.799      3.283
REMARK SMILES Cc1ccc(S(=O)(=O)Nc2ccc(N3CCNC3=O)cc2)cc1C(=O)OCCOC(=O)c1ccc(-c2c3nc(c(-c4cc(S(=O)(=O)[O-])ccc4F)c4ccc([nH]4)c(-c4cc(S(=O)(=O)[O-])ccc4F)c4nc(c(-c5cc(S(=O)(=O)[O-])ccc5F)c5ccc2[nH]5)C=C4)C=C3)cc1
REMARK SMILES IDX 27 1 26 2 24 3 25 4 23 5 1 6 2 7 3 8 4 9 22 10 5 11 6 12
REMARK SMILES IDX 7 13 8 14 9 15 10 17 11 18 21 19 12 20 20 21 13 22 14 23
REMARK SMILES IDX 15 24 18 25 16 26 17 27 19 28 28 30 29 31 30 32 31 33 32 34
REMARK SMILES IDX 33 35 94 36 34 37 93 38 35 39 36 40 37 41 87 42 38 43 92 44
REMARK SMILES IDX 86 45 88 46 39 47 91 48 85 49 84 50 40 52 72 53 52 54 71 55
REMARK SMILES IDX 53 56 56 57 70 58 89 59 54 60 55 61 69 63 90 64 57 65 41 66
REMARK SMILES IDX 42 67 50 68 43 69 49 70 51 71 48 72 44 73 45 74 46 75 47 76
REMARK SMILES IDX 73 77 74 78 82 79 75 80 81 81 83 82 80 83 76 84 77 85 78 86
REMARK SMILES IDX 79 87 58 88 59 89 67 90 60 91 66 92 68 93 65 94 61 95 62 96
REMARK SMILES IDX 63 97 64 98
REMARK H PARENT 9 16 17 29 88 51 56 62
REMARK Flexibility Score: inf
ROOT
ATOM      1  C   UNL A   1      33.350  29.862  26.601  1.00  0.00     0.275 C 
ENDROOT
BRANCH   1   2
ATOM      2  O   UNL A   1      32.976  28.839  25.638  1.00  0.00    -0.458 OA
BRANCH   2   3
ATOM      3  C   UNL A   1      31.689  28.901  25.223  1.00  0.00     0.338 C 
ATOM      4  O   UNL A   1      31.034  29.934  25.139  1.00  0.00    -0.246 OA
BRANCH   3   5
ATOM      5  C   UNL A   1      31.023  27.598  24.977  1.00  0.00     0.064 A 
ATOM      6  C   UNL A   1      30.342  28.471  22.679  1.00  0.00     0.045 C 
ATOM      7  C   UNL A   1      30.525  27.365  23.683  1.00  0.00    -0.036 A 
ATOM      8  C   UNL A   1      30.139  26.063  23.334  1.00  0.00     0.006 A 
ATOM      9  C   UNL A   1      30.284  25.004  24.236  1.00  0.00     0.022 A 
ATOM     10  C   UNL A   1      31.121  26.535  25.903  1.00  0.00     0.038 A 
ATOM     11  C   UNL A   1      30.767  25.232  25.532  1.00  0.00     0.088 A 
BRANCH  11  12
ATOM     12  S   UNL A   1      30.869  23.805  26.623  1.00  0.00     0.261 S 
ATOM     13  O   UNL A   1      32.028  23.987  27.463  1.00  0.00    -0.201 OA
ATOM     14  O   UNL A   1      29.547  23.686  27.219  1.00  0.00    -0.201 OA
BRANCH  12  15
ATOM     15  N   UNL A   1      31.013  22.407  25.721  1.00  0.00    -0.280 N 
ATOM     16  H   UNL A   1      30.177  21.930  25.510  1.00  0.00     0.180 HD
BRANCH  15  17
ATOM     17  C   UNL A   1      32.224  21.831  25.221  1.00  0.00     0.049 A 
ATOM     18  C   UNL A   1      32.804  22.448  24.115  1.00  0.00     0.029 A 
ATOM     19  C   UNL A   1      32.998  20.907  25.915  1.00  0.00     0.029 A 
ATOM     20  C   UNL A   1      34.185  22.352  23.908  1.00  0.00     0.028 A 
ATOM     21  C   UNL A   1      34.392  20.843  25.703  1.00  0.00     0.028 A 
ATOM     22  C   UNL A   1      35.004  21.742  24.841  1.00  0.00     0.046 A 
BRANCH  22  23
ATOM     23  N   UNL A   1      36.325  22.210  25.066  1.00  0.00    -0.293 N 
ATOM     24  C   UNL A   1      36.614  23.572  25.511  1.00  0.00     0.149 C 
ATOM     25  C   UNL A   1      37.500  21.456  25.058  1.00  0.00     0.321 C 
ATOM     26  C   UNL A   1      38.045  23.521  26.026  1.00  0.00     0.139 C 
ATOM     27  N   UNL A   1      38.527  22.256  25.553  1.00  0.00    -0.336 N 
ATOM     28  O   UNL A   1      37.667  20.304  24.695  1.00  0.00    -0.248 OA
ATOM     29  H   UNL A   1      39.473  21.985  25.573  1.00  0.00     0.165 HD
ENDBRANCH  22  23
ENDBRANCH  15  17
ENDBRANCH  12  15
ENDBRANCH  11  12
ENDBRANCH   3   5
ENDBRANCH   2   3
ENDBRANCH   1   2
BRANCH   1  30
ATOM     30  C   UNL A   1      34.615  29.505  27.415  1.00  0.00     0.275 C 
BRANCH  30  31
ATOM     31  O   UNL A   1      35.550  30.579  27.603  1.00  0.00    -0.458 OA
BRANCH  31  32
ATOM     32  C   UNL A   1      36.113  30.611  28.832  1.00  0.00     0.338 C 
ATOM     33  O   UNL A   1      35.559  30.994  29.841  1.00  0.00    -0.246 OA
BRANCH  32  34
ATOM     34  C   UNL A   1      37.321  29.749  28.802  1.00  0.00     0.060 A 
ATOM     35  C   UNL A   1      38.187  29.782  27.696  1.00  0.00     0.016 A 
ATOM     36  C   UNL A   1      37.703  29.115  29.983  1.00  0.00     0.016 A 
ATOM     37  C   UNL A   1      39.476  29.290  27.787  1.00  0.00     0.010 A 
ATOM     38  C   UNL A   1      38.983  28.668  30.100  1.00  0.00     0.010 A 
ATOM     39  C   UNL A   1      39.857  28.764  29.006  1.00  0.00    -0.014 A 
BRANCH  39  40
ATOM     40  C   UNL A   1      41.120  28.119  29.251  1.00  0.00     0.031 A 
ATOM     41  C   UNL A   1      41.300  26.709  28.855  1.00  0.00     0.074 A 
ATOM     42  C   UNL A   1      42.080  29.061  29.350  1.00  0.00     0.049 A 
ATOM     43  N   UNL A   1      42.387  26.051  29.030  1.00  0.00    -0.248 NA
ATOM     44  C   UNL A   1      40.243  25.875  28.284  1.00  0.00     0.031 C 
ATOM     45  C   UNL A   1      43.401  29.070  28.750  1.00  0.00     0.029 A 
ATOM     46  N   UNL A   1      41.988  30.319  29.929  1.00  0.00    -0.354 N 
ATOM     47  C   UNL A   1      42.292  24.878  28.302  1.00  0.00     0.074 A 
ATOM     48  C   UNL A   1      40.896  24.744  27.989  1.00  0.00     0.031 C 
ATOM     49  C   UNL A   1      44.054  30.174  29.171  1.00  0.00     0.029 A 
ATOM     50  C   UNL A   1      43.260  30.800  30.221  1.00  0.00     0.049 A 
ATOM     51  H   UNL A   1      41.147  30.800  30.106  1.00  0.00     0.167 HD
ATOM     52  C   UNL A   1      43.448  24.267  27.918  1.00  0.00     0.034 A 
ATOM     53  C   UNL A   1      43.672  30.876  31.528  1.00  0.00     0.034 A 
ATOM     54  C   UNL A   1      44.579  25.030  28.442  1.00  0.00     0.049 A 
ATOM     55  C   UNL A   1      44.595  29.760  31.931  1.00  0.00     0.074 A 
ATOM     56  C   UNL A   1      45.331  26.049  27.884  1.00  0.00     0.029 A 
ATOM     57  N   UNL A   1      44.788  25.077  29.810  1.00  0.00    -0.354 N 
ATOM     58  N   UNL A   1      44.893  28.735  31.187  1.00  0.00    -0.248 NA
ATOM     59  C   UNL A   1      45.190  29.704  33.260  1.00  0.00     0.031 C 
ATOM     60  C   UNL A   1      45.882  26.800  28.957  1.00  0.00     0.029 A 
ATOM     61  C   UNL A   1      45.507  26.207  30.153  1.00  0.00     0.049 A 
ATOM     62  H   UNL A   1      44.470  24.399  30.450  1.00  0.00     0.167 HD
ATOM     63  C   UNL A   1      45.545  27.816  31.954  1.00  0.00     0.074 A 
ATOM     64  C   UNL A   1      45.812  28.520  33.199  1.00  0.00     0.031 C 
ATOM     65  C   UNL A   1      45.726  26.522  31.556  1.00  0.00     0.034 A 
BRANCH  52  66
ATOM     66  C   UNL A   1      43.650  23.184  26.881  1.00  0.00     0.023 A 
ATOM     67  C   UNL A   1      42.844  22.029  26.997  1.00  0.00     0.031 A 
ATOM     68  C   UNL A   1      44.582  23.154  25.826  1.00  0.00     0.131 A 
ATOM     69  C   UNL A   1      43.005  20.914  26.159  1.00  0.00     0.055 A 
ATOM     70  C   UNL A   1      44.743  22.041  24.983  1.00  0.00     0.041 A 
ATOM     71  F   UNL A   1      45.377  24.192  25.542  1.00  0.00    -0.206 F 
ATOM     72  C   UNL A   1      43.958  20.908  25.151  1.00  0.00     0.022 A 
BRANCH  69  73
ATOM     73  S   UNL A   1      41.954  19.465  26.440  1.00  0.00     0.124 S 
ATOM     74  O   UNL A   1      42.119  19.240  27.872  1.00  0.00    -0.237 OA
ATOM     75  O   UNL A   1      40.646  19.942  26.005  1.00  0.00    -0.237 OA
ATOM     76  O   UNL A   1      42.553  18.443  25.583  1.00  0.00    -0.744 OA
ENDBRANCH  69  73
ENDBRANCH  52  66
BRANCH  53  77
ATOM     77  C   UNL A   1      42.617  31.356  32.460  1.00  0.00     0.023 A 
ATOM     78  C   UNL A   1      41.992  30.387  33.261  1.00  0.00     0.031 A 
ATOM     79  C   UNL A   1      42.654  32.699  32.880  1.00  0.00     0.131 A 
ATOM     80  C   UNL A   1      41.654  30.724  34.564  1.00  0.00     0.055 A 
ATOM     81  C   UNL A   1      42.357  33.019  34.190  1.00  0.00     0.041 A 
ATOM     82  F   UNL A   1      43.168  33.660  32.099  1.00  0.00    -0.206 F 
ATOM     83  C   UNL A   1      41.916  32.009  35.034  1.00  0.00     0.022 A 
BRANCH  80  84
ATOM     84  S   UNL A   1      41.076  29.417  35.683  1.00  0.00     0.124 S 
ATOM     85  O   UNL A   1      39.764  29.905  36.086  1.00  0.00    -0.237 OA
ATOM     86  O   UNL A   1      41.098  28.250  34.803  1.00  0.00    -0.237 OA
ATOM     87  O   UNL A   1      42.079  29.406  36.744  1.00  0.00    -0.744 OA
ENDBRANCH  80  84
ENDBRANCH  53  77
BRANCH  65  88
ATOM     88  C   UNL A   1      46.197  25.473  32.517  1.00  0.00     0.023 A 
ATOM     89  C   UNL A   1      45.323  24.514  33.034  1.00  0.00     0.031 A 
ATOM     90  C   UNL A   1      47.529  25.418  32.969  1.00  0.00     0.131 A 
ATOM     91  C   UNL A   1      45.679  23.775  34.162  1.00  0.00     0.055 A 
ATOM     92  C   UNL A   1      47.935  24.537  33.969  1.00  0.00     0.041 A 
ATOM     93  F   UNL A   1      48.474  26.233  32.479  1.00  0.00    -0.206 F 
ATOM     94  C   UNL A   1      46.991  23.756  34.622  1.00  0.00     0.022 A 
BRANCH  91  95
ATOM     95  S   UNL A   1      44.323  23.092  35.147  1.00  0.00     0.124 S 
ATOM     96  O   UNL A   1      44.398  21.672  34.808  1.00  0.00    -0.237 OA
ATOM     97  O   UNL A   1      44.716  23.437  36.509  1.00  0.00    -0.237 OA
ATOM     98  O   UNL A   1      43.146  23.789  34.636  1.00  0.00    -0.744 OA
ENDBRANCH  91  95
ENDBRANCH  65  88
ENDBRANCH  39  40
ENDBRANCH  32  34
ENDBRANCH  31  32
ENDBRANCH  30  31
ENDBRANCH   1  30
TORSDOF 18
ENDMDL
