MODEL 1
REMARK VINA RESULT:     -10.4      0.000      0.000
REMARK SMILES C[N@H+](CCS(C)(=O)=O)[C@H](CC(=O)OCCOC(=O)c1ccc(-c2c3nc(c(-c4cc(S(=O)(=O)[O-])ccc4F)c4ccc([nH]4)c(-c4cc(S(=O)(=O)[O-])ccc4F)c4nc(c(-c5cc(S(=O)(=O)[O-])ccc5F)c5ccc2[nH]5)C=C4)C=C3)cc1)c1ccccc1
REMARK SMILES IDX 14 1 13 2 11 3 12 4 10 5 9 6 2 7 1 8 3 10 4 11 5 12 6 13
REMARK SMILES IDX 7 14 8 15 82 16 83 17 87 18 84 19 86 20 85 21 15 22 16 23
REMARK SMILES IDX 17 24 18 25 19 26 20 27 81 28 21 29 80 30 22 31 23 32 24 33
REMARK SMILES IDX 74 34 25 35 79 36 73 37 75 38 26 39 78 40 72 41 71 42 27 44
REMARK SMILES IDX 59 45 39 46 58 47 40 48 43 49 57 50 76 51 41 52 42 53 56 55
REMARK SMILES IDX 77 56 44 57 28 58 29 59 37 60 30 61 36 62 38 63 35 64 31 65
REMARK SMILES IDX 32 66 33 67 34 68 60 69 61 70 69 71 62 72 68 73 70 74 67 75
REMARK SMILES IDX 63 76 64 77 65 78 66 79 45 80 46 81 54 82 47 83 53 84 55 85
REMARK SMILES IDX 52 86 48 87 49 88 50 89 51 90
REMARK H PARENT 2 9 75 43 43 54
REMARK Flexibility Score: inf
ROOT
ATOM      1  C   UNL A   1      35.287  21.245  25.053  1.00  0.00     0.274 C 
ENDROOT
BRANCH   1   2
ATOM      2  O   UNL A   1      35.355  22.597  25.549  1.00  0.00    -0.462 OA
BRANCH   2   3
ATOM      3  C   UNL A   1      34.919  23.586  24.737  1.00  0.00     0.312 C 
ATOM      4  O   UNL A   1      35.452  23.896  23.677  1.00  0.00    -0.252 OA
BRANCH   3   5
ATOM      5  C   UNL A   1      33.574  24.129  25.157  1.00  0.00     0.192 C 
BRANCH   5   6
ATOM      6  C   UNL A   1      33.048  25.479  24.638  1.00  0.00     0.226 C 
BRANCH   6   7
ATOM      7  N   UNL A   1      31.978  25.452  23.614  1.00  0.00    -0.330 N 
ATOM      8  C   UNL A   1      31.249  24.216  23.416  1.00  0.00     0.333 C 
ATOM      9  H   UNL A   1      31.225  25.943  24.096  1.00  0.00     0.348 HD
BRANCH   7  10
ATOM     10  C   UNL A   1      32.193  26.328  22.454  1.00  0.00     0.278 C 
BRANCH  10  11
ATOM     11  C   UNL A   1      32.005  27.839  22.596  1.00  0.00     0.197 C 
BRANCH  11  12
ATOM     12  S   UNL A   1      30.345  28.355  22.971  1.00  0.00     0.152 S 
ATOM     13  C   UNL A   1      30.562  29.664  24.157  1.00  0.00     0.158 C 
ATOM     14  O   UNL A   1      29.805  28.958  21.764  1.00  0.00    -0.229 OA
ATOM     15  O   UNL A   1      29.632  27.268  23.612  1.00  0.00    -0.229 OA
ENDBRANCH  11  12
ENDBRANCH  10  11
ENDBRANCH   7  10
ENDBRANCH   6   7
BRANCH   6  16
ATOM     16  C   UNL A   1      32.895  26.610  25.664  1.00  0.00     0.010 A 
ATOM     17  C   UNL A   1      31.714  26.677  26.430  1.00  0.00     0.010 A 
ATOM     18  C   UNL A   1      33.794  27.684  25.763  1.00  0.00     0.010 A 
ATOM     19  C   UNL A   1      31.442  27.764  27.260  1.00  0.00     0.001 A 
ATOM     20  C   UNL A   1      33.515  28.782  26.586  1.00  0.00     0.001 A 
ATOM     21  C   UNL A   1      32.339  28.822  27.331  1.00  0.00     0.000 A 
ENDBRANCH   6  16
ENDBRANCH   5   6
ENDBRANCH   3   5
ENDBRANCH   2   3
ENDBRANCH   1   2
BRANCH   1  22
ATOM     22  C   UNL A   1      36.713  20.709  24.943  1.00  0.00     0.275 C 
BRANCH  22  23
ATOM     23  O   UNL A   1      37.454  21.094  26.117  1.00  0.00    -0.458 OA
BRANCH  23  24
ATOM     24  C   UNL A   1      38.798  20.981  26.017  1.00  0.00     0.338 C 
ATOM     25  O   UNL A   1      39.438  19.975  25.742  1.00  0.00    -0.246 OA
BRANCH  24  26
ATOM     26  C   UNL A   1      39.454  22.271  26.286  1.00  0.00     0.060 A 
ATOM     27  C   UNL A   1      40.670  22.322  26.965  1.00  0.00     0.016 A 
ATOM     28  C   UNL A   1      38.785  23.450  25.955  1.00  0.00     0.016 A 
ATOM     29  C   UNL A   1      41.178  23.549  27.387  1.00  0.00     0.010 A 
ATOM     30  C   UNL A   1      39.355  24.685  26.276  1.00  0.00     0.010 A 
ATOM     31  C   UNL A   1      40.549  24.749  27.010  1.00  0.00    -0.014 A 
BRANCH  31  32
ATOM     32  C   UNL A   1      41.205  26.054  27.295  1.00  0.00     0.031 A 
ATOM     33  C   UNL A   1      42.571  26.388  26.758  1.00  0.00     0.074 A 
ATOM     34  C   UNL A   1      40.557  26.936  28.082  1.00  0.00     0.049 A 
ATOM     35  N   UNL A   1      43.308  27.447  26.979  1.00  0.00    -0.248 NA
ATOM     36  C   UNL A   1      43.196  25.397  25.871  1.00  0.00     0.031 C 
ATOM     37  C   UNL A   1      39.238  26.714  28.684  1.00  0.00     0.029 A 
ATOM     38  N   UNL A   1      40.906  28.191  28.507  1.00  0.00    -0.354 N 
ATOM     39  C   UNL A   1      44.496  27.244  26.285  1.00  0.00     0.074 A 
ATOM     40  C   UNL A   1      44.383  25.947  25.648  1.00  0.00     0.031 C 
ATOM     41  C   UNL A   1      38.874  27.810  29.363  1.00  0.00     0.029 A 
ATOM     42  C   UNL A   1      39.959  28.780  29.311  1.00  0.00     0.049 A 
ATOM     43  H   UNL A   1      41.754  28.628  28.262  1.00  0.00     0.167 HD
ATOM     44  C   UNL A   1      45.577  28.061  26.193  1.00  0.00     0.034 A 
ATOM     45  C   UNL A   1      39.968  29.956  29.965  1.00  0.00     0.034 A 
ATOM     46  C   UNL A   1      45.670  29.353  26.834  1.00  0.00     0.049 A 
ATOM     47  C   UNL A   1      41.170  30.843  29.842  1.00  0.00     0.074 A 
ATOM     48  C   UNL A   1      46.707  30.270  26.786  1.00  0.00     0.029 A 
ATOM     49  N   UNL A   1      44.691  29.915  27.647  1.00  0.00    -0.354 N 
ATOM     50  N   UNL A   1      42.286  30.630  29.186  1.00  0.00    -0.248 NA
ATOM     51  C   UNL A   1      41.112  32.129  30.544  1.00  0.00     0.031 C 
ATOM     52  C   UNL A   1      46.380  31.355  27.611  1.00  0.00     0.029 A 
ATOM     53  C   UNL A   1      45.110  31.148  28.124  1.00  0.00     0.049 A 
ATOM     54  H   UNL A   1      43.824  29.495  27.854  1.00  0.00     0.167 HD
ATOM     55  C   UNL A   1      43.069  31.757  29.403  1.00  0.00     0.074 A 
ATOM     56  C   UNL A   1      42.280  32.660  30.217  1.00  0.00     0.031 C 
ATOM     57  C   UNL A   1      44.330  32.020  28.972  1.00  0.00     0.034 A 
BRANCH  44  58
ATOM     58  C   UNL A   1      46.767  27.553  25.413  1.00  0.00     0.023 A 
ATOM     59  C   UNL A   1      47.030  27.974  24.098  1.00  0.00     0.031 A 
ATOM     60  C   UNL A   1      47.645  26.616  25.991  1.00  0.00     0.131 A 
ATOM     61  C   UNL A   1      48.101  27.413  23.383  1.00  0.00     0.055 A 
ATOM     62  C   UNL A   1      48.751  26.116  25.300  1.00  0.00     0.041 A 
ATOM     63  F   UNL A   1      47.434  26.162  27.236  1.00  0.00    -0.206 F 
ATOM     64  C   UNL A   1      48.976  26.504  23.983  1.00  0.00     0.022 A 
BRANCH  61  65
ATOM     65  S   UNL A   1      48.252  27.785  21.614  1.00  0.00     0.124 S 
ATOM     66  O   UNL A   1      49.301  28.804  21.613  1.00  0.00    -0.237 OA
ATOM     67  O   UNL A   1      48.619  26.491  21.051  1.00  0.00    -0.237 OA
ATOM     68  O   UNL A   1      46.923  28.271  21.250  1.00  0.00    -0.744 OA
ENDBRANCH  61  65
ENDBRANCH  44  58
BRANCH  45  69
ATOM     69  C   UNL A   1      38.812  30.330  30.823  1.00  0.00     0.023 A 
ATOM     70  C   UNL A   1      37.749  31.091  30.316  1.00  0.00     0.031 A 
ATOM     71  C   UNL A   1      38.749  29.908  32.164  1.00  0.00     0.131 A 
ATOM     72  C   UNL A   1      36.673  31.426  31.152  1.00  0.00     0.055 A 
ATOM     73  C   UNL A   1      37.656  30.206  32.978  1.00  0.00     0.041 A 
ATOM     74  F   UNL A   1      39.735  29.164  32.688  1.00  0.00    -0.206 F 
ATOM     75  C   UNL A   1      36.613  30.976  32.474  1.00  0.00     0.022 A 
BRANCH  72  76
ATOM     76  S   UNL A   1      35.365  32.494  30.494  1.00  0.00     0.124 S 
ATOM     77  O   UNL A   1      36.076  33.752  30.299  1.00  0.00    -0.237 OA
ATOM     78  O   UNL A   1      34.974  31.783  29.282  1.00  0.00    -0.237 OA
ATOM     79  O   UNL A   1      34.364  32.500  31.559  1.00  0.00    -0.744 OA
ENDBRANCH  72  76
ENDBRANCH  45  69
BRANCH  57  80
ATOM     80  C   UNL A   1      44.908  33.349  29.385  1.00  0.00     0.023 A 
ATOM     81  C   UNL A   1      44.755  34.493  28.582  1.00  0.00     0.031 A 
ATOM     82  C   UNL A   1      45.678  33.455  30.556  1.00  0.00     0.131 A 
ATOM     83  C   UNL A   1      45.424  35.677  28.921  1.00  0.00     0.055 A 
ATOM     84  C   UNL A   1      46.296  34.654  30.918  1.00  0.00     0.041 A 
ATOM     85  F   UNL A   1      45.859  32.393  31.355  1.00  0.00    -0.206 F 
ATOM     86  C   UNL A   1      46.185  35.768  30.090  1.00  0.00     0.022 A 
BRANCH  83  87
ATOM     87  S   UNL A   1      45.389  37.061  27.748  1.00  0.00     0.124 S 
ATOM     88  O   UNL A   1      45.899  38.161  28.560  1.00  0.00    -0.237 OA
ATOM     89  O   UNL A   1      46.270  36.590  26.686  1.00  0.00    -0.237 OA
ATOM     90  O   UNL A   1      43.977  37.165  27.383  1.00  0.00    -0.744 OA
ENDBRANCH  83  87
ENDBRANCH  57  80
ENDBRANCH  31  32
ENDBRANCH  24  26
ENDBRANCH  23  24
ENDBRANCH  22  23
ENDBRANCH   1  22
TORSDOF 20
ENDMDL
MODEL 2
REMARK VINA RESULT:     -10.2      5.245      7.831
REMARK SMILES C[N@H+](CCS(C)(=O)=O)[C@H](CC(=O)OCCOC(=O)c1ccc(-c2c3nc(c(-c4cc(S(=O)(=O)[O-])ccc4F)c4ccc([nH]4)c(-c4cc(S(=O)(=O)[O-])ccc4F)c4nc(c(-c5cc(S(=O)(=O)[O-])ccc5F)c5ccc2[nH]5)C=C4)C=C3)cc1)c1ccccc1
REMARK SMILES IDX 14 1 13 2 11 3 12 4 10 5 9 6 2 7 1 8 3 10 4 11 5 12 6 13
REMARK SMILES IDX 7 14 8 15 82 16 83 17 87 18 84 19 86 20 85 21 15 22 16 23
REMARK SMILES IDX 17 24 18 25 19 26 20 27 81 28 21 29 80 30 22 31 23 32 24 33
REMARK SMILES IDX 74 34 25 35 79 36 73 37 75 38 26 39 78 40 72 41 71 42 27 44
REMARK SMILES IDX 59 45 39 46 58 47 40 48 43 49 57 50 76 51 41 52 42 53 56 55
REMARK SMILES IDX 77 56 44 57 28 58 29 59 37 60 30 61 36 62 38 63 35 64 31 65
REMARK SMILES IDX 32 66 33 67 34 68 60 69 61 70 69 71 62 72 68 73 70 74 67 75
REMARK SMILES IDX 63 76 64 77 65 78 66 79 45 80 46 81 54 82 47 83 53 84 55 85
REMARK SMILES IDX 52 86 48 87 49 88 50 89 51 90
REMARK H PARENT 2 9 75 43 43 54
REMARK Flexibility Score: inf
ROOT
ATOM      1  C   UNL A   1      32.654  28.325  24.805  1.00  0.00     0.274 C 
ENDROOT
BRANCH   1   2
ATOM      2  O   UNL A   1      31.620  27.435  25.271  1.00  0.00    -0.462 OA
BRANCH   2   3
ATOM      3  C   UNL A   1      32.000  26.350  25.982  1.00  0.00     0.312 C 
ATOM      4  O   UNL A   1      31.327  25.834  26.868  1.00  0.00    -0.252 OA
BRANCH   3   5
ATOM      5  C   UNL A   1      33.243  25.698  25.425  1.00  0.00     0.192 C 
BRANCH   5   6
ATOM      6  C   UNL A   1      33.752  24.344  25.950  1.00  0.00     0.226 C 
BRANCH   6   7
ATOM      7  N   UNL A   1      32.744  23.304  26.262  1.00  0.00    -0.330 N 
ATOM      8  C   UNL A   1      32.807  22.653  27.554  1.00  0.00     0.333 C 
ATOM      9  H   UNL A   1      31.924  23.874  26.470  1.00  0.00     0.348 HD
BRANCH   7  10
ATOM     10  C   UNL A   1      32.265  22.526  25.111  1.00  0.00     0.278 C 
BRANCH  10  11
ATOM     11  C   UNL A   1      31.854  21.065  25.298  1.00  0.00     0.197 C 
BRANCH  11  12
ATOM     12  S   UNL A   1      32.987  19.876  24.618  1.00  0.00     0.152 S 
ATOM     13  C   UNL A   1      32.889  18.500  25.742  1.00  0.00     0.158 C 
ATOM     14  O   UNL A   1      32.427  19.432  23.352  1.00  0.00    -0.229 OA
ATOM     15  O   UNL A   1      34.334  20.409  24.660  1.00  0.00    -0.229 OA
ENDBRANCH  11  12
ENDBRANCH  10  11
ENDBRANCH   7  10
ENDBRANCH   6   7
BRANCH   6  16
ATOM     16  C   UNL A   1      35.039  23.792  25.324  1.00  0.00     0.010 A 
ATOM     17  C   UNL A   1      35.143  23.741  23.919  1.00  0.00     0.010 A 
ATOM     18  C   UNL A   1      36.055  23.174  26.072  1.00  0.00     0.010 A 
ATOM     19  C   UNL A   1      36.211  23.107  23.287  1.00  0.00     0.001 A 
ATOM     20  C   UNL A   1      37.121  22.525  25.438  1.00  0.00     0.001 A 
ATOM     21  C   UNL A   1      37.197  22.489  24.047  1.00  0.00     0.000 A 
ENDBRANCH   6  16
ENDBRANCH   5   6
ENDBRANCH   3   5
ENDBRANCH   2   3
ENDBRANCH   1   2
BRANCH   1  22
ATOM     22  C   UNL A   1      32.192  29.759  25.053  1.00  0.00     0.275 C 
BRANCH  22  23
ATOM     23  O   UNL A   1      32.144  30.000  26.474  1.00  0.00    -0.458 OA
BRANCH  23  24
ATOM     24  C   UNL A   1      32.744  31.138  26.889  1.00  0.00     0.338 C 
ATOM     25  O   UNL A   1      32.348  32.285  26.732  1.00  0.00    -0.246 OA
BRANCH  24  26
ATOM     26  C   UNL A   1      34.000  30.839  27.597  1.00  0.00     0.060 A 
ATOM     27  C   UNL A   1      34.343  29.525  27.912  1.00  0.00     0.016 A 
ATOM     28  C   UNL A   1      34.787  31.898  28.053  1.00  0.00     0.016 A 
ATOM     29  C   UNL A   1      35.426  29.273  28.752  1.00  0.00     0.010 A 
ATOM     30  C   UNL A   1      35.940  31.636  28.797  1.00  0.00     0.010 A 
ATOM     31  C   UNL A   1      36.264  30.322  29.170  1.00  0.00    -0.014 A 
BRANCH  31  32
ATOM     32  C   UNL A   1      37.526  30.021  29.898  1.00  0.00     0.031 A 
ATOM     33  C   UNL A   1      38.604  29.163  29.294  1.00  0.00     0.074 A 
ATOM     34  C   UNL A   1      37.676  30.514  31.144  1.00  0.00     0.049 A 
ATOM     35  N   UNL A   1      39.724  28.746  29.829  1.00  0.00    -0.248 NA
ATOM     36  C   UNL A   1      38.390  28.700  27.916  1.00  0.00     0.031 C 
ATOM     37  C   UNL A   1      36.688  31.337  31.848  1.00  0.00     0.029 A 
ATOM     38  N   UNL A   1      38.710  30.404  32.038  1.00  0.00    -0.354 N 
ATOM     39  C   UNL A   1      40.338  27.949  28.869  1.00  0.00     0.074 A 
ATOM     40  C   UNL A   1      39.452  27.929  27.722  1.00  0.00     0.031 C 
ATOM     41  C   UNL A   1      37.180  31.692  33.042  1.00  0.00     0.029 A 
ATOM     42  C   UNL A   1      38.480  31.062  33.223  1.00  0.00     0.049 A 
ATOM     43  H   UNL A   1      39.536  29.903  31.850  1.00  0.00     0.167 HD
ATOM     44  C   UNL A   1      41.525  27.294  28.943  1.00  0.00     0.034 A 
ATOM     45  C   UNL A   1      39.214  31.129  34.349  1.00  0.00     0.034 A 
ATOM     46  C   UNL A   1      42.397  27.327  30.095  1.00  0.00     0.049 A 
ATOM     47  C   UNL A   1      40.525  30.403  34.402  1.00  0.00     0.074 A 
ATOM     48  C   UNL A   1      43.632  26.721  30.264  1.00  0.00     0.029 A 
ATOM     49  N   UNL A   1      42.128  28.001  31.282  1.00  0.00    -0.354 N 
ATOM     50  N   UNL A   1      41.085  29.648  33.486  1.00  0.00    -0.248 NA
ATOM     51  C   UNL A   1      41.302  30.540  35.638  1.00  0.00     0.031 C 
ATOM     52  C   UNL A   1      44.079  26.980  31.567  1.00  0.00     0.029 A 
ATOM     53  C   UNL A   1      43.157  27.803  32.192  1.00  0.00     0.049 A 
ATOM     54  H   UNL A   1      41.321  28.540  31.452  1.00  0.00     0.167 HD
ATOM     55  C   UNL A   1      42.283  29.214  34.040  1.00  0.00     0.074 A 
ATOM     56  C   UNL A   1      42.378  29.823  35.352  1.00  0.00     0.031 C 
ATOM     57  C   UNL A   1      43.218  28.381  33.514  1.00  0.00     0.034 A 
BRANCH  44  58
ATOM     58  C   UNL A   1      41.922  26.440  27.760  1.00  0.00     0.023 A 
ATOM     59  C   UNL A   1      41.535  25.094  27.650  1.00  0.00     0.031 A 
ATOM     60  C   UNL A   1      42.718  26.981  26.733  1.00  0.00     0.131 A 
ATOM     61  C   UNL A   1      41.995  24.317  26.574  1.00  0.00     0.055 A 
ATOM     62  C   UNL A   1      43.113  26.223  25.628  1.00  0.00     0.041 A 
ATOM     63  F   UNL A   1      43.136  28.255  26.793  1.00  0.00    -0.206 F 
ATOM     64  C   UNL A   1      42.763  24.879  25.551  1.00  0.00     0.022 A 
BRANCH  61  65
ATOM     65  S   UNL A   1      41.691  22.529  26.602  1.00  0.00     0.124 S 
ATOM     66  O   UNL A   1      42.433  22.121  27.795  1.00  0.00    -0.237 OA
ATOM     67  O   UNL A   1      40.238  22.458  26.699  1.00  0.00    -0.237 OA
ATOM     68  O   UNL A   1      42.258  22.065  25.338  1.00  0.00    -0.744 OA
ENDBRANCH  61  65
ENDBRANCH  44  58
BRANCH  45  69
ATOM     69  C   UNL A   1      38.696  31.881  35.522  1.00  0.00     0.023 A 
ATOM     70  C   UNL A   1      38.134  31.215  36.620  1.00  0.00     0.031 A 
ATOM     71  C   UNL A   1      38.780  33.285  35.567  1.00  0.00     0.131 A 
ATOM     72  C   UNL A   1      37.656  31.955  37.712  1.00  0.00     0.055 A 
ATOM     73  C   UNL A   1      38.344  34.013  36.674  1.00  0.00     0.041 A 
ATOM     74  F   UNL A   1      39.325  33.965  34.546  1.00  0.00    -0.206 F 
ATOM     75  C   UNL A   1      37.770  33.348  37.752  1.00  0.00     0.022 A 
BRANCH  72  76
ATOM     76  S   UNL A   1      36.844  31.070  39.070  1.00  0.00     0.124 S 
ATOM     77  O   UNL A   1      36.666  29.742  38.496  1.00  0.00    -0.237 OA
ATOM     78  O   UNL A   1      37.832  31.182  40.138  1.00  0.00    -0.237 OA
ATOM     79  O   UNL A   1      35.614  31.830  39.282  1.00  0.00    -0.744 OA
ENDBRANCH  72  76
ENDBRANCH  45  69
BRANCH  57  80
ATOM     80  C   UNL A   1      44.419  28.101  34.381  1.00  0.00     0.023 A 
ATOM     81  C   UNL A   1      44.438  27.015  35.274  1.00  0.00     0.031 A 
ATOM     82  C   UNL A   1      45.524  28.968  34.364  1.00  0.00     0.131 A 
ATOM     83  C   UNL A   1      45.508  26.866  36.167  1.00  0.00     0.055 A 
ATOM     84  C   UNL A   1      46.614  28.781  35.217  1.00  0.00     0.041 A 
ATOM     85  F   UNL A   1      45.555  30.022  33.534  1.00  0.00    -0.206 F 
ATOM     86  C   UNL A   1      46.601  27.736  36.137  1.00  0.00     0.022 A 
BRANCH  83  87
ATOM     87  S   UNL A   1      45.394  25.592  37.454  1.00  0.00     0.124 S 
ATOM     88  O   UNL A   1      46.011  26.257  38.597  1.00  0.00    -0.237 OA
ATOM     89  O   UNL A   1      43.955  25.371  37.546  1.00  0.00    -0.237 OA
ATOM     90  O   UNL A   1      46.159  24.476  36.900  1.00  0.00    -0.744 OA
ENDBRANCH  83  87
ENDBRANCH  57  80
ENDBRANCH  31  32
ENDBRANCH  24  26
ENDBRANCH  23  24
ENDBRANCH  22  23
ENDBRANCH   1  22
TORSDOF 20
ENDMDL
MODEL 3
REMARK VINA RESULT:     -10.2      1.315      7.726
REMARK SMILES C[N@H+](CCS(C)(=O)=O)[C@H](CC(=O)OCCOC(=O)c1ccc(-c2c3nc(c(-c4cc(S(=O)(=O)[O-])ccc4F)c4ccc([nH]4)c(-c4cc(S(=O)(=O)[O-])ccc4F)c4nc(c(-c5cc(S(=O)(=O)[O-])ccc5F)c5ccc2[nH]5)C=C4)C=C3)cc1)c1ccccc1
REMARK SMILES IDX 14 1 13 2 11 3 12 4 10 5 9 6 2 7 1 8 3 10 4 11 5 12 6 13
REMARK SMILES IDX 7 14 8 15 82 16 83 17 87 18 84 19 86 20 85 21 15 22 16 23
REMARK SMILES IDX 17 24 18 25 19 26 20 27 81 28 21 29 80 30 22 31 23 32 24 33
REMARK SMILES IDX 74 34 25 35 79 36 73 37 75 38 26 39 78 40 72 41 71 42 27 44
REMARK SMILES IDX 59 45 39 46 58 47 40 48 43 49 57 50 76 51 41 52 42 53 56 55
REMARK SMILES IDX 77 56 44 57 28 58 29 59 37 60 30 61 36 62 38 63 35 64 31 65
REMARK SMILES IDX 32 66 33 67 34 68 60 69 61 70 69 71 62 72 68 73 70 74 67 75
REMARK SMILES IDX 63 76 64 77 65 78 66 79 45 80 46 81 54 82 47 83 53 84 55 85
REMARK SMILES IDX 52 86 48 87 49 88 50 89 51 90
REMARK H PARENT 2 9 75 43 43 54
REMARK Flexibility Score: inf
ROOT
ATOM      1  C   UNL A   1      35.659  20.571  25.006  1.00  0.00     0.274 C 
ENDROOT
BRANCH   1   2
ATOM      2  O   UNL A   1      35.122  21.855  24.632  1.00  0.00    -0.462 OA
BRANCH   2   3
ATOM      3  C   UNL A   1      34.791  22.711  25.623  1.00  0.00     0.312 C 
ATOM      4  O   UNL A   1      34.629  22.384  26.794  1.00  0.00    -0.252 OA
BRANCH   3   5
ATOM      5  C   UNL A   1      34.856  24.155  25.188  1.00  0.00     0.192 C 
BRANCH   5   6
ATOM      6  C   UNL A   1      34.133  24.654  23.924  1.00  0.00     0.226 C 
BRANCH   6   7
ATOM      7  N   UNL A   1      32.988  23.855  23.427  1.00  0.00    -0.330 N 
ATOM      8  C   UNL A   1      33.083  23.266  22.107  1.00  0.00     0.333 C 
ATOM      9  H   UNL A   1      33.112  22.983  23.942  1.00  0.00     0.348 HD
BRANCH   7  10
ATOM     10  C   UNL A   1      31.666  24.283  23.906  1.00  0.00     0.278 C 
BRANCH  10  11
ATOM     11  C   UNL A   1      31.308  24.136  25.385  1.00  0.00     0.197 C 
BRANCH  11  12
ATOM     12  S   UNL A   1      30.493  25.544  26.102  1.00  0.00     0.152 S 
ATOM     13  C   UNL A   1      30.097  26.568  24.701  1.00  0.00     0.158 C 
ATOM     14  O   UNL A   1      29.234  25.070  26.653  1.00  0.00    -0.229 OA
ATOM     15  O   UNL A   1      31.423  26.264  26.950  1.00  0.00    -0.229 OA
ENDBRANCH  11  12
ENDBRANCH  10  11
ENDBRANCH   7  10
ENDBRANCH   6   7
BRANCH   6  16
ATOM     16  C   UNL A   1      33.940  26.169  23.781  1.00  0.00     0.010 A 
ATOM     17  C   UNL A   1      33.870  26.957  24.947  1.00  0.00     0.010 A 
ATOM     18  C   UNL A   1      33.657  26.796  22.556  1.00  0.00     0.010 A 
ATOM     19  C   UNL A   1      33.537  28.310  24.896  1.00  0.00     0.001 A 
ATOM     20  C   UNL A   1      33.310  28.152  22.506  1.00  0.00     0.001 A 
ATOM     21  C   UNL A   1      33.247  28.906  23.675  1.00  0.00     0.000 A 
ENDBRANCH   6  16
ENDBRANCH   5   6
ENDBRANCH   3   5
ENDBRANCH   2   3
ENDBRANCH   1   2
BRANCH   1  22
ATOM     22  C   UNL A   1      37.177  20.627  24.849  1.00  0.00     0.275 C 
BRANCH  22  23
ATOM     23  O   UNL A   1      37.756  21.159  26.057  1.00  0.00    -0.458 OA
BRANCH  23  24
ATOM     24  C   UNL A   1      39.093  20.994  26.180  1.00  0.00     0.338 C 
ATOM     25  O   UNL A   1      39.727  19.958  26.034  1.00  0.00    -0.246 OA
BRANCH  24  26
ATOM     26  C   UNL A   1      39.748  22.266  26.525  1.00  0.00     0.060 A 
ATOM     27  C   UNL A   1      40.855  22.288  27.371  1.00  0.00     0.016 A 
ATOM     28  C   UNL A   1      39.176  23.461  26.086  1.00  0.00     0.016 A 
ATOM     29  C   UNL A   1      41.341  23.505  27.847  1.00  0.00     0.010 A 
ATOM     30  C   UNL A   1      39.738  24.682  26.471  1.00  0.00     0.010 A 
ATOM     31  C   UNL A   1      40.815  24.718  27.369  1.00  0.00    -0.014 A 
BRANCH  31  32
ATOM     32  C   UNL A   1      41.469  26.006  27.729  1.00  0.00     0.031 A 
ATOM     33  C   UNL A   1      40.752  27.062  28.524  1.00  0.00     0.074 A 
ATOM     34  C   UNL A   1      42.726  26.226  27.296  1.00  0.00     0.049 A 
ATOM     35  N   UNL A   1      41.155  28.264  28.852  1.00  0.00    -0.248 NA
ATOM     36  C   UNL A   1      39.402  26.733  29.001  1.00  0.00     0.031 C 
ATOM     37  C   UNL A   1      43.516  25.286  26.493  1.00  0.00     0.029 A 
ATOM     38  N   UNL A   1      43.565  27.296  27.469  1.00  0.00    -0.354 N 
ATOM     39  C   UNL A   1      40.102  28.850  29.547  1.00  0.00     0.074 A 
ATOM     40  C   UNL A   1      39.035  27.870  29.578  1.00  0.00     0.031 C 
ATOM     41  C   UNL A   1      44.734  25.803  26.281  1.00  0.00     0.029 A 
ATOM     42  C   UNL A   1      44.788  27.137  26.862  1.00  0.00     0.049 A 
ATOM     43  H   UNL A   1      43.315  28.102  27.977  1.00  0.00     0.167 HD
ATOM     44  C   UNL A   1      40.034  30.087  30.101  1.00  0.00     0.034 A 
ATOM     45  C   UNL A   1      45.833  27.978  26.753  1.00  0.00     0.034 A 
ATOM     46  C   UNL A   1      41.112  31.051  30.063  1.00  0.00     0.049 A 
ATOM     47  C   UNL A   1      45.736  29.337  27.381  1.00  0.00     0.074 A 
ATOM     48  C   UNL A   1      41.157  32.321  30.613  1.00  0.00     0.029 A 
ATOM     49  N   UNL A   1      42.336  30.855  29.433  1.00  0.00    -0.354 N 
ATOM     50  N   UNL A   1      44.729  29.874  28.028  1.00  0.00    -0.248 NA
ATOM     51  C   UNL A   1      46.916  30.199  27.264  1.00  0.00     0.031 C 
ATOM     52  C   UNL A   1      42.380  32.912  30.269  1.00  0.00     0.029 A 
ATOM     53  C   UNL A   1      43.129  31.987  29.560  1.00  0.00     0.049 A 
ATOM     54  H   UNL A   1      42.602  30.031  28.964  1.00  0.00     0.167 HD
ATOM     55  C   UNL A   1      45.154  31.145  28.393  1.00  0.00     0.074 A 
ATOM     56  C   UNL A   1      46.520  31.276  27.926  1.00  0.00     0.031 C 
ATOM     57  C   UNL A   1      44.474  32.120  29.050  1.00  0.00     0.034 A 
BRANCH  44  58
ATOM     58  C   UNL A   1      38.730  30.487  30.751  1.00  0.00     0.023 A 
ATOM     59  C   UNL A   1      37.680  31.067  30.018  1.00  0.00     0.031 A 
ATOM     60  C   UNL A   1      38.540  30.299  32.133  1.00  0.00     0.131 A 
ATOM     61  C   UNL A   1      36.518  31.498  30.677  1.00  0.00     0.055 A 
ATOM     62  C   UNL A   1      37.353  30.664  32.771  1.00  0.00     0.041 A 
ATOM     63  F   UNL A   1      39.514  29.769  32.889  1.00  0.00    -0.206 F 
ATOM     64  C   UNL A   1      36.338  31.279  32.046  1.00  0.00     0.022 A 
BRANCH  61  65
ATOM     65  S   UNL A   1      35.302  32.472  29.748  1.00  0.00     0.124 S 
ATOM     66  O   UNL A   1      36.126  33.568  29.239  1.00  0.00    -0.237 OA
ATOM     67  O   UNL A   1      34.827  31.517  28.755  1.00  0.00    -0.237 OA
ATOM     68  O   UNL A   1      34.324  32.859  30.762  1.00  0.00    -0.744 OA
ENDBRANCH  61  65
ENDBRANCH  44  58
BRANCH  45  69
ATOM     69  C   UNL A   1      47.036  27.563  25.984  1.00  0.00     0.023 A 
ATOM     70  C   UNL A   1      47.148  27.831  24.613  1.00  0.00     0.031 A 
ATOM     71  C   UNL A   1      48.105  26.908  26.624  1.00  0.00     0.131 A 
ATOM     72  C   UNL A   1      48.297  27.427  23.917  1.00  0.00     0.055 A 
ATOM     73  C   UNL A   1      49.264  26.549  25.938  1.00  0.00     0.041 A 
ATOM     74  F   UNL A   1      48.049  26.645  27.939  1.00  0.00    -0.206 F 
ATOM     75  C   UNL A   1      49.361  26.801  24.573  1.00  0.00     0.022 A 
BRANCH  72  76
ATOM     76  S   UNL A   1      48.367  27.699  22.127  1.00  0.00     0.124 S 
ATOM     77  O   UNL A   1      48.621  26.352  21.630  1.00  0.00    -0.237 OA
ATOM     78  O   UNL A   1      47.043  28.246  21.851  1.00  0.00    -0.237 OA
ATOM     79  O   UNL A   1      49.472  28.642  21.969  1.00  0.00    -0.744 OA
ENDBRANCH  72  76
ENDBRANCH  45  69
BRANCH  57  80
ATOM     80  C   UNL A   1      45.225  33.404  29.294  1.00  0.00     0.023 A 
ATOM     81  C   UNL A   1      45.272  34.418  28.321  1.00  0.00     0.031 A 
ATOM     82  C   UNL A   1      45.959  33.583  30.478  1.00  0.00     0.131 A 
ATOM     83  C   UNL A   1      46.095  35.536  28.519  1.00  0.00     0.055 A 
ATOM     84  C   UNL A   1      46.733  34.726  30.693  1.00  0.00     0.041 A 
ATOM     85  F   UNL A   1      45.953  32.644  31.437  1.00  0.00    -0.206 F 
ATOM     86  C   UNL A   1      46.818  35.701  29.703  1.00  0.00     0.022 A 
BRANCH  83  87
ATOM     87  S   UNL A   1      46.306  36.711  27.153  1.00  0.00     0.124 S 
ATOM     88  O   UNL A   1      45.116  37.545  27.281  1.00  0.00    -0.237 OA
ATOM     89  O   UNL A   1      47.573  37.352  27.488  1.00  0.00    -0.237 OA
ATOM     90  O   UNL A   1      46.337  35.856  25.967  1.00  0.00    -0.744 OA
ENDBRANCH  83  87
ENDBRANCH  57  80
ENDBRANCH  31  32
ENDBRANCH  24  26
ENDBRANCH  23  24
ENDBRANCH  22  23
ENDBRANCH   1  22
TORSDOF 20
ENDMDL
