MODEL 1
REMARK VINA RESULT:     -12.8      0.000      0.000
REMARK SMILES COc1ccccc1C(=O)N1[C@@H](C(=O)OCCOC(=O)c2ccc(-c3c4nc(c(-c5cc(S(=O)(=O)[O-])ccc5F)c5ccc([nH]5)c(-c5cc(S(=O)(=O)[O-])ccc5F)c5nc(c(-c6cc(S(=O)(=O)[O-])ccc6F)c6ccc3[nH]6)C=C5)C=C4)cc2)COC12CC[NH+](Cc1ccccc1)CC2
REMARK SMILES IDX 16 1 15 2 13 3 14 4 12 5 11 6 86 7 84 8 85 9 87 10 98 11
REMARK SMILES IDX 88 12 97 13 89 14 9 16 10 17 8 18 3 19 4 20 5 21 7 22 6 23
REMARK SMILES IDX 2 24 1 25 90 26 91 27 92 28 96 29 93 30 95 31 94 32 17 33
REMARK SMILES IDX 18 34 19 35 20 36 21 37 22 38 83 39 23 40 82 41 24 42 25 43
REMARK SMILES IDX 26 44 76 45 27 46 81 47 75 48 77 49 28 50 80 51 74 52 73 53
REMARK SMILES IDX 29 55 61 56 41 57 60 58 42 59 45 60 59 61 78 62 43 63 44 64
REMARK SMILES IDX 58 66 79 67 46 68 30 69 31 70 39 71 32 72 38 73 40 74 37 75
REMARK SMILES IDX 33 76 34 77 35 78 36 79 62 80 63 81 71 82 64 83 70 84 72 85
REMARK SMILES IDX 69 86 65 87 66 88 67 89 68 90 47 91 48 92 56 93 49 94 55 95
REMARK SMILES IDX 57 96 54 97 50 98 51 99 52 100 53 101
REMARK H PARENT 89 15 77 54 45 65
REMARK Flexibility Score: inf
ROOT
ATOM      1  C   UNL A   1      35.840  20.307  25.055  1.00  0.00     0.274 C 
ENDROOT
BRANCH   1   2
ATOM      2  O   UNL A   1      34.552  20.959  25.090  1.00  0.00    -0.460 OA
BRANCH   2   3
ATOM      3  C   UNL A   1      34.226  21.716  26.166  1.00  0.00     0.331 C 
ATOM      4  O   UNL A   1      34.826  21.662  27.234  1.00  0.00    -0.250 OA
BRANCH   3   5
ATOM      5  C   UNL A   1      32.896  22.482  25.983  1.00  0.00     0.224 C 
ATOM      6  N   UNL A   1      33.130  23.854  25.608  1.00  0.00    -0.293 N 
ATOM      7  C   UNL A   1      32.066  24.732  26.090  1.00  0.00     0.155 C 
ATOM      8  C   UNL A   1      32.003  22.671  27.203  1.00  0.00     0.200 C 
ATOM      9  O   UNL A   1      31.838  24.133  27.390  1.00  0.00    -0.352 OA
ATOM     10  C   UNL A   1      32.547  26.194  26.104  1.00  0.00     0.120 C 
ATOM     11  C   UNL A   1      30.695  24.634  25.373  1.00  0.00     0.120 C 
ATOM     12  C   UNL A   1      31.524  27.268  26.361  1.00  0.00     0.267 C 
ATOM     13  C   UNL A   1      29.772  25.849  25.632  1.00  0.00     0.267 C 
ATOM     14  N   UNL A   1      30.376  27.170  25.488  1.00  0.00    -0.331 N 
ATOM     15  H   UNL A   1      29.657  27.826  25.796  1.00  0.00     0.348 HD
BRANCH   6  16
ATOM     16  C   UNL A   1      34.126  24.148  24.717  1.00  0.00     0.260 C 
ATOM     17  O   UNL A   1      35.275  24.369  25.084  1.00  0.00    -0.269 OA
BRANCH  16  18
ATOM     18  C   UNL A   1      33.693  24.521  23.310  1.00  0.00     0.082 A 
ATOM     19  C   UNL A   1      33.210  23.669  22.288  1.00  0.00     0.131 A 
ATOM     20  C   UNL A   1      32.876  24.192  21.030  1.00  0.00     0.047 A 
ATOM     21  C   UNL A   1      32.927  25.562  20.794  1.00  0.00     0.004 A 
ATOM     22  C   UNL A   1      33.716  25.904  23.048  1.00  0.00     0.018 A 
ATOM     23  C   UNL A   1      33.331  26.420  21.809  1.00  0.00     0.001 A 
BRANCH  19  24
ATOM     24  O   UNL A   1      33.208  22.313  22.369  1.00  0.00    -0.496 OA
ATOM     25  C   UNL A   1      31.978  21.648  22.630  1.00  0.00     0.278 C 
ENDBRANCH  19  24
ENDBRANCH  16  18
ENDBRANCH   6  16
BRANCH  14  26
ATOM     26  C   UNL A   1      30.549  27.734  24.137  1.00  0.00     0.299 C 
BRANCH  26  27
ATOM     27  C   UNL A   1      29.551  28.757  23.645  1.00  0.00     0.006 A 
ATOM     28  C   UNL A   1      28.307  28.381  23.121  1.00  0.00     0.009 A 
ATOM     29  C   UNL A   1      29.843  30.127  23.759  1.00  0.00     0.009 A 
ATOM     30  C   UNL A   1      27.343  29.349  22.830  1.00  0.00     0.001 A 
ATOM     31  C   UNL A   1      28.862  31.089  23.518  1.00  0.00     0.001 A 
ATOM     32  C   UNL A   1      27.605  30.697  23.072  1.00  0.00     0.000 A 
ENDBRANCH  26  27
ENDBRANCH  14  26
ENDBRANCH   3   5
ENDBRANCH   2   3
ENDBRANCH   1   2
BRANCH   1  33
ATOM     33  C   UNL A   1      36.896  21.270  24.519  1.00  0.00     0.275 C 
BRANCH  33  34
ATOM     34  O   UNL A   1      37.478  21.978  25.614  1.00  0.00    -0.458 OA
BRANCH  34  35
ATOM     35  C   UNL A   1      38.740  21.579  25.916  1.00  0.00     0.338 C 
ATOM     36  O   UNL A   1      39.309  20.580  25.536  1.00  0.00    -0.246 OA
BRANCH  35  37
ATOM     37  C   UNL A   1      39.411  22.735  26.532  1.00  0.00     0.060 A 
ATOM     38  C   UNL A   1      38.907  24.008  26.240  1.00  0.00     0.016 A 
ATOM     39  C   UNL A   1      40.472  22.562  27.421  1.00  0.00     0.016 A 
ATOM     40  C   UNL A   1      39.465  25.125  26.839  1.00  0.00     0.010 A 
ATOM     41  C   UNL A   1      41.055  23.682  27.997  1.00  0.00     0.010 A 
ATOM     42  C   UNL A   1      40.566  24.961  27.680  1.00  0.00    -0.014 A 
BRANCH  42  43
ATOM     43  C   UNL A   1      41.365  26.142  28.038  1.00  0.00     0.031 A 
ATOM     44  C   UNL A   1      40.681  27.210  28.836  1.00  0.00     0.074 A 
ATOM     45  C   UNL A   1      42.652  26.226  27.673  1.00  0.00     0.049 A 
ATOM     46  N   UNL A   1      41.099  28.400  29.162  1.00  0.00    -0.248 NA
ATOM     47  C   UNL A   1      39.327  26.890  29.320  1.00  0.00     0.031 C 
ATOM     48  C   UNL A   1      43.399  25.184  26.966  1.00  0.00     0.029 A 
ATOM     49  N   UNL A   1      43.555  27.238  27.838  1.00  0.00    -0.354 N 
ATOM     50  C   UNL A   1      40.050  28.983  29.864  1.00  0.00     0.074 A 
ATOM     51  C   UNL A   1      38.968  28.026  29.892  1.00  0.00     0.031 C 
ATOM     52  C   UNL A   1      44.649  25.622  26.743  1.00  0.00     0.029 A 
ATOM     53  C   UNL A   1      44.766  26.991  27.238  1.00  0.00     0.049 A 
ATOM     54  H   UNL A   1      43.358  28.063  28.338  1.00  0.00     0.167 HD
ATOM     55  C   UNL A   1      40.008  30.213  30.428  1.00  0.00     0.034 A 
ATOM     56  C   UNL A   1      45.824  27.809  27.076  1.00  0.00     0.034 A 
ATOM     57  C   UNL A   1      41.116  31.132  30.359  1.00  0.00     0.049 A 
ATOM     58  C   UNL A   1      45.725  29.204  27.643  1.00  0.00     0.074 A 
ATOM     59  C   UNL A   1      41.212  32.410  30.875  1.00  0.00     0.029 A 
ATOM     60  N   UNL A   1      42.324  30.867  29.719  1.00  0.00    -0.354 N 
ATOM     61  N   UNL A   1      44.725  29.768  28.285  1.00  0.00    -0.248 NA
ATOM     62  C   UNL A   1      46.896  30.069  27.470  1.00  0.00     0.031 C 
ATOM     63  C   UNL A   1      42.444  32.944  30.480  1.00  0.00     0.029 A 
ATOM     64  C   UNL A   1      43.158  31.967  29.799  1.00  0.00     0.049 A 
ATOM     65  H   UNL A   1      42.550  30.018  29.274  1.00  0.00     0.167 HD
ATOM     66  C   UNL A   1      45.159  31.046  28.621  1.00  0.00     0.074 A 
ATOM     67  C   UNL A   1      46.518  31.157  28.124  1.00  0.00     0.031 C 
ATOM     68  C   UNL A   1      44.506  32.041  29.279  1.00  0.00     0.034 A 
BRANCH  55  69
ATOM     69  C   UNL A   1      38.712  30.634  31.078  1.00  0.00     0.023 A 
ATOM     70  C   UNL A   1      37.633  31.143  30.335  1.00  0.00     0.031 A 
ATOM     71  C   UNL A   1      38.580  30.587  32.478  1.00  0.00     0.131 A 
ATOM     72  C   UNL A   1      36.507  31.659  30.996  1.00  0.00     0.055 A 
ATOM     73  C   UNL A   1      37.421  31.020  33.123  1.00  0.00     0.041 A 
ATOM     74  F   UNL A   1      39.589  30.146  33.246  1.00  0.00    -0.206 F 
ATOM     75  C   UNL A   1      36.381  31.575  32.384  1.00  0.00     0.022 A 
BRANCH  72  76
ATOM     76  S   UNL A   1      35.283  32.588  30.031  1.00  0.00     0.124 S 
ATOM     77  O   UNL A   1      34.936  31.625  28.989  1.00  0.00    -0.237 OA
ATOM     78  O   UNL A   1      34.245  32.864  31.017  1.00  0.00    -0.237 OA
ATOM     79  O   UNL A   1      36.028  33.757  29.566  1.00  0.00    -0.744 OA
ENDBRANCH  72  76
ENDBRANCH  55  69
BRANCH  56  80
ATOM     80  C   UNL A   1      47.023  27.354  26.316  1.00  0.00     0.023 A 
ATOM     81  C   UNL A   1      47.216  27.722  24.976  1.00  0.00     0.031 A 
ATOM     82  C   UNL A   1      47.983  26.515  26.911  1.00  0.00     0.131 A 
ATOM     83  C   UNL A   1      48.316  27.220  24.263  1.00  0.00     0.055 A 
ATOM     84  C   UNL A   1      49.106  26.066  26.215  1.00  0.00     0.041 A 
ATOM     85  F   UNL A   1      47.848  26.126  28.189  1.00  0.00    -0.206 F 
ATOM     86  C   UNL A   1      49.271  26.408  24.877  1.00  0.00     0.022 A 
BRANCH  83  87
ATOM     87  S   UNL A   1      48.429  27.568  22.486  1.00  0.00     0.124 S 
ATOM     88  O   UNL A   1      48.531  26.225  21.926  1.00  0.00    -0.237 OA
ATOM     89  O   UNL A   1      47.178  28.274  22.236  1.00  0.00    -0.237 OA
ATOM     90  O   UNL A   1      49.637  28.384  22.376  1.00  0.00    -0.744 OA
ENDBRANCH  83  87
ENDBRANCH  56  80
BRANCH  68  91
ATOM     91  C   UNL A   1      45.284  33.308  29.533  1.00  0.00     0.023 A 
ATOM     92  C   UNL A   1      45.238  34.394  28.643  1.00  0.00     0.031 A 
ATOM     93  C   UNL A   1      46.098  33.417  30.674  1.00  0.00     0.131 A 
ATOM     94  C   UNL A   1      46.050  35.513  28.871  1.00  0.00     0.055 A 
ATOM     95  C   UNL A   1      46.841  34.567  30.937  1.00  0.00     0.041 A 
ATOM     96  F   UNL A   1      46.178  32.408  31.556  1.00  0.00    -0.206 F 
ATOM     97  C   UNL A   1      46.835  35.616  30.023  1.00  0.00     0.022 A 
BRANCH  94  98
ATOM     98  S   UNL A   1      46.164  36.777  27.577  1.00  0.00     0.124 S 
ATOM     99  O   UNL A   1      44.788  36.845  27.097  1.00  0.00    -0.237 OA
ATOM    100  O   UNL A   1      46.638  37.942  28.319  1.00  0.00    -0.237 OA
ATOM    101  O   UNL A   1      47.125  36.213  26.630  1.00  0.00    -0.744 OA
ENDBRANCH  94  98
ENDBRANCH  68  91
ENDBRANCH  42  43
ENDBRANCH  35  37
ENDBRANCH  34  35
ENDBRANCH  33  34
ENDBRANCH   1  33
TORSDOF 19
ENDMDL
MODEL 2
REMARK VINA RESULT:     -12.7      4.926     10.144
REMARK SMILES COc1ccccc1C(=O)N1[C@@H](C(=O)OCCOC(=O)c2ccc(-c3c4nc(c(-c5cc(S(=O)(=O)[O-])ccc5F)c5ccc([nH]5)c(-c5cc(S(=O)(=O)[O-])ccc5F)c5nc(c(-c6cc(S(=O)(=O)[O-])ccc6F)c6ccc3[nH]6)C=C5)C=C4)cc2)COC12CC[NH+](Cc1ccccc1)CC2
REMARK SMILES IDX 16 1 15 2 13 3 14 4 12 5 11 6 86 7 84 8 85 9 87 10 98 11
REMARK SMILES IDX 88 12 97 13 89 14 9 16 10 17 8 18 3 19 4 20 5 21 7 22 6 23
REMARK SMILES IDX 2 24 1 25 90 26 91 27 92 28 96 29 93 30 95 31 94 32 17 33
REMARK SMILES IDX 18 34 19 35 20 36 21 37 22 38 83 39 23 40 82 41 24 42 25 43
REMARK SMILES IDX 26 44 76 45 27 46 81 47 75 48 77 49 28 50 80 51 74 52 73 53
REMARK SMILES IDX 29 55 61 56 41 57 60 58 42 59 45 60 59 61 78 62 43 63 44 64
REMARK SMILES IDX 58 66 79 67 46 68 30 69 31 70 39 71 32 72 38 73 40 74 37 75
REMARK SMILES IDX 33 76 34 77 35 78 36 79 62 80 63 81 71 82 64 83 70 84 72 85
REMARK SMILES IDX 69 86 65 87 66 88 67 89 68 90 47 91 48 92 56 93 49 94 55 95
REMARK SMILES IDX 57 96 54 97 50 98 51 99 52 100 53 101
REMARK H PARENT 89 15 77 54 45 65
REMARK Flexibility Score: inf
ROOT
ATOM      1  C   UNL A   1      31.400  29.464  25.635  1.00  0.00     0.274 C 
ENDROOT
BRANCH   1   2
ATOM      2  O   UNL A   1      31.696  29.355  24.226  1.00  0.00    -0.460 OA
BRANCH   2   3
ATOM      3  C   UNL A   1      32.845  28.750  23.839  1.00  0.00     0.331 C 
ATOM      4  O   UNL A   1      33.942  29.298  23.879  1.00  0.00    -0.250 OA
BRANCH   3   5
ATOM      5  C   UNL A   1      32.604  27.394  23.136  1.00  0.00     0.224 C 
ATOM      6  N   UNL A   1      33.135  26.302  23.912  1.00  0.00    -0.293 N 
ATOM      7  C   UNL A   1      33.560  25.193  23.060  1.00  0.00     0.155 C 
ATOM      8  C   UNL A   1      33.289  27.148  21.797  1.00  0.00     0.200 C 
ATOM      9  O   UNL A   1      34.142  25.947  21.967  1.00  0.00    -0.352 OA
ATOM     10  C   UNL A   1      34.528  24.273  23.825  1.00  0.00     0.120 C 
ATOM     11  C   UNL A   1      32.442  24.349  22.396  1.00  0.00     0.120 C 
ATOM     12  C   UNL A   1      34.901  22.961  23.189  1.00  0.00     0.267 C 
ATOM     13  C   UNL A   1      32.930  22.975  21.875  1.00  0.00     0.267 C 
ATOM     14  N   UNL A   1      33.750  22.184  22.787  1.00  0.00    -0.331 N 
ATOM     15  H   UNL A   1      34.056  21.380  22.239  1.00  0.00     0.348 HD
BRANCH   6  16
ATOM     16  C   UNL A   1      32.997  26.312  25.274  1.00  0.00     0.260 C 
ATOM     17  O   UNL A   1      33.802  26.883  26.000  1.00  0.00    -0.269 OA
BRANCH  16  18
ATOM     18  C   UNL A   1      32.010  25.319  25.865  1.00  0.00     0.082 A 
ATOM     19  C   UNL A   1      30.597  25.354  25.814  1.00  0.00     0.131 A 
ATOM     20  C   UNL A   1      29.842  24.352  26.442  1.00  0.00     0.047 A 
ATOM     21  C   UNL A   1      30.466  23.265  27.046  1.00  0.00     0.004 A 
ATOM     22  C   UNL A   1      32.614  24.198  26.466  1.00  0.00     0.018 A 
ATOM     23  C   UNL A   1      31.853  23.179  27.042  1.00  0.00     0.001 A 
BRANCH  19  24
ATOM     24  O   UNL A   1      29.880  26.407  25.342  1.00  0.00    -0.496 OA
ATOM     25  C   UNL A   1      29.279  26.299  24.056  1.00  0.00     0.278 C 
ENDBRANCH  19  24
ENDBRANCH  16  18
ENDBRANCH   6  16
BRANCH  14  26
ATOM     26  C   UNL A   1      33.090  21.416  23.858  1.00  0.00     0.299 C 
BRANCH  26  27
ATOM     27  C   UNL A   1      33.255  19.913  23.879  1.00  0.00     0.006 A 
ATOM     28  C   UNL A   1      32.433  19.070  23.120  1.00  0.00     0.009 A 
ATOM     29  C   UNL A   1      34.291  19.336  24.634  1.00  0.00     0.009 A 
ATOM     30  C   UNL A   1      32.714  17.705  23.031  1.00  0.00     0.001 A 
ATOM     31  C   UNL A   1      34.602  17.983  24.502  1.00  0.00     0.001 A 
ATOM     32  C   UNL A   1      33.823  17.171  23.684  1.00  0.00     0.000 A 
ENDBRANCH  26  27
ENDBRANCH  14  26
ENDBRANCH   3   5
ENDBRANCH   2   3
ENDBRANCH   1   2
BRANCH   1  33
ATOM     33  C   UNL A   1      31.877  30.814  26.165  1.00  0.00     0.275 C 
BRANCH  33  34
ATOM     34  O   UNL A   1      33.041  30.615  26.967  1.00  0.00    -0.458 OA
BRANCH  34  35
ATOM     35  C   UNL A   1      33.584  31.766  27.439  1.00  0.00     0.338 C 
ATOM     36  O   UNL A   1      33.029  32.829  27.609  1.00  0.00    -0.246 OA
BRANCH  35  37
ATOM     37  C   UNL A   1      34.893  31.410  28.011  1.00  0.00     0.060 A 
ATOM     38  C   UNL A   1      35.090  30.079  28.398  1.00  0.00     0.016 A 
ATOM     39  C   UNL A   1      35.917  32.352  28.108  1.00  0.00     0.016 A 
ATOM     40  C   UNL A   1      36.322  29.678  28.888  1.00  0.00     0.010 A 
ATOM     41  C   UNL A   1      37.142  31.961  28.630  1.00  0.00     0.010 A 
ATOM     42  C   UNL A   1      37.329  30.632  29.044  1.00  0.00    -0.014 A 
BRANCH  42  43
ATOM     43  C   UNL A   1      38.499  30.296  29.869  1.00  0.00     0.031 A 
ATOM     44  C   UNL A   1      39.471  29.308  29.301  1.00  0.00     0.074 A 
ATOM     45  C   UNL A   1      38.676  30.880  31.063  1.00  0.00     0.049 A 
ATOM     46  N   UNL A   1      40.497  28.735  29.863  1.00  0.00    -0.248 NA
ATOM     47  C   UNL A   1      39.238  28.899  27.905  1.00  0.00     0.031 C 
ATOM     48  C   UNL A   1      37.809  31.910  31.636  1.00  0.00     0.029 A 
ATOM     49  N   UNL A   1      39.639  30.679  32.012  1.00  0.00    -0.354 N 
ATOM     50  C   UNL A   1      41.016  27.876  28.901  1.00  0.00     0.074 A 
ATOM     51  C   UNL A   1      40.176  27.983  27.730  1.00  0.00     0.031 C 
ATOM     52  C   UNL A   1      38.275  32.241  32.852  1.00  0.00     0.029 A 
ATOM     53  C   UNL A   1      39.431  31.404  33.160  1.00  0.00     0.049 A 
ATOM     54  H   UNL A   1      40.406  30.076  31.885  1.00  0.00     0.167 HD
ATOM     55  C   UNL A   1      42.101  27.072  29.002  1.00  0.00     0.034 A 
ATOM     56  C   UNL A   1      40.084  31.351  34.336  1.00  0.00     0.034 A 
ATOM     57  C   UNL A   1      42.898  26.996  30.201  1.00  0.00     0.049 A 
ATOM     58  C   UNL A   1      41.241  30.388  34.454  1.00  0.00     0.074 A 
ATOM     59  C   UNL A   1      44.015  26.222  30.448  1.00  0.00     0.029 A 
ATOM     60  N   UNL A   1      42.648  27.722  31.362  1.00  0.00    -0.354 N 
ATOM     61  N   UNL A   1      41.719  29.556  33.554  1.00  0.00    -0.248 NA
ATOM     62  C   UNL A   1      41.948  30.361  35.737  1.00  0.00     0.031 C 
ATOM     63  C   UNL A   1      44.391  26.421  31.781  1.00  0.00     0.029 A 
ATOM     64  C   UNL A   1      43.569  27.391  32.339  1.00  0.00     0.049 A 
ATOM     65  H   UNL A   1      41.920  28.376  31.471  1.00  0.00     0.167 HD
ATOM     66  C   UNL A   1      42.806  28.928  34.154  1.00  0.00     0.074 A 
ATOM     67  C   UNL A   1      42.918  29.495  35.485  1.00  0.00     0.031 C 
ATOM     68  C   UNL A   1      43.639  27.973  33.661  1.00  0.00     0.034 A 
BRANCH  55  69
ATOM     69  C   UNL A   1      42.413  26.179  27.825  1.00  0.00     0.023 A 
ATOM     70  C   UNL A   1      41.882  24.882  27.708  1.00  0.00     0.031 A 
ATOM     71  C   UNL A   1      43.315  26.609  26.835  1.00  0.00     0.131 A 
ATOM     72  C   UNL A   1      42.317  24.036  26.676  1.00  0.00     0.055 A 
ATOM     73  C   UNL A   1      43.675  25.794  25.762  1.00  0.00     0.041 A 
ATOM     74  F   UNL A   1      43.885  27.822  26.910  1.00  0.00    -0.206 F 
ATOM     75  C   UNL A   1      43.189  24.492  25.685  1.00  0.00     0.022 A 
BRANCH  72  76
ATOM     76  S   UNL A   1      41.856  22.282  26.738  1.00  0.00     0.124 S 
ATOM     77  O   UNL A   1      42.559  21.834  27.937  1.00  0.00    -0.237 OA
ATOM     78  O   UNL A   1      40.403  22.339  26.833  1.00  0.00    -0.237 OA
ATOM     79  O   UNL A   1      42.378  21.745  25.482  1.00  0.00    -0.744 OA
ENDBRANCH  72  76
ENDBRANCH  55  69
BRANCH  56  80
ATOM     80  C   UNL A   1      39.637  32.182  35.490  1.00  0.00     0.023 A 
ATOM     81  C   UNL A   1      38.856  31.636  36.520  1.00  0.00     0.031 A 
ATOM     82  C   UNL A   1      39.958  33.550  35.565  1.00  0.00     0.131 A 
ATOM     83  C   UNL A   1      38.387  32.459  37.556  1.00  0.00     0.055 A 
ATOM     84  C   UNL A   1      39.539  34.352  36.628  1.00  0.00     0.041 A 
ATOM     85  F   UNL A   1      40.698  34.128  34.606  1.00  0.00    -0.206 F 
ATOM     86  C   UNL A   1      38.736  33.809  37.626  1.00  0.00     0.022 A 
BRANCH  83  87
ATOM     87  S   UNL A   1      37.230  31.758  38.764  1.00  0.00     0.124 S 
ATOM     88  O   UNL A   1      37.069  30.397  38.266  1.00  0.00    -0.237 OA
ATOM     89  O   UNL A   1      37.972  31.902  40.012  1.00  0.00    -0.237 OA
ATOM     90  O   UNL A   1      36.050  32.612  38.640  1.00  0.00    -0.744 OA
ENDBRANCH  83  87
ENDBRANCH  56  80
BRANCH  68  91
ATOM     91  C   UNL A   1      44.767  27.531  34.560  1.00  0.00     0.023 A 
ATOM     92  C   UNL A   1      44.631  26.439  35.433  1.00  0.00     0.031 A 
ATOM     93  C   UNL A   1      45.987  28.229  34.553  1.00  0.00     0.131 A 
ATOM     94  C   UNL A   1      45.672  26.123  36.317  1.00  0.00     0.055 A 
ATOM     95  C   UNL A   1      47.049  27.858  35.378  1.00  0.00     0.041 A 
ATOM     96  F   UNL A   1      46.170  29.281  33.738  1.00  0.00    -0.206 F 
ATOM     97  C   UNL A   1      46.887  26.811  36.280  1.00  0.00     0.022 A 
BRANCH  94  98
ATOM     98  S   UNL A   1      45.368  24.882  37.603  1.00  0.00     0.124 S 
ATOM     99  O   UNL A   1      46.479  25.119  38.520  1.00  0.00    -0.237 OA
ATOM    100  O   UNL A   1      44.046  25.258  38.094  1.00  0.00    -0.237 OA
ATOM    101  O   UNL A   1      45.422  23.615  36.876  1.00  0.00    -0.744 OA
ENDBRANCH  94  98
ENDBRANCH  68  91
ENDBRANCH  42  43
ENDBRANCH  35  37
ENDBRANCH  34  35
ENDBRANCH  33  34
ENDBRANCH   1  33
TORSDOF 19
ENDMDL
MODEL 3
REMARK VINA RESULT:     -12.6      1.615      2.503
REMARK SMILES COc1ccccc1C(=O)N1[C@@H](C(=O)OCCOC(=O)c2ccc(-c3c4nc(c(-c5cc(S(=O)(=O)[O-])ccc5F)c5ccc([nH]5)c(-c5cc(S(=O)(=O)[O-])ccc5F)c5nc(c(-c6cc(S(=O)(=O)[O-])ccc6F)c6ccc3[nH]6)C=C5)C=C4)cc2)COC12CC[NH+](Cc1ccccc1)CC2
REMARK SMILES IDX 16 1 15 2 13 3 14 4 12 5 11 6 86 7 84 8 85 9 87 10 98 11
REMARK SMILES IDX 88 12 97 13 89 14 9 16 10 17 8 18 3 19 4 20 5 21 7 22 6 23
REMARK SMILES IDX 2 24 1 25 90 26 91 27 92 28 96 29 93 30 95 31 94 32 17 33
REMARK SMILES IDX 18 34 19 35 20 36 21 37 22 38 83 39 23 40 82 41 24 42 25 43
REMARK SMILES IDX 26 44 76 45 27 46 81 47 75 48 77 49 28 50 80 51 74 52 73 53
REMARK SMILES IDX 29 55 61 56 41 57 60 58 42 59 45 60 59 61 78 62 43 63 44 64
REMARK SMILES IDX 58 66 79 67 46 68 30 69 31 70 39 71 32 72 38 73 40 74 37 75
REMARK SMILES IDX 33 76 34 77 35 78 36 79 62 80 63 81 71 82 64 83 70 84 72 85
REMARK SMILES IDX 69 86 65 87 66 88 67 89 68 90 47 91 48 92 56 93 49 94 55 95
REMARK SMILES IDX 57 96 54 97 50 98 51 99 52 100 53 101
REMARK H PARENT 89 15 77 54 45 65
REMARK Flexibility Score: inf
ROOT
ATOM      1  C   UNL A   1      34.872  21.539  24.727  1.00  0.00     0.274 C 
ENDROOT
BRANCH   1   2
ATOM      2  O   UNL A   1      34.036  22.072  25.776  1.00  0.00    -0.460 OA
BRANCH   2   3
ATOM      3  C   UNL A   1      32.715  22.258  25.535  1.00  0.00     0.331 C 
ATOM      4  O   UNL A   1      31.838  21.533  25.992  1.00  0.00    -0.250 OA
BRANCH   3   5
ATOM      5  C   UNL A   1      32.445  23.330  24.455  1.00  0.00     0.224 C 
ATOM      6  N   UNL A   1      31.628  24.399  24.971  1.00  0.00    -0.293 N 
ATOM      7  C   UNL A   1      30.805  25.001  23.924  1.00  0.00     0.155 C 
ATOM      8  C   UNL A   1      31.638  22.925  23.227  1.00  0.00     0.200 C 
ATOM      9  O   UNL A   1      30.444  23.804  23.190  1.00  0.00    -0.352 OA
ATOM     10  C   UNL A   1      29.634  25.780  24.548  1.00  0.00     0.120 C 
ATOM     11  C   UNL A   1      31.535  25.888  22.882  1.00  0.00     0.120 C 
ATOM     12  C   UNL A   1      28.806  26.650  23.640  1.00  0.00     0.267 C 
ATOM     13  C   UNL A   1      30.584  26.815  22.084  1.00  0.00     0.267 C 
ATOM     14  N   UNL A   1      29.604  27.569  22.860  1.00  0.00    -0.331 N 
ATOM     15  H   UNL A   1      29.014  28.028  22.166  1.00  0.00     0.348 HD
BRANCH   6  16
ATOM     16  C   UNL A   1      31.844  24.860  26.241  1.00  0.00     0.260 C 
ATOM     17  O   UNL A   1      31.352  24.310  27.219  1.00  0.00    -0.269 OA
BRANCH  16  18
ATOM     18  C   UNL A   1      32.431  26.255  26.368  1.00  0.00     0.082 A 
ATOM     19  C   UNL A   1      33.559  26.794  25.706  1.00  0.00     0.131 A 
ATOM     20  C   UNL A   1      33.971  28.109  25.968  1.00  0.00     0.047 A 
ATOM     21  C   UNL A   1      33.230  28.932  26.809  1.00  0.00     0.004 A 
ATOM     22  C   UNL A   1      31.690  27.117  27.200  1.00  0.00     0.018 A 
ATOM     23  C   UNL A   1      32.079  28.441  27.412  1.00  0.00     0.001 A 
BRANCH  19  24
ATOM     24  O   UNL A   1      34.413  26.062  24.943  1.00  0.00    -0.496 OA
ATOM     25  C   UNL A   1      35.249  25.105  25.583  1.00  0.00     0.278 C 
ENDBRANCH  19  24
ENDBRANCH  16  18
ENDBRANCH   6  16
BRANCH  14  26
ATOM     26  C   UNL A   1      30.032  28.796  23.555  1.00  0.00     0.299 C 
BRANCH  26  27
ATOM     27  C   UNL A   1      29.554  30.130  23.032  1.00  0.00     0.006 A 
ATOM     28  C   UNL A   1      29.240  30.322  21.679  1.00  0.00     0.009 A 
ATOM     29  C   UNL A   1      29.362  31.201  23.921  1.00  0.00     0.009 A 
ATOM     30  C   UNL A   1      28.645  31.513  21.256  1.00  0.00     0.001 A 
ATOM     31  C   UNL A   1      28.720  32.368  23.507  1.00  0.00     0.001 A 
ATOM     32  C   UNL A   1      28.344  32.514  22.177  1.00  0.00     0.000 A 
ENDBRANCH  26  27
ENDBRANCH  14  26
ENDBRANCH   3   5
ENDBRANCH   2   3
ENDBRANCH   1   2
BRANCH   1  33
ATOM     33  C   UNL A   1      36.138  20.934  25.328  1.00  0.00     0.275 C 
BRANCH  33  34
ATOM     34  O   UNL A   1      37.054  21.984  25.641  1.00  0.00    -0.458 OA
BRANCH  34  35
ATOM     35  C   UNL A   1      38.326  21.558  25.851  1.00  0.00     0.338 C 
ATOM     36  O   UNL A   1      38.857  20.568  25.398  1.00  0.00    -0.246 OA
BRANCH  35  37
ATOM     37  C   UNL A   1      39.048  22.680  26.472  1.00  0.00     0.060 A 
ATOM     38  C   UNL A   1      38.529  23.967  26.285  1.00  0.00     0.016 A 
ATOM     39  C   UNL A   1      40.174  22.460  27.266  1.00  0.00     0.016 A 
ATOM     40  C   UNL A   1      39.137  25.051  26.895  1.00  0.00     0.010 A 
ATOM     41  C   UNL A   1      40.804  23.548  27.851  1.00  0.00     0.010 A 
ATOM     42  C   UNL A   1      40.300  24.843  27.640  1.00  0.00    -0.014 A 
BRANCH  42  43
ATOM     43  C   UNL A   1      41.130  26.003  27.995  1.00  0.00     0.031 A 
ATOM     44  C   UNL A   1      40.476  27.087  28.797  1.00  0.00     0.074 A 
ATOM     45  C   UNL A   1      42.417  26.054  27.624  1.00  0.00     0.049 A 
ATOM     46  N   UNL A   1      40.926  28.266  29.122  1.00  0.00    -0.248 NA
ATOM     47  C   UNL A   1      39.116  26.801  29.286  1.00  0.00     0.031 C 
ATOM     48  C   UNL A   1      43.134  24.994  26.914  1.00  0.00     0.029 A 
ATOM     49  N   UNL A   1      43.346  27.043  27.786  1.00  0.00    -0.354 N 
ATOM     50  C   UNL A   1      39.895  28.874  29.828  1.00  0.00     0.074 A 
ATOM     51  C   UNL A   1      38.789  27.945  29.861  1.00  0.00     0.031 C 
ATOM     52  C   UNL A   1      44.393  25.401  26.685  1.00  0.00     0.029 A 
ATOM     53  C   UNL A   1      44.547  26.766  27.180  1.00  0.00     0.049 A 
ATOM     54  H   UNL A   1      43.172  27.872  28.288  1.00  0.00     0.167 HD
ATOM     55  C   UNL A   1      39.887  30.105  30.394  1.00  0.00     0.034 A 
ATOM     56  C   UNL A   1      45.624  27.557  27.014  1.00  0.00     0.034 A 
ATOM     57  C   UNL A   1      41.017  30.996  30.320  1.00  0.00     0.049 A 
ATOM     58  C   UNL A   1      45.564  28.954  27.583  1.00  0.00     0.074 A 
ATOM     59  C   UNL A   1      41.148  32.270  30.837  1.00  0.00     0.029 A 
ATOM     60  N   UNL A   1      42.215  30.700  29.675  1.00  0.00    -0.354 N 
ATOM     61  N   UNL A   1      44.581  29.542  28.230  1.00  0.00    -0.248 NA
ATOM     62  C   UNL A   1      46.755  29.789  27.405  1.00  0.00     0.031 C 
ATOM     63  C   UNL A   1      42.391  32.773  30.437  1.00  0.00     0.029 A 
ATOM     64  C   UNL A   1      43.077  31.779  29.752  1.00  0.00     0.049 A 
ATOM     65  H   UNL A   1      42.418  29.847  29.228  1.00  0.00     0.167 HD
ATOM     66  C   UNL A   1      45.049  30.809  28.564  1.00  0.00     0.074 A 
ATOM     67  C   UNL A   1      46.408  30.886  28.062  1.00  0.00     0.031 C 
ATOM     68  C   UNL A   1      44.424  31.819  29.226  1.00  0.00     0.034 A 
BRANCH  55  69
ATOM     69  C   UNL A   1      38.605  30.558  31.050  1.00  0.00     0.023 A 
ATOM     70  C   UNL A   1      37.548  31.125  30.316  1.00  0.00     0.031 A 
ATOM     71  C   UNL A   1      38.465  30.482  32.448  1.00  0.00     0.131 A 
ATOM     72  C   UNL A   1      36.439  31.667  30.986  1.00  0.00     0.055 A 
ATOM     73  C   UNL A   1      37.320  30.941  33.100  1.00  0.00     0.041 A 
ATOM     74  F   UNL A   1      39.453  29.984  33.208  1.00  0.00    -0.206 F 
ATOM     75  C   UNL A   1      36.305  31.553  32.371  1.00  0.00     0.022 A 
BRANCH  72  76
ATOM     76  S   UNL A   1      35.255  32.665  30.040  1.00  0.00     0.124 S 
ATOM     77  O   UNL A   1      34.867  31.737  28.981  1.00  0.00    -0.237 OA
ATOM     78  O   UNL A   1      34.231  32.967  31.033  1.00  0.00    -0.237 OA
ATOM     79  O   UNL A   1      36.049  33.809  29.595  1.00  0.00    -0.744 OA
ENDBRANCH  72  76
ENDBRANCH  55  69
BRANCH  56  80
ATOM     80  C   UNL A   1      46.809  27.073  26.248  1.00  0.00     0.023 A 
ATOM     81  C   UNL A   1      47.884  26.445  26.894  1.00  0.00     0.031 A 
ATOM     82  C   UNL A   1      46.897  27.261  24.857  1.00  0.00     0.131 A 
ATOM     83  C   UNL A   1      49.019  26.066  26.159  1.00  0.00     0.055 A 
ATOM     84  C   UNL A   1      48.002  26.829  24.121  1.00  0.00     0.041 A 
ATOM     85  F   UNL A   1      45.901  27.860  24.186  1.00  0.00    -0.206 F 
ATOM     86  C   UNL A   1      49.078  26.239  24.775  1.00  0.00     0.022 A 
BRANCH  83  87
ATOM     87  S   UNL A   1      50.461  25.429  27.056  1.00  0.00     0.124 S 
ATOM     88  O   UNL A   1      49.899  24.264  27.731  1.00  0.00    -0.237 OA
ATOM     89  O   UNL A   1      51.395  25.153  25.970  1.00  0.00    -0.237 OA
ATOM     90  O   UNL A   1      50.834  26.538  27.932  1.00  0.00    -0.744 OA
ENDBRANCH  83  87
ENDBRANCH  56  80
BRANCH  68  91
ATOM     91  C   UNL A   1      45.235  33.066  29.477  1.00  0.00     0.023 A 
ATOM     92  C   UNL A   1      45.234  34.142  28.575  1.00  0.00     0.031 A 
ATOM     93  C   UNL A   1      46.035  33.165  30.629  1.00  0.00     0.131 A 
ATOM     94  C   UNL A   1      46.075  35.240  28.802  1.00  0.00     0.055 A 
ATOM     95  C   UNL A   1      46.808  34.295  30.890  1.00  0.00     0.041 A 
ATOM     96  F   UNL A   1      46.073  32.164  31.524  1.00  0.00    -0.206 F 
ATOM     97  C   UNL A   1      46.846  35.333  29.964  1.00  0.00     0.022 A 
BRANCH  94  98
ATOM     98  S   UNL A   1      46.245  36.486  27.496  1.00  0.00     0.124 S 
ATOM     99  O   UNL A   1      44.859  36.891  27.282  1.00  0.00    -0.237 OA
ATOM    100  O   UNL A   1      47.109  37.480  28.123  1.00  0.00    -0.237 OA
ATOM    101  O   UNL A   1      46.852  35.744  26.392  1.00  0.00    -0.744 OA
ENDBRANCH  94  98
ENDBRANCH  68  91
ENDBRANCH  42  43
ENDBRANCH  35  37
ENDBRANCH  34  35
ENDBRANCH  33  34
ENDBRANCH   1  33
TORSDOF 19
ENDMDL
