MODEL 1
REMARK VINA RESULT:     -11.2      0.000      0.000
REMARK SMILES CCc1c(C)nn(CC(=O)N2CCC[C@@H](Cn3cc(C(=O)OCCOC(=O)c4ccc(-c5c6nc(c(-c7cc(S(=O)(=O)[O-])ccc7F)c7ccc([nH]7)c(-c7cc(S(=O)(=O)[O-])ccc7F)c7nc(c(-c8cc(S(=O)(=O)[O-])ccc8F)c8ccc5[nH]8)C=C7)C=C6)cc4)nn3)C2)c1C
REMARK SMILES IDX 22 1 20 2 21 3 19 4 17 5 18 6 92 7 91 8 16 9 15 10 11 11
REMARK SMILES IDX 12 12 93 13 13 14 14 15 9 16 10 17 8 18 7 19 3 20 4 21 94 22
REMARK SMILES IDX 5 23 6 24 95 25 2 26 1 27 23 28 24 29 25 30 26 31 27 32
REMARK SMILES IDX 28 33 29 34 90 35 30 36 89 37 31 38 32 39 33 40 83 41 34 42
REMARK SMILES IDX 88 43 82 44 84 45 35 46 87 47 81 48 80 49 36 51 68 52 48 53
REMARK SMILES IDX 67 54 49 55 52 56 66 57 85 58 50 59 51 60 65 62 86 63 53 64
REMARK SMILES IDX 37 65 38 66 46 67 39 68 45 69 47 70 44 71 40 72 41 73 42 74
REMARK SMILES IDX 43 75 69 76 70 77 78 78 71 79 77 80 79 81 76 82 72 83 73 84
REMARK SMILES IDX 74 85 75 86 54 87 55 88 63 89 56 90 62 91 64 92 61 93 57 94
REMARK SMILES IDX 58 95 59 96 60 97
REMARK H PARENT 84 50 52 61
REMARK Flexibility Score: inf
ROOT
ATOM      1  O   UNL A   1      37.570  22.307  26.165  1.00  0.00    -0.457 OA
ENDROOT
BRANCH   1   2
ATOM      2  C   UNL A   1      36.786  21.862  25.132  1.00  0.00     0.360 C 
ATOM      3  O   UNL A   1      37.215  21.596  24.010  1.00  0.00    -0.244 OA
BRANCH   2   4
ATOM      4  C   UNL A   1      35.389  21.762  25.507  1.00  0.00     0.190 A 
ATOM      5  N   UNL A   1      33.440  22.152  26.345  1.00  0.00    -0.251 N 
ATOM      6  C   UNL A   1      34.763  22.340  26.596  1.00  0.00     0.146 A 
ATOM      7  N   UNL A   1      33.255  21.317  25.309  1.00  0.00    -0.067 NA
ATOM      8  N   UNL A   1      34.447  21.075  24.779  1.00  0.00    -0.123 NA
BRANCH   5   9
ATOM      9  C   UNL A   1      32.339  22.949  26.838  1.00  0.00     0.151 C 
BRANCH   9  10
ATOM     10  C   UNL A   1      31.962  24.130  25.913  1.00  0.00     0.030 C 
ATOM     11  N   UNL A   1      32.869  25.908  24.443  1.00  0.00    -0.341 N 
ATOM     12  C   UNL A   1      31.888  25.619  23.395  1.00  0.00     0.119 C 
ATOM     13  C   UNL A   1      33.207  24.755  25.263  1.00  0.00     0.125 C 
ATOM     14  C   UNL A   1      30.619  24.979  23.951  1.00  0.00     0.022 C 
ATOM     15  C   UNL A   1      30.932  23.768  24.832  1.00  0.00     0.009 C 
BRANCH  11  16
ATOM     16  C   UNL A   1      33.389  27.190  24.554  1.00  0.00     0.244 C 
ATOM     17  O   UNL A   1      33.491  27.894  23.536  1.00  0.00    -0.273 OA
BRANCH  16  18
ATOM     18  C   UNL A   1      34.092  27.690  25.811  1.00  0.00     0.244 C 
BRANCH  18  19
ATOM     19  N   UNL A   1      33.753  28.992  26.352  1.00  0.00    -0.260 N 
ATOM     20  C   UNL A   1      33.763  30.924  27.439  1.00  0.00    -0.004 A 
ATOM     21  C   UNL A   1      32.560  30.719  26.694  1.00  0.00     0.063 A 
ATOM     22  C   UNL A   1      34.515  29.780  27.180  1.00  0.00     0.039 A 
ATOM     23  C   UNL A   1      31.333  31.546  26.557  1.00  0.00     0.069 C 
ATOM     24  N   UNL A   1      32.579  29.555  26.029  1.00  0.00    -0.177 NA
ATOM     25  C   UNL A   1      35.854  29.373  27.690  1.00  0.00     0.066 C 
BRANCH  20  26
ATOM     26  C   UNL A   1      34.238  32.037  28.334  1.00  0.00     0.036 C 
ATOM     27  C   UNL A   1      35.378  32.910  27.856  1.00  0.00     0.009 C 
ENDBRANCH  20  26
ENDBRANCH  18  19
ENDBRANCH  16  18
ENDBRANCH  11  16
ENDBRANCH   9  10
ENDBRANCH   5   9
ENDBRANCH   2   4
ENDBRANCH   1   2
BRANCH   1  28
ATOM     28  C   UNL A   1      38.978  22.051  26.043  1.00  0.00     0.275 C 
BRANCH  28  29
ATOM     29  C   UNL A   1      39.763  22.941  26.993  1.00  0.00     0.275 C 
BRANCH  29  30
ATOM     30  O   UNL A   1      39.164  24.231  27.080  1.00  0.00    -0.458 OA
BRANCH  30  31
ATOM     31  C   UNL A   1      39.988  25.269  26.801  1.00  0.00     0.338 C 
ATOM     32  O   UNL A   1      40.997  25.235  26.118  1.00  0.00    -0.246 OA
BRANCH  31  33
ATOM     33  C   UNL A   1      39.621  26.403  27.655  1.00  0.00     0.060 A 
ATOM     34  C   UNL A   1      39.935  27.681  27.189  1.00  0.00     0.016 A 
ATOM     35  C   UNL A   1      39.289  26.162  28.996  1.00  0.00     0.016 A 
ATOM     36  C   UNL A   1      40.122  28.684  28.116  1.00  0.00     0.010 A 
ATOM     37  C   UNL A   1      39.503  27.153  29.920  1.00  0.00     0.010 A 
ATOM     38  C   UNL A   1      39.993  28.379  29.478  1.00  0.00    -0.014 A 
BRANCH  38  39
ATOM     39  C   UNL A   1      40.188  29.435  30.448  1.00  0.00     0.031 A 
ATOM     40  C   UNL A   1      38.951  30.230  30.621  1.00  0.00     0.074 A 
ATOM     41  C   UNL A   1      41.306  29.572  31.187  1.00  0.00     0.049 A 
ATOM     42  N   UNL A   1      38.737  31.432  30.205  1.00  0.00    -0.248 NA
ATOM     43  C   UNL A   1      37.734  29.531  31.076  1.00  0.00     0.031 C 
ATOM     44  C   UNL A   1      42.471  28.687  31.246  1.00  0.00     0.029 A 
ATOM     45  N   UNL A   1      41.600  30.509  32.128  1.00  0.00    -0.354 N 
ATOM     46  C   UNL A   1      37.443  31.732  30.614  1.00  0.00     0.074 A 
ATOM     47  C   UNL A   1      36.811  30.472  30.884  1.00  0.00     0.031 C 
ATOM     48  C   UNL A   1      43.221  29.003  32.330  1.00  0.00     0.029 A 
ATOM     49  C   UNL A   1      42.662  30.183  32.971  1.00  0.00     0.049 A 
ATOM     50  H   UNL A   1      41.100  31.354  32.208  1.00  0.00     0.167 HD
ATOM     51  C   UNL A   1      37.129  32.994  31.009  1.00  0.00     0.034 A 
ATOM     52  C   UNL A   1      43.007  30.808  34.135  1.00  0.00     0.034 A 
ATOM     53  C   UNL A   1      38.101  33.944  30.505  1.00  0.00     0.049 A 
ATOM     54  C   UNL A   1      42.413  32.169  34.073  1.00  0.00     0.074 A 
ATOM     55  C   UNL A   1      38.566  34.269  29.244  1.00  0.00     0.029 A 
ATOM     56  N   UNL A   1      39.049  34.429  31.382  1.00  0.00    -0.354 N 
ATOM     57  N   UNL A   1      42.793  33.070  33.206  1.00  0.00    -0.248 NA
ATOM     58  C   UNL A   1      41.065  32.347  34.595  1.00  0.00     0.031 C 
ATOM     59  C   UNL A   1      39.970  34.460  29.407  1.00  0.00     0.029 A 
ATOM     60  C   UNL A   1      40.274  34.345  30.765  1.00  0.00     0.049 A 
ATOM     61  H   UNL A   1      38.879  34.773  32.288  1.00  0.00     0.167 HD
ATOM     62  C   UNL A   1      41.616  33.636  32.739  1.00  0.00     0.074 A 
ATOM     63  C   UNL A   1      40.588  33.210  33.691  1.00  0.00     0.031 C 
ATOM     64  C   UNL A   1      41.526  34.145  31.472  1.00  0.00     0.034 A 
BRANCH  51  65
ATOM     65  C   UNL A   1      36.231  33.300  32.190  1.00  0.00     0.023 A 
ATOM     66  C   UNL A   1      35.106  34.100  31.929  1.00  0.00     0.031 A 
ATOM     67  C   UNL A   1      36.559  33.132  33.557  1.00  0.00     0.131 A 
ATOM     68  C   UNL A   1      34.459  34.794  32.964  1.00  0.00     0.055 A 
ATOM     69  C   UNL A   1      35.867  33.770  34.590  1.00  0.00     0.041 A 
ATOM     70  F   UNL A   1      37.609  32.423  33.982  1.00  0.00    -0.206 F 
ATOM     71  C   UNL A   1      34.834  34.639  34.294  1.00  0.00     0.022 A 
BRANCH  68  72
ATOM     72  S   UNL A   1      33.246  36.056  32.510  1.00  0.00     0.124 S 
ATOM     73  O   UNL A   1      33.469  37.056  33.549  1.00  0.00    -0.237 OA
ATOM     74  O   UNL A   1      33.681  36.415  31.165  1.00  0.00    -0.237 OA
ATOM     75  O   UNL A   1      31.974  35.343  32.587  1.00  0.00    -0.744 OA
ENDBRANCH  68  72
ENDBRANCH  51  65
BRANCH  52  76
ATOM     76  C   UNL A   1      43.468  30.172  35.412  1.00  0.00     0.023 A 
ATOM     77  C   UNL A   1      43.101  28.865  35.817  1.00  0.00     0.031 A 
ATOM     78  C   UNL A   1      44.510  30.782  36.149  1.00  0.00     0.131 A 
ATOM     79  C   UNL A   1      43.763  28.235  36.905  1.00  0.00     0.055 A 
ATOM     80  C   UNL A   1      45.160  30.155  37.215  1.00  0.00     0.041 A 
ATOM     81  F   UNL A   1      44.997  31.983  35.802  1.00  0.00    -0.206 F 
ATOM     82  C   UNL A   1      44.797  28.875  37.592  1.00  0.00     0.022 A 
BRANCH  79  83
ATOM     83  S   UNL A   1      43.347  26.529  37.411  1.00  0.00     0.124 S 
ATOM     84  O   UNL A   1      43.957  26.437  38.731  1.00  0.00    -0.237 OA
ATOM     85  O   UNL A   1      41.889  26.532  37.367  1.00  0.00    -0.237 OA
ATOM     86  O   UNL A   1      43.985  25.701  36.385  1.00  0.00    -0.744 OA
ENDBRANCH  79  83
ENDBRANCH  52  76
BRANCH  64  87
ATOM     87  C   UNL A   1      42.806  34.348  30.681  1.00  0.00     0.023 A 
ATOM     88  C   UNL A   1      43.286  33.495  29.658  1.00  0.00     0.031 A 
ATOM     89  C   UNL A   1      43.512  35.541  30.916  1.00  0.00     0.131 A 
ATOM     90  C   UNL A   1      44.440  33.850  28.927  1.00  0.00     0.055 A 
ATOM     91  C   UNL A   1      44.637  35.900  30.176  1.00  0.00     0.041 A 
ATOM     92  F   UNL A   1      43.094  36.405  31.856  1.00  0.00    -0.206 F 
ATOM     93  C   UNL A   1      45.110  35.052  29.182  1.00  0.00     0.022 A 
BRANCH  90  94
ATOM     94  S   UNL A   1      45.116  32.748  27.640  1.00  0.00     0.124 S 
ATOM     95  O   UNL A   1      44.246  32.985  26.495  1.00  0.00    -0.237 OA
ATOM     96  O   UNL A   1      46.492  33.219  27.507  1.00  0.00    -0.237 OA
ATOM     97  O   UNL A   1      44.989  31.414  28.233  1.00  0.00    -0.744 OA
ENDBRANCH  90  94
ENDBRANCH  64  87
ENDBRANCH  38  39
ENDBRANCH  31  33
ENDBRANCH  30  31
ENDBRANCH  29  30
ENDBRANCH  28  29
ENDBRANCH   1  28
TORSDOF 20
ENDMDL
MODEL 2
REMARK VINA RESULT:     -11.2      4.494     10.663
REMARK SMILES CCc1c(C)nn(CC(=O)N2CCC[C@@H](Cn3cc(C(=O)OCCOC(=O)c4ccc(-c5c6nc(c(-c7cc(S(=O)(=O)[O-])ccc7F)c7ccc([nH]7)c(-c7cc(S(=O)(=O)[O-])ccc7F)c7nc(c(-c8cc(S(=O)(=O)[O-])ccc8F)c8ccc5[nH]8)C=C7)C=C6)cc4)nn3)C2)c1C
REMARK SMILES IDX 22 1 20 2 21 3 19 4 17 5 18 6 92 7 91 8 16 9 15 10 11 11
REMARK SMILES IDX 12 12 93 13 13 14 14 15 9 16 10 17 8 18 7 19 3 20 4 21 94 22
REMARK SMILES IDX 5 23 6 24 95 25 2 26 1 27 23 28 24 29 25 30 26 31 27 32
REMARK SMILES IDX 28 33 29 34 90 35 30 36 89 37 31 38 32 39 33 40 83 41 34 42
REMARK SMILES IDX 88 43 82 44 84 45 35 46 87 47 81 48 80 49 36 51 68 52 48 53
REMARK SMILES IDX 67 54 49 55 52 56 66 57 85 58 50 59 51 60 65 62 86 63 53 64
REMARK SMILES IDX 37 65 38 66 46 67 39 68 45 69 47 70 44 71 40 72 41 73 42 74
REMARK SMILES IDX 43 75 69 76 70 77 78 78 71 79 77 80 79 81 76 82 72 83 73 84
REMARK SMILES IDX 74 85 75 86 54 87 55 88 63 89 56 90 62 91 64 92 61 93 57 94
REMARK SMILES IDX 58 95 59 96 60 97
REMARK H PARENT 84 50 52 61
REMARK Flexibility Score: inf
ROOT
ATOM      1  O   UNL A   1      34.419  32.279  29.515  1.00  0.00    -0.457 OA
ENDROOT
BRANCH   1   2
ATOM      2  C   UNL A   1      34.142  32.447  28.183  1.00  0.00     0.360 C 
ATOM      3  O   UNL A   1      34.201  33.529  27.600  1.00  0.00    -0.244 OA
BRANCH   2   4
ATOM      4  C   UNL A   1      33.751  31.206  27.543  1.00  0.00     0.190 A 
ATOM      5  N   UNL A   1      32.752  29.734  26.324  1.00  0.00    -0.251 N 
ATOM      6  C   UNL A   1      32.515  30.881  27.014  1.00  0.00     0.146 A 
ATOM      7  N   UNL A   1      33.974  29.247  26.592  1.00  0.00    -0.067 NA
ATOM      8  N   UNL A   1      34.603  30.148  27.336  1.00  0.00    -0.123 NA
BRANCH   5   9
ATOM      9  C   UNL A   1      32.002  29.227  25.196  1.00  0.00     0.151 C 
BRANCH   9  10
ATOM     10  C   UNL A   1      32.841  28.353  24.234  1.00  0.00     0.030 C 
ATOM     11  N   UNL A   1      32.873  26.241  22.938  1.00  0.00    -0.341 N 
ATOM     12  C   UNL A   1      33.400  26.913  21.748  1.00  0.00     0.119 C 
ATOM     13  C   UNL A   1      32.068  27.102  23.789  1.00  0.00     0.125 C 
ATOM     14  C   UNL A   1      34.174  28.182  22.096  1.00  0.00     0.022 C 
ATOM     15  C   UNL A   1      33.365  29.110  23.004  1.00  0.00     0.009 C 
BRANCH  11  16
ATOM     16  C   UNL A   1      33.153  24.896  23.140  1.00  0.00     0.244 C 
ATOM     17  O   UNL A   1      34.256  24.447  22.786  1.00  0.00    -0.273 OA
BRANCH  16  18
ATOM     18  C   UNL A   1      32.086  23.880  23.525  1.00  0.00     0.244 C 
BRANCH  18  19
ATOM     19  N   UNL A   1      32.477  22.636  24.160  1.00  0.00    -0.260 N 
ATOM     20  C   UNL A   1      32.907  20.508  24.611  1.00  0.00    -0.004 A 
ATOM     21  C   UNL A   1      33.187  21.371  25.717  1.00  0.00     0.063 A 
ATOM     22  C   UNL A   1      32.457  21.374  23.618  1.00  0.00     0.039 A 
ATOM     23  C   UNL A   1      33.673  21.086  27.092  1.00  0.00     0.069 C 
ATOM     24  N   UNL A   1      32.938  22.655  25.420  1.00  0.00    -0.177 NA
ATOM     25  C   UNL A   1      31.976  21.087  22.238  1.00  0.00     0.066 C 
BRANCH  20  26
ATOM     26  C   UNL A   1      33.011  19.019  24.422  1.00  0.00     0.036 C 
ATOM     27  C   UNL A   1      32.708  18.119  25.601  1.00  0.00     0.009 C 
ENDBRANCH  20  26
ENDBRANCH  18  19
ENDBRANCH  16  18
ENDBRANCH  11  16
ENDBRANCH   9  10
ENDBRANCH   5   9
ENDBRANCH   2   4
ENDBRANCH   1   2
BRANCH   1  28
ATOM     28  C   UNL A   1      35.565  32.987  30.015  1.00  0.00     0.275 C 
BRANCH  28  29
ATOM     29  C   UNL A   1      36.562  32.016  30.625  1.00  0.00     0.275 C 
BRANCH  29  30
ATOM     30  O   UNL A   1      36.952  31.033  29.671  1.00  0.00    -0.458 OA
BRANCH  30  31
ATOM     31  C   UNL A   1      36.832  29.749  30.084  1.00  0.00     0.338 C 
ATOM     32  O   UNL A   1      36.078  29.329  30.946  1.00  0.00    -0.246 OA
BRANCH  31  33
ATOM     33  C   UNL A   1      37.931  28.966  29.512  1.00  0.00     0.060 A 
ATOM     34  C   UNL A   1      38.541  28.022  30.340  1.00  0.00     0.016 A 
ATOM     35  C   UNL A   1      38.526  29.403  28.320  1.00  0.00     0.016 A 
ATOM     36  C   UNL A   1      39.849  27.674  30.077  1.00  0.00     0.010 A 
ATOM     37  C   UNL A   1      39.836  29.078  28.075  1.00  0.00     0.010 A 
ATOM     38  C   UNL A   1      40.507  28.282  28.999  1.00  0.00    -0.014 A 
BRANCH  38  39
ATOM     39  C   UNL A   1      41.879  27.912  28.724  1.00  0.00     0.031 A 
ATOM     40  C   UNL A   1      41.946  26.614  28.016  1.00  0.00     0.074 A 
ATOM     41  C   UNL A   1      42.930  28.720  28.962  1.00  0.00     0.049 A 
ATOM     42  N   UNL A   1      42.340  25.485  28.501  1.00  0.00    -0.248 NA
ATOM     43  C   UNL A   1      41.266  26.498  26.713  1.00  0.00     0.031 C 
ATOM     44  C   UNL A   1      42.924  30.106  29.435  1.00  0.00     0.029 A 
ATOM     45  N   UNL A   1      44.253  28.491  28.740  1.00  0.00    -0.354 N 
ATOM     46  C   UNL A   1      42.224  24.581  27.453  1.00  0.00     0.074 A 
ATOM     47  C   UNL A   1      41.329  25.183  26.507  1.00  0.00     0.031 C 
ATOM     48  C   UNL A   1      44.148  30.654  29.238  1.00  0.00     0.029 A 
ATOM     49  C   UNL A   1      45.056  29.631  28.742  1.00  0.00     0.049 A 
ATOM     50  H   UNL A   1      44.616  27.587  28.590  1.00  0.00     0.167 HD
ATOM     51  C   UNL A   1      43.133  23.579  27.313  1.00  0.00     0.034 A 
ATOM     52  C   UNL A   1      46.348  29.725  28.310  1.00  0.00     0.034 A 
ATOM     53  C   UNL A   1      43.832  23.346  28.561  1.00  0.00     0.049 A 
ATOM     54  C   UNL A   1      46.902  28.346  28.340  1.00  0.00     0.074 A 
ATOM     55  C   UNL A   1      43.430  23.035  29.847  1.00  0.00     0.029 A 
ATOM     56  N   UNL A   1      45.116  23.834  28.685  1.00  0.00    -0.354 N 
ATOM     57  N   UNL A   1      47.077  27.676  29.448  1.00  0.00    -0.248 NA
ATOM     58  C   UNL A   1      46.757  27.529  27.143  1.00  0.00     0.031 C 
ATOM     59  C   UNL A   1      44.271  23.816  30.694  1.00  0.00     0.029 A 
ATOM     60  C   UNL A   1      45.205  24.479  29.895  1.00  0.00     0.049 A 
ATOM     61  H   UNL A   1      45.839  23.739  28.025  1.00  0.00     0.167 HD
ATOM     62  C   UNL A   1      46.616  26.398  29.171  1.00  0.00     0.074 A 
ATOM     63  C   UNL A   1      46.509  26.343  27.712  1.00  0.00     0.031 C 
ATOM     64  C   UNL A   1      46.083  25.607  30.151  1.00  0.00     0.034 A 
BRANCH  51  65
ATOM     65  C   UNL A   1      43.689  23.138  25.975  1.00  0.00     0.023 A 
ATOM     66  C   UNL A   1      43.598  21.767  25.682  1.00  0.00     0.031 A 
ATOM     67  C   UNL A   1      44.552  23.887  25.138  1.00  0.00     0.131 A 
ATOM     68  C   UNL A   1      44.430  21.180  24.715  1.00  0.00     0.055 A 
ATOM     69  C   UNL A   1      45.326  23.309  24.130  1.00  0.00     0.041 A 
ATOM     70  F   UNL A   1      44.773  25.196  25.291  1.00  0.00    -0.206 F 
ATOM     71  C   UNL A   1      45.298  21.941  23.938  1.00  0.00     0.022 A 
BRANCH  68  72
ATOM     72  S   UNL A   1      44.494  19.375  24.635  1.00  0.00     0.124 S 
ATOM     73  O   UNL A   1      43.121  19.023  24.982  1.00  0.00    -0.237 OA
ATOM     74  O   UNL A   1      44.887  19.152  23.248  1.00  0.00    -0.237 OA
ATOM     75  O   UNL A   1      45.501  19.030  25.634  1.00  0.00    -0.744 OA
ENDBRANCH  68  72
ENDBRANCH  51  65
BRANCH  52  76
ATOM     76  C   UNL A   1      46.971  30.842  27.528  1.00  0.00     0.023 A 
ATOM     77  C   UNL A   1      46.250  31.962  27.046  1.00  0.00     0.031 A 
ATOM     78  C   UNL A   1      48.381  30.935  27.464  1.00  0.00     0.131 A 
ATOM     79  C   UNL A   1      46.937  33.095  26.532  1.00  0.00     0.055 A 
ATOM     80  C   UNL A   1      49.051  32.054  26.962  1.00  0.00     0.041 A 
ATOM     81  F   UNL A   1      49.166  29.972  27.969  1.00  0.00    -0.206 F 
ATOM     82  C   UNL A   1      48.332  33.144  26.503  1.00  0.00     0.022 A 
BRANCH  79  83
ATOM     83  S   UNL A   1      46.031  34.573  25.955  1.00  0.00     0.124 S 
ATOM     84  O   UNL A   1      45.653  34.197  24.598  1.00  0.00    -0.237 OA
ATOM     85  O   UNL A   1      44.949  34.682  26.926  1.00  0.00    -0.237 OA
ATOM     86  O   UNL A   1      47.031  35.641  26.034  1.00  0.00    -0.744 OA
ENDBRANCH  79  83
ENDBRANCH  52  76
BRANCH  64  87
ATOM     87  C   UNL A   1      46.263  26.027  31.599  1.00  0.00     0.023 A 
ATOM     88  C   UNL A   1      45.253  26.559  32.435  1.00  0.00     0.031 A 
ATOM     89  C   UNL A   1      47.516  25.763  32.182  1.00  0.00     0.131 A 
ATOM     90  C   UNL A   1      45.524  26.815  33.796  1.00  0.00     0.055 A 
ATOM     91  C   UNL A   1      47.773  25.994  33.532  1.00  0.00     0.041 A 
ATOM     92  F   UNL A   1      48.510  25.235  31.449  1.00  0.00    -0.206 F 
ATOM     93  C   UNL A   1      46.780  26.529  34.343  1.00  0.00     0.022 A 
BRANCH  90  94
ATOM     94  S   UNL A   1      44.261  27.550  34.887  1.00  0.00     0.124 S 
ATOM     95  O   UNL A   1      45.013  27.926  36.078  1.00  0.00    -0.237 OA
ATOM     96  O   UNL A   1      43.747  28.654  34.080  1.00  0.00    -0.237 OA
ATOM     97  O   UNL A   1      43.308  26.457  35.090  1.00  0.00    -0.744 OA
ENDBRANCH  90  94
ENDBRANCH  64  87
ENDBRANCH  38  39
ENDBRANCH  31  33
ENDBRANCH  30  31
ENDBRANCH  29  30
ENDBRANCH  28  29
ENDBRANCH   1  28
TORSDOF 20
ENDMDL
MODEL 3
REMARK VINA RESULT:     -11.0      2.758      8.300
REMARK SMILES CCc1c(C)nn(CC(=O)N2CCC[C@@H](Cn3cc(C(=O)OCCOC(=O)c4ccc(-c5c6nc(c(-c7cc(S(=O)(=O)[O-])ccc7F)c7ccc([nH]7)c(-c7cc(S(=O)(=O)[O-])ccc7F)c7nc(c(-c8cc(S(=O)(=O)[O-])ccc8F)c8ccc5[nH]8)C=C7)C=C6)cc4)nn3)C2)c1C
REMARK SMILES IDX 22 1 20 2 21 3 19 4 17 5 18 6 92 7 91 8 16 9 15 10 11 11
REMARK SMILES IDX 12 12 93 13 13 14 14 15 9 16 10 17 8 18 7 19 3 20 4 21 94 22
REMARK SMILES IDX 5 23 6 24 95 25 2 26 1 27 23 28 24 29 25 30 26 31 27 32
REMARK SMILES IDX 28 33 29 34 90 35 30 36 89 37 31 38 32 39 33 40 83 41 34 42
REMARK SMILES IDX 88 43 82 44 84 45 35 46 87 47 81 48 80 49 36 51 68 52 48 53
REMARK SMILES IDX 67 54 49 55 52 56 66 57 85 58 50 59 51 60 65 62 86 63 53 64
REMARK SMILES IDX 37 65 38 66 46 67 39 68 45 69 47 70 44 71 40 72 41 73 42 74
REMARK SMILES IDX 43 75 69 76 70 77 78 78 71 79 77 80 79 81 76 82 72 83 73 84
REMARK SMILES IDX 74 85 75 86 54 87 55 88 63 89 56 90 62 91 64 92 61 93 57 94
REMARK SMILES IDX 58 95 59 96 60 97
REMARK H PARENT 84 50 52 61
REMARK Flexibility Score: inf
ROOT
ATOM      1  O   UNL A   1      32.577  34.517  28.660  1.00  0.00    -0.457 OA
ENDROOT
BRANCH   1   2
ATOM      2  C   UNL A   1      33.389  33.497  28.236  1.00  0.00     0.360 C 
ATOM      3  O   UNL A   1      34.566  33.372  28.573  1.00  0.00    -0.244 OA
BRANCH   2   4
ATOM      4  C   UNL A   1      32.709  32.595  27.328  1.00  0.00     0.190 A 
ATOM      5  N   UNL A   1      32.038  30.832  26.283  1.00  0.00    -0.251 N 
ATOM      6  C   UNL A   1      33.133  31.351  26.898  1.00  0.00     0.146 A 
ATOM      7  N   UNL A   1      31.081  31.761  26.126  1.00  0.00    -0.067 NA
ATOM      8  N   UNL A   1      31.478  32.849  26.772  1.00  0.00    -0.123 NA
BRANCH   5   9
ATOM      9  C   UNL A   1      31.725  29.432  26.098  1.00  0.00     0.151 C 
BRANCH   9  10
ATOM     10  C   UNL A   1      31.710  28.988  24.616  1.00  0.00     0.030 C 
ATOM     11  N   UNL A   1      32.086  27.081  23.079  1.00  0.00    -0.341 N 
ATOM     12  C   UNL A   1      30.861  27.369  22.331  1.00  0.00     0.119 C 
ATOM     13  C   UNL A   1      32.033  27.493  24.473  1.00  0.00     0.125 C 
ATOM     14  C   UNL A   1      30.454  28.837  22.431  1.00  0.00     0.022 C 
ATOM     15  C   UNL A   1      30.399  29.314  23.884  1.00  0.00     0.009 C 
BRANCH  11  16
ATOM     16  C   UNL A   1      33.144  26.452  22.436  1.00  0.00     0.244 C 
ATOM     17  O   UNL A   1      33.786  27.073  21.573  1.00  0.00    -0.273 OA
BRANCH  16  18
ATOM     18  C   UNL A   1      33.394  24.952  22.534  1.00  0.00     0.244 C 
BRANCH  18  19
ATOM     19  N   UNL A   1      33.779  24.371  23.805  1.00  0.00    -0.260 N 
ATOM     20  C   UNL A   1      33.784  23.408  25.802  1.00  0.00    -0.004 A 
ATOM     21  C   UNL A   1      35.098  23.760  25.359  1.00  0.00     0.063 A 
ATOM     22  C   UNL A   1      32.959  23.814  24.756  1.00  0.00     0.039 A 
ATOM     23  C   UNL A   1      36.427  23.625  26.010  1.00  0.00     0.069 C 
ATOM     24  N   UNL A   1      35.077  24.325  24.143  1.00  0.00    -0.177 NA
ATOM     25  C   UNL A   1      31.477  23.753  24.622  1.00  0.00     0.066 C 
BRANCH  20  26
ATOM     26  C   UNL A   1      33.265  22.766  27.061  1.00  0.00     0.036 C 
ATOM     27  C   UNL A   1      34.034  21.602  27.647  1.00  0.00     0.009 C 
ENDBRANCH  20  26
ENDBRANCH  18  19
ENDBRANCH  16  18
ENDBRANCH  11  16
ENDBRANCH   9  10
ENDBRANCH   5   9
ENDBRANCH   2   4
ENDBRANCH   1   2
BRANCH   1  28
ATOM     28  C   UNL A   1      33.227  35.768  28.937  1.00  0.00     0.275 C 
BRANCH  28  29
ATOM     29  C   UNL A   1      32.875  36.250  30.335  1.00  0.00     0.275 C 
BRANCH  29  30
ATOM     30  O   UNL A   1      32.720  35.146  31.222  1.00  0.00    -0.458 OA
BRANCH  30  31
ATOM     31  C   UNL A   1      32.999  35.407  32.521  1.00  0.00     0.338 C 
ATOM     32  O   UNL A   1      32.464  36.246  33.226  1.00  0.00    -0.246 OA
BRANCH  31  33
ATOM     33  C   UNL A   1      34.224  34.693  32.891  1.00  0.00     0.060 A 
ATOM     34  C   UNL A   1      35.367  35.462  33.119  1.00  0.00     0.016 A 
ATOM     35  C   UNL A   1      34.289  33.307  32.685  1.00  0.00     0.016 A 
ATOM     36  C   UNL A   1      36.597  34.870  32.928  1.00  0.00     0.010 A 
ATOM     37  C   UNL A   1      35.513  32.727  32.469  1.00  0.00     0.010 A 
ATOM     38  C   UNL A   1      36.648  33.532  32.514  1.00  0.00    -0.014 A 
BRANCH  38  39
ATOM     39  C   UNL A   1      37.942  32.913  32.318  1.00  0.00     0.031 A 
ATOM     40  C   UNL A   1      38.717  32.896  33.579  1.00  0.00     0.074 A 
ATOM     41  C   UNL A   1      38.315  32.313  31.172  1.00  0.00     0.049 A 
ATOM     42  N   UNL A   1      39.745  33.621  33.868  1.00  0.00    -0.248 NA
ATOM     43  C   UNL A   1      38.142  32.188  34.738  1.00  0.00     0.031 C 
ATOM     44  C   UNL A   1      37.517  32.078  29.967  1.00  0.00     0.029 A 
ATOM     45  N   UNL A   1      39.489  31.695  30.873  1.00  0.00    -0.354 N 
ATOM     46  C   UNL A   1      40.112  33.234  35.151  1.00  0.00     0.074 A 
ATOM     47  C   UNL A   1      38.964  32.581  35.712  1.00  0.00     0.031 C 
ATOM     48  C   UNL A   1      38.150  31.175  29.177  1.00  0.00     0.029 A 
ATOM     49  C   UNL A   1      39.447  30.861  29.756  1.00  0.00     0.049 A 
ATOM     50  H   UNL A   1      40.308  31.827  31.405  1.00  0.00     0.167 HD
ATOM     51  C   UNL A   1      41.425  33.193  35.501  1.00  0.00     0.034 A 
ATOM     52  C   UNL A   1      40.387  29.944  29.380  1.00  0.00     0.034 A 
ATOM     53  C   UNL A   1      42.219  34.004  34.599  1.00  0.00     0.049 A 
ATOM     54  C   UNL A   1      41.657  30.352  30.036  1.00  0.00     0.074 A 
ATOM     55  C   UNL A   1      42.185  35.332  34.214  1.00  0.00     0.029 A 
ATOM     56  N   UNL A   1      42.960  33.360  33.631  1.00  0.00    -0.354 N 
ATOM     57  N   UNL A   1      42.284  31.460  29.742  1.00  0.00    -0.248 NA
ATOM     58  C   UNL A   1      41.937  29.820  31.363  1.00  0.00     0.031 C 
ATOM     59  C   UNL A   1      42.454  35.316  32.814  1.00  0.00     0.029 A 
ATOM     60  C   UNL A   1      42.739  34.002  32.436  1.00  0.00     0.049 A 
ATOM     61  H   UNL A   1      43.543  32.579  33.770  1.00  0.00     0.167 HD
ATOM     62  C   UNL A   1      42.660  31.995  30.966  1.00  0.00     0.074 A 
ATOM     63  C   UNL A   1      42.493  30.900  31.924  1.00  0.00     0.031 C 
ATOM     64  C   UNL A   1      42.784  33.345  31.142  1.00  0.00     0.034 A 
BRANCH  51  65
ATOM     65  C   UNL A   1      42.028  32.094  36.351  1.00  0.00     0.023 A 
ATOM     66  C   UNL A   1      42.843  32.507  37.419  1.00  0.00     0.031 A 
ATOM     67  C   UNL A   1      42.114  30.723  36.009  1.00  0.00     0.131 A 
ATOM     68  C   UNL A   1      43.777  31.629  37.993  1.00  0.00     0.055 A 
ATOM     69  C   UNL A   1      42.995  29.837  36.632  1.00  0.00     0.041 A 
ATOM     70  F   UNL A   1      41.426  30.169  35.006  1.00  0.00    -0.206 F 
ATOM     71  C   UNL A   1      43.863  30.296  37.604  1.00  0.00     0.022 A 
BRANCH  68  72
ATOM     72  S   UNL A   1      45.010  32.322  39.118  1.00  0.00     0.124 S 
ATOM     73  O   UNL A   1      44.926  33.744  38.798  1.00  0.00    -0.237 OA
ATOM     74  O   UNL A   1      44.485  31.922  40.419  1.00  0.00    -0.237 OA
ATOM     75  O   UNL A   1      46.246  31.661  38.712  1.00  0.00    -0.744 OA
ENDBRANCH  68  72
ENDBRANCH  51  65
BRANCH  52  76
ATOM     76  C   UNL A   1      40.155  28.571  28.827  1.00  0.00     0.023 A 
ATOM     77  C   UNL A   1      40.952  27.986  27.813  1.00  0.00     0.031 A 
ATOM     78  C   UNL A   1      39.262  27.701  29.496  1.00  0.00     0.131 A 
ATOM     79  C   UNL A   1      40.834  26.602  27.511  1.00  0.00     0.055 A 
ATOM     80  C   UNL A   1      39.154  26.340  29.197  1.00  0.00     0.041 A 
ATOM     81  F   UNL A   1      38.519  28.125  30.529  1.00  0.00    -0.206 F 
ATOM     82  C   UNL A   1      39.946  25.782  28.210  1.00  0.00     0.022 A 
BRANCH  79  83
ATOM     83  S   UNL A   1      41.890  25.813  26.245  1.00  0.00     0.124 S 
ATOM     84  O   UNL A   1      41.549  26.564  25.042  1.00  0.00    -0.237 OA
ATOM     85  O   UNL A   1      43.231  26.015  26.780  1.00  0.00    -0.237 OA
ATOM     86  O   UNL A   1      41.439  24.420  26.241  1.00  0.00    -0.744 OA
ENDBRANCH  79  83
ENDBRANCH  52  76
BRANCH  64  87
ATOM     87  C   UNL A   1      42.790  34.239  29.915  1.00  0.00     0.023 A 
ATOM     88  C   UNL A   1      43.906  34.487  29.081  1.00  0.00     0.031 A 
ATOM     89  C   UNL A   1      41.553  34.779  29.520  1.00  0.00     0.131 A 
ATOM     90  C   UNL A   1      43.755  35.259  27.909  1.00  0.00     0.055 A 
ATOM     91  C   UNL A   1      41.402  35.521  28.351  1.00  0.00     0.041 A 
ATOM     92  F   UNL A   1      40.450  34.561  30.256  1.00  0.00    -0.206 F 
ATOM     93  C   UNL A   1      42.505  35.771  27.543  1.00  0.00     0.022 A 
BRANCH  90  94
ATOM     94  S   UNL A   1      45.184  35.641  26.842  1.00  0.00     0.124 S 
ATOM     95  O   UNL A   1      44.942  34.843  25.646  1.00  0.00    -0.237 OA
ATOM     96  O   UNL A   1      45.080  37.089  26.676  1.00  0.00    -0.237 OA
ATOM     97  O   UNL A   1      46.332  35.207  27.641  1.00  0.00    -0.744 OA
ENDBRANCH  90  94
ENDBRANCH  64  87
ENDBRANCH  38  39
ENDBRANCH  31  33
ENDBRANCH  30  31
ENDBRANCH  29  30
ENDBRANCH  28  29
ENDBRANCH   1  28
TORSDOF 20
ENDMDL
