MODEL 1
REMARK VINA RESULT:     -12.0      0.000      0.000
REMARK SMILES CN(c1ccccc1C(=O)OCCOC(=O)c1ccc(-c2c3nc(c(-c4cc(S(=O)(=O)[O-])ccc4F)c4ccc([nH]4)c(-c4cc(S(=O)(=O)[O-])ccc4F)c4nc(c(-c5cc(S(=O)(=O)[O-])ccc5F)c5ccc2[nH]5)C=C4)C=C3)cc1)S(=O)(=O)c1ccc(I)cc1
REMARK SMILES IDX 12 1 11 2 9 3 10 4 8 5 3 6 4 7 5 8 7 9 6 10 2 11 1 12 80 13
REMARK SMILES IDX 81 14 82 15 83 16 84 17 89 18 85 19 88 20 86 21 87 22 13 23
REMARK SMILES IDX 14 24 15 25 16 26 17 27 18 28 79 29 19 30 78 31 20 32 21 33
REMARK SMILES IDX 22 34 72 35 23 36 77 37 71 38 73 39 24 40 76 41 70 42 69 43
REMARK SMILES IDX 25 45 57 46 37 47 56 48 38 49 41 50 55 51 74 52 39 53 40 54
REMARK SMILES IDX 54 56 75 57 42 58 26 59 27 60 35 61 28 62 34 63 36 64 33 65
REMARK SMILES IDX 29 66 30 67 31 68 32 69 58 70 59 71 67 72 60 73 66 74 68 75
REMARK SMILES IDX 65 76 61 77 62 78 63 79 64 80 43 81 44 82 52 83 45 84 51 85
REMARK SMILES IDX 53 86 50 87 46 88 47 89 48 90 49 91
REMARK H PARENT 73 44 41 55
REMARK Flexibility Score: inf
ROOT
ATOM      1  C   UNL A   1      35.370  22.870  23.468  1.00  0.00     0.275 C 
ENDROOT
BRANCH   1   2
ATOM      2  O   UNL A   1      35.068  24.213  23.904  1.00  0.00    -0.458 OA
BRANCH   2   3
ATOM      3  C   UNL A   1      34.036  24.806  23.272  1.00  0.00     0.340 C 
ATOM      4  O   UNL A   1      33.589  24.509  22.174  1.00  0.00    -0.246 OA
BRANCH   3   5
ATOM      5  C   UNL A   1      33.444  25.914  24.042  1.00  0.00     0.084 A 
ATOM      6  C   UNL A   1      32.684  25.703  25.198  1.00  0.00     0.066 A 
ATOM      7  C   UNL A   1      32.589  26.752  26.132  1.00  0.00     0.028 A 
ATOM      8  C   UNL A   1      33.137  28.010  25.885  1.00  0.00     0.002 A 
ATOM      9  C   UNL A   1      33.971  27.193  23.791  1.00  0.00     0.018 A 
ATOM     10  C   UNL A   1      33.800  28.241  24.693  1.00  0.00     0.001 A 
BRANCH   6  11
ATOM     11  N   UNL A   1      31.880  24.546  25.515  1.00  0.00    -0.269 N 
ATOM     12  C   UNL A   1      30.444  24.762  25.792  1.00  0.00     0.164 C 
BRANCH  11  13
ATOM     13  S   UNL A   1      32.591  23.368  26.556  1.00  0.00     0.264 S 
ATOM     14  O   UNL A   1      33.939  23.797  26.875  1.00  0.00    -0.201 OA
ATOM     15  O   UNL A   1      31.645  23.120  27.625  1.00  0.00    -0.201 OA
BRANCH  13  16
ATOM     16  C   UNL A   1      32.711  21.860  25.612  1.00  0.00     0.088 A 
ATOM     17  C   UNL A   1      33.408  20.765  26.134  1.00  0.00     0.023 A 
ATOM     18  C   UNL A   1      32.123  21.787  24.344  1.00  0.00     0.023 A 
ATOM     19  C   UNL A   1      33.446  19.565  25.417  1.00  0.00     0.016 A 
ATOM     20  C   UNL A   1      32.193  20.597  23.614  1.00  0.00     0.016 A 
ATOM     21  C   UNL A   1      32.839  19.487  24.161  1.00  0.00     0.013 A 
ATOM     22  I   UNL A   1      32.903  17.702  23.096  1.00  0.00    -0.044 I 
ENDBRANCH  13  16
ENDBRANCH  11  13
ENDBRANCH   6  11
ENDBRANCH   3   5
ENDBRANCH   2   3
ENDBRANCH   1   2
BRANCH   1  23
ATOM     23  C   UNL A   1      36.807  22.489  23.810  1.00  0.00     0.275 C 
BRANCH  23  24
ATOM     24  O   UNL A   1      36.862  21.973  25.149  1.00  0.00    -0.458 OA
BRANCH  24  25
ATOM     25  C   UNL A   1      38.079  21.552  25.552  1.00  0.00     0.338 C 
ATOM     26  O   UNL A   1      38.584  20.453  25.378  1.00  0.00    -0.246 OA
BRANCH  25  27
ATOM     27  C   UNL A   1      38.779  22.647  26.235  1.00  0.00     0.060 A 
ATOM     28  C   UNL A   1      38.286  23.945  26.125  1.00  0.00     0.016 A 
ATOM     29  C   UNL A   1      40.004  22.412  26.855  1.00  0.00     0.016 A 
ATOM     30  C   UNL A   1      39.083  25.023  26.502  1.00  0.00     0.010 A 
ATOM     31  C   UNL A   1      40.732  23.490  27.368  1.00  0.00     0.010 A 
ATOM     32  C   UNL A   1      40.304  24.815  27.161  1.00  0.00    -0.014 A 
BRANCH  32  33
ATOM     33  C   UNL A   1      41.130  25.967  27.628  1.00  0.00     0.031 A 
ATOM     34  C   UNL A   1      40.524  27.035  28.505  1.00  0.00     0.074 A 
ATOM     35  C   UNL A   1      42.425  26.071  27.261  1.00  0.00     0.049 A 
ATOM     36  N   UNL A   1      40.986  28.221  28.811  1.00  0.00    -0.248 NA
ATOM     37  C   UNL A   1      39.211  26.734  29.094  1.00  0.00     0.031 C 
ATOM     38  C   UNL A   1      43.163  25.089  26.461  1.00  0.00     0.029 A 
ATOM     39  N   UNL A   1      43.355  27.050  27.511  1.00  0.00    -0.354 N 
ATOM     40  C   UNL A   1      39.996  28.832  29.576  1.00  0.00     0.074 A 
ATOM     41  C   UNL A   1      38.903  27.886  29.673  1.00  0.00     0.031 C 
ATOM     42  C   UNL A   1      44.435  25.487  26.331  1.00  0.00     0.029 A 
ATOM     43  C   UNL A   1      44.577  26.810  26.925  1.00  0.00     0.049 A 
ATOM     44  H   UNL A   1      43.166  27.847  28.058  1.00  0.00     0.167 HD
ATOM     45  C   UNL A   1      40.000  30.069  30.136  1.00  0.00     0.034 A 
ATOM     46  C   UNL A   1      45.672  27.587  26.809  1.00  0.00     0.034 A 
ATOM     47  C   UNL A   1      41.120  30.979  30.060  1.00  0.00     0.049 A 
ATOM     48  C   UNL A   1      45.630  28.980  27.372  1.00  0.00     0.074 A 
ATOM     49  C   UNL A   1      41.246  32.244  30.610  1.00  0.00     0.029 A 
ATOM     50  N   UNL A   1      42.313  30.718  29.398  1.00  0.00    -0.354 N 
ATOM     51  N   UNL A   1      44.659  29.578  28.022  1.00  0.00    -0.248 NA
ATOM     52  C   UNL A   1      46.821  29.810  27.163  1.00  0.00     0.031 C 
ATOM     53  C   UNL A   1      42.485  32.771  30.226  1.00  0.00     0.029 A 
ATOM     54  C   UNL A   1      43.165  31.809  29.497  1.00  0.00     0.049 A 
ATOM     55  H   UNL A   1      42.524  29.879  28.926  1.00  0.00     0.167 HD
ATOM     56  C   UNL A   1      45.124  30.858  28.300  1.00  0.00     0.074 A 
ATOM     57  C   UNL A   1      46.471  30.934  27.770  1.00  0.00     0.031 C 
ATOM     58  C   UNL A   1      44.494  31.879  28.934  1.00  0.00     0.034 A 
BRANCH  45  59
ATOM     59  C   UNL A   1      38.730  30.530  30.818  1.00  0.00     0.023 A 
ATOM     60  C   UNL A   1      37.776  31.332  30.168  1.00  0.00     0.031 A 
ATOM     61  C   UNL A   1      38.492  30.194  32.164  1.00  0.00     0.131 A 
ATOM     62  C   UNL A   1      36.678  31.837  30.882  1.00  0.00     0.055 A 
ATOM     63  C   UNL A   1      37.353  30.629  32.846  1.00  0.00     0.041 A 
ATOM     64  F   UNL A   1      39.372  29.446  32.847  1.00  0.00    -0.206 F 
ATOM     65  C   UNL A   1      36.448  31.472  32.211  1.00  0.00     0.022 A 
BRANCH  62  66
ATOM     66  S   UNL A   1      35.644  33.107  30.100  1.00  0.00     0.124 S 
ATOM     67  O   UNL A   1      36.578  33.703  29.146  1.00  0.00    -0.237 OA
ATOM     68  O   UNL A   1      34.559  32.320  29.526  1.00  0.00    -0.237 OA
ATOM     69  O   UNL A   1      35.265  33.974  31.213  1.00  0.00    -0.744 OA
ENDBRANCH  62  66
ENDBRANCH  45  59
BRANCH  46  70
ATOM     70  C   UNL A   1      46.859  27.095  26.054  1.00  0.00     0.023 A 
ATOM     71  C   UNL A   1      47.114  27.530  24.744  1.00  0.00     0.031 A 
ATOM     72  C   UNL A   1      47.758  26.180  26.633  1.00  0.00     0.131 A 
ATOM     73  C   UNL A   1      48.229  27.035  24.050  1.00  0.00     0.055 A 
ATOM     74  C   UNL A   1      48.894  25.733  25.959  1.00  0.00     0.041 A 
ATOM     75  F   UNL A   1      47.559  25.730  27.883  1.00  0.00    -0.206 F 
ATOM     76  C   UNL A   1      49.131  26.155  24.655  1.00  0.00     0.022 A 
BRANCH  73  77
ATOM     77  S   UNL A   1      48.461  27.519  22.318  1.00  0.00     0.124 S 
ATOM     78  O   UNL A   1      48.652  26.226  21.671  1.00  0.00    -0.237 OA
ATOM     79  O   UNL A   1      47.206  28.204  22.024  1.00  0.00    -0.237 OA
ATOM     80  O   UNL A   1      49.641  28.379  22.359  1.00  0.00    -0.744 OA
ENDBRANCH  73  77
ENDBRANCH  46  70
BRANCH  58  81
ATOM     81  C   UNL A   1      45.281  33.153  29.104  1.00  0.00     0.023 A 
ATOM     82  C   UNL A   1      45.247  34.171  28.135  1.00  0.00     0.031 A 
ATOM     83  C   UNL A   1      46.097  33.337  30.233  1.00  0.00     0.131 A 
ATOM     84  C   UNL A   1      46.056  35.306  28.287  1.00  0.00     0.055 A 
ATOM     85  C   UNL A   1      46.859  34.493  30.407  1.00  0.00     0.041 A 
ATOM     86  F   UNL A   1      46.169  32.393  31.185  1.00  0.00    -0.206 F 
ATOM     87  C   UNL A   1      46.850  35.481  29.425  1.00  0.00     0.022 A 
BRANCH  84  88
ATOM     88  S   UNL A   1      46.125  36.516  26.938  1.00  0.00     0.124 S 
ATOM     89  O   UNL A   1      44.802  37.126  27.012  1.00  0.00    -0.237 OA
ATOM     90  O   UNL A   1      47.243  37.365  27.334  1.00  0.00    -0.237 OA
ATOM     91  O   UNL A   1      46.364  35.693  25.752  1.00  0.00    -0.744 OA
ENDBRANCH  84  88
ENDBRANCH  58  81
ENDBRANCH  32  33
ENDBRANCH  25  27
ENDBRANCH  24  25
ENDBRANCH  23  24
ENDBRANCH   1  23
TORSDOF 17
ENDMDL
MODEL 2
REMARK VINA RESULT:     -11.9      5.360     10.020
REMARK SMILES CN(c1ccccc1C(=O)OCCOC(=O)c1ccc(-c2c3nc(c(-c4cc(S(=O)(=O)[O-])ccc4F)c4ccc([nH]4)c(-c4cc(S(=O)(=O)[O-])ccc4F)c4nc(c(-c5cc(S(=O)(=O)[O-])ccc5F)c5ccc2[nH]5)C=C4)C=C3)cc1)S(=O)(=O)c1ccc(I)cc1
REMARK SMILES IDX 12 1 11 2 9 3 10 4 8 5 3 6 4 7 5 8 7 9 6 10 2 11 1 12 80 13
REMARK SMILES IDX 81 14 82 15 83 16 84 17 89 18 85 19 88 20 86 21 87 22 13 23
REMARK SMILES IDX 14 24 15 25 16 26 17 27 18 28 79 29 19 30 78 31 20 32 21 33
REMARK SMILES IDX 22 34 72 35 23 36 77 37 71 38 73 39 24 40 76 41 70 42 69 43
REMARK SMILES IDX 25 45 57 46 37 47 56 48 38 49 41 50 55 51 74 52 39 53 40 54
REMARK SMILES IDX 54 56 75 57 42 58 26 59 27 60 35 61 28 62 34 63 36 64 33 65
REMARK SMILES IDX 29 66 30 67 31 68 32 69 58 70 59 71 67 72 60 73 66 74 68 75
REMARK SMILES IDX 65 76 61 77 62 78 63 79 64 80 43 81 44 82 52 83 45 84 51 85
REMARK SMILES IDX 53 86 50 87 46 88 47 89 48 90 49 91
REMARK H PARENT 73 44 41 55
REMARK Flexibility Score: inf
ROOT
ATOM      1  C   UNL A   1      33.098  29.373  24.739  1.00  0.00     0.275 C 
ENDROOT
BRANCH   1   2
ATOM      2  O   UNL A   1      33.578  28.182  25.401  1.00  0.00    -0.458 OA
BRANCH   2   3
ATOM      3  C   UNL A   1      33.738  27.105  24.607  1.00  0.00     0.340 C 
ATOM      4  O   UNL A   1      34.079  27.113  23.433  1.00  0.00    -0.246 OA
BRANCH   3   5
ATOM      5  C   UNL A   1      33.454  25.833  25.292  1.00  0.00     0.084 A 
ATOM      6  C   UNL A   1      32.221  25.180  25.186  1.00  0.00     0.066 A 
ATOM      7  C   UNL A   1      32.180  23.794  25.419  1.00  0.00     0.028 A 
ATOM      8  C   UNL A   1      33.301  23.085  25.850  1.00  0.00     0.002 A 
ATOM      9  C   UNL A   1      34.573  25.115  25.751  1.00  0.00     0.018 A 
ATOM     10  C   UNL A   1      34.494  23.756  26.051  1.00  0.00     0.001 A 
BRANCH   6  11
ATOM     11  N   UNL A   1      30.930  25.787  24.959  1.00  0.00    -0.269 N 
ATOM     12  C   UNL A   1      29.860  25.513  25.941  1.00  0.00     0.164 C 
BRANCH  11  13
ATOM     13  S   UNL A   1      30.356  25.805  23.332  1.00  0.00     0.264 S 
ATOM     14  O   UNL A   1      31.468  25.500  22.453  1.00  0.00    -0.201 OA
ATOM     15  O   UNL A   1      29.165  24.980  23.294  1.00  0.00    -0.201 OA
BRANCH  13  16
ATOM     16  C   UNL A   1      29.837  27.476  22.993  1.00  0.00     0.088 A 
ATOM     17  C   UNL A   1      28.551  27.894  23.355  1.00  0.00     0.023 A 
ATOM     18  C   UNL A   1      30.713  28.357  22.349  1.00  0.00     0.023 A 
ATOM     19  C   UNL A   1      28.172  29.223  23.142  1.00  0.00     0.016 A 
ATOM     20  C   UNL A   1      30.317  29.676  22.106  1.00  0.00     0.016 A 
ATOM     21  C   UNL A   1      29.056  30.107  22.519  1.00  0.00     0.013 A 
ATOM     22  I   UNL A   1      28.485  32.080  22.200  1.00  0.00    -0.044 I 
ENDBRANCH  13  16
ENDBRANCH  11  13
ENDBRANCH   6  11
ENDBRANCH   3   5
ENDBRANCH   2   3
ENDBRANCH   1   2
BRANCH   1  23
ATOM     23  C   UNL A   1      32.005  30.055  25.555  1.00  0.00     0.275 C 
BRANCH  23  24
ATOM     24  O   UNL A   1      32.434  30.183  26.920  1.00  0.00    -0.458 OA
BRANCH  24  25
ATOM     25  C   UNL A   1      33.046  31.348  27.222  1.00  0.00     0.338 C 
ATOM     26  O   UNL A   1      32.578  32.475  27.159  1.00  0.00    -0.246 OA
BRANCH  25  27
ATOM     27  C   UNL A   1      34.410  31.081  27.696  1.00  0.00     0.060 A 
ATOM     28  C   UNL A   1      34.757  29.788  28.079  1.00  0.00     0.016 A 
ATOM     29  C   UNL A   1      35.295  32.136  27.904  1.00  0.00     0.016 A 
ATOM     30  C   UNL A   1      35.926  29.571  28.804  1.00  0.00     0.010 A 
ATOM     31  C   UNL A   1      36.535  31.886  28.498  1.00  0.00     0.010 A 
ATOM     32  C   UNL A   1      36.853  30.608  28.996  1.00  0.00    -0.014 A 
BRANCH  32  33
ATOM     33  C   UNL A   1      38.140  30.365  29.713  1.00  0.00     0.031 A 
ATOM     34  C   UNL A   1      39.215  29.516  29.083  1.00  0.00     0.074 A 
ATOM     35  C   UNL A   1      38.347  30.893  30.938  1.00  0.00     0.049 A 
ATOM     36  N   UNL A   1      40.283  28.988  29.626  1.00  0.00    -0.248 NA
ATOM     37  C   UNL A   1      39.053  29.202  27.655  1.00  0.00     0.031 C 
ATOM     38  C   UNL A   1      37.421  31.777  31.651  1.00  0.00     0.029 A 
ATOM     39  N   UNL A   1      39.406  30.765  31.805  1.00  0.00    -0.354 N 
ATOM     40  C   UNL A   1      40.886  28.228  28.626  1.00  0.00     0.074 A 
ATOM     41  C   UNL A   1      40.053  28.358  27.448  1.00  0.00     0.031 C 
ATOM     42  C   UNL A   1      37.970  32.151  32.814  1.00  0.00     0.029 A 
ATOM     43  C   UNL A   1      39.227  31.436  32.993  1.00  0.00     0.049 A 
ATOM     44  H   UNL A   1      40.214  30.244  31.595  1.00  0.00     0.167 HD
ATOM     45  C   UNL A   1      42.023  27.489  28.692  1.00  0.00     0.034 A 
ATOM     46  C   UNL A   1      39.949  31.430  34.131  1.00  0.00     0.034 A 
ATOM     47  C   UNL A   1      42.860  27.410  29.868  1.00  0.00     0.049 A 
ATOM     48  C   UNL A   1      41.163  30.548  34.209  1.00  0.00     0.074 A 
ATOM     49  C   UNL A   1      44.045  26.715  30.041  1.00  0.00     0.029 A 
ATOM     50  N   UNL A   1      42.603  28.056  31.072  1.00  0.00    -0.354 N 
ATOM     51  N   UNL A   1      41.678  29.771  33.285  1.00  0.00    -0.248 NA
ATOM     52  C   UNL A   1      41.877  30.524  35.490  1.00  0.00     0.031 C 
ATOM     53  C   UNL A   1      44.468  26.888  31.365  1.00  0.00     0.029 A 
ATOM     54  C   UNL A   1      43.587  27.749  32.000  1.00  0.00     0.049 A 
ATOM     55  H   UNL A   1      41.833  28.645  31.241  1.00  0.00     0.167 HD
ATOM     56  C   UNL A   1      42.781  29.163  33.876  1.00  0.00     0.074 A 
ATOM     57  C   UNL A   1      42.869  29.686  35.226  1.00  0.00     0.031 C 
ATOM     58  C   UNL A   1      43.642  28.254  33.352  1.00  0.00     0.034 A 
BRANCH  45  59
ATOM     59  C   UNL A   1      42.385  26.657  27.481  1.00  0.00     0.023 A 
ATOM     60  C   UNL A   1      41.985  25.317  27.344  1.00  0.00     0.031 A 
ATOM     61  C   UNL A   1      43.186  27.208  26.463  1.00  0.00     0.131 A 
ATOM     62  C   UNL A   1      42.453  24.552  26.264  1.00  0.00     0.055 A 
ATOM     63  C   UNL A   1      43.579  26.465  25.347  1.00  0.00     0.041 A 
ATOM     64  F   UNL A   1      43.617  28.477  26.543  1.00  0.00    -0.206 F 
ATOM     65  C   UNL A   1      43.228  25.123  25.252  1.00  0.00     0.022 A 
BRANCH  62  66
ATOM     66  S   UNL A   1      42.170  22.759  26.283  1.00  0.00     0.124 S 
ATOM     67  O   UNL A   1      40.713  22.690  26.369  1.00  0.00    -0.237 OA
ATOM     68  O   UNL A   1      42.757  22.335  25.017  1.00  0.00    -0.237 OA
ATOM     69  O   UNL A   1      42.879  22.312  27.480  1.00  0.00    -0.744 OA
ENDBRANCH  62  66
ENDBRANCH  45  59
BRANCH  46  70
ATOM     70  C   UNL A   1      39.487  32.213  35.312  1.00  0.00     0.023 A 
ATOM     71  C   UNL A   1      39.922  33.531  35.521  1.00  0.00     0.031 A 
ATOM     72  C   UNL A   1      38.601  31.652  36.251  1.00  0.00     0.131 A 
ATOM     73  C   UNL A   1      39.485  34.238  36.651  1.00  0.00     0.055 A 
ATOM     74  C   UNL A   1      38.128  32.378  37.344  1.00  0.00     0.041 A 
ATOM     75  F   UNL A   1      38.157  30.395  36.100  1.00  0.00    -0.206 F 
ATOM     76  C   UNL A   1      38.577  33.678  37.554  1.00  0.00     0.022 A 
BRANCH  73  77
ATOM     77  S   UNL A   1      40.162  35.891  36.959  1.00  0.00     0.124 S 
ATOM     78  O   UNL A   1      39.526  36.243  38.222  1.00  0.00    -0.237 OA
ATOM     79  O   UNL A   1      41.596  35.626  37.015  1.00  0.00    -0.237 OA
ATOM     80  O   UNL A   1      39.720  36.662  35.799  1.00  0.00    -0.744 OA
ENDBRANCH  73  77
ENDBRANCH  46  70
BRANCH  58  81
ATOM     81  C   UNL A   1      44.763  27.797  34.247  1.00  0.00     0.023 A 
ATOM     82  C   UNL A   1      44.627  26.671  35.079  1.00  0.00     0.031 A 
ATOM     83  C   UNL A   1      45.973  28.512  34.291  1.00  0.00     0.131 A 
ATOM     84  C   UNL A   1      45.662  26.324  35.959  1.00  0.00     0.055 A 
ATOM     85  C   UNL A   1      47.021  28.131  35.129  1.00  0.00     0.041 A 
ATOM     86  F   UNL A   1      46.152  29.597  33.521  1.00  0.00    -0.206 F 
ATOM     87  C   UNL A   1      46.864  27.037  35.978  1.00  0.00     0.022 A 
BRANCH  84  88
ATOM     88  S   UNL A   1      45.386  24.978  37.142  1.00  0.00     0.124 S 
ATOM     89  O   UNL A   1      46.367  23.989  36.709  1.00  0.00    -0.237 OA
ATOM     90  O   UNL A   1      45.655  25.625  38.422  1.00  0.00    -0.237 OA
ATOM     91  O   UNL A   1      43.989  24.606  36.919  1.00  0.00    -0.744 OA
ENDBRANCH  84  88
ENDBRANCH  58  81
ENDBRANCH  32  33
ENDBRANCH  25  27
ENDBRANCH  24  25
ENDBRANCH  23  24
ENDBRANCH   1  23
TORSDOF 17
ENDMDL
MODEL 3
REMARK VINA RESULT:     -11.9      2.027      3.237
REMARK SMILES CN(c1ccccc1C(=O)OCCOC(=O)c1ccc(-c2c3nc(c(-c4cc(S(=O)(=O)[O-])ccc4F)c4ccc([nH]4)c(-c4cc(S(=O)(=O)[O-])ccc4F)c4nc(c(-c5cc(S(=O)(=O)[O-])ccc5F)c5ccc2[nH]5)C=C4)C=C3)cc1)S(=O)(=O)c1ccc(I)cc1
REMARK SMILES IDX 12 1 11 2 9 3 10 4 8 5 3 6 4 7 5 8 7 9 6 10 2 11 1 12 80 13
REMARK SMILES IDX 81 14 82 15 83 16 84 17 89 18 85 19 88 20 86 21 87 22 13 23
REMARK SMILES IDX 14 24 15 25 16 26 17 27 18 28 79 29 19 30 78 31 20 32 21 33
REMARK SMILES IDX 22 34 72 35 23 36 77 37 71 38 73 39 24 40 76 41 70 42 69 43
REMARK SMILES IDX 25 45 57 46 37 47 56 48 38 49 41 50 55 51 74 52 39 53 40 54
REMARK SMILES IDX 54 56 75 57 42 58 26 59 27 60 35 61 28 62 34 63 36 64 33 65
REMARK SMILES IDX 29 66 30 67 31 68 32 69 58 70 59 71 67 72 60 73 66 74 68 75
REMARK SMILES IDX 65 76 61 77 62 78 63 79 64 80 43 81 44 82 52 83 45 84 51 85
REMARK SMILES IDX 53 86 50 87 46 88 47 89 48 90 49 91
REMARK H PARENT 73 44 41 55
REMARK Flexibility Score: inf
ROOT
ATOM      1  C   UNL A   1      34.883  20.912  25.032  1.00  0.00     0.275 C 
ENDROOT
BRANCH   1   2
ATOM      2  O   UNL A   1      34.433  21.885  24.064  1.00  0.00    -0.458 OA
BRANCH   2   3
ATOM      3  C   UNL A   1      34.562  23.174  24.437  1.00  0.00     0.340 C 
ATOM      4  O   UNL A   1      35.543  23.883  24.270  1.00  0.00    -0.246 OA
BRANCH   3   5
ATOM      5  C   UNL A   1      33.363  23.705  25.107  1.00  0.00     0.084 A 
ATOM      6  C   UNL A   1      32.320  24.321  24.406  1.00  0.00     0.066 A 
ATOM      7  C   UNL A   1      31.042  24.339  24.993  1.00  0.00     0.028 A 
ATOM      8  C   UNL A   1      30.818  23.860  26.284  1.00  0.00     0.002 A 
ATOM      9  C   UNL A   1      33.132  23.249  26.417  1.00  0.00     0.018 A 
ATOM     10  C   UNL A   1      31.876  23.346  27.012  1.00  0.00     0.001 A 
BRANCH   6  11
ATOM     11  N   UNL A   1      32.416  25.048  23.162  1.00  0.00    -0.269 N 
ATOM     12  C   UNL A   1      32.820  24.296  21.955  1.00  0.00     0.164 C 
BRANCH  11  13
ATOM     13  S   UNL A   1      33.120  26.622  23.235  1.00  0.00     0.264 S 
ATOM     14  O   UNL A   1      33.844  26.739  24.486  1.00  0.00    -0.201 OA
ATOM     15  O   UNL A   1      33.814  26.835  21.981  1.00  0.00    -0.201 OA
BRANCH  13  16
ATOM     16  C   UNL A   1      31.768  27.783  23.280  1.00  0.00     0.088 A 
ATOM     17  C   UNL A   1      31.782  28.834  24.204  1.00  0.00     0.023 A 
ATOM     18  C   UNL A   1      30.689  27.626  22.402  1.00  0.00     0.023 A 
ATOM     19  C   UNL A   1      30.749  29.777  24.193  1.00  0.00     0.016 A 
ATOM     20  C   UNL A   1      29.641  28.551  22.419  1.00  0.00     0.016 A 
ATOM     21  C   UNL A   1      29.684  29.631  23.301  1.00  0.00     0.013 A 
ATOM     22  I   UNL A   1      28.149  31.033  23.293  1.00  0.00    -0.044 I 
ENDBRANCH  13  16
ENDBRANCH  11  13
ENDBRANCH   6  11
ENDBRANCH   3   5
ENDBRANCH   2   3
ENDBRANCH   1   2
BRANCH   1  23
ATOM     23  C   UNL A   1      36.382  20.667  24.912  1.00  0.00     0.275 C 
BRANCH  23  24
ATOM     24  O   UNL A   1      37.088  21.560  25.789  1.00  0.00    -0.458 OA
BRANCH  24  25
ATOM     25  C   UNL A   1      38.426  21.385  25.832  1.00  0.00     0.338 C 
ATOM     26  O   UNL A   1      39.070  20.449  25.381  1.00  0.00    -0.246 OA
BRANCH  25  27
ATOM     27  C   UNL A   1      39.053  22.536  26.493  1.00  0.00     0.060 A 
ATOM     28  C   UNL A   1      38.598  23.819  26.205  1.00  0.00     0.016 A 
ATOM     29  C   UNL A   1      40.188  22.353  27.279  1.00  0.00     0.016 A 
ATOM     30  C   UNL A   1      39.359  24.924  26.578  1.00  0.00     0.010 A 
ATOM     31  C   UNL A   1      40.864  23.470  27.778  1.00  0.00     0.010 A 
ATOM     32  C   UNL A   1      40.486  24.773  27.400  1.00  0.00    -0.014 A 
BRANCH  32  33
ATOM     33  C   UNL A   1      41.267  25.959  27.860  1.00  0.00     0.031 A 
ATOM     34  C   UNL A   1      40.614  27.018  28.714  1.00  0.00     0.074 A 
ATOM     35  C   UNL A   1      42.561  26.103  27.505  1.00  0.00     0.049 A 
ATOM     36  N   UNL A   1      41.031  28.223  29.008  1.00  0.00    -0.248 NA
ATOM     37  C   UNL A   1      39.305  26.680  29.293  1.00  0.00     0.031 C 
ATOM     38  C   UNL A   1      43.341  25.136  26.727  1.00  0.00     0.029 A 
ATOM     39  N   UNL A   1      43.454  27.118  27.751  1.00  0.00    -0.354 N 
ATOM     40  C   UNL A   1      40.011  28.811  29.753  1.00  0.00     0.074 A 
ATOM     41  C   UNL A   1      38.951  27.828  29.851  1.00  0.00     0.031 C 
ATOM     42  C   UNL A   1      44.601  25.577  26.606  1.00  0.00     0.029 A 
ATOM     43  C   UNL A   1      44.690  26.911  27.182  1.00  0.00     0.049 A 
ATOM     44  H   UNL A   1      43.232  27.914  28.284  1.00  0.00     0.167 HD
ATOM     45  C   UNL A   1      39.966  30.055  30.295  1.00  0.00     0.034 A 
ATOM     46  C   UNL A   1      45.759  27.724  27.067  1.00  0.00     0.034 A 
ATOM     47  C   UNL A   1      41.055  31.002  30.218  1.00  0.00     0.049 A 
ATOM     48  C   UNL A   1      45.662  29.123  27.608  1.00  0.00     0.074 A 
ATOM     49  C   UNL A   1      41.130  32.279  30.750  1.00  0.00     0.029 A 
ATOM     50  N   UNL A   1      42.264  30.773  29.573  1.00  0.00    -0.354 N 
ATOM     51  N   UNL A   1      44.663  29.696  28.239  1.00  0.00    -0.248 NA
ATOM     52  C   UNL A   1      46.826  29.991  27.400  1.00  0.00     0.031 C 
ATOM     53  C   UNL A   1      42.355  32.842  30.372  1.00  0.00     0.029 A 
ATOM     54  C   UNL A   1      43.077  31.894  29.665  1.00  0.00     0.049 A 
ATOM     55  H   UNL A   1      42.509  29.936  29.115  1.00  0.00     0.167 HD
ATOM     56  C   UNL A   1      45.080  30.995  28.503  1.00  0.00     0.074 A 
ATOM     57  C   UNL A   1      46.430  31.111  27.987  1.00  0.00     0.031 C 
ATOM     58  C   UNL A   1      44.409  32.003  29.116  1.00  0.00     0.034 A 
BRANCH  45  59
ATOM     59  C   UNL A   1      38.673  30.481  30.956  1.00  0.00     0.023 A 
ATOM     60  C   UNL A   1      37.625  31.084  30.239  1.00  0.00     0.031 A 
ATOM     61  C   UNL A   1      38.506  30.318  32.344  1.00  0.00     0.131 A 
ATOM     62  C   UNL A   1      36.500  31.575  30.919  1.00  0.00     0.055 A 
ATOM     63  C   UNL A   1      37.346  30.733  33.004  1.00  0.00     0.041 A 
ATOM     64  F   UNL A   1      39.476  29.767  33.089  1.00  0.00    -0.206 F 
ATOM     65  C   UNL A   1      36.342  31.383  32.294  1.00  0.00     0.022 A 
BRANCH  62  66
ATOM     66  S   UNL A   1      35.321  32.612  30.010  1.00  0.00     0.124 S 
ATOM     67  O   UNL A   1      34.841  31.687  28.985  1.00  0.00    -0.237 OA
ATOM     68  O   UNL A   1      34.358  32.974  31.044  1.00  0.00    -0.237 OA
ATOM     69  O   UNL A   1      36.143  33.711  29.510  1.00  0.00    -0.744 OA
ENDBRANCH  62  66
ENDBRANCH  45  59
BRANCH  46  70
ATOM     70  C   UNL A   1      46.971  27.264  26.331  1.00  0.00     0.023 A 
ATOM     71  C   UNL A   1      47.191  27.634  24.996  1.00  0.00     0.031 A 
ATOM     72  C   UNL A   1      47.928  26.443  26.957  1.00  0.00     0.131 A 
ATOM     73  C   UNL A   1      48.332  27.169  24.323  1.00  0.00     0.055 A 
ATOM     74  C   UNL A   1      49.087  26.028  26.300  1.00  0.00     0.041 A 
ATOM     75  F   UNL A   1      47.764  26.058  28.232  1.00  0.00    -0.206 F 
ATOM     76  C   UNL A   1      49.290  26.386  24.972  1.00  0.00     0.022 A 
BRANCH  73  77
ATOM     77  S   UNL A   1      48.524  27.562  22.564  1.00  0.00     0.124 S 
ATOM     78  O   UNL A   1      48.603  26.232  21.969  1.00  0.00    -0.237 OA
ATOM     79  O   UNL A   1      47.306  28.316  22.286  1.00  0.00    -0.237 OA
ATOM     80  O   UNL A   1      49.759  28.341  22.520  1.00  0.00    -0.744 OA
ENDBRANCH  73  77
ENDBRANCH  46  70
BRANCH  58  81
ATOM     81  C   UNL A   1      45.149  33.305  29.275  1.00  0.00     0.023 A 
ATOM     82  C   UNL A   1      45.170  34.268  28.251  1.00  0.00     0.031 A 
ATOM     83  C   UNL A   1      45.865  33.574  30.454  1.00  0.00     0.131 A 
ATOM     84  C   UNL A   1      45.937  35.431  28.403  1.00  0.00     0.055 A 
ATOM     85  C   UNL A   1      46.583  34.758  30.623  1.00  0.00     0.041 A 
ATOM     86  F   UNL A   1      45.881  32.686  31.461  1.00  0.00    -0.206 F 
ATOM     87  C   UNL A   1      46.631  35.690  29.589  1.00  0.00     0.022 A 
BRANCH  84  88
ATOM     88  S   UNL A   1      46.088  36.567  26.997  1.00  0.00     0.124 S 
ATOM     89  O   UNL A   1      47.416  37.133  27.206  1.00  0.00    -0.237 OA
ATOM     90  O   UNL A   1      45.949  35.671  25.853  1.00  0.00    -0.237 OA
ATOM     91  O   UNL A   1      44.977  37.499  27.189  1.00  0.00    -0.744 OA
ENDBRANCH  84  88
ENDBRANCH  58  81
ENDBRANCH  32  33
ENDBRANCH  25  27
ENDBRANCH  24  25
ENDBRANCH  23  24
ENDBRANCH   1  23
TORSDOF 17
ENDMDL
