MODEL 1
REMARK VINA RESULT:     -12.8      0.000      0.000
REMARK SMILES Cc1ccc(CN2/C(=[NH+]/C(=O)CCC(=O)OCCOC(=O)c3ccc(-c4c5nc(c(-c6cc(S(=O)(=O)[O-])ccc6F)c6ccc([nH]6)c(-c6cc(S(=O)(=O)[O-])ccc6F)c6nc(c(-c7cc(S(=O)(=O)[O-])ccc7F)c7ccc4[nH]7)C=C6)C=C5)cc3)S[C@H]3CS(=O)(=O)C[C@@H]32)cc1
REMARK SMILES IDX 17 1 16 2 14 3 15 4 13 5 12 6 10 7 7 8 8 9 92 10 9 11 85 12
REMARK SMILES IDX 86 13 91 14 87 16 88 17 11 18 89 19 90 20 6 21 5 22 1 23
REMARK SMILES IDX 2 24 3 25 94 26 4 27 93 28 18 29 19 30 20 31 21 32 22 33
REMARK SMILES IDX 23 34 84 35 24 36 83 37 25 38 26 39 27 40 77 41 28 42 82 43
REMARK SMILES IDX 76 44 78 45 29 46 81 47 75 48 74 49 30 51 62 52 42 53 61 54
REMARK SMILES IDX 43 55 46 56 60 57 79 58 44 59 45 60 59 62 80 63 47 64 31 65
REMARK SMILES IDX 32 66 40 67 33 68 39 69 41 70 38 71 34 72 35 73 36 74 37 75
REMARK SMILES IDX 63 76 64 77 72 78 65 79 71 80 73 81 70 82 66 83 67 84 68 85
REMARK SMILES IDX 69 86 48 87 49 88 57 89 50 90 56 91 58 92 55 93 51 94 52 95
REMARK SMILES IDX 53 96 54 97
REMARK H PARENT 9 15 78 50 46 61
REMARK Flexibility Score: inf
ROOT
ATOM      1  C   UNL A   1      41.716  20.012  27.076  1.00  0.00     0.274 C 
ENDROOT
BRANCH   1   2
ATOM      2  O   UNL A   1      40.487  20.721  27.099  1.00  0.00    -0.462 OA
BRANCH   2   3
ATOM      3  C   UNL A   1      39.570  20.359  26.162  1.00  0.00     0.306 C 
ATOM      4  O   UNL A   1      39.500  19.303  25.556  1.00  0.00    -0.252 OA
BRANCH   3   5
ATOM      5  C   UNL A   1      38.785  21.573  25.809  1.00  0.00     0.135 C 
BRANCH   5   6
ATOM      6  C   UNL A   1      37.736  21.129  24.799  1.00  0.00     0.139 C 
BRANCH   6   7
ATOM      7  C   UNL A   1      36.634  22.154  24.494  1.00  0.00     0.308 C 
ATOM      8  N   UNL A   1      32.952  22.090  24.609  1.00  0.00    -0.247 N 
ATOM      9  C   UNL A   1      34.342  22.185  24.859  1.00  0.00     0.314 C 
ATOM     10  C   UNL A   1      32.409  23.438  24.781  1.00  0.00     0.206 C 
ATOM     11  N   UNL A   1      35.349  21.696  24.207  1.00  0.00    -0.205 N 
ATOM     12  S   UNL A   1      34.590  23.354  26.218  1.00  0.00    -0.030 SA
ATOM     13  C   UNL A   1      32.876  23.883  26.169  1.00  0.00     0.120 C 
ATOM     14  C   UNL A   1      30.945  23.779  24.797  1.00  0.00     0.187 C 
ATOM     15  H   UNL A   1      35.209  21.008  23.517  1.00  0.00     0.316 HD
ATOM     16  C   UNL A   1      32.579  25.367  26.221  1.00  0.00     0.156 C 
ATOM     17  S   UNL A   1      30.993  25.476  25.375  1.00  0.00     0.155 S 
ATOM     18  O   UNL A   1      36.971  23.328  24.329  1.00  0.00    -0.247 OA
ATOM     19  O   UNL A   1      29.936  25.653  26.365  1.00  0.00    -0.229 OA
ATOM     20  O   UNL A   1      31.124  26.341  24.237  1.00  0.00    -0.229 OA
BRANCH   8  21
ATOM     21  C   UNL A   1      32.257  21.123  23.734  1.00  0.00     0.273 C 
BRANCH  21  22
ATOM     22  C   UNL A   1      32.496  19.644  24.070  1.00  0.00    -0.007 A 
ATOM     23  C   UNL A   1      33.707  15.577  25.044  1.00  0.00     0.044 C 
ATOM     24  C   UNL A   1      33.151  16.921  24.687  1.00  0.00    -0.051 A 
ATOM     25  C   UNL A   1      33.040  17.351  23.368  1.00  0.00     0.004 A 
ATOM     26  C   UNL A   1      32.781  17.809  25.685  1.00  0.00     0.004 A 
ATOM     27  C   UNL A   1      32.718  18.690  23.067  1.00  0.00     0.008 A 
ATOM     28  C   UNL A   1      32.412  19.124  25.367  1.00  0.00     0.008 A 
ENDBRANCH  21  22
ENDBRANCH   8  21
ENDBRANCH   6   7
ENDBRANCH   5   6
ENDBRANCH   3   5
ENDBRANCH   2   3
ENDBRANCH   1   2
BRANCH   1  29
ATOM     29  C   UNL A   1      42.658  20.599  26.029  1.00  0.00     0.275 C 
BRANCH  29  30
ATOM     30  O   UNL A   1      42.247  21.850  25.396  1.00  0.00    -0.458 OA
BRANCH  30  31
ATOM     31  C   UNL A   1      42.949  22.988  25.127  1.00  0.00     0.338 C 
ATOM     32  O   UNL A   1      43.678  23.058  24.142  1.00  0.00    -0.246 OA
BRANCH  31  33
ATOM     33  C   UNL A   1      42.741  24.193  25.957  1.00  0.00     0.060 A 
ATOM     34  C   UNL A   1      42.762  25.492  25.409  1.00  0.00     0.016 A 
ATOM     35  C   UNL A   1      42.419  24.028  27.282  1.00  0.00     0.016 A 
ATOM     36  C   UNL A   1      42.373  26.597  26.191  1.00  0.00     0.010 A 
ATOM     37  C   UNL A   1      41.783  25.052  27.924  1.00  0.00     0.010 A 
ATOM     38  C   UNL A   1      41.845  26.359  27.458  1.00  0.00    -0.014 A 
BRANCH  38  39
ATOM     39  C   UNL A   1      41.514  27.334  28.500  1.00  0.00     0.031 A 
ATOM     40  C   UNL A   1      40.363  28.245  28.432  1.00  0.00     0.074 A 
ATOM     41  C   UNL A   1      42.323  27.316  29.589  1.00  0.00     0.049 A 
ATOM     42  N   UNL A   1      40.402  29.485  28.776  1.00  0.00    -0.248 NA
ATOM     43  C   UNL A   1      39.035  27.813  28.016  1.00  0.00     0.031 C 
ATOM     44  C   UNL A   1      42.293  28.092  30.813  1.00  0.00     0.029 A 
ATOM     45  N   UNL A   1      43.495  26.592  29.730  1.00  0.00    -0.354 N 
ATOM     46  C   UNL A   1      39.095  29.894  28.966  1.00  0.00     0.074 A 
ATOM     47  C   UNL A   1      38.288  28.881  28.332  1.00  0.00     0.031 C 
ATOM     48  C   UNL A   1      43.505  28.012  31.411  1.00  0.00     0.029 A 
ATOM     49  C   UNL A   1      44.392  27.258  30.531  1.00  0.00     0.049 A 
ATOM     50  H   UNL A   1      43.663  25.717  29.313  1.00  0.00     0.167 HD
ATOM     51  C   UNL A   1      38.823  30.917  29.832  1.00  0.00     0.034 A 
ATOM     52  C   UNL A   1      45.534  27.691  29.917  1.00  0.00     0.034 A 
ATOM     53  C   UNL A   1      40.042  31.300  30.551  1.00  0.00     0.049 A 
ATOM     54  C   UNL A   1      45.448  29.194  29.777  1.00  0.00     0.074 A 
ATOM     55  C   UNL A   1      40.472  31.044  31.844  1.00  0.00     0.029 A 
ATOM     56  N   UNL A   1      41.155  31.747  29.850  1.00  0.00    -0.354 N 
ATOM     57  N   UNL A   1      44.317  29.854  29.742  1.00  0.00    -0.248 NA
ATOM     58  C   UNL A   1      46.608  30.071  29.828  1.00  0.00     0.031 C 
ATOM     59  C   UNL A   1      41.879  31.247  31.883  1.00  0.00     0.029 A 
ATOM     60  C   UNL A   1      42.295  31.647  30.622  1.00  0.00     0.049 A 
ATOM     61  H   UNL A   1      41.134  32.087  28.926  1.00  0.00     0.167 HD
ATOM     62  C   UNL A   1      44.562  31.185  29.917  1.00  0.00     0.074 A 
ATOM     63  C   UNL A   1      46.017  31.276  29.921  1.00  0.00     0.031 C 
ATOM     64  C   UNL A   1      43.574  32.112  30.107  1.00  0.00     0.034 A 
BRANCH  51  65
ATOM     65  C   UNL A   1      37.443  31.364  30.286  1.00  0.00     0.023 A 
ATOM     66  C   UNL A   1      36.588  32.019  29.369  1.00  0.00     0.031 A 
ATOM     67  C   UNL A   1      36.890  31.149  31.564  1.00  0.00     0.131 A 
ATOM     68  C   UNL A   1      35.317  32.497  29.741  1.00  0.00     0.055 A 
ATOM     69  C   UNL A   1      35.635  31.653  31.948  1.00  0.00     0.041 A 
ATOM     70  F   UNL A   1      37.513  30.396  32.482  1.00  0.00    -0.206 F 
ATOM     71  C   UNL A   1      34.844  32.340  31.038  1.00  0.00     0.022 A 
BRANCH  68  72
ATOM     72  S   UNL A   1      34.282  33.307  28.488  1.00  0.00     0.124 S 
ATOM     73  O   UNL A   1      33.531  34.270  29.287  1.00  0.00    -0.237 OA
ATOM     74  O   UNL A   1      35.274  33.861  27.573  1.00  0.00    -0.237 OA
ATOM     75  O   UNL A   1      33.487  32.207  27.940  1.00  0.00    -0.744 OA
ENDBRANCH  68  72
ENDBRANCH  51  65
BRANCH  52  76
ATOM     76  C   UNL A   1      46.070  26.682  28.922  1.00  0.00     0.023 A 
ATOM     77  C   UNL A   1      45.857  26.984  27.549  1.00  0.00     0.031 A 
ATOM     78  C   UNL A   1      47.065  25.736  29.209  1.00  0.00     0.131 A 
ATOM     79  C   UNL A   1      46.728  26.510  26.553  1.00  0.00     0.055 A 
ATOM     80  C   UNL A   1      47.867  25.179  28.191  1.00  0.00     0.041 A 
ATOM     81  F   UNL A   1      47.357  25.411  30.476  1.00  0.00    -0.206 F 
ATOM     82  C   UNL A   1      47.727  25.591  26.863  1.00  0.00     0.022 A 
BRANCH  79  83
ATOM     83  S   UNL A   1      46.789  27.412  24.964  1.00  0.00     0.124 S 
ATOM     84  O   UNL A   1      45.402  27.822  24.781  1.00  0.00    -0.237 OA
ATOM     85  O   UNL A   1      47.749  28.476  25.249  1.00  0.00    -0.237 OA
ATOM     86  O   UNL A   1      47.287  26.415  24.019  1.00  0.00    -0.744 OA
ENDBRANCH  79  83
ENDBRANCH  52  76
BRANCH  64  87
ATOM     87  C   UNL A   1      43.760  33.591  29.916  1.00  0.00     0.023 A 
ATOM     88  C   UNL A   1      43.570  34.195  28.671  1.00  0.00     0.031 A 
ATOM     89  C   UNL A   1      44.013  34.466  30.999  1.00  0.00     0.131 A 
ATOM     90  C   UNL A   1      43.761  35.569  28.501  1.00  0.00     0.055 A 
ATOM     91  C   UNL A   1      44.074  35.852  30.850  1.00  0.00     0.041 A 
ATOM     92  F   UNL A   1      44.195  34.021  32.250  1.00  0.00    -0.206 F 
ATOM     93  C   UNL A   1      43.976  36.412  29.587  1.00  0.00     0.022 A 
BRANCH  90  94
ATOM     94  S   UNL A   1      43.845  36.180  26.806  1.00  0.00     0.124 S 
ATOM     95  O   UNL A   1      44.681  37.369  26.962  1.00  0.00    -0.237 OA
ATOM     96  O   UNL A   1      44.463  35.064  26.097  1.00  0.00    -0.237 OA
ATOM     97  O   UNL A   1      42.449  36.441  26.466  1.00  0.00    -0.744 OA
ENDBRANCH  90  94
ENDBRANCH  64  87
ENDBRANCH  38  39
ENDBRANCH  31  33
ENDBRANCH  30  31
ENDBRANCH  29  30
ENDBRANCH   1  29
TORSDOF 18
ENDMDL
MODEL 2
REMARK VINA RESULT:     -12.7      4.660     10.507
REMARK SMILES Cc1ccc(CN2/C(=[NH+]/C(=O)CCC(=O)OCCOC(=O)c3ccc(-c4c5nc(c(-c6cc(S(=O)(=O)[O-])ccc6F)c6ccc([nH]6)c(-c6cc(S(=O)(=O)[O-])ccc6F)c6nc(c(-c7cc(S(=O)(=O)[O-])ccc7F)c7ccc4[nH]7)C=C6)C=C5)cc3)S[C@H]3CS(=O)(=O)C[C@@H]32)cc1
REMARK SMILES IDX 17 1 16 2 14 3 15 4 13 5 12 6 10 7 7 8 8 9 92 10 9 11 85 12
REMARK SMILES IDX 86 13 91 14 87 16 88 17 11 18 89 19 90 20 6 21 5 22 1 23
REMARK SMILES IDX 2 24 3 25 94 26 4 27 93 28 18 29 19 30 20 31 21 32 22 33
REMARK SMILES IDX 23 34 84 35 24 36 83 37 25 38 26 39 27 40 77 41 28 42 82 43
REMARK SMILES IDX 76 44 78 45 29 46 81 47 75 48 74 49 30 51 62 52 42 53 61 54
REMARK SMILES IDX 43 55 46 56 60 57 79 58 44 59 45 60 59 62 80 63 47 64 31 65
REMARK SMILES IDX 32 66 40 67 33 68 39 69 41 70 38 71 34 72 35 73 36 74 37 75
REMARK SMILES IDX 63 76 64 77 72 78 65 79 71 80 73 81 70 82 66 83 67 84 68 85
REMARK SMILES IDX 69 86 48 87 49 88 57 89 50 90 56 91 58 92 55 93 51 94 52 95
REMARK SMILES IDX 53 96 54 97
REMARK H PARENT 9 15 78 50 46 61
REMARK Flexibility Score: inf
ROOT
ATOM      1  C   UNL A   1      34.270  33.104  28.735  1.00  0.00     0.274 C 
ENDROOT
BRANCH   1   2
ATOM      2  O   UNL A   1      33.811  32.179  27.761  1.00  0.00    -0.462 OA
BRANCH   2   3
ATOM      3  C   UNL A   1      32.566  32.407  27.262  1.00  0.00     0.306 C 
ATOM      4  O   UNL A   1      31.929  33.445  27.291  1.00  0.00    -0.252 OA
BRANCH   3   5
ATOM      5  C   UNL A   1      31.992  31.090  26.871  1.00  0.00     0.135 C 
BRANCH   5   6
ATOM      6  C   UNL A   1      33.169  30.194  26.518  1.00  0.00     0.139 C 
BRANCH   6   7
ATOM      7  C   UNL A   1      32.862  28.691  26.450  1.00  0.00     0.308 C 
ATOM      8  N   UNL A   1      30.953  26.551  24.137  1.00  0.00    -0.247 N 
ATOM      9  C   UNL A   1      31.913  27.330  24.828  1.00  0.00     0.314 C 
ATOM     10  C   UNL A   1      31.431  25.169  24.185  1.00  0.00     0.206 C 
ATOM     11  N   UNL A   1      31.759  28.260  25.715  1.00  0.00    -0.205 N 
ATOM     12  S   UNL A   1      33.553  26.672  24.440  1.00  0.00    -0.030 SA
ATOM     13  C   UNL A   1      32.861  25.222  23.642  1.00  0.00     0.120 C 
ATOM     14  C   UNL A   1      30.828  24.024  23.421  1.00  0.00     0.187 C 
ATOM     15  H   UNL A   1      30.872  28.661  25.869  1.00  0.00     0.316 HD
ATOM     16  C   UNL A   1      33.453  23.868  23.971  1.00  0.00     0.156 C 
ATOM     17  S   UNL A   1      32.072  22.754  23.662  1.00  0.00     0.155 S 
ATOM     18  O   UNL A   1      33.491  27.942  27.202  1.00  0.00    -0.247 OA
ATOM     19  O   UNL A   1      32.284  22.073  22.389  1.00  0.00    -0.229 OA
ATOM     20  O   UNL A   1      31.763  22.039  24.867  1.00  0.00    -0.229 OA
BRANCH   8  21
ATOM     21  C   UNL A   1      29.509  26.825  23.987  1.00  0.00     0.273 C 
BRANCH  21  22
ATOM     22  C   UNL A   1      29.159  28.082  23.178  1.00  0.00    -0.007 A 
ATOM     23  C   UNL A   1      28.273  31.929  21.341  1.00  0.00     0.044 C 
ATOM     24  C   UNL A   1      28.525  30.541  21.846  1.00  0.00    -0.051 A 
ATOM     25  C   UNL A   1      27.536  29.788  22.469  1.00  0.00     0.004 A 
ATOM     26  C   UNL A   1      29.794  29.987  21.755  1.00  0.00     0.004 A 
ATOM     27  C   UNL A   1      27.849  28.579  23.122  1.00  0.00     0.008 A 
ATOM     28  C   UNL A   1      30.078  28.758  22.367  1.00  0.00     0.008 A 
ENDBRANCH  21  22
ENDBRANCH   8  21
ENDBRANCH   6   7
ENDBRANCH   5   6
ENDBRANCH   3   5
ENDBRANCH   2   3
ENDBRANCH   1   2
BRANCH   1  29
ATOM     29  C   UNL A   1      34.891  32.374  29.922  1.00  0.00     0.275 C 
BRANCH  29  30
ATOM     30  O   UNL A   1      35.687  31.184  29.626  1.00  0.00    -0.458 OA
BRANCH  30  31
ATOM     31  C   UNL A   1      36.391  30.354  30.445  1.00  0.00     0.338 C 
ATOM     32  O   UNL A   1      35.974  30.074  31.565  1.00  0.00    -0.246 OA
BRANCH  31  33
ATOM     33  C   UNL A   1      37.609  29.684  29.943  1.00  0.00     0.060 A 
ATOM     34  C   UNL A   1      38.239  30.075  28.744  1.00  0.00     0.016 A 
ATOM     35  C   UNL A   1      38.195  28.718  30.725  1.00  0.00     0.016 A 
ATOM     36  C   UNL A   1      39.496  29.545  28.398  1.00  0.00     0.010 A 
ATOM     37  C   UNL A   1      39.515  28.437  30.522  1.00  0.00     0.010 A 
ATOM     38  C   UNL A   1      40.153  28.738  29.325  1.00  0.00    -0.014 A 
BRANCH  38  39
ATOM     39  C   UNL A   1      41.381  27.960  29.142  1.00  0.00     0.031 A 
ATOM     40  C   UNL A   1      41.413  26.601  28.587  1.00  0.00     0.074 A 
ATOM     41  C   UNL A   1      42.529  28.602  29.477  1.00  0.00     0.049 A 
ATOM     42  N   UNL A   1      42.145  25.648  29.050  1.00  0.00    -0.248 NA
ATOM     43  C   UNL A   1      40.652  26.209  27.407  1.00  0.00     0.031 C 
ATOM     44  C   UNL A   1      43.914  28.180  29.407  1.00  0.00     0.029 A 
ATOM     45  N   UNL A   1      42.629  29.830  30.109  1.00  0.00    -0.354 N 
ATOM     46  C   UNL A   1      42.226  24.683  28.064  1.00  0.00     0.074 A 
ATOM     47  C   UNL A   1      41.163  24.999  27.141  1.00  0.00     0.031 C 
ATOM     48  C   UNL A   1      44.656  28.979  30.208  1.00  0.00     0.029 A 
ATOM     49  C   UNL A   1      43.749  29.884  30.906  1.00  0.00     0.049 A 
ATOM     50  H   UNL A   1      41.985  30.567  30.002  1.00  0.00     0.167 HD
ATOM     51  C   UNL A   1      43.316  23.859  28.007  1.00  0.00     0.034 A 
ATOM     52  C   UNL A   1      43.520  29.975  32.251  1.00  0.00     0.034 A 
ATOM     53  C   UNL A   1      44.324  24.297  28.978  1.00  0.00     0.049 A 
ATOM     54  C   UNL A   1      43.867  28.642  32.874  1.00  0.00     0.074 A 
ATOM     55  C   UNL A   1      45.516  24.988  28.827  1.00  0.00     0.029 A 
ATOM     56  N   UNL A   1      44.014  24.344  30.332  1.00  0.00    -0.354 N 
ATOM     57  N   UNL A   1      43.851  27.510  32.216  1.00  0.00    -0.248 NA
ATOM     58  C   UNL A   1      44.405  28.502  34.219  1.00  0.00     0.031 C 
ATOM     59  C   UNL A   1      45.865  25.536  30.091  1.00  0.00     0.029 A 
ATOM     60  C   UNL A   1      44.898  25.158  31.011  1.00  0.00     0.049 A 
ATOM     61  H   UNL A   1      43.264  23.863  30.751  1.00  0.00     0.167 HD
ATOM     62  C   UNL A   1      44.491  26.551  32.946  1.00  0.00     0.074 A 
ATOM     63  C   UNL A   1      44.780  27.211  34.213  1.00  0.00     0.031 C 
ATOM     64  C   UNL A   1      44.797  25.312  32.454  1.00  0.00     0.034 A 
BRANCH  51  65
ATOM     65  C   UNL A   1      43.641  22.878  26.893  1.00  0.00     0.023 A 
ATOM     66  C   UNL A   1      43.089  21.576  26.931  1.00  0.00     0.031 A 
ATOM     67  C   UNL A   1      44.435  23.154  25.762  1.00  0.00     0.131 A 
ATOM     68  C   UNL A   1      43.388  20.608  25.954  1.00  0.00     0.055 A 
ATOM     69  C   UNL A   1      44.761  22.179  24.803  1.00  0.00     0.041 A 
ATOM     70  F   UNL A   1      44.884  24.390  25.503  1.00  0.00    -0.206 F 
ATOM     71  C   UNL A   1      44.245  20.895  24.899  1.00  0.00     0.022 A 
BRANCH  68  72
ATOM     72  S   UNL A   1      42.614  18.969  26.075  1.00  0.00     0.124 S 
ATOM     73  O   UNL A   1      43.593  18.117  25.408  1.00  0.00    -0.237 OA
ATOM     74  O   UNL A   1      42.479  18.793  27.517  1.00  0.00    -0.237 OA
ATOM     75  O   UNL A   1      41.350  19.136  25.356  1.00  0.00    -0.744 OA
ENDBRANCH  68  72
ENDBRANCH  51  65
BRANCH  52  76
ATOM     76  C   UNL A   1      42.360  30.894  32.576  1.00  0.00     0.023 A 
ATOM     77  C   UNL A   1      41.338  30.344  33.396  1.00  0.00     0.031 A 
ATOM     78  C   UNL A   1      42.408  32.293  32.487  1.00  0.00     0.131 A 
ATOM     79  C   UNL A   1      40.547  31.160  34.225  1.00  0.00     0.055 A 
ATOM     80  C   UNL A   1      41.537  33.109  33.238  1.00  0.00     0.041 A 
ATOM     81  F   UNL A   1      43.356  32.902  31.761  1.00  0.00    -0.206 F 
ATOM     82  C   UNL A   1      40.628  32.547  34.139  1.00  0.00     0.022 A 
BRANCH  79  83
ATOM     83  S   UNL A   1      39.733  30.387  35.668  1.00  0.00     0.124 S 
ATOM     84  O   UNL A   1      40.606  29.256  35.953  1.00  0.00    -0.237 OA
ATOM     85  O   UNL A   1      39.740  31.474  36.645  1.00  0.00    -0.237 OA
ATOM     86  O   UNL A   1      38.399  30.053  35.175  1.00  0.00    -0.744 OA
ENDBRANCH  79  83
ENDBRANCH  52  76
BRANCH  64  87
ATOM     87  C   UNL A   1      45.136  24.125  33.313  1.00  0.00     0.023 A 
ATOM     88  C   UNL A   1      46.409  23.962  33.861  1.00  0.00     0.031 A 
ATOM     89  C   UNL A   1      44.161  23.180  33.713  1.00  0.00     0.131 A 
ATOM     90  C   UNL A   1      46.718  22.847  34.644  1.00  0.00     0.055 A 
ATOM     91  C   UNL A   1      44.439  22.140  34.600  1.00  0.00     0.041 A 
ATOM     92  F   UNL A   1      42.894  23.231  33.277  1.00  0.00    -0.206 F 
ATOM     93  C   UNL A   1      45.735  21.950  35.051  1.00  0.00     0.022 A 
BRANCH  90  94
ATOM     94  S   UNL A   1      48.463  22.552  34.996  1.00  0.00     0.124 S 
ATOM     95  O   UNL A   1      48.495  22.679  36.452  1.00  0.00    -0.237 OA
ATOM     96  O   UNL A   1      48.666  21.203  34.477  1.00  0.00    -0.237 OA
ATOM     97  O   UNL A   1      49.145  23.614  34.263  1.00  0.00    -0.744 OA
ENDBRANCH  90  94
ENDBRANCH  64  87
ENDBRANCH  38  39
ENDBRANCH  31  33
ENDBRANCH  30  31
ENDBRANCH  29  30
ENDBRANCH   1  29
TORSDOF 18
ENDMDL
MODEL 3
REMARK VINA RESULT:     -12.7      2.508      3.295
REMARK SMILES Cc1ccc(CN2/C(=[NH+]/C(=O)CCC(=O)OCCOC(=O)c3ccc(-c4c5nc(c(-c6cc(S(=O)(=O)[O-])ccc6F)c6ccc([nH]6)c(-c6cc(S(=O)(=O)[O-])ccc6F)c6nc(c(-c7cc(S(=O)(=O)[O-])ccc7F)c7ccc4[nH]7)C=C6)C=C5)cc3)S[C@H]3CS(=O)(=O)C[C@@H]32)cc1
REMARK SMILES IDX 17 1 16 2 14 3 15 4 13 5 12 6 10 7 7 8 8 9 92 10 9 11 85 12
REMARK SMILES IDX 86 13 91 14 87 16 88 17 11 18 89 19 90 20 6 21 5 22 1 23
REMARK SMILES IDX 2 24 3 25 94 26 4 27 93 28 18 29 19 30 20 31 21 32 22 33
REMARK SMILES IDX 23 34 84 35 24 36 83 37 25 38 26 39 27 40 77 41 28 42 82 43
REMARK SMILES IDX 76 44 78 45 29 46 81 47 75 48 74 49 30 51 62 52 42 53 61 54
REMARK SMILES IDX 43 55 46 56 60 57 79 58 44 59 45 60 59 62 80 63 47 64 31 65
REMARK SMILES IDX 32 66 40 67 33 68 39 69 41 70 38 71 34 72 35 73 36 74 37 75
REMARK SMILES IDX 63 76 64 77 72 78 65 79 71 80 73 81 70 82 66 83 67 84 68 85
REMARK SMILES IDX 69 86 48 87 49 88 57 89 50 90 56 91 58 92 55 93 51 94 52 95
REMARK SMILES IDX 53 96 54 97
REMARK H PARENT 9 15 78 50 46 61
REMARK Flexibility Score: inf
ROOT
ATOM      1  C   UNL A   1      42.131  21.881  26.909  1.00  0.00     0.274 C 
ENDROOT
BRANCH   1   2
ATOM      2  O   UNL A   1      41.544  21.350  25.731  1.00  0.00    -0.462 OA
BRANCH   2   3
ATOM      3  C   UNL A   1      40.477  20.527  25.914  1.00  0.00     0.306 C 
ATOM      4  O   UNL A   1      40.432  19.318  25.760  1.00  0.00    -0.252 OA
BRANCH   3   5
ATOM      5  C   UNL A   1      39.277  21.385  26.110  1.00  0.00     0.135 C 
BRANCH   5   6
ATOM      6  C   UNL A   1      38.177  20.794  25.239  1.00  0.00     0.139 C 
BRANCH   6   7
ATOM      7  C   UNL A   1      37.023  21.745  24.891  1.00  0.00     0.308 C 
ATOM      8  N   UNL A   1      33.353  21.426  24.813  1.00  0.00    -0.247 N 
ATOM      9  C   UNL A   1      34.719  21.612  25.136  1.00  0.00     0.314 C 
ATOM     10  C   UNL A   1      32.710  22.730  24.974  1.00  0.00     0.206 C 
ATOM     11  N   UNL A   1      35.790  21.205  24.531  1.00  0.00    -0.205 N 
ATOM     12  S   UNL A   1      34.815  22.773  26.521  1.00  0.00    -0.030 SA
ATOM     13  C   UNL A   1      33.074  23.183  26.390  1.00  0.00     0.120 C 
ATOM     14  C   UNL A   1      31.228  22.970  24.918  1.00  0.00     0.187 C 
ATOM     15  H   UNL A   1      35.733  20.520  23.826  1.00  0.00     0.316 HD
ATOM     16  C   UNL A   1      32.672  24.642  26.446  1.00  0.00     0.156 C 
ATOM     17  S   UNL A   1      31.127  24.656  25.520  1.00  0.00     0.155 S 
ATOM     18  O   UNL A   1      37.286  22.942  24.758  1.00  0.00    -0.247 OA
ATOM     19  O   UNL A   1      30.011  24.743  26.456  1.00  0.00    -0.229 OA
ATOM     20  O   UNL A   1      31.255  25.547  24.402  1.00  0.00    -0.229 OA
BRANCH   8  21
ATOM     21  C   UNL A   1      32.774  20.428  23.890  1.00  0.00     0.273 C 
BRANCH  21  22
ATOM     22  C   UNL A   1      32.936  18.963  24.320  1.00  0.00    -0.007 A 
ATOM     23  C   UNL A   1      32.872  14.743  25.390  1.00  0.00     0.044 C 
ATOM     24  C   UNL A   1      33.031  16.202  25.086  1.00  0.00    -0.051 A 
ATOM     25  C   UNL A   1      32.708  17.190  26.009  1.00  0.00     0.004 A 
ATOM     26  C   UNL A   1      33.457  16.608  23.830  1.00  0.00     0.004 A 
ATOM     27  C   UNL A   1      32.662  18.548  25.630  1.00  0.00     0.008 A 
ATOM     28  C   UNL A   1      33.455  17.967  23.484  1.00  0.00     0.008 A 
ENDBRANCH  21  22
ENDBRANCH   8  21
ENDBRANCH   6   7
ENDBRANCH   5   6
ENDBRANCH   3   5
ENDBRANCH   2   3
ENDBRANCH   1   2
BRANCH   1  29
ATOM     29  C   UNL A   1      42.704  23.270  26.649  1.00  0.00     0.275 C 
BRANCH  29  30
ATOM     30  O   UNL A   1      41.785  24.279  26.127  1.00  0.00    -0.458 OA
BRANCH  30  31
ATOM     31  C   UNL A   1      40.661  24.829  26.667  1.00  0.00     0.338 C 
ATOM     32  O   UNL A   1      39.613  24.193  26.720  1.00  0.00    -0.246 OA
BRANCH  31  33
ATOM     33  C   UNL A   1      40.728  26.159  27.308  1.00  0.00     0.060 A 
ATOM     34  C   UNL A   1      40.632  27.354  26.565  1.00  0.00     0.016 A 
ATOM     35  C   UNL A   1      40.783  26.224  28.679  1.00  0.00     0.016 A 
ATOM     36  C   UNL A   1      40.508  28.591  27.226  1.00  0.00     0.010 A 
ATOM     37  C   UNL A   1      40.381  27.378  29.287  1.00  0.00     0.010 A 
ATOM     38  C   UNL A   1      40.348  28.590  28.610  1.00  0.00    -0.014 A 
BRANCH  38  39
ATOM     39  C   UNL A   1      40.348  29.735  29.524  1.00  0.00     0.031 A 
ATOM     40  C   UNL A   1      39.191  30.615  29.732  1.00  0.00     0.074 A 
ATOM     41  C   UNL A   1      41.494  29.915  30.227  1.00  0.00     0.049 A 
ATOM     42  N   UNL A   1      39.265  31.897  29.828  1.00  0.00    -0.248 NA
ATOM     43  C   UNL A   1      37.834  30.112  29.910  1.00  0.00     0.031 C 
ATOM     44  C   UNL A   1      41.855  30.898  31.230  1.00  0.00     0.029 A 
ATOM     45  N   UNL A   1      42.685  29.232  30.047  1.00  0.00    -0.354 N 
ATOM     46  C   UNL A   1      38.090  32.329  30.413  1.00  0.00     0.074 A 
ATOM     47  C   UNL A   1      37.181  31.216  30.296  1.00  0.00     0.031 C 
ATOM     48  C   UNL A   1      43.202  30.931  31.346  1.00  0.00     0.029 A 
ATOM     49  C   UNL A   1      43.763  30.034  30.340  1.00  0.00     0.049 A 
ATOM     50  H   UNL A   1      42.752  28.297  29.748  1.00  0.00     0.167 HD
ATOM     51  C   UNL A   1      38.078  33.490  31.136  1.00  0.00     0.034 A 
ATOM     52  C   UNL A   1      44.574  30.353  29.287  1.00  0.00     0.034 A 
ATOM     53  C   UNL A   1      39.445  34.000  31.285  1.00  0.00     0.049 A 
ATOM     54  C   UNL A   1      44.340  31.807  28.942  1.00  0.00     0.074 A 
ATOM     55  C   UNL A   1      40.329  33.981  32.353  1.00  0.00     0.029 A 
ATOM     56  N   UNL A   1      40.198  34.317  30.160  1.00  0.00    -0.354 N 
ATOM     57  N   UNL A   1      43.231  32.446  29.215  1.00  0.00    -0.248 NA
ATOM     58  C   UNL A   1      45.378  32.683  28.418  1.00  0.00     0.031 C 
ATOM     59  C   UNL A   1      41.637  34.193  31.838  1.00  0.00     0.029 A 
ATOM     60  C   UNL A   1      41.543  34.361  30.465  1.00  0.00     0.049 A 
ATOM     61  H   UNL A   1      39.822  34.486  29.266  1.00  0.00     0.167 HD
ATOM     62  C   UNL A   1      43.429  33.787  29.065  1.00  0.00     0.074 A 
ATOM     63  C   UNL A   1      44.778  33.882  28.520  1.00  0.00     0.031 C 
ATOM     64  C   UNL A   1      42.516  34.730  29.448  1.00  0.00     0.034 A 
BRANCH  51  65
ATOM     65  C   UNL A   1      36.928  34.006  31.984  1.00  0.00     0.023 A 
ATOM     66  C   UNL A   1      35.747  34.460  31.351  1.00  0.00     0.031 A 
ATOM     67  C   UNL A   1      36.898  34.044  33.393  1.00  0.00     0.131 A 
ATOM     68  C   UNL A   1      34.665  34.992  32.077  1.00  0.00     0.055 A 
ATOM     69  C   UNL A   1      35.833  34.605  34.119  1.00  0.00     0.041 A 
ATOM     70  F   UNL A   1      37.871  33.493  34.131  1.00  0.00    -0.206 F 
ATOM     71  C   UNL A   1      34.711  35.091  33.463  1.00  0.00     0.022 A 
BRANCH  68  72
ATOM     72  S   UNL A   1      33.182  35.530  31.177  1.00  0.00     0.124 S 
ATOM     73  O   UNL A   1      33.459  36.945  30.949  1.00  0.00    -0.237 OA
ATOM     74  O   UNL A   1      33.201  34.669  30.000  1.00  0.00    -0.237 OA
ATOM     75  O   UNL A   1      32.095  35.259  32.120  1.00  0.00    -0.744 OA
ENDBRANCH  68  72
ENDBRANCH  51  65
BRANCH  52  76
ATOM     76  C   UNL A   1      44.783  29.184  28.347  1.00  0.00     0.023 A 
ATOM     77  C   UNL A   1      45.389  28.029  28.911  1.00  0.00     0.031 A 
ATOM     78  C   UNL A   1      44.092  29.003  27.140  1.00  0.00     0.131 A 
ATOM     79  C   UNL A   1      45.140  26.746  28.393  1.00  0.00     0.055 A 
ATOM     80  C   UNL A   1      43.938  27.725  26.563  1.00  0.00     0.041 A 
ATOM     81  F   UNL A   1      43.463  30.030  26.549  1.00  0.00    -0.206 F 
ATOM     82  C   UNL A   1      44.429  26.586  27.207  1.00  0.00     0.022 A 
BRANCH  79  83
ATOM     83  S   UNL A   1      45.404  25.308  29.491  1.00  0.00     0.124 S 
ATOM     84  O   UNL A   1      44.209  25.326  30.325  1.00  0.00    -0.237 OA
ATOM     85  O   UNL A   1      45.515  24.207  28.538  1.00  0.00    -0.237 OA
ATOM     86  O   UNL A   1      46.659  25.620  30.172  1.00  0.00    -0.744 OA
ENDBRANCH  79  83
ENDBRANCH  52  76
BRANCH  64  87
ATOM     87  C   UNL A   1      42.518  36.152  28.960  1.00  0.00     0.023 A 
ATOM     88  C   UNL A   1      43.202  37.157  29.646  1.00  0.00     0.031 A 
ATOM     89  C   UNL A   1      41.936  36.527  27.726  1.00  0.00     0.131 A 
ATOM     90  C   UNL A   1      43.185  38.478  29.192  1.00  0.00     0.055 A 
ATOM     91  C   UNL A   1      42.030  37.820  27.210  1.00  0.00     0.041 A 
ATOM     92  F   UNL A   1      41.266  35.657  26.956  1.00  0.00    -0.206 F 
ATOM     93  C   UNL A   1      42.635  38.816  27.959  1.00  0.00     0.022 A 
BRANCH  90  94
ATOM     94  S   UNL A   1      43.787  39.742  30.330  1.00  0.00     0.124 S 
ATOM     95  O   UNL A   1      45.065  40.103  29.719  1.00  0.00    -0.237 OA
ATOM     96  O   UNL A   1      42.744  40.760  30.254  1.00  0.00    -0.237 OA
ATOM     97  O   UNL A   1      43.884  39.038  31.605  1.00  0.00    -0.744 OA
ENDBRANCH  90  94
ENDBRANCH  64  87
ENDBRANCH  38  39
ENDBRANCH  31  33
ENDBRANCH  30  31
ENDBRANCH  29  30
ENDBRANCH   1  29
TORSDOF 18
ENDMDL
