MODEL 1
REMARK VINA RESULT:     -10.8      0.000      0.000
REMARK SMILES CSCC[C@@H](CO)n1ccnc1-c1ccccc1C(=O)OCCOC(=O)c1ccc(-c2c3nc(c(-c4cc(S(=O)(=O)[O-])ccc4F)c4ccc([nH]4)c(-c4cc(S(=O)(=O)[O-])ccc4F)c4nc(c(-c5cc(S(=O)(=O)[O-])ccc5F)c5ccc2[nH]5)C=C4)C=C3)cc1
REMARK SMILES IDX 22 1 21 2 19 3 20 4 18 5 13 6 14 7 15 8 17 9 16 10 12 11
REMARK SMILES IDX 8 12 9 13 10 14 11 15 5 16 4 17 3 18 2 19 1 20 6 21 7 22
REMARK SMILES IDX 23 24 24 25 25 26 26 27 27 28 28 29 89 30 29 31 88 32 30 33
REMARK SMILES IDX 31 34 32 35 82 36 33 37 87 38 81 39 83 40 34 41 86 42 80 43
REMARK SMILES IDX 79 44 35 46 67 47 47 48 66 49 48 50 51 51 65 52 84 53 49 54
REMARK SMILES IDX 50 55 64 57 85 58 52 59 36 60 37 61 45 62 38 63 44 64 46 65
REMARK SMILES IDX 43 66 39 67 40 68 41 69 42 70 68 71 69 72 77 73 70 74 76 75
REMARK SMILES IDX 78 76 75 77 71 78 72 79 73 80 74 81 53 82 54 83 62 84 55 85
REMARK SMILES IDX 61 86 63 87 60 88 56 89 57 90 58 91 59 92
REMARK H PARENT 7 23 83 45 51 56
REMARK Flexibility Score: inf
ROOT
ATOM      1  C   UNL A   1      34.179  28.795  27.257  1.00  0.00     0.275 C 
ENDROOT
BRANCH   1   2
ATOM      2  O   UNL A   1      33.364  27.784  26.630  1.00  0.00    -0.458 OA
BRANCH   2   3
ATOM      3  C   UNL A   1      32.022  27.827  26.779  1.00  0.00     0.338 C 
ATOM      4  O   UNL A   1      31.421  27.817  27.847  1.00  0.00    -0.246 OA
BRANCH   3   5
ATOM      5  C   UNL A   1      31.285  27.711  25.496  1.00  0.00     0.071 A 
ATOM      6  C   UNL A   1      30.641  26.525  25.101  1.00  0.00     0.032 A 
ATOM      7  C   UNL A   1      29.868  26.531  23.928  1.00  0.00     0.013 A 
ATOM      8  C   UNL A   1      29.659  27.711  23.210  1.00  0.00     0.001 A 
ATOM      9  C   UNL A   1      31.063  28.898  24.770  1.00  0.00     0.016 A 
ATOM     10  C   UNL A   1      30.245  28.897  23.639  1.00  0.00     0.001 A 
BRANCH   6  11
ATOM     11  C   UNL A   1      30.760  25.267  25.838  1.00  0.00     0.141 A 
ATOM     12  N   UNL A   1      31.797  24.332  25.816  1.00  0.00    -0.326 N 
ATOM     13  C   UNL A   1      31.293  23.216  26.471  1.00  0.00     0.108 A 
ATOM     14  C   UNL A   1      30.041  23.548  26.911  1.00  0.00     0.131 A 
ATOM     15  N   UNL A   1      29.759  24.834  26.586  1.00  0.00    -0.237 NA
BRANCH  12  16
ATOM     16  C   UNL A   1      33.216  24.433  25.380  1.00  0.00     0.115 C 
BRANCH  16  17
ATOM     17  C   UNL A   1      34.003  23.101  25.596  1.00  0.00     0.039 C 
BRANCH  17  18
ATOM     18  C   UNL A   1      35.286  23.101  26.435  1.00  0.00     0.071 C 
BRANCH  18  19
ATOM     19  S   UNL A   1      36.737  23.798  25.580  1.00  0.00    -0.165 SA
ATOM     20  C   UNL A   1      37.870  22.397  25.677  1.00  0.00     0.085 C 
ENDBRANCH  18  19
ENDBRANCH  17  18
ENDBRANCH  16  17
BRANCH  16  21
ATOM     21  C   UNL A   1      33.540  25.077  24.001  1.00  0.00     0.181 C 
BRANCH  21  22
ATOM     22  O   UNL A   1      34.032  26.411  24.081  1.00  0.00    -0.394 OA
ATOM     23  H   UNL A   1      34.469  26.544  24.935  1.00  0.00     0.210 HD
ENDBRANCH  21  22
ENDBRANCH  16  21
ENDBRANCH  12  16
ENDBRANCH   6  11
ENDBRANCH   3   5
ENDBRANCH   2   3
ENDBRANCH   1   2
BRANCH   1  24
ATOM     24  C   UNL A   1      33.787  30.191  26.825  1.00  0.00     0.275 C 
BRANCH  24  25
ATOM     25  O   UNL A   1      33.433  30.910  27.990  1.00  0.00    -0.458 OA
BRANCH  25  26
ATOM     26  C   UNL A   1      33.123  32.205  27.750  1.00  0.00     0.338 C 
ATOM     27  O   UNL A   1      32.254  32.639  27.019  1.00  0.00    -0.246 OA
BRANCH  26  28
ATOM     28  C   UNL A   1      34.064  33.053  28.486  1.00  0.00     0.060 A 
ATOM     29  C   UNL A   1      35.066  33.588  27.674  1.00  0.00     0.016 A 
ATOM     30  C   UNL A   1      34.271  32.670  29.812  1.00  0.00     0.016 A 
ATOM     31  C   UNL A   1      36.357  33.316  28.038  1.00  0.00     0.010 A 
ATOM     32  C   UNL A   1      35.548  32.337  30.142  1.00  0.00     0.010 A 
ATOM     33  C   UNL A   1      36.551  32.573  29.203  1.00  0.00    -0.014 A 
BRANCH  33  34
ATOM     34  C   UNL A   1      37.885  32.181  29.565  1.00  0.00     0.031 A 
ATOM     35  C   UNL A   1      38.086  30.761  29.229  1.00  0.00     0.074 A 
ATOM     36  C   UNL A   1      38.807  33.076  29.957  1.00  0.00     0.049 A 
ATOM     37  N   UNL A   1      38.045  29.769  30.055  1.00  0.00    -0.248 NA
ATOM     38  C   UNL A   1      37.953  30.361  27.813  1.00  0.00     0.031 C 
ATOM     39  C   UNL A   1      38.686  34.528  30.088  1.00  0.00     0.029 A 
ATOM     40  N   UNL A   1      40.119  32.861  30.209  1.00  0.00    -0.354 N 
ATOM     41  C   UNL A   1      38.216  28.655  29.250  1.00  0.00     0.074 A 
ATOM     42  C   UNL A   1      37.776  29.046  27.945  1.00  0.00     0.031 C 
ATOM     43  C   UNL A   1      39.925  35.071  30.157  1.00  0.00     0.029 A 
ATOM     44  C   UNL A   1      40.912  34.003  30.165  1.00  0.00     0.049 A 
ATOM     45  H   UNL A   1      40.483  31.969  30.408  1.00  0.00     0.167 HD
ATOM     46  C   UNL A   1      39.076  27.669  29.615  1.00  0.00     0.034 A 
ATOM     47  C   UNL A   1      42.269  34.013  30.012  1.00  0.00     0.034 A 
ATOM     48  C   UNL A   1      39.414  27.786  31.021  1.00  0.00     0.049 A 
ATOM     49  C   UNL A   1      42.740  32.663  30.454  1.00  0.00     0.074 A 
ATOM     50  C   UNL A   1      38.665  27.837  32.182  1.00  0.00     0.029 A 
ATOM     51  N   UNL A   1      40.644  28.324  31.346  1.00  0.00    -0.354 N 
ATOM     52  N   UNL A   1      42.621  32.244  31.688  1.00  0.00    -0.248 NA
ATOM     53  C   UNL A   1      42.802  31.597  29.458  1.00  0.00     0.031 C 
ATOM     54  C   UNL A   1      39.291  28.837  32.982  1.00  0.00     0.029 A 
ATOM     55  C   UNL A   1      40.454  29.263  32.334  1.00  0.00     0.049 A 
ATOM     56  H   UNL A   1      41.507  28.080  30.940  1.00  0.00     0.167 HD
ATOM     57  C   UNL A   1      42.144  30.943  31.592  1.00  0.00     0.074 A 
ATOM     58  C   UNL A   1      42.359  30.568  30.192  1.00  0.00     0.031 C 
ATOM     59  C   UNL A   1      41.321  30.412  32.549  1.00  0.00     0.034 A 
BRANCH  46  60
ATOM     60  C   UNL A   1      39.922  26.886  28.638  1.00  0.00     0.023 A 
ATOM     61  C   UNL A   1      40.986  27.580  28.046  1.00  0.00     0.031 A 
ATOM     62  C   UNL A   1      39.613  25.629  28.059  1.00  0.00     0.131 A 
ATOM     63  C   UNL A   1      41.607  27.093  26.887  1.00  0.00     0.055 A 
ATOM     64  C   UNL A   1      40.281  25.115  26.947  1.00  0.00     0.041 A 
ATOM     65  F   UNL A   1      38.599  24.856  28.460  1.00  0.00    -0.206 F 
ATOM     66  C   UNL A   1      41.263  25.863  26.331  1.00  0.00     0.022 A 
BRANCH  63  67
ATOM     67  S   UNL A   1      42.755  28.185  26.021  1.00  0.00     0.124 S 
ATOM     68  O   UNL A   1      42.365  27.974  24.631  1.00  0.00    -0.237 OA
ATOM     69  O   UNL A   1      42.419  29.484  26.596  1.00  0.00    -0.237 OA
ATOM     70  O   UNL A   1      44.066  27.658  26.392  1.00  0.00    -0.744 OA
ENDBRANCH  63  67
ENDBRANCH  46  60
BRANCH  47  71
ATOM     71  C   UNL A   1      43.068  34.953  29.161  1.00  0.00     0.023 A 
ATOM     72  C   UNL A   1      42.542  36.147  28.613  1.00  0.00     0.031 A 
ATOM     73  C   UNL A   1      44.471  34.791  29.053  1.00  0.00     0.131 A 
ATOM     74  C   UNL A   1      43.399  37.097  27.995  1.00  0.00     0.055 A 
ATOM     75  C   UNL A   1      45.308  35.726  28.440  1.00  0.00     0.041 A 
ATOM     76  F   UNL A   1      45.105  33.753  29.617  1.00  0.00    -0.206 F 
ATOM     77  C   UNL A   1      44.778  36.890  27.918  1.00  0.00     0.022 A 
BRANCH  74  78
ATOM     78  S   UNL A   1      42.754  38.681  27.356  1.00  0.00     0.124 S 
ATOM     79  O   UNL A   1      43.902  39.215  26.632  1.00  0.00    -0.237 OA
ATOM     80  O   UNL A   1      41.615  38.260  26.550  1.00  0.00    -0.237 OA
ATOM     81  O   UNL A   1      42.399  39.421  28.570  1.00  0.00    -0.744 OA
ENDBRANCH  74  78
ENDBRANCH  47  71
BRANCH  59  82
ATOM     82  C   UNL A   1      41.131  31.181  33.851  1.00  0.00     0.023 A 
ATOM     83  C   UNL A   1      40.259  32.283  34.031  1.00  0.00     0.031 A 
ATOM     84  C   UNL A   1      41.778  30.680  34.996  1.00  0.00     0.131 A 
ATOM     85  C   UNL A   1      40.082  32.847  35.312  1.00  0.00     0.055 A 
ATOM     86  C   UNL A   1      41.576  31.222  36.265  1.00  0.00     0.041 A 
ATOM     87  F   UNL A   1      42.596  29.619  34.905  1.00  0.00    -0.206 F 
ATOM     88  C   UNL A   1      40.734  32.314  36.427  1.00  0.00     0.022 A 
BRANCH  85  89
ATOM     89  S   UNL A   1      39.024  34.314  35.551  1.00  0.00     0.124 S 
ATOM     90  O   UNL A   1      39.810  35.160  36.440  1.00  0.00    -0.237 OA
ATOM     91  O   UNL A   1      38.854  34.803  34.185  1.00  0.00    -0.237 OA
ATOM     92  O   UNL A   1      37.809  33.760  36.153  1.00  0.00    -0.744 OA
ENDBRANCH  85  89
ENDBRANCH  59  82
ENDBRANCH  33  34
ENDBRANCH  26  28
ENDBRANCH  25  26
ENDBRANCH  24  25
ENDBRANCH   1  24
TORSDOF 21
ENDMDL
MODEL 2
REMARK VINA RESULT:     -10.6      4.719      9.465
REMARK SMILES CSCC[C@@H](CO)n1ccnc1-c1ccccc1C(=O)OCCOC(=O)c1ccc(-c2c3nc(c(-c4cc(S(=O)(=O)[O-])ccc4F)c4ccc([nH]4)c(-c4cc(S(=O)(=O)[O-])ccc4F)c4nc(c(-c5cc(S(=O)(=O)[O-])ccc5F)c5ccc2[nH]5)C=C4)C=C3)cc1
REMARK SMILES IDX 22 1 21 2 19 3 20 4 18 5 13 6 14 7 15 8 17 9 16 10 12 11
REMARK SMILES IDX 8 12 9 13 10 14 11 15 5 16 4 17 3 18 2 19 1 20 6 21 7 22
REMARK SMILES IDX 23 24 24 25 25 26 26 27 27 28 28 29 89 30 29 31 88 32 30 33
REMARK SMILES IDX 31 34 32 35 82 36 33 37 87 38 81 39 83 40 34 41 86 42 80 43
REMARK SMILES IDX 79 44 35 46 67 47 47 48 66 49 48 50 51 51 65 52 84 53 49 54
REMARK SMILES IDX 50 55 64 57 85 58 52 59 36 60 37 61 45 62 38 63 44 64 46 65
REMARK SMILES IDX 43 66 39 67 40 68 41 69 42 70 68 71 69 72 77 73 70 74 76 75
REMARK SMILES IDX 78 76 75 77 71 78 72 79 73 80 74 81 53 82 54 83 62 84 55 85
REMARK SMILES IDX 61 86 63 87 60 88 56 89 57 90 58 91 59 92
REMARK H PARENT 7 23 83 45 51 56
REMARK Flexibility Score: inf
ROOT
ATOM      1  C   UNL A   1      37.351  23.219  25.148  1.00  0.00     0.275 C 
ENDROOT
BRANCH   1   2
ATOM      2  O   UNL A   1      36.043  23.314  24.550  1.00  0.00    -0.458 OA
BRANCH   2   3
ATOM      3  C   UNL A   1      34.947  23.119  25.316  1.00  0.00     0.338 C 
ATOM      4  O   UNL A   1      34.789  23.537  26.458  1.00  0.00    -0.246 OA
BRANCH   3   5
ATOM      5  C   UNL A   1      33.970  22.179  24.714  1.00  0.00     0.071 A 
ATOM      6  C   UNL A   1      33.098  22.558  23.679  1.00  0.00     0.032 A 
ATOM      7  C   UNL A   1      32.283  21.580  23.084  1.00  0.00     0.013 A 
ATOM      8  C   UNL A   1      32.397  20.234  23.441  1.00  0.00     0.001 A 
ATOM      9  C   UNL A   1      34.083  20.818  25.063  1.00  0.00     0.016 A 
ATOM     10  C   UNL A   1      33.306  19.852  24.422  1.00  0.00     0.001 A 
BRANCH   6  11
ATOM     11  C   UNL A   1      32.970  23.937  23.205  1.00  0.00     0.141 A 
ATOM     12  N   UNL A   1      32.259  24.997  23.770  1.00  0.00    -0.326 N 
ATOM     13  C   UNL A   1      32.248  25.986  22.797  1.00  0.00     0.108 A 
ATOM     14  C   UNL A   1      32.996  25.520  21.750  1.00  0.00     0.131 A 
ATOM     15  N   UNL A   1      33.500  24.296  22.047  1.00  0.00    -0.237 NA
BRANCH  12  16
ATOM     16  C   UNL A   1      31.729  25.217  25.144  1.00  0.00     0.115 C 
BRANCH  16  17
ATOM     17  C   UNL A   1      32.705  26.054  26.031  1.00  0.00     0.039 C 
BRANCH  17  18
ATOM     18  C   UNL A   1      32.335  27.489  26.424  1.00  0.00     0.071 C 
BRANCH  18  19
ATOM     19  S   UNL A   1      32.630  28.721  25.113  1.00  0.00    -0.165 SA
ATOM     20  C   UNL A   1      31.753  30.140  25.802  1.00  0.00     0.085 C 
ENDBRANCH  18  19
ENDBRANCH  17  18
ENDBRANCH  16  17
BRANCH  16  21
ATOM     21  C   UNL A   1      30.253  25.672  25.321  1.00  0.00     0.181 C 
BRANCH  21  22
ATOM     22  O   UNL A   1      29.534  24.950  26.316  1.00  0.00    -0.394 OA
ATOM     23  H   UNL A   1      29.823  24.025  26.316  1.00  0.00     0.210 HD
ENDBRANCH  21  22
ENDBRANCH  16  21
ENDBRANCH  12  16
ENDBRANCH   6  11
ENDBRANCH   3   5
ENDBRANCH   2   3
ENDBRANCH   1   2
BRANCH   1  24
ATOM     24  C   UNL A   1      37.814  21.784  25.280  1.00  0.00     0.275 C 
BRANCH  24  25
ATOM     25  O   UNL A   1      38.964  21.785  26.102  1.00  0.00    -0.458 OA
BRANCH  25  26
ATOM     26  C   UNL A   1      39.743  20.690  25.940  1.00  0.00     0.338 C 
ATOM     27  O   UNL A   1      39.432  19.622  25.452  1.00  0.00    -0.246 OA
BRANCH  26  28
ATOM     28  C   UNL A   1      41.060  20.967  26.517  1.00  0.00     0.060 A 
ATOM     29  C   UNL A   1      41.061  20.940  27.914  1.00  0.00     0.016 A 
ATOM     30  C   UNL A   1      41.849  21.839  25.764  1.00  0.00     0.016 A 
ATOM     31  C   UNL A   1      41.497  22.072  28.546  1.00  0.00     0.010 A 
ATOM     32  C   UNL A   1      42.217  22.993  26.384  1.00  0.00     0.010 A 
ATOM     33  C   UNL A   1      41.938  23.126  27.744  1.00  0.00    -0.014 A 
BRANCH  33  34
ATOM     34  C   UNL A   1      42.307  24.367  28.364  1.00  0.00     0.031 A 
ATOM     35  C   UNL A   1      41.325  25.404  28.007  1.00  0.00     0.074 A 
ATOM     36  C   UNL A   1      43.294  24.441  29.274  1.00  0.00     0.049 A 
ATOM     37  N   UNL A   1      41.474  26.320  27.109  1.00  0.00    -0.248 NA
ATOM     38  C   UNL A   1      39.919  25.192  28.410  1.00  0.00     0.031 C 
ATOM     39  C   UNL A   1      44.141  23.373  29.805  1.00  0.00     0.029 A 
ATOM     40  N   UNL A   1      43.661  25.512  30.015  1.00  0.00    -0.354 N 
ATOM     41  C   UNL A   1      40.260  26.985  27.101  1.00  0.00     0.074 A 
ATOM     42  C   UNL A   1      39.299  26.047  27.597  1.00  0.00     0.031 C 
ATOM     43  C   UNL A   1      44.742  23.807  30.938  1.00  0.00     0.029 A 
ATOM     44  C   UNL A   1      44.391  25.201  31.159  1.00  0.00     0.049 A 
ATOM     45  H   UNL A   1      43.431  26.436  29.766  1.00  0.00     0.167 HD
ATOM     46  C   UNL A   1      40.221  28.343  27.092  1.00  0.00     0.034 A 
ATOM     47  C   UNL A   1      44.553  26.024  32.235  1.00  0.00     0.034 A 
ATOM     48  C   UNL A   1      41.512  28.885  26.712  1.00  0.00     0.049 A 
ATOM     49  C   UNL A   1      44.304  27.412  31.732  1.00  0.00     0.074 A 
ATOM     50  C   UNL A   1      42.340  28.702  25.620  1.00  0.00     0.029 A 
ATOM     51  N   UNL A   1      42.318  29.391  27.713  1.00  0.00    -0.354 N 
ATOM     52  N   UNL A   1      45.076  27.989  30.847  1.00  0.00    -0.248 NA
ATOM     53  C   UNL A   1      42.935  27.918  31.760  1.00  0.00     0.031 C 
ATOM     54  C   UNL A   1      43.656  28.629  26.162  1.00  0.00     0.029 A 
ATOM     55  C   UNL A   1      43.588  28.890  27.534  1.00  0.00     0.049 A 
ATOM     56  H   UNL A   1      42.035  30.002  28.430  1.00  0.00     0.167 HD
ATOM     57  C   UNL A   1      44.212  28.575  29.930  1.00  0.00     0.074 A 
ATOM     58  C   UNL A   1      42.906  28.573  30.593  1.00  0.00     0.031 C 
ATOM     59  C   UNL A   1      44.551  28.697  28.608  1.00  0.00     0.034 A 
BRANCH  46  60
ATOM     60  C   UNL A   1      39.178  29.159  27.822  1.00  0.00     0.023 A 
ATOM     61  C   UNL A   1      39.256  29.152  29.221  1.00  0.00     0.031 A 
ATOM     62  C   UNL A   1      37.992  29.711  27.276  1.00  0.00     0.131 A 
ATOM     63  C   UNL A   1      38.166  29.561  30.004  1.00  0.00     0.055 A 
ATOM     64  C   UNL A   1      36.938  30.182  28.059  1.00  0.00     0.041 A 
ATOM     65  F   UNL A   1      37.725  29.751  25.967  1.00  0.00    -0.206 F 
ATOM     66  C   UNL A   1      37.006  30.077  29.434  1.00  0.00     0.022 A 
BRANCH  63  67
ATOM     67  S   UNL A   1      38.234  29.239  31.779  1.00  0.00     0.124 S 
ATOM     68  O   UNL A   1      38.848  30.465  32.275  1.00  0.00    -0.237 OA
ATOM     69  O   UNL A   1      36.822  29.049  32.100  1.00  0.00    -0.237 OA
ATOM     70  O   UNL A   1      39.063  28.039  31.872  1.00  0.00    -0.744 OA
ENDBRANCH  63  67
ENDBRANCH  46  60
BRANCH  47  71
ATOM     71  C   UNL A   1      44.513  25.627  33.681  1.00  0.00     0.023 A 
ATOM     72  C   UNL A   1      43.458  25.976  34.556  1.00  0.00     0.031 A 
ATOM     73  C   UNL A   1      45.442  24.681  34.180  1.00  0.00     0.131 A 
ATOM     74  C   UNL A   1      43.372  25.396  35.851  1.00  0.00     0.055 A 
ATOM     75  C   UNL A   1      45.355  24.118  35.456  1.00  0.00     0.041 A 
ATOM     76  F   UNL A   1      46.430  24.194  33.416  1.00  0.00    -0.206 F 
ATOM     77  C   UNL A   1      44.313  24.465  36.294  1.00  0.00     0.022 A 
BRANCH  74  78
ATOM     78  S   UNL A   1      41.974  25.768  36.965  1.00  0.00     0.124 S 
ATOM     79  O   UNL A   1      41.230  26.768  36.207  1.00  0.00    -0.237 OA
ATOM     80  O   UNL A   1      41.337  24.466  37.123  1.00  0.00    -0.237 OA
ATOM     81  O   UNL A   1      42.625  26.276  38.174  1.00  0.00    -0.744 OA
ENDBRANCH  74  78
ENDBRANCH  47  71
BRANCH  59  82
ATOM     82  C   UNL A   1      45.989  28.407  28.197  1.00  0.00     0.023 A 
ATOM     83  C   UNL A   1      46.475  27.155  27.745  1.00  0.00     0.031 A 
ATOM     84  C   UNL A   1      46.876  29.498  28.142  1.00  0.00     0.131 A 
ATOM     85  C   UNL A   1      47.803  27.032  27.286  1.00  0.00     0.055 A 
ATOM     86  C   UNL A   1      48.179  29.378  27.658  1.00  0.00     0.041 A 
ATOM     87  F   UNL A   1      46.475  30.720  28.526  1.00  0.00    -0.206 F 
ATOM     88  C   UNL A   1      48.651  28.142  27.236  1.00  0.00     0.022 A 
BRANCH  85  89
ATOM     89  S   UNL A   1      48.470  25.414  26.773  1.00  0.00     0.124 S 
ATOM     90  O   UNL A   1      49.847  25.446  27.252  1.00  0.00    -0.237 OA
ATOM     91  O   UNL A   1      47.578  24.477  27.452  1.00  0.00    -0.237 OA
ATOM     92  O   UNL A   1      48.331  25.436  25.315  1.00  0.00    -0.744 OA
ENDBRANCH  85  89
ENDBRANCH  59  82
ENDBRANCH  33  34
ENDBRANCH  26  28
ENDBRANCH  25  26
ENDBRANCH  24  25
ENDBRANCH   1  24
TORSDOF 21
ENDMDL
MODEL 3
REMARK VINA RESULT:     -10.4      4.401      5.705
REMARK SMILES CSCC[C@@H](CO)n1ccnc1-c1ccccc1C(=O)OCCOC(=O)c1ccc(-c2c3nc(c(-c4cc(S(=O)(=O)[O-])ccc4F)c4ccc([nH]4)c(-c4cc(S(=O)(=O)[O-])ccc4F)c4nc(c(-c5cc(S(=O)(=O)[O-])ccc5F)c5ccc2[nH]5)C=C4)C=C3)cc1
REMARK SMILES IDX 22 1 21 2 19 3 20 4 18 5 13 6 14 7 15 8 17 9 16 10 12 11
REMARK SMILES IDX 8 12 9 13 10 14 11 15 5 16 4 17 3 18 2 19 1 20 6 21 7 22
REMARK SMILES IDX 23 24 24 25 25 26 26 27 27 28 28 29 89 30 29 31 88 32 30 33
REMARK SMILES IDX 31 34 32 35 82 36 33 37 87 38 81 39 83 40 34 41 86 42 80 43
REMARK SMILES IDX 79 44 35 46 67 47 47 48 66 49 48 50 51 51 65 52 84 53 49 54
REMARK SMILES IDX 50 55 64 57 85 58 52 59 36 60 37 61 45 62 38 63 44 64 46 65
REMARK SMILES IDX 43 66 39 67 40 68 41 69 42 70 68 71 69 72 77 73 70 74 76 75
REMARK SMILES IDX 78 76 75 77 71 78 72 79 73 80 74 81 53 82 54 83 62 84 55 85
REMARK SMILES IDX 61 86 63 87 60 88 56 89 57 90 58 91 59 92
REMARK H PARENT 7 23 83 45 51 56
REMARK Flexibility Score: inf
ROOT
ATOM      1  C   UNL A   1      34.484  29.227  26.828  1.00  0.00     0.275 C 
ENDROOT
BRANCH   1   2
ATOM      2  O   UNL A   1      33.701  28.017  26.874  1.00  0.00    -0.458 OA
BRANCH   2   3
ATOM      3  C   UNL A   1      32.360  28.100  27.024  1.00  0.00     0.338 C 
ATOM      4  O   UNL A   1      31.754  28.031  28.087  1.00  0.00    -0.246 OA
BRANCH   3   5
ATOM      5  C   UNL A   1      31.625  28.111  25.735  1.00  0.00     0.071 A 
ATOM      6  C   UNL A   1      31.042  26.954  25.189  1.00  0.00     0.032 A 
ATOM      7  C   UNL A   1      30.265  27.071  24.024  1.00  0.00     0.013 A 
ATOM      8  C   UNL A   1      29.992  28.320  23.462  1.00  0.00     0.001 A 
ATOM      9  C   UNL A   1      31.339  29.369  25.166  1.00  0.00     0.016 A 
ATOM     10  C   UNL A   1      30.518  29.470  24.042  1.00  0.00     0.001 A 
BRANCH   6  11
ATOM     11  C   UNL A   1      31.229  25.619  25.758  1.00  0.00     0.141 A 
ATOM     12  N   UNL A   1      32.279  24.720  25.561  1.00  0.00    -0.326 N 
ATOM     13  C   UNL A   1      31.837  23.522  26.104  1.00  0.00     0.108 A 
ATOM     14  C   UNL A   1      30.609  23.767  26.655  1.00  0.00     0.131 A 
ATOM     15  N   UNL A   1      30.284  25.075  26.507  1.00  0.00    -0.237 NA
BRANCH  12  16
ATOM     16  C   UNL A   1      33.667  24.910  25.057  1.00  0.00     0.115 C 
BRANCH  16  17
ATOM     17  C   UNL A   1      34.499  23.588  25.092  1.00  0.00     0.039 C 
BRANCH  17  18
ATOM     18  C   UNL A   1      35.609  23.413  26.135  1.00  0.00     0.071 C 
BRANCH  18  19
ATOM     19  S   UNL A   1      37.296  23.490  25.450  1.00  0.00    -0.165 SA
ATOM     20  C   UNL A   1      37.770  21.753  25.568  1.00  0.00     0.085 C 
ENDBRANCH  18  19
ENDBRANCH  17  18
ENDBRANCH  16  17
BRANCH  16  21
ATOM     21  C   UNL A   1      33.890  25.698  23.735  1.00  0.00     0.181 C 
BRANCH  21  22
ATOM     22  O   UNL A   1      34.204  24.879  22.613  1.00  0.00    -0.394 OA
ATOM     23  H   UNL A   1      35.126  25.025  22.354  1.00  0.00     0.210 HD
ENDBRANCH  21  22
ENDBRANCH  16  21
ENDBRANCH  12  16
ENDBRANCH   6  11
ENDBRANCH   3   5
ENDBRANCH   2   3
ENDBRANCH   1   2
BRANCH   1  24
ATOM     24  C   UNL A   1      35.133  29.537  28.160  1.00  0.00     0.275 C 
BRANCH  24  25
ATOM     25  O   UNL A   1      36.231  30.391  27.906  1.00  0.00    -0.458 OA
BRANCH  25  26
ATOM     26  C   UNL A   1      37.324  30.097  28.648  1.00  0.00     0.338 C 
ATOM     27  O   UNL A   1      37.751  30.699  29.613  1.00  0.00    -0.246 OA
BRANCH  26  28
ATOM     28  C   UNL A   1      37.986  28.931  28.059  1.00  0.00     0.060 A 
ATOM     29  C   UNL A   1      38.236  27.918  28.988  1.00  0.00     0.016 A 
ATOM     30  C   UNL A   1      38.839  29.227  26.995  1.00  0.00     0.016 A 
ATOM     31  C   UNL A   1      39.538  27.518  29.118  1.00  0.00     0.010 A 
ATOM     32  C   UNL A   1      40.144  28.883  27.167  1.00  0.00     0.010 A 
ATOM     33  C   UNL A   1      40.481  28.121  28.285  1.00  0.00    -0.014 A 
BRANCH  33  34
ATOM     34  C   UNL A   1      41.870  27.802  28.459  1.00  0.00     0.031 A 
ATOM     35  C   UNL A   1      42.185  26.568  27.721  1.00  0.00     0.074 A 
ATOM     36  C   UNL A   1      42.726  28.653  29.050  1.00  0.00     0.049 A 
ATOM     37  N   UNL A   1      42.308  25.386  28.227  1.00  0.00    -0.248 NA
ATOM     38  C   UNL A   1      41.984  26.568  26.257  1.00  0.00     0.031 C 
ATOM     39  C   UNL A   1      42.472  29.986  29.598  1.00  0.00     0.029 A 
ATOM     40  N   UNL A   1      44.069  28.531  29.170  1.00  0.00    -0.354 N 
ATOM     41  C   UNL A   1      42.525  24.570  27.129  1.00  0.00     0.074 A 
ATOM     42  C   UNL A   1      41.950  25.258  26.013  1.00  0.00     0.031 C 
ATOM     43  C   UNL A   1      43.653  30.628  29.764  1.00  0.00     0.029 A 
ATOM     44  C   UNL A   1      44.739  29.725  29.419  1.00  0.00     0.049 A 
ATOM     45  H   UNL A   1      44.534  27.668  29.087  1.00  0.00     0.167 HD
ATOM     46  C   UNL A   1      43.505  23.630  27.156  1.00  0.00     0.034 A 
ATOM     47  C   UNL A   1      46.072  29.936  29.215  1.00  0.00     0.034 A 
ATOM     48  C   UNL A   1      43.937  23.386  28.519  1.00  0.00     0.049 A 
ATOM     49  C   UNL A   1      46.708  28.581  29.228  1.00  0.00     0.074 A 
ATOM     50  C   UNL A   1      43.277  23.021  29.679  1.00  0.00     0.029 A 
ATOM     51  N   UNL A   1      45.129  23.952  28.929  1.00  0.00    -0.354 N 
ATOM     52  N   UNL A   1      46.726  27.822  30.294  1.00  0.00    -0.248 NA
ATOM     53  C   UNL A   1      46.799  27.852  27.966  1.00  0.00     0.031 C 
ATOM     54  C   UNL A   1      43.861  23.823  30.704  1.00  0.00     0.029 A 
ATOM     55  C   UNL A   1      44.923  24.546  30.153  1.00  0.00     0.049 A 
ATOM     56  H   UNL A   1      45.978  23.934  28.432  1.00  0.00     0.167 HD
ATOM     57  C   UNL A   1      46.375  26.553  29.849  1.00  0.00     0.074 A 
ATOM     58  C   UNL A   1      46.518  26.614  28.393  1.00  0.00     0.031 C 
ATOM     59  C   UNL A   1      45.685  25.683  30.650  1.00  0.00     0.034 A 
BRANCH  46  60
ATOM     60  C   UNL A   1      44.347  23.257  25.957  1.00  0.00     0.023 A 
ATOM     61  C   UNL A   1      44.242  21.930  25.517  1.00  0.00     0.031 A 
ATOM     62  C   UNL A   1      45.412  24.006  25.396  1.00  0.00     0.131 A 
ATOM     63  C   UNL A   1      45.210  21.375  24.667  1.00  0.00     0.055 A 
ATOM     64  C   UNL A   1      46.332  23.470  24.496  1.00  0.00     0.041 A 
ATOM     65  F   UNL A   1      45.693  25.267  25.739  1.00  0.00    -0.206 F 
ATOM     66  C   UNL A   1      46.256  22.136  24.152  1.00  0.00     0.022 A 
BRANCH  63  67
ATOM     67  S   UNL A   1      45.169  19.591  24.392  1.00  0.00     0.124 S 
ATOM     68  O   UNL A   1      46.583  19.249  24.495  1.00  0.00    -0.237 OA
ATOM     69  O   UNL A   1      44.314  19.142  25.486  1.00  0.00    -0.237 OA
ATOM     70  O   UNL A   1      44.590  19.470  23.056  1.00  0.00    -0.744 OA
ENDBRANCH  63  67
ENDBRANCH  46  60
BRANCH  47  71
ATOM     71  C   UNL A   1      46.706  31.164  28.635  1.00  0.00     0.023 A 
ATOM     72  C   UNL A   1      46.141  31.903  27.569  1.00  0.00     0.031 A 
ATOM     73  C   UNL A   1      47.805  31.770  29.291  1.00  0.00     0.131 A 
ATOM     74  C   UNL A   1      46.675  33.169  27.204  1.00  0.00     0.055 A 
ATOM     75  C   UNL A   1      48.330  33.012  28.925  1.00  0.00     0.041 A 
ATOM     76  F   UNL A   1      48.367  31.220  30.377  1.00  0.00    -0.206 F 
ATOM     77  C   UNL A   1      47.760  33.724  27.887  1.00  0.00     0.022 A 
BRANCH  74  78
ATOM     78  S   UNL A   1      45.911  34.177  25.888  1.00  0.00     0.124 S 
ATOM     79  O   UNL A   1      47.070  34.611  25.116  1.00  0.00    -0.237 OA
ATOM     80  O   UNL A   1      45.016  33.228  25.238  1.00  0.00    -0.237 OA
ATOM     81  O   UNL A   1      45.232  35.246  26.625  1.00  0.00    -0.744 OA
ENDBRANCH  74  78
ENDBRANCH  47  71
BRANCH  59  82
ATOM     82  C   UNL A   1      45.519  26.027  32.125  1.00  0.00     0.023 A 
ATOM     83  C   UNL A   1      44.356  26.585  32.710  1.00  0.00     0.031 A 
ATOM     84  C   UNL A   1      46.557  25.648  32.996  1.00  0.00     0.131 A 
ATOM     85  C   UNL A   1      44.277  26.760  34.108  1.00  0.00     0.055 A 
ATOM     86  C   UNL A   1      46.463  25.795  34.380  1.00  0.00     0.041 A 
ATOM     87  F   UNL A   1      47.678  25.086  32.514  1.00  0.00    -0.206 F 
ATOM     88  C   UNL A   1      45.325  26.360  34.941  1.00  0.00     0.022 A 
BRANCH  85  89
ATOM     89  S   UNL A   1      42.819  27.545  34.872  1.00  0.00     0.124 S 
ATOM     90  O   UNL A   1      41.970  27.870  33.732  1.00  0.00    -0.237 OA
ATOM     91  O   UNL A   1      42.326  26.495  35.760  1.00  0.00    -0.237 OA
ATOM     92  O   UNL A   1      43.383  28.708  35.563  1.00  0.00    -0.744 OA
ENDBRANCH  85  89
ENDBRANCH  59  82
ENDBRANCH  33  34
ENDBRANCH  26  28
ENDBRANCH  25  26
ENDBRANCH  24  25
ENDBRANCH   1  24
TORSDOF 21
ENDMDL
