MODEL 1
REMARK VINA RESULT:      -9.2      0.000      0.000
REMARK SMILES CC(C)C[C@H](NC(=O)CNC(=O)[C@@H](NC(=O)OCc1ccccc1)C(C)C)C(=O)N[C@@H](C)C(=O)OCCOC(=O)c1ccc(-c2c3nc(c(-c4cc(S(=O)(=O)[O-])ccc4F)c4ccc([nH]4)c(-c4cc(S(=O)(=O)[O-])ccc4F)c4nc(c(-c5cc(S(=O)(=O)[O-])ccc5F)c5ccc2[nH]5)C=C4)C=C3)cc1
REMARK SMILES IDX 31 1 32 2 30 3 28 4 29 5 5 7 4 8 2 9 1 10 3 11 6 12 7 13
REMARK SMILES IDX 8 15 9 16 10 17 11 18 12 20 13 21 14 22 15 23 16 25 17 26
REMARK SMILES IDX 18 27 19 28 20 29 24 30 21 31 23 32 22 33 25 34 26 35 27 36
REMARK SMILES IDX 33 37 34 38 35 39 36 40 37 41 38 42 39 43 40 44 41 45 42 46
REMARK SMILES IDX 103 47 43 48 102 49 44 50 45 51 46 52 96 53 47 54 101 55
REMARK SMILES IDX 95 56 97 57 48 58 100 59 94 60 93 61 49 63 81 64 61 65 80 66
REMARK SMILES IDX 62 67 65 68 79 69 98 70 63 71 64 72 78 74 99 75 66 76 50 77
REMARK SMILES IDX 51 78 59 79 52 80 58 81 60 82 57 83 53 84 54 85 55 86 56 87
REMARK SMILES IDX 82 88 83 89 91 90 84 91 90 92 92 93 89 94 85 95 86 96 87 97
REMARK SMILES IDX 88 98 67 99 68 100 76 101 69 102 75 103 77 104 74 105 70 106
REMARK SMILES IDX 71 107 72 108 73 109
REMARK H PARENT 30 6 6 14 10 19 14 24 97 62 65 73
REMARK Flexibility Score: inf
ROOT
ATOM      1  C   UNL A   1      34.393  34.622  32.083  1.00  0.00     0.189 C 
ATOM      2  C   UNL A   1      33.763  35.990  32.346  1.00  0.00     0.043 C 
ENDROOT
BRANCH   1   3
ATOM      3  N   UNL A   1      34.027  34.206  30.725  1.00  0.00    -0.341 N 
ATOM      4  C   UNL A   1      34.733  33.580  29.741  1.00  0.00     0.243 C 
ATOM      5  O   UNL A   1      34.153  33.449  28.655  1.00  0.00    -0.273 OA
ATOM      6  H   UNL A   1      33.098  34.417  30.479  1.00  0.00     0.164 HD
BRANCH   4   7
ATOM      7  C   UNL A   1      36.100  32.871  29.969  1.00  0.00     0.171 C 
BRANCH   7   8
ATOM      8  C   UNL A   1      37.149  33.539  29.079  1.00  0.00     0.038 C 
BRANCH   8   9
ATOM      9  C   UNL A   1      38.639  33.577  29.504  1.00  0.00    -0.015 C 
ATOM     10  C   UNL A   1      39.263  34.967  29.428  1.00  0.00     0.007 C 
ATOM     11  C   UNL A   1      38.816  33.075  30.951  1.00  0.00     0.007 C 
ENDBRANCH   8   9
ENDBRANCH   7   8
BRANCH   7  12
ATOM     12  N   UNL A   1      36.035  31.407  29.788  1.00  0.00    -0.343 N 
ATOM     13  C   UNL A   1      35.678  30.542  28.804  1.00  0.00     0.240 C 
ATOM     14  H   UNL A   1      36.328  30.930  30.597  1.00  0.00     0.164 HD
ATOM     15  O   UNL A   1      35.961  29.361  29.057  1.00  0.00    -0.273 OA
BRANCH  13  16
ATOM     16  C   UNL A   1      35.114  30.880  27.405  1.00  0.00     0.216 C 
BRANCH  16  17
ATOM     17  N   UNL A   1      33.691  31.076  27.249  1.00  0.00    -0.345 N 
ATOM     18  C   UNL A   1      32.702  30.474  26.560  1.00  0.00     0.243 C 
ATOM     19  H   UNL A   1      33.362  31.839  27.779  1.00  0.00     0.164 HD
ATOM     20  O   UNL A   1      31.630  31.093  26.552  1.00  0.00    -0.273 OA
BRANCH  18  21
ATOM     21  C   UNL A   1      32.795  29.144  25.782  1.00  0.00     0.177 C 
BRANCH  21  22
ATOM     22  N   UNL A   1      33.646  29.206  24.608  1.00  0.00    -0.309 N 
ATOM     23  C   UNL A   1      33.510  28.640  23.388  1.00  0.00     0.408 C 
ATOM     24  H   UNL A   1      34.458  29.751  24.718  1.00  0.00     0.167 HD
ATOM     25  O   UNL A   1      34.462  28.577  22.619  1.00  0.00    -0.225 OA
BRANCH  23  26
ATOM     26  O   UNL A   1      32.244  28.300  23.119  1.00  0.00    -0.445 OA
BRANCH  26  27
ATOM     27  C   UNL A   1      31.424  29.343  22.595  1.00  0.00     0.270 C 
BRANCH  27  28
ATOM     28  C   UNL A   1      29.925  29.124  22.752  1.00  0.00    -0.011 A 
ATOM     29  C   UNL A   1      29.066  30.179  22.425  1.00  0.00     0.007 A 
ATOM     30  C   UNL A   1      29.347  27.948  23.262  1.00  0.00     0.007 A 
ATOM     31  C   UNL A   1      27.687  30.060  22.609  1.00  0.00     0.000 A 
ATOM     32  C   UNL A   1      27.971  27.828  23.450  1.00  0.00     0.000 A 
ATOM     33  C   UNL A   1      27.140  28.888  23.128  1.00  0.00     0.000 A 
ENDBRANCH  27  28
ENDBRANCH  26  27
ENDBRANCH  23  26
ENDBRANCH  21  22
BRANCH  21  34
ATOM     34  C   UNL A   1      32.894  27.913  26.698  1.00  0.00     0.015 C 
ATOM     35  C   UNL A   1      31.733  27.912  27.690  1.00  0.00     0.010 C 
ATOM     36  C   UNL A   1      32.828  26.601  25.912  1.00  0.00     0.010 C 
ENDBRANCH  21  34
ENDBRANCH  18  21
ENDBRANCH  16  17
ENDBRANCH  13  16
ENDBRANCH   7  12
ENDBRANCH   4   7
ENDBRANCH   1   3
BRANCH   1  37
ATOM     37  C   UNL A   1      34.034  33.683  33.265  1.00  0.00     0.328 C 
ATOM     38  O   UNL A   1      32.965  33.078  33.313  1.00  0.00    -0.250 OA
BRANCH  37  39
ATOM     39  O   UNL A   1      34.965  33.649  34.262  1.00  0.00    -0.461 OA
BRANCH  39  40
ATOM     40  C   UNL A   1      36.321  33.328  33.851  1.00  0.00     0.274 C 
BRANCH  40  41
ATOM     41  C   UNL A   1      37.307  34.528  33.886  1.00  0.00     0.275 C 
BRANCH  41  42
ATOM     42  O   UNL A   1      37.773  34.941  35.205  1.00  0.00    -0.458 OA
BRANCH  42  43
ATOM     43  C   UNL A   1      39.120  34.929  35.274  1.00  0.00     0.338 C 
ATOM     44  O   UNL A   1      39.750  35.876  35.715  1.00  0.00    -0.246 OA
BRANCH  43  45
ATOM     45  C   UNL A   1      39.877  33.744  34.809  1.00  0.00     0.060 A 
ATOM     46  C   UNL A   1      39.480  32.523  35.361  1.00  0.00     0.016 A 
ATOM     47  C   UNL A   1      41.126  33.825  34.187  1.00  0.00     0.016 A 
ATOM     48  C   UNL A   1      40.347  31.428  35.363  1.00  0.00     0.010 A 
ATOM     49  C   UNL A   1      41.967  32.683  34.120  1.00  0.00     0.010 A 
ATOM     50  C   UNL A   1      41.606  31.466  34.725  1.00  0.00    -0.014 A 
BRANCH  50  51
ATOM     51  C   UNL A   1      42.397  30.186  34.611  1.00  0.00     0.031 A 
ATOM     52  C   UNL A   1      42.409  29.259  33.401  1.00  0.00     0.074 A 
ATOM     53  C   UNL A   1      43.188  29.850  35.656  1.00  0.00     0.049 A 
ATOM     54  N   UNL A   1      43.274  28.306  33.112  1.00  0.00    -0.248 NA
ATOM     55  C   UNL A   1      41.364  29.410  32.383  1.00  0.00     0.031 C 
ATOM     56  C   UNL A   1      43.295  30.598  36.915  1.00  0.00     0.029 A 
ATOM     57  N   UNL A   1      44.040  28.787  35.840  1.00  0.00    -0.354 N 
ATOM     58  C   UNL A   1      42.951  27.846  31.833  1.00  0.00     0.074 A 
ATOM     59  C   UNL A   1      41.750  28.548  31.444  1.00  0.00     0.031 C 
ATOM     60  C   UNL A   1      44.148  29.972  37.733  1.00  0.00     0.029 A 
ATOM     61  C   UNL A   1      44.574  28.729  37.105  1.00  0.00     0.049 A 
ATOM     62  H   UNL A   1      44.246  28.131  35.135  1.00  0.00     0.167 HD
ATOM     63  C   UNL A   1      43.604  26.940  31.055  1.00  0.00     0.034 A 
ATOM     64  C   UNL A   1      45.263  27.759  37.736  1.00  0.00     0.034 A 
ATOM     65  C   UNL A   1      44.615  26.039  31.552  1.00  0.00     0.049 A 
ATOM     66  C   UNL A   1      45.650  26.524  36.976  1.00  0.00     0.074 A 
ATOM     67  C   UNL A   1      45.297  25.047  30.867  1.00  0.00     0.029 A 
ATOM     68  N   UNL A   1      44.971  25.914  32.885  1.00  0.00    -0.354 N 
ATOM     69  N   UNL A   1      45.511  26.267  35.696  1.00  0.00    -0.248 NA
ATOM     70  C   UNL A   1      46.289  25.449  37.743  1.00  0.00     0.031 C 
ATOM     71  C   UNL A   1      45.935  24.229  31.809  1.00  0.00     0.029 A 
ATOM     72  C   UNL A   1      45.744  24.778  33.066  1.00  0.00     0.049 A 
ATOM     73  H   UNL A   1      44.711  26.540  33.599  1.00  0.00     0.167 HD
ATOM     74  C   UNL A   1      46.081  25.013  35.501  1.00  0.00     0.074 A 
ATOM     75  C   UNL A   1      46.570  24.573  36.790  1.00  0.00     0.031 C 
ATOM     76  C   UNL A   1      46.200  24.302  34.350  1.00  0.00     0.034 A 
BRANCH  63  77
ATOM     77  C   UNL A   1      43.198  26.752  29.607  1.00  0.00     0.023 A 
ATOM     78  C   UNL A   1      42.115  25.926  29.240  1.00  0.00     0.031 A 
ATOM     79  C   UNL A   1      43.796  27.529  28.601  1.00  0.00     0.131 A 
ATOM     80  C   UNL A   1      41.714  25.841  27.892  1.00  0.00     0.055 A 
ATOM     81  C   UNL A   1      43.352  27.489  27.276  1.00  0.00     0.041 A 
ATOM     82  F   UNL A   1      44.799  28.368  28.901  1.00  0.00    -0.206 F 
ATOM     83  C   UNL A   1      42.316  26.635  26.913  1.00  0.00     0.022 A 
BRANCH  80  84
ATOM     84  S   UNL A   1      40.396  24.699  27.361  1.00  0.00     0.124 S 
ATOM     85  O   UNL A   1      39.274  25.130  28.191  1.00  0.00    -0.237 OA
ATOM     86  O   UNL A   1      40.269  24.971  25.932  1.00  0.00    -0.237 OA
ATOM     87  O   UNL A   1      40.939  23.386  27.700  1.00  0.00    -0.744 OA
ENDBRANCH  80  84
ENDBRANCH  63  77
BRANCH  64  88
ATOM     88  C   UNL A   1      45.514  27.869  39.202  1.00  0.00     0.023 A 
ATOM     89  C   UNL A   1      46.546  28.666  39.713  1.00  0.00     0.031 A 
ATOM     90  C   UNL A   1      44.743  27.119  40.114  1.00  0.00     0.131 A 
ATOM     91  C   UNL A   1      46.804  28.665  41.092  1.00  0.00     0.055 A 
ATOM     92  C   UNL A   1      44.958  27.177  41.489  1.00  0.00     0.041 A 
ATOM     93  F   UNL A   1      43.752  26.325  39.676  1.00  0.00    -0.206 F 
ATOM     94  C   UNL A   1      46.006  27.943  41.984  1.00  0.00     0.022 A 
BRANCH  91  95
ATOM     95  S   UNL A   1      48.277  29.531  41.697  1.00  0.00     0.124 S 
ATOM     96  O   UNL A   1      48.394  30.623  40.738  1.00  0.00    -0.237 OA
ATOM     97  O   UNL A   1      47.874  29.904  43.048  1.00  0.00    -0.237 OA
ATOM     98  O   UNL A   1      49.324  28.514  41.617  1.00  0.00    -0.744 OA
ENDBRANCH  91  95
ENDBRANCH  64  88
BRANCH  76  99
ATOM     99  C   UNL A   1      46.909  22.975  34.434  1.00  0.00     0.023 A 
ATOM    100  C   UNL A   1      48.313  22.889  34.438  1.00  0.00     0.031 A 
ATOM    101  C   UNL A   1      46.175  21.776  34.461  1.00  0.00     0.131 A 
ATOM    102  C   UNL A   1      48.938  21.634  34.392  1.00  0.00     0.055 A 
ATOM    103  C   UNL A   1      46.803  20.530  34.492  1.00  0.00     0.041 A 
ATOM    104  F   UNL A   1      44.833  21.793  34.448  1.00  0.00    -0.206 F 
ATOM    105  C   UNL A   1      48.191  20.453  34.439  1.00  0.00     0.022 A 
BRANCH 102 106
ATOM    106  S   UNL A   1      50.733  21.565  34.143  1.00  0.00     0.124 S 
ATOM    107  O   UNL A   1      50.979  20.127  34.116  1.00  0.00    -0.237 OA
ATOM    108  O   UNL A   1      50.899  22.265  32.874  1.00  0.00    -0.237 OA
ATOM    109  O   UNL A   1      51.268  22.264  35.311  1.00  0.00    -0.744 OA
ENDBRANCH 102 106
ENDBRANCH  76  99
ENDBRANCH  50  51
ENDBRANCH  43  45
ENDBRANCH  42  43
ENDBRANCH  41  42
ENDBRANCH  40  41
ENDBRANCH  39  40
ENDBRANCH  37  39
ENDBRANCH   1  37
TORSDOF 27
ENDMDL
MODEL 2
REMARK VINA RESULT:      -9.0      6.187      9.990
REMARK SMILES CC(C)C[C@H](NC(=O)CNC(=O)[C@@H](NC(=O)OCc1ccccc1)C(C)C)C(=O)N[C@@H](C)C(=O)OCCOC(=O)c1ccc(-c2c3nc(c(-c4cc(S(=O)(=O)[O-])ccc4F)c4ccc([nH]4)c(-c4cc(S(=O)(=O)[O-])ccc4F)c4nc(c(-c5cc(S(=O)(=O)[O-])ccc5F)c5ccc2[nH]5)C=C4)C=C3)cc1
REMARK SMILES IDX 31 1 32 2 30 3 28 4 29 5 5 7 4 8 2 9 1 10 3 11 6 12 7 13
REMARK SMILES IDX 8 15 9 16 10 17 11 18 12 20 13 21 14 22 15 23 16 25 17 26
REMARK SMILES IDX 18 27 19 28 20 29 24 30 21 31 23 32 22 33 25 34 26 35 27 36
REMARK SMILES IDX 33 37 34 38 35 39 36 40 37 41 38 42 39 43 40 44 41 45 42 46
REMARK SMILES IDX 103 47 43 48 102 49 44 50 45 51 46 52 96 53 47 54 101 55
REMARK SMILES IDX 95 56 97 57 48 58 100 59 94 60 93 61 49 63 81 64 61 65 80 66
REMARK SMILES IDX 62 67 65 68 79 69 98 70 63 71 64 72 78 74 99 75 66 76 50 77
REMARK SMILES IDX 51 78 59 79 52 80 58 81 60 82 57 83 53 84 54 85 55 86 56 87
REMARK SMILES IDX 82 88 83 89 91 90 84 91 90 92 92 93 89 94 85 95 86 96 87 97
REMARK SMILES IDX 88 98 67 99 68 100 76 101 69 102 75 103 77 104 74 105 70 106
REMARK SMILES IDX 71 107 72 108 73 109
REMARK H PARENT 30 6 6 14 10 19 14 24 97 62 65 73
REMARK Flexibility Score: inf
ROOT
ATOM      1  C   UNL A   1      34.525  34.710  32.206  1.00  0.00     0.189 C 
ATOM      2  C   UNL A   1      33.955  36.055  32.658  1.00  0.00     0.043 C 
ENDROOT
BRANCH   1   3
ATOM      3  N   UNL A   1      33.969  34.401  30.884  1.00  0.00    -0.341 N 
ATOM      4  C   UNL A   1      34.482  33.733  29.811  1.00  0.00     0.243 C 
ATOM      5  O   UNL A   1      33.779  33.723  28.792  1.00  0.00    -0.273 OA
ATOM      6  H   UNL A   1      33.055  34.739  30.747  1.00  0.00     0.164 HD
BRANCH   4   7
ATOM      7  C   UNL A   1      35.760  32.848  29.870  1.00  0.00     0.171 C 
BRANCH   7   8
ATOM      8  C   UNL A   1      36.801  33.435  28.915  1.00  0.00     0.038 C 
BRANCH   8   9
ATOM      9  C   UNL A   1      38.286  33.560  29.343  1.00  0.00    -0.015 C 
ATOM     10  C   UNL A   1      38.499  34.447  30.565  1.00  0.00     0.007 C 
ATOM     11  C   UNL A   1      38.886  32.178  29.671  1.00  0.00     0.007 C 
ENDBRANCH   8   9
ENDBRANCH   7   8
BRANCH   7  12
ATOM     12  N   UNL A   1      35.491  31.418  29.624  1.00  0.00    -0.343 N 
ATOM     13  C   UNL A   1      35.009  30.657  28.608  1.00  0.00     0.240 C 
ATOM     14  H   UNL A   1      35.723  30.867  30.407  1.00  0.00     0.164 HD
ATOM     15  O   UNL A   1      35.127  29.437  28.804  1.00  0.00    -0.273 OA
BRANCH  13  16
ATOM     16  C   UNL A   1      34.484  31.134  27.234  1.00  0.00     0.216 C 
BRANCH  16  17
ATOM     17  N   UNL A   1      33.064  31.321  27.051  1.00  0.00    -0.345 N 
ATOM     18  C   UNL A   1      32.101  30.742  26.306  1.00  0.00     0.243 C 
ATOM     19  H   UNL A   1      32.712  32.053  27.608  1.00  0.00     0.164 HD
ATOM     20  O   UNL A   1      31.022  31.349  26.300  1.00  0.00    -0.273 OA
BRANCH  18  21
ATOM     21  C   UNL A   1      32.232  29.454  25.467  1.00  0.00     0.177 C 
BRANCH  21  22
ATOM     22  N   UNL A   1      33.242  29.527  24.427  1.00  0.00    -0.309 N 
ATOM     23  C   UNL A   1      33.375  28.833  23.276  1.00  0.00     0.408 C 
ATOM     24  H   UNL A   1      33.948  30.193  24.588  1.00  0.00     0.167 HD
ATOM     25  O   UNL A   1      34.436  28.837  22.662  1.00  0.00    -0.225 OA
BRANCH  23  26
ATOM     26  O   UNL A   1      32.223  28.287  22.869  1.00  0.00    -0.445 OA
BRANCH  26  27
ATOM     27  C   UNL A   1      31.351  29.153  22.145  1.00  0.00     0.270 C 
BRANCH  27  28
ATOM     28  C   UNL A   1      29.885  29.074  22.548  1.00  0.00    -0.011 A 
ATOM     29  C   UNL A   1      29.413  27.871  23.086  1.00  0.00     0.007 A 
ATOM     30  C   UNL A   1      28.955  30.111  22.360  1.00  0.00     0.007 A 
ATOM     31  C   UNL A   1      28.065  27.716  23.415  1.00  0.00     0.000 A 
ATOM     32  C   UNL A   1      27.608  29.958  22.683  1.00  0.00     0.000 A 
ATOM     33  C   UNL A   1      27.162  28.756  23.207  1.00  0.00     0.000 A 
ENDBRANCH  27  28
ENDBRANCH  26  27
ENDBRANCH  23  26
ENDBRANCH  21  22
BRANCH  21  34
ATOM     34  C   UNL A   1      32.134  28.171  26.308  1.00  0.00     0.015 C 
ATOM     35  C   UNL A   1      33.511  27.520  26.420  1.00  0.00     0.010 C 
ATOM     36  C   UNL A   1      31.639  28.447  27.730  1.00  0.00     0.010 C 
ENDBRANCH  21  34
ENDBRANCH  18  21
ENDBRANCH  16  17
ENDBRANCH  13  16
ENDBRANCH   7  12
ENDBRANCH   4   7
ENDBRANCH   1   3
BRANCH   1  37
ATOM     37  C   UNL A   1      34.322  33.683  33.351  1.00  0.00     0.328 C 
ATOM     38  O   UNL A   1      33.328  32.962  33.408  1.00  0.00    -0.250 OA
BRANCH  37  39
ATOM     39  O   UNL A   1      35.293  33.706  34.308  1.00  0.00    -0.461 OA
BRANCH  39  40
ATOM     40  C   UNL A   1      36.593  33.200  33.903  1.00  0.00     0.274 C 
BRANCH  40  41
ATOM     41  C   UNL A   1      37.480  32.691  35.073  1.00  0.00     0.275 C 
BRANCH  41  42
ATOM     42  O   UNL A   1      37.633  31.245  35.184  1.00  0.00    -0.458 OA
BRANCH  42  43
ATOM     43  C   UNL A   1      38.930  30.898  35.304  1.00  0.00     0.338 C 
ATOM     44  O   UNL A   1      39.281  29.944  35.981  1.00  0.00    -0.246 OA
BRANCH  43  45
ATOM     45  C   UNL A   1      39.976  31.679  34.605  1.00  0.00     0.060 A 
ATOM     46  C   UNL A   1      39.904  31.665  33.210  1.00  0.00     0.016 A 
ATOM     47  C   UNL A   1      41.169  32.082  35.211  1.00  0.00     0.016 A 
ATOM     48  C   UNL A   1      41.026  31.969  32.437  1.00  0.00     0.010 A 
ATOM     49  C   UNL A   1      42.280  32.471  34.417  1.00  0.00     0.010 A 
ATOM     50  C   UNL A   1      42.240  32.402  33.013  1.00  0.00    -0.014 A 
BRANCH  50  51
ATOM     51  C   UNL A   1      43.340  32.890  32.101  1.00  0.00     0.031 A 
ATOM     52  C   UNL A   1      43.702  34.351  31.857  1.00  0.00     0.074 A 
ATOM     53  C   UNL A   1      44.089  31.954  31.475  1.00  0.00     0.049 A 
ATOM     54  N   UNL A   1      44.804  34.840  31.324  1.00  0.00    -0.248 NA
ATOM     55  C   UNL A   1      42.754  35.394  32.264  1.00  0.00     0.031 C 
ATOM     56  C   UNL A   1      43.881  30.503  31.562  1.00  0.00     0.029 A 
ATOM     57  N   UNL A   1      45.162  32.075  30.625  1.00  0.00    -0.354 N 
ATOM     58  C   UNL A   1      44.732  36.228  31.455  1.00  0.00     0.074 A 
ATOM     59  C   UNL A   1      43.433  36.512  32.020  1.00  0.00     0.031 C 
ATOM     60  C   UNL A   1      44.785  29.878  30.800  1.00  0.00     0.029 A 
ATOM     61  C   UNL A   1      45.572  30.877  30.090  1.00  0.00     0.049 A 
ATOM     62  H   UNL A   1      45.595  32.935  30.420  1.00  0.00     0.167 HD
ATOM     63  C   UNL A   1      45.664  37.171  31.149  1.00  0.00     0.034 A 
ATOM     64  C   UNL A   1      46.423  30.596  29.085  1.00  0.00     0.034 A 
ATOM     65  C   UNL A   1      46.821  36.914  30.324  1.00  0.00     0.049 A 
ATOM     66  C   UNL A   1      47.183  31.716  28.436  1.00  0.00     0.074 A 
ATOM     67  C   UNL A   1      47.795  37.806  29.906  1.00  0.00     0.029 A 
ATOM     68  N   UNL A   1      47.070  35.721  29.668  1.00  0.00    -0.354 N 
ATOM     69  N   UNL A   1      47.235  32.982  28.778  1.00  0.00    -0.248 NA
ATOM     70  C   UNL A   1      48.001  31.370  27.268  1.00  0.00     0.031 C 
ATOM     71  C   UNL A   1      48.530  37.196  28.880  1.00  0.00     0.029 A 
ATOM     72  C   UNL A   1      48.088  35.892  28.741  1.00  0.00     0.049 A 
ATOM     73  H   UNL A   1      46.593  34.876  29.833  1.00  0.00     0.167 HD
ATOM     74  C   UNL A   1      48.123  33.576  27.885  1.00  0.00     0.074 A 
ATOM     75  C   UNL A   1      48.584  32.528  26.999  1.00  0.00     0.031 C 
ATOM     76  C   UNL A   1      48.527  34.870  27.821  1.00  0.00     0.034 A 
BRANCH  63  77
ATOM     77  C   UNL A   1      45.459  38.610  31.578  1.00  0.00     0.023 A 
ATOM     78  C   UNL A   1      44.620  39.487  30.859  1.00  0.00     0.031 A 
ATOM     79  C   UNL A   1      45.977  39.060  32.803  1.00  0.00     0.131 A 
ATOM     80  C   UNL A   1      44.386  40.792  31.334  1.00  0.00     0.055 A 
ATOM     81  C   UNL A   1      45.690  40.334  33.302  1.00  0.00     0.041 A 
ATOM     82  F   UNL A   1      46.743  38.252  33.551  1.00  0.00    -0.206 F 
ATOM     83  C   UNL A   1      44.902  41.211  32.563  1.00  0.00     0.022 A 
BRANCH  80  84
ATOM     84  S   UNL A   1      43.402  41.992  30.378  1.00  0.00     0.124 S 
ATOM     85  O   UNL A   1      44.263  42.232  29.223  1.00  0.00    -0.237 OA
ATOM     86  O   UNL A   1      42.161  41.273  30.107  1.00  0.00    -0.237 OA
ATOM     87  O   UNL A   1      43.279  43.124  31.294  1.00  0.00    -0.744 OA
ENDBRANCH  80  84
ENDBRANCH  63  77
BRANCH  64  88
ATOM     88  C   UNL A   1      46.499  29.206  28.552  1.00  0.00     0.023 A 
ATOM     89  C   UNL A   1      45.748  28.803  27.441  1.00  0.00     0.031 A 
ATOM     90  C   UNL A   1      47.297  28.239  29.198  1.00  0.00     0.131 A 
ATOM     91  C   UNL A   1      45.780  27.460  27.033  1.00  0.00     0.055 A 
ATOM     92  C   UNL A   1      47.380  26.924  28.745  1.00  0.00     0.041 A 
ATOM     93  F   UNL A   1      48.024  28.568  30.278  1.00  0.00    -0.206 F 
ATOM     94  C   UNL A   1      46.604  26.524  27.664  1.00  0.00     0.022 A 
BRANCH  91  95
ATOM     95  S   UNL A   1      44.634  26.923  25.735  1.00  0.00     0.124 S 
ATOM     96  O   UNL A   1      43.978  28.177  25.381  1.00  0.00    -0.237 OA
ATOM     97  O   UNL A   1      45.545  26.372  24.739  1.00  0.00    -0.237 OA
ATOM     98  O   UNL A   1      43.787  25.945  26.414  1.00  0.00    -0.744 OA
ENDBRANCH  91  95
ENDBRANCH  64  88
BRANCH  76  99
ATOM     99  C   UNL A   1      49.540  35.221  26.761  1.00  0.00     0.023 A 
ATOM    100  C   UNL A   1      50.920  35.061  26.981  1.00  0.00     0.031 A 
ATOM    101  C   UNL A   1      49.128  35.768  25.534  1.00  0.00     0.131 A 
ATOM    102  C   UNL A   1      51.839  35.512  26.023  1.00  0.00     0.055 A 
ATOM    103  C   UNL A   1      50.044  36.146  24.552  1.00  0.00     0.041 A 
ATOM    104  F   UNL A   1      47.824  35.955  25.271  1.00  0.00    -0.206 F 
ATOM    105  C   UNL A   1      51.409  36.036  24.800  1.00  0.00     0.022 A 
BRANCH 102 106
ATOM    106  S   UNL A   1      53.603  35.521  26.445  1.00  0.00     0.124 S 
ATOM    107  O   UNL A   1      53.977  36.900  26.147  1.00  0.00    -0.237 OA
ATOM    108  O   UNL A   1      53.587  35.155  27.857  1.00  0.00    -0.237 OA
ATOM    109  O   UNL A   1      54.175  34.517  25.551  1.00  0.00    -0.744 OA
ENDBRANCH 102 106
ENDBRANCH  76  99
ENDBRANCH  50  51
ENDBRANCH  43  45
ENDBRANCH  42  43
ENDBRANCH  41  42
ENDBRANCH  40  41
ENDBRANCH  39  40
ENDBRANCH  37  39
ENDBRANCH   1  37
TORSDOF 27
ENDMDL
MODEL 3
REMARK VINA RESULT:      -8.4      6.804     11.191
REMARK SMILES CC(C)C[C@H](NC(=O)CNC(=O)[C@@H](NC(=O)OCc1ccccc1)C(C)C)C(=O)N[C@@H](C)C(=O)OCCOC(=O)c1ccc(-c2c3nc(c(-c4cc(S(=O)(=O)[O-])ccc4F)c4ccc([nH]4)c(-c4cc(S(=O)(=O)[O-])ccc4F)c4nc(c(-c5cc(S(=O)(=O)[O-])ccc5F)c5ccc2[nH]5)C=C4)C=C3)cc1
REMARK SMILES IDX 31 1 32 2 30 3 28 4 29 5 5 7 4 8 2 9 1 10 3 11 6 12 7 13
REMARK SMILES IDX 8 15 9 16 10 17 11 18 12 20 13 21 14 22 15 23 16 25 17 26
REMARK SMILES IDX 18 27 19 28 20 29 24 30 21 31 23 32 22 33 25 34 26 35 27 36
REMARK SMILES IDX 33 37 34 38 35 39 36 40 37 41 38 42 39 43 40 44 41 45 42 46
REMARK SMILES IDX 103 47 43 48 102 49 44 50 45 51 46 52 96 53 47 54 101 55
REMARK SMILES IDX 95 56 97 57 48 58 100 59 94 60 93 61 49 63 81 64 61 65 80 66
REMARK SMILES IDX 62 67 65 68 79 69 98 70 63 71 64 72 78 74 99 75 66 76 50 77
REMARK SMILES IDX 51 78 59 79 52 80 58 81 60 82 57 83 53 84 54 85 55 86 56 87
REMARK SMILES IDX 82 88 83 89 91 90 84 91 90 92 92 93 89 94 85 95 86 96 87 97
REMARK SMILES IDX 88 98 67 99 68 100 76 101 69 102 75 103 77 104 74 105 70 106
REMARK SMILES IDX 71 107 72 108 73 109
REMARK H PARENT 30 6 6 14 10 19 14 24 97 62 65 73
REMARK Flexibility Score: inf
ROOT
ATOM      1  C   UNL A   1      40.813  27.983  28.702  1.00  0.00     0.189 C 
ATOM      2  C   UNL A   1      40.824  28.986  27.547  1.00  0.00     0.043 C 
ENDROOT
BRANCH   1   3
ATOM      3  N   UNL A   1      41.625  28.535  29.792  1.00  0.00    -0.341 N 
ATOM      4  C   UNL A   1      41.411  29.566  30.657  1.00  0.00     0.243 C 
ATOM      5  O   UNL A   1      42.350  29.842  31.416  1.00  0.00    -0.273 OA
ATOM      6  H   UNL A   1      42.485  28.074  29.922  1.00  0.00     0.164 HD
BRANCH   4   7
ATOM      7  C   UNL A   1      40.029  30.250  30.869  1.00  0.00     0.171 C 
BRANCH   7   8
ATOM      8  C   UNL A   1      40.261  31.648  31.443  1.00  0.00     0.038 C 
BRANCH   8   9
ATOM      9  C   UNL A   1      39.317  32.821  31.076  1.00  0.00    -0.015 C 
ATOM     10  C   UNL A   1      38.773  32.748  29.653  1.00  0.00     0.007 C 
ATOM     11  C   UNL A   1      38.104  32.874  32.027  1.00  0.00     0.007 C 
ENDBRANCH   8   9
ENDBRANCH   7   8
BRANCH   7  12
ATOM     12  N   UNL A   1      39.095  29.440  31.676  1.00  0.00    -0.343 N 
ATOM     13  C   UNL A   1      37.793  29.062  31.609  1.00  0.00     0.240 C 
ATOM     14  H   UNL A   1      39.534  29.077  32.479  1.00  0.00     0.164 HD
ATOM     15  O   UNL A   1      37.481  28.209  32.456  1.00  0.00    -0.273 OA
BRANCH  13  16
ATOM     16  C   UNL A   1      36.745  29.459  30.544  1.00  0.00     0.216 C 
BRANCH  16  17
ATOM     17  N   UNL A   1      37.166  29.629  29.173  1.00  0.00    -0.345 N 
ATOM     18  C   UNL A   1      36.605  30.098  28.040  1.00  0.00     0.243 C 
ATOM     19  H   UNL A   1      38.093  29.329  29.030  1.00  0.00     0.164 HD
ATOM     20  O   UNL A   1      37.261  29.880  27.013  1.00  0.00    -0.273 OA
BRANCH  18  21
ATOM     21  C   UNL A   1      35.251  30.826  27.914  1.00  0.00     0.177 C 
BRANCH  21  22
ATOM     22  N   UNL A   1      34.098  29.969  28.117  1.00  0.00    -0.309 N 
ATOM     23  C   UNL A   1      33.297  29.340  27.229  1.00  0.00     0.408 C 
ATOM     24  H   UNL A   1      33.858  29.821  29.061  1.00  0.00     0.167 HD
ATOM     25  O   UNL A   1      32.212  28.887  27.576  1.00  0.00    -0.225 OA
BRANCH  23  26
ATOM     26  O   UNL A   1      33.880  29.183  26.035  1.00  0.00    -0.445 OA
BRANCH  26  27
ATOM     27  C   UNL A   1      33.062  29.482  24.905  1.00  0.00     0.270 C 
BRANCH  27  28
ATOM     28  C   UNL A   1      32.765  28.299  23.994  1.00  0.00    -0.011 A 
ATOM     29  C   UNL A   1      33.694  27.254  23.946  1.00  0.00     0.007 A 
ATOM     30  C   UNL A   1      31.644  28.212  23.150  1.00  0.00     0.007 A 
ATOM     31  C   UNL A   1      33.509  26.172  23.082  1.00  0.00     0.000 A 
ATOM     32  C   UNL A   1      31.458  27.136  22.284  1.00  0.00     0.000 A 
ATOM     33  C   UNL A   1      32.395  26.116  22.247  1.00  0.00     0.000 A 
ENDBRANCH  27  28
ENDBRANCH  26  27
ENDBRANCH  23  26
ENDBRANCH  21  22
BRANCH  21  34
ATOM     34  C   UNL A   1      35.252  32.222  28.558  1.00  0.00     0.015 C 
ATOM     35  C   UNL A   1      34.220  33.111  27.866  1.00  0.00     0.010 C 
ATOM     36  C   UNL A   1      34.893  32.174  30.045  1.00  0.00     0.010 C 
ENDBRANCH  21  34
ENDBRANCH  18  21
ENDBRANCH  16  17
ENDBRANCH  13  16
ENDBRANCH   7  12
ENDBRANCH   4   7
ENDBRANCH   1   3
BRANCH   1  37
ATOM     37  C   UNL A   1      41.185  26.586  28.139  1.00  0.00     0.328 C 
ATOM     38  O   UNL A   1      42.352  26.215  28.039  1.00  0.00    -0.250 OA
BRANCH  37  39
ATOM     39  O   UNL A   1      40.119  25.851  27.707  1.00  0.00    -0.461 OA
BRANCH  39  40
ATOM     40  C   UNL A   1      40.239  24.411  27.861  1.00  0.00     0.274 C 
BRANCH  40  41
ATOM     41  C   UNL A   1      40.939  23.692  26.674  1.00  0.00     0.275 C 
BRANCH  41  42
ATOM     42  O   UNL A   1      41.887  22.642  27.026  1.00  0.00    -0.458 OA
BRANCH  42  43
ATOM     43  C   UNL A   1      42.852  22.521  26.092  1.00  0.00     0.338 C 
ATOM     44  O   UNL A   1      42.806  21.661  25.227  1.00  0.00    -0.246 OA
BRANCH  43  45
ATOM     45  C   UNL A   1      44.008  23.446  26.095  1.00  0.00     0.060 A 
ATOM     46  C   UNL A   1      44.585  23.683  27.345  1.00  0.00     0.016 A 
ATOM     47  C   UNL A   1      44.290  24.328  25.048  1.00  0.00     0.016 A 
ATOM     48  C   UNL A   1      45.361  24.823  27.566  1.00  0.00     0.010 A 
ATOM     49  C   UNL A   1      45.148  25.440  25.260  1.00  0.00     0.010 A 
ATOM     50  C   UNL A   1      45.684  25.724  26.528  1.00  0.00    -0.014 A 
BRANCH  50  51
ATOM     51  C   UNL A   1      46.679  26.823  26.809  1.00  0.00     0.031 A 
ATOM     52  C   UNL A   1      48.192  26.645  26.898  1.00  0.00     0.074 A 
ATOM     53  C   UNL A   1      46.194  28.077  26.961  1.00  0.00     0.049 A 
ATOM     54  N   UNL A   1      49.126  27.573  26.848  1.00  0.00    -0.248 NA
ATOM     55  C   UNL A   1      48.738  25.291  27.039  1.00  0.00     0.031 C 
ATOM     56  C   UNL A   1      44.773  28.445  26.934  1.00  0.00     0.029 A 
ATOM     57  N   UNL A   1      46.833  29.272  27.188  1.00  0.00    -0.354 N 
ATOM     58  C   UNL A   1      50.353  26.906  26.817  1.00  0.00     0.074 A 
ATOM     59  C   UNL A   1      50.050  25.501  26.963  1.00  0.00     0.031 C 
ATOM     60  C   UNL A   1      44.652  29.762  27.140  1.00  0.00     0.029 A 
ATOM     61  C   UNL A   1      45.969  30.318  27.414  1.00  0.00     0.049 A 
ATOM     62  H   UNL A   1      47.812  29.370  27.188  1.00  0.00     0.167 HD
ATOM     63  C   UNL A   1      51.606  27.416  26.666  1.00  0.00     0.034 A 
ATOM     64  C   UNL A   1      46.185  31.566  27.870  1.00  0.00     0.034 A 
ATOM     65  C   UNL A   1      51.924  28.815  26.817  1.00  0.00     0.049 A 
ATOM     66  C   UNL A   1      47.594  32.025  28.109  1.00  0.00     0.074 A 
ATOM     67  C   UNL A   1      53.163  29.430  26.742  1.00  0.00     0.029 A 
ATOM     68  N   UNL A   1      51.026  29.787  27.228  1.00  0.00    -0.354 N 
ATOM     69  N   UNL A   1      48.718  31.409  27.829  1.00  0.00    -0.248 NA
ATOM     70  C   UNL A   1      47.763  33.347  28.721  1.00  0.00     0.031 C 
ATOM     71  C   UNL A   1      53.037  30.725  27.261  1.00  0.00     0.029 A 
ATOM     72  C   UNL A   1      51.703  30.954  27.551  1.00  0.00     0.049 A 
ATOM     73  H   UNL A   1      50.051  29.666  27.285  1.00  0.00     0.167 HD
ATOM     74  C   UNL A   1      49.730  32.289  28.200  1.00  0.00     0.074 A 
ATOM     75  C   UNL A   1      49.081  33.477  28.714  1.00  0.00     0.031 C 
ATOM     76  C   UNL A   1      51.075  32.128  28.106  1.00  0.00     0.034 A 
BRANCH  63  77
ATOM     77  C   UNL A   1      52.781  26.487  26.442  1.00  0.00     0.023 A 
ATOM     78  C   UNL A   1      53.754  26.266  27.438  1.00  0.00     0.031 A 
ATOM     79  C   UNL A   1      52.841  25.693  25.284  1.00  0.00     0.131 A 
ATOM     80  C   UNL A   1      54.787  25.331  27.225  1.00  0.00     0.055 A 
ATOM     81  C   UNL A   1      53.830  24.722  25.105  1.00  0.00     0.041 A 
ATOM     82  F   UNL A   1      51.914  25.828  24.324  1.00  0.00    -0.206 F 
ATOM     83  C   UNL A   1      54.815  24.544  26.071  1.00  0.00     0.022 A 
BRANCH  80  84
ATOM     84  S   UNL A   1      56.127  25.099  28.439  1.00  0.00     0.124 S 
ATOM     85  O   UNL A   1      56.791  26.399  28.404  1.00  0.00    -0.237 OA
ATOM     86  O   UNL A   1      55.415  24.782  29.673  1.00  0.00    -0.237 OA
ATOM     87  O   UNL A   1      56.903  24.000  27.868  1.00  0.00    -0.744 OA
ENDBRANCH  80  84
ENDBRANCH  63  77
BRANCH  64  88
ATOM     88  C   UNL A   1      45.023  32.421  28.251  1.00  0.00     0.023 A 
ATOM     89  C   UNL A   1      44.488  33.369  27.370  1.00  0.00     0.031 A 
ATOM     90  C   UNL A   1      44.467  32.330  29.544  1.00  0.00     0.131 A 
ATOM     91  C   UNL A   1      43.457  34.215  27.806  1.00  0.00     0.055 A 
ATOM     92  C   UNL A   1      43.396  33.124  29.947  1.00  0.00     0.041 A 
ATOM     93  F   UNL A   1      44.954  31.450  30.434  1.00  0.00    -0.206 F 
ATOM     94  C   UNL A   1      42.894  34.086  29.079  1.00  0.00     0.022 A 
BRANCH  91  95
ATOM     95  S   UNL A   1      42.936  35.572  26.723  1.00  0.00     0.124 S 
ATOM     96  O   UNL A   1      42.855  34.904  25.429  1.00  0.00    -0.237 OA
ATOM     97  O   UNL A   1      41.666  35.965  27.323  1.00  0.00    -0.237 OA
ATOM     98  O   UNL A   1      44.017  36.546  26.857  1.00  0.00    -0.744 OA
ENDBRANCH  91  95
ENDBRANCH  64  88
BRANCH  76  99
ATOM     99  C   UNL A   1      51.937  33.281  28.553  1.00  0.00     0.023 A 
ATOM    100  C   UNL A   1      52.287  34.323  27.675  1.00  0.00     0.031 A 
ATOM    101  C   UNL A   1      52.458  33.317  29.858  1.00  0.00     0.131 A 
ATOM    102  C   UNL A   1      53.189  35.313  28.088  1.00  0.00     0.055 A 
ATOM    103  C   UNL A   1      53.297  34.347  30.288  1.00  0.00     0.041 A 
ATOM    104  F   UNL A   1      52.169  32.346  30.739  1.00  0.00    -0.206 F 
ATOM    105  C   UNL A   1      53.682  35.343  29.396  1.00  0.00     0.022 A 
BRANCH 102 106
ATOM    106  S   UNL A   1      53.811  36.491  26.856  1.00  0.00     0.124 S 
ATOM    107  O   UNL A   1      55.151  35.977  26.596  1.00  0.00    -0.237 OA
ATOM    108  O   UNL A   1      52.849  36.344  25.770  1.00  0.00    -0.237 OA
ATOM    109  O   UNL A   1      53.764  37.774  27.555  1.00  0.00    -0.744 OA
ENDBRANCH 102 106
ENDBRANCH  76  99
ENDBRANCH  50  51
ENDBRANCH  43  45
ENDBRANCH  42  43
ENDBRANCH  41  42
ENDBRANCH  40  41
ENDBRANCH  39  40
ENDBRANCH  37  39
ENDBRANCH   1  37
TORSDOF 27
ENDMDL
