MODEL 1
REMARK VINA RESULT:     -12.0      0.000      0.000
REMARK SMILES CC1=C(C(=O)OCCOC(=O)c2ccc(-c3c4nc(c(-c5cc(S(=O)(=O)[O-])ccc5F)c5ccc([nH]5)c(-c5cc(S(=O)(=O)[O-])ccc5F)c5nc(c(-c6cc(S(=O)(=O)[O-])ccc6F)c6ccc3[nH]6)C=C5)C=C4)cc2)N2C(=O)[C@@H](NC(=O)c3ccn(C)n3)[C@H]2SC1
REMARK SMILES IDX 8 1 7 2 6 3 4 4 5 5 3 6 1 7 2 8 90 9 75 10 89 11 76 12 88 13
REMARK SMILES IDX 77 14 78 15 79 16 80 17 81 19 82 20 83 21 87 22 84 23 85 24
REMARK SMILES IDX 86 25 9 26 10 27 11 28 12 29 13 30 74 31 14 32 73 33 15 34
REMARK SMILES IDX 16 35 17 36 67 37 18 38 72 39 66 40 68 41 19 42 71 43 65 44
REMARK SMILES IDX 64 45 20 47 52 48 32 49 51 50 33 51 36 52 50 53 69 54 34 55
REMARK SMILES IDX 35 56 49 58 70 59 37 60 21 61 22 62 30 63 23 64 29 65 31 66
REMARK SMILES IDX 28 67 24 68 25 69 26 70 27 71 53 72 54 73 62 74 55 75 61 76
REMARK SMILES IDX 63 77 60 78 56 79 57 80 58 81 59 82 38 83 39 84 47 85 40 86
REMARK SMILES IDX 46 87 48 88 45 89 41 90 42 91 43 92 44 93
REMARK H PARENT 79 18 68 46 36 57
REMARK Flexibility Score: inf
ROOT
ATOM      1  C   UNL A   1      31.931  30.023  25.357  1.00  0.00     0.275 C 
ENDROOT
BRANCH   1   2
ATOM      2  C   UNL A   1      33.010  29.318  24.544  1.00  0.00     0.275 C 
BRANCH   2   3
ATOM      3  O   UNL A   1      32.543  29.018  23.211  1.00  0.00    -0.457 OA
BRANCH   3   4
ATOM      4  C   UNL A   1      32.581  27.705  22.875  1.00  0.00     0.355 C 
ATOM      5  O   UNL A   1      33.181  27.226  21.920  1.00  0.00    -0.244 OA
BRANCH   4   6
ATOM      6  C   UNL A   1      31.747  26.844  23.774  1.00  0.00     0.131 C 
ATOM      7  C   UNL A   1      29.588  27.982  23.134  1.00  0.00     0.043 C 
ATOM      8  C   UNL A   1      30.403  26.938  23.859  1.00  0.00    -0.032 C 
ATOM      9  C   UNL A   1      29.539  25.994  24.672  1.00  0.00     0.105 C 
ATOM     10  N   UNL A   1      32.409  25.781  24.302  1.00  0.00    -0.289 N 
ATOM     11  S   UNL A   1      30.402  24.831  25.758  1.00  0.00    -0.129 SA
ATOM     12  C   UNL A   1      33.332  25.720  25.302  1.00  0.00     0.253 C 
ATOM     13  C   UNL A   1      31.796  24.506  24.625  1.00  0.00     0.181 C 
ATOM     14  O   UNL A   1      33.904  26.579  25.923  1.00  0.00    -0.272 OA
ATOM     15  C   UNL A   1      33.175  24.162  25.299  1.00  0.00     0.206 C 
BRANCH  15  16
ATOM     16  N   UNL A   1      33.136  23.445  26.587  1.00  0.00    -0.336 N 
ATOM     17  C   UNL A   1      34.006  22.459  27.019  1.00  0.00     0.272 C 
ATOM     18  H   UNL A   1      32.413  23.695  27.206  1.00  0.00     0.164 HD
ATOM     19  O   UNL A   1      33.668  21.759  27.972  1.00  0.00    -0.267 OA
BRANCH  17  20
ATOM     20  C   UNL A   1      35.283  22.287  26.307  1.00  0.00     0.150 A 
ATOM     21  C   UNL A   1      36.308  23.258  26.127  1.00  0.00     0.056 A 
ATOM     22  N   UNL A   1      35.636  21.118  25.735  1.00  0.00    -0.168 NA
ATOM     23  C   UNL A   1      37.311  22.617  25.444  1.00  0.00     0.109 A 
ATOM     24  N   UNL A   1      36.902  21.324  25.313  1.00  0.00    -0.275 N 
ATOM     25  C   UNL A   1      37.691  20.230  24.798  1.00  0.00     0.173 C 
ENDBRANCH  17  20
ENDBRANCH  15  16
ENDBRANCH   4   6
ENDBRANCH   3   4
ENDBRANCH   2   3
ENDBRANCH   1   2
BRANCH   1  26
ATOM     26  O   UNL A   1      32.338  30.064  26.732  1.00  0.00    -0.458 OA
BRANCH  26  27
ATOM     27  C   UNL A   1      32.943  31.206  27.137  1.00  0.00     0.338 C 
ATOM     28  O   UNL A   1      32.479  32.332  27.077  1.00  0.00    -0.246 OA
BRANCH  27  29
ATOM     29  C   UNL A   1      34.300  30.896  27.640  1.00  0.00     0.060 A 
ATOM     30  C   UNL A   1      34.691  29.581  27.889  1.00  0.00     0.016 A 
ATOM     31  C   UNL A   1      35.163  31.944  27.961  1.00  0.00     0.016 A 
ATOM     32  C   UNL A   1      35.877  29.324  28.577  1.00  0.00     0.010 A 
ATOM     33  C   UNL A   1      36.408  31.671  28.540  1.00  0.00     0.010 A 
ATOM     34  C   UNL A   1      36.763  30.361  28.906  1.00  0.00    -0.014 A 
BRANCH  34  35
ATOM     35  C   UNL A   1      38.016  30.088  29.675  1.00  0.00     0.031 A 
ATOM     36  C   UNL A   1      39.125  29.266  29.059  1.00  0.00     0.074 A 
ATOM     37  C   UNL A   1      38.194  30.596  30.912  1.00  0.00     0.049 A 
ATOM     38  N   UNL A   1      40.180  28.737  29.628  1.00  0.00    -0.248 NA
ATOM     39  C   UNL A   1      39.019  28.981  27.620  1.00  0.00     0.031 C 
ATOM     40  C   UNL A   1      37.249  31.464  31.619  1.00  0.00     0.029 A 
ATOM     41  N   UNL A   1      39.249  30.486  31.785  1.00  0.00    -0.354 N 
ATOM     42  C   UNL A   1      40.805  27.975  28.644  1.00  0.00     0.074 A 
ATOM     43  C   UNL A   1      40.017  28.129  27.438  1.00  0.00     0.031 C 
ATOM     44  C   UNL A   1      37.804  31.878  32.766  1.00  0.00     0.029 A 
ATOM     45  C   UNL A   1      39.085  31.207  32.946  1.00  0.00     0.049 A 
ATOM     46  H   UNL A   1      40.048  29.942  31.597  1.00  0.00     0.167 HD
ATOM     47  C   UNL A   1      41.919  27.204  28.746  1.00  0.00     0.034 A 
ATOM     48  C   UNL A   1      39.852  31.288  34.050  1.00  0.00     0.034 A 
ATOM     49  C   UNL A   1      42.740  27.132  29.935  1.00  0.00     0.049 A 
ATOM     50  C   UNL A   1      41.085  30.433  34.146  1.00  0.00     0.074 A 
ATOM     51  C   UNL A   1      43.897  26.399  30.142  1.00  0.00     0.029 A 
ATOM     52  N   UNL A   1      42.505  27.834  31.109  1.00  0.00    -0.354 N 
ATOM     53  N   UNL A   1      41.595  29.618  33.254  1.00  0.00    -0.248 NA
ATOM     54  C   UNL A   1      41.823  30.483  35.414  1.00  0.00     0.031 C 
ATOM     55  C   UNL A   1      44.326  26.611  31.458  1.00  0.00     0.029 A 
ATOM     56  C   UNL A   1      43.479  27.532  32.052  1.00  0.00     0.049 A 
ATOM     57  H   UNL A   1      41.756  28.457  31.254  1.00  0.00     0.167 HD
ATOM     58  C   UNL A   1      42.710  29.047  33.859  1.00  0.00     0.074 A 
ATOM     59  C   UNL A   1      42.820  29.643  35.175  1.00  0.00     0.031 C 
ATOM     60  C   UNL A   1      43.558  28.105  33.374  1.00  0.00     0.034 A 
BRANCH  47  61
ATOM     61  C   UNL A   1      42.262  26.307  27.576  1.00  0.00     0.023 A 
ATOM     62  C   UNL A   1      41.862  24.963  27.501  1.00  0.00     0.031 A 
ATOM     63  C   UNL A   1      43.045  26.819  26.522  1.00  0.00     0.131 A 
ATOM     64  C   UNL A   1      42.306  24.160  26.435  1.00  0.00     0.055 A 
ATOM     65  C   UNL A   1      43.414  26.038  25.426  1.00  0.00     0.041 A 
ATOM     66  F   UNL A   1      43.476  28.090  26.545  1.00  0.00    -0.206 F 
ATOM     67  C   UNL A   1      43.059  24.695  25.386  1.00  0.00     0.022 A 
BRANCH  64  68
ATOM     68  S   UNL A   1      42.020  22.370  26.513  1.00  0.00     0.124 S 
ATOM     69  O   UNL A   1      40.561  22.302  26.504  1.00  0.00    -0.237 OA
ATOM     70  O   UNL A   1      42.693  21.891  25.311  1.00  0.00    -0.237 OA
ATOM     71  O   UNL A   1      42.644  21.976  27.776  1.00  0.00    -0.744 OA
ENDBRANCH  64  68
ENDBRANCH  47  61
BRANCH  48  72
ATOM     72  C   UNL A   1      39.445  32.167  35.183  1.00  0.00     0.023 A 
ATOM     73  C   UNL A   1      38.692  31.653  36.249  1.00  0.00     0.031 A 
ATOM     74  C   UNL A   1      39.791  33.529  35.215  1.00  0.00     0.131 A 
ATOM     75  C   UNL A   1      38.295  32.499  37.295  1.00  0.00     0.055 A 
ATOM     76  C   UNL A   1      39.437  34.355  36.282  1.00  0.00     0.041 A 
ATOM     77  F   UNL A   1      40.510  34.071  34.219  1.00  0.00    -0.206 F 
ATOM     78  C   UNL A   1      38.676  33.842  37.328  1.00  0.00     0.022 A 
BRANCH  75  79
ATOM     79  S   UNL A   1      37.240  31.818  38.602  1.00  0.00     0.124 S 
ATOM     80  O   UNL A   1      36.081  32.701  38.538  1.00  0.00    -0.237 OA
ATOM     81  O   UNL A   1      37.030  30.450  38.136  1.00  0.00    -0.237 OA
ATOM     82  O   UNL A   1      38.061  31.947  39.804  1.00  0.00    -0.744 OA
ENDBRANCH  75  79
ENDBRANCH  48  72
BRANCH  60  83
ATOM     83  C   UNL A   1      44.682  27.675  34.283  1.00  0.00     0.023 A 
ATOM     84  C   UNL A   1      44.540  26.586  35.162  1.00  0.00     0.031 A 
ATOM     85  C   UNL A   1      45.897  28.382  34.296  1.00  0.00     0.131 A 
ATOM     86  C   UNL A   1      45.574  26.269  36.056  1.00  0.00     0.055 A 
ATOM     87  C   UNL A   1      46.943  28.028  35.149  1.00  0.00     0.041 A 
ATOM     88  F   UNL A   1      46.084  29.434  33.483  1.00  0.00    -0.206 F 
ATOM     89  C   UNL A   1      46.781  26.974  36.044  1.00  0.00     0.022 A 
BRANCH  86  90
ATOM     90  S   UNL A   1      45.286  24.981  37.300  1.00  0.00     0.124 S 
ATOM     91  O   UNL A   1      46.275  23.973  36.929  1.00  0.00    -0.237 OA
ATOM     92  O   UNL A   1      45.537  25.690  38.549  1.00  0.00    -0.237 OA
ATOM     93  O   UNL A   1      43.894  24.594  37.077  1.00  0.00    -0.744 OA
ENDBRANCH  86  90
ENDBRANCH  60  83
ENDBRANCH  34  35
ENDBRANCH  27  29
ENDBRANCH  26  27
ENDBRANCH   1  26
TORSDOF 16
ENDMDL
MODEL 2
REMARK VINA RESULT:     -11.9      5.096      7.956
REMARK SMILES CC1=C(C(=O)OCCOC(=O)c2ccc(-c3c4nc(c(-c5cc(S(=O)(=O)[O-])ccc5F)c5ccc([nH]5)c(-c5cc(S(=O)(=O)[O-])ccc5F)c5nc(c(-c6cc(S(=O)(=O)[O-])ccc6F)c6ccc3[nH]6)C=C5)C=C4)cc2)N2C(=O)[C@@H](NC(=O)c3ccn(C)n3)[C@H]2SC1
REMARK SMILES IDX 8 1 7 2 6 3 4 4 5 5 3 6 1 7 2 8 90 9 75 10 89 11 76 12 88 13
REMARK SMILES IDX 77 14 78 15 79 16 80 17 81 19 82 20 83 21 87 22 84 23 85 24
REMARK SMILES IDX 86 25 9 26 10 27 11 28 12 29 13 30 74 31 14 32 73 33 15 34
REMARK SMILES IDX 16 35 17 36 67 37 18 38 72 39 66 40 68 41 19 42 71 43 65 44
REMARK SMILES IDX 64 45 20 47 52 48 32 49 51 50 33 51 36 52 50 53 69 54 34 55
REMARK SMILES IDX 35 56 49 58 70 59 37 60 21 61 22 62 30 63 23 64 29 65 31 66
REMARK SMILES IDX 28 67 24 68 25 69 26 70 27 71 53 72 54 73 62 74 55 75 61 76
REMARK SMILES IDX 63 77 60 78 56 79 57 80 58 81 59 82 38 83 39 84 47 85 40 86
REMARK SMILES IDX 46 87 48 88 45 89 41 90 42 91 43 92 44 93
REMARK H PARENT 79 18 68 46 36 57
REMARK Flexibility Score: inf
ROOT
ATOM      1  C   UNL A   1      37.797  19.675  25.017  1.00  0.00     0.275 C 
ENDROOT
BRANCH   1   2
ATOM      2  C   UNL A   1      36.298  19.930  24.914  1.00  0.00     0.275 C 
BRANCH   2   3
ATOM      3  O   UNL A   1      35.906  21.059  25.724  1.00  0.00    -0.457 OA
BRANCH   3   4
ATOM      4  C   UNL A   1      34.574  21.159  25.957  1.00  0.00     0.355 C 
ATOM      5  O   UNL A   1      34.046  21.290  27.055  1.00  0.00    -0.244 OA
BRANCH   4   6
ATOM      6  C   UNL A   1      33.749  21.038  24.712  1.00  0.00     0.131 C 
ATOM      7  C   UNL A   1      33.172  18.619  25.133  1.00  0.00     0.043 C 
ATOM      8  C   UNL A   1      33.086  19.914  24.364  1.00  0.00    -0.032 C 
ATOM      9  C   UNL A   1      32.153  19.818  23.173  1.00  0.00     0.105 C 
ATOM     10  N   UNL A   1      33.497  22.221  24.091  1.00  0.00    -0.289 N 
ATOM     11  S   UNL A   1      32.124  21.234  22.044  1.00  0.00    -0.129 SA
ATOM     12  C   UNL A   1      34.305  23.012  23.333  1.00  0.00     0.253 C 
ATOM     13  C   UNL A   1      32.294  22.514  23.334  1.00  0.00     0.181 C 
ATOM     14  O   UNL A   1      35.483  22.959  23.086  1.00  0.00    -0.272 OA
ATOM     15  C   UNL A   1      33.040  23.833  22.911  1.00  0.00     0.206 C 
BRANCH  15  16
ATOM     16  N   UNL A   1      32.903  24.265  21.508  1.00  0.00    -0.336 N 
ATOM     17  C   UNL A   1      32.542  25.521  21.054  1.00  0.00     0.272 C 
ATOM     18  H   UNL A   1      33.088  23.585  20.820  1.00  0.00     0.164 HD
ATOM     19  O   UNL A   1      32.184  25.638  19.882  1.00  0.00    -0.267 OA
BRANCH  17  20
ATOM     20  C   UNL A   1      32.589  26.650  21.998  1.00  0.00     0.150 A 
ATOM     21  C   UNL A   1      33.655  27.574  22.186  1.00  0.00     0.056 A 
ATOM     22  N   UNL A   1      31.558  26.948  22.815  1.00  0.00    -0.168 NA
ATOM     23  C   UNL A   1      33.214  28.462  23.134  1.00  0.00     0.109 A 
ATOM     24  N   UNL A   1      31.930  28.101  23.410  1.00  0.00    -0.275 N 
ATOM     25  C   UNL A   1      30.999  28.833  24.237  1.00  0.00     0.173 C 
ENDBRANCH  17  20
ENDBRANCH  15  16
ENDBRANCH   4   6
ENDBRANCH   3   4
ENDBRANCH   2   3
ENDBRANCH   1   2
BRANCH   1  26
ATOM     26  O   UNL A   1      38.458  20.912  25.317  1.00  0.00    -0.458 OA
BRANCH  26  27
ATOM     27  C   UNL A   1      39.541  20.824  26.125  1.00  0.00     0.338 C 
ATOM     28  O   UNL A   1      40.119  19.801  26.453  1.00  0.00    -0.246 OA
BRANCH  27  29
ATOM     29  C   UNL A   1      39.915  22.175  26.600  1.00  0.00     0.060 A 
ATOM     30  C   UNL A   1      39.147  23.291  26.271  1.00  0.00     0.016 A 
ATOM     31  C   UNL A   1      41.107  22.343  27.305  1.00  0.00     0.016 A 
ATOM     32  C   UNL A   1      39.634  24.573  26.525  1.00  0.00     0.010 A 
ATOM     33  C   UNL A   1      41.531  23.627  27.666  1.00  0.00     0.010 A 
ATOM     34  C   UNL A   1      40.827  24.766  27.237  1.00  0.00    -0.014 A 
BRANCH  34  35
ATOM     35  C   UNL A   1      41.366  26.141  27.478  1.00  0.00     0.031 A 
ATOM     36  C   UNL A   1      42.662  26.576  26.832  1.00  0.00     0.074 A 
ATOM     37  C   UNL A   1      40.694  27.024  28.245  1.00  0.00     0.049 A 
ATOM     38  N   UNL A   1      43.403  27.627  27.084  1.00  0.00    -0.248 NA
ATOM     39  C   UNL A   1      43.207  25.701  25.784  1.00  0.00     0.031 C 
ATOM     40  C   UNL A   1      39.398  26.782  28.883  1.00  0.00     0.029 A 
ATOM     41  N   UNL A   1      40.988  28.321  28.590  1.00  0.00    -0.354 N 
ATOM     42  C   UNL A   1      44.547  27.485  26.302  1.00  0.00     0.074 A 
ATOM     43  C   UNL A   1      44.389  26.255  25.555  1.00  0.00     0.031 C 
ATOM     44  C   UNL A   1      38.971  27.914  29.459  1.00  0.00     0.029 A 
ATOM     45  C   UNL A   1      40.014  28.926  29.350  1.00  0.00     0.049 A 
ATOM     46  H   UNL A   1      41.820  28.773  28.320  1.00  0.00     0.167 HD
ATOM     47  C   UNL A   1      45.634  28.298  26.233  1.00  0.00     0.034 A 
ATOM     48  C   UNL A   1      39.976  30.141  29.931  1.00  0.00     0.034 A 
ATOM     49  C   UNL A   1      45.734  29.566  26.921  1.00  0.00     0.049 A 
ATOM     50  C   UNL A   1      41.184  31.030  29.841  1.00  0.00     0.074 A 
ATOM     51  C   UNL A   1      46.780  30.475  26.908  1.00  0.00     0.029 A 
ATOM     52  N   UNL A   1      44.747  30.116  27.728  1.00  0.00    -0.354 N 
ATOM     53  N   UNL A   1      42.312  30.828  29.203  1.00  0.00    -0.248 NA
ATOM     54  C   UNL A   1      41.126  32.296  30.583  1.00  0.00     0.031 C 
ATOM     55  C   UNL A   1      46.449  31.543  27.752  1.00  0.00     0.029 A 
ATOM     56  C   UNL A   1      45.167  31.337  28.237  1.00  0.00     0.049 A 
ATOM     57  H   UNL A   1      43.873  29.700  27.912  1.00  0.00     0.167 HD
ATOM     58  C   UNL A   1      43.105  31.938  29.476  1.00  0.00     0.074 A 
ATOM     59  C   UNL A   1      42.309  32.823  30.303  1.00  0.00     0.031 C 
ATOM     60  C   UNL A   1      44.380  32.195  29.089  1.00  0.00     0.034 A 
BRANCH  47  61
ATOM     61  C   UNL A   1      46.835  27.797  25.461  1.00  0.00     0.023 A 
ATOM     62  C   UNL A   1      47.076  28.135  24.119  1.00  0.00     0.031 A 
ATOM     63  C   UNL A   1      47.746  26.926  26.092  1.00  0.00     0.131 A 
ATOM     64  C   UNL A   1      48.155  27.548  23.434  1.00  0.00     0.055 A 
ATOM     65  C   UNL A   1      48.861  26.412  25.429  1.00  0.00     0.041 A 
ATOM     66  F   UNL A   1      47.559  26.549  27.367  1.00  0.00    -0.206 F 
ATOM     67  C   UNL A   1      49.061  26.708  24.086  1.00  0.00     0.022 A 
BRANCH  64  68
ATOM     68  S   UNL A   1      48.273  27.772  21.636  1.00  0.00     0.124 S 
ATOM     69  O   UNL A   1      49.299  28.806  21.533  1.00  0.00    -0.237 OA
ATOM     70  O   UNL A   1      48.653  26.441  21.178  1.00  0.00    -0.237 OA
ATOM     71  O   UNL A   1      46.928  28.203  21.255  1.00  0.00    -0.744 OA
ENDBRANCH  64  68
ENDBRANCH  47  61
BRANCH  48  72
ATOM     72  C   UNL A   1      38.775  30.565  30.705  1.00  0.00     0.023 A 
ATOM     73  C   UNL A   1      37.725  31.248  30.074  1.00  0.00     0.031 A 
ATOM     74  C   UNL A   1      38.660  30.304  32.082  1.00  0.00     0.131 A 
ATOM     75  C   UNL A   1      36.613  31.663  30.822  1.00  0.00     0.055 A 
ATOM     76  C   UNL A   1      37.529  30.674  32.811  1.00  0.00     0.041 A 
ATOM     77  F   UNL A   1      39.637  29.653  32.734  1.00  0.00    -0.206 F 
ATOM     78  C   UNL A   1      36.499  31.366  32.182  1.00  0.00     0.022 A 
BRANCH  75  79
ATOM     79  S   UNL A   1      35.325  32.630  29.989  1.00  0.00     0.124 S 
ATOM     80  O   UNL A   1      34.862  31.693  28.972  1.00  0.00    -0.237 OA
ATOM     81  O   UNL A   1      34.396  32.899  31.084  1.00  0.00    -0.237 OA
ATOM     82  O   UNL A   1      36.047  33.796  29.486  1.00  0.00    -0.744 OA
ENDBRANCH  75  79
ENDBRANCH  48  72
BRANCH  60  83
ATOM     83  C   UNL A   1      44.980  33.496  29.559  1.00  0.00     0.023 A 
ATOM     84  C   UNL A   1      44.845  34.680  28.811  1.00  0.00     0.031 A 
ATOM     85  C   UNL A   1      45.722  33.548  30.752  1.00  0.00     0.131 A 
ATOM     86  C   UNL A   1      45.490  35.852  29.234  1.00  0.00     0.055 A 
ATOM     87  C   UNL A   1      46.316  34.730  31.196  1.00  0.00     0.041 A 
ATOM     88  F   UNL A   1      45.887  32.447  31.502  1.00  0.00    -0.206 F 
ATOM     89  C   UNL A   1      46.212  35.888  30.429  1.00  0.00     0.022 A 
BRANCH  86  90
ATOM     90  S   UNL A   1      45.451  37.307  28.151  1.00  0.00     0.124 S 
ATOM     91  O   UNL A   1      44.048  37.702  28.222  1.00  0.00    -0.237 OA
ATOM     92  O   UNL A   1      46.400  38.205  28.800  1.00  0.00    -0.237 OA
ATOM     93  O   UNL A   1      45.882  36.782  26.856  1.00  0.00    -0.744 OA
ENDBRANCH  86  90
ENDBRANCH  60  83
ENDBRANCH  34  35
ENDBRANCH  27  29
ENDBRANCH  26  27
ENDBRANCH   1  26
TORSDOF 16
ENDMDL
MODEL 3
REMARK VINA RESULT:     -11.9      1.669      1.991
REMARK SMILES CC1=C(C(=O)OCCOC(=O)c2ccc(-c3c4nc(c(-c5cc(S(=O)(=O)[O-])ccc5F)c5ccc([nH]5)c(-c5cc(S(=O)(=O)[O-])ccc5F)c5nc(c(-c6cc(S(=O)(=O)[O-])ccc6F)c6ccc3[nH]6)C=C5)C=C4)cc2)N2C(=O)[C@@H](NC(=O)c3ccn(C)n3)[C@H]2SC1
REMARK SMILES IDX 8 1 7 2 6 3 4 4 5 5 3 6 1 7 2 8 90 9 75 10 89 11 76 12 88 13
REMARK SMILES IDX 77 14 78 15 79 16 80 17 81 19 82 20 83 21 87 22 84 23 85 24
REMARK SMILES IDX 86 25 9 26 10 27 11 28 12 29 13 30 74 31 14 32 73 33 15 34
REMARK SMILES IDX 16 35 17 36 67 37 18 38 72 39 66 40 68 41 19 42 71 43 65 44
REMARK SMILES IDX 64 45 20 47 52 48 32 49 51 50 33 51 36 52 50 53 69 54 34 55
REMARK SMILES IDX 35 56 49 58 70 59 37 60 21 61 22 62 30 63 23 64 29 65 31 66
REMARK SMILES IDX 28 67 24 68 25 69 26 70 27 71 53 72 54 73 62 74 55 75 61 76
REMARK SMILES IDX 63 77 60 78 56 79 57 80 58 81 59 82 38 83 39 84 47 85 40 86
REMARK SMILES IDX 46 87 48 88 45 89 41 90 42 91 43 92 44 93
REMARK H PARENT 79 18 68 46 36 57
REMARK Flexibility Score: inf
ROOT
ATOM      1  C   UNL A   1      32.016  30.046  25.491  1.00  0.00     0.275 C 
ENDROOT
BRANCH   1   2
ATOM      2  C   UNL A   1      32.417  28.672  24.970  1.00  0.00     0.275 C 
BRANCH   2   3
ATOM      3  O   UNL A   1      32.536  27.722  26.050  1.00  0.00    -0.457 OA
BRANCH   3   4
ATOM      4  C   UNL A   1      31.418  26.994  26.296  1.00  0.00     0.355 C 
ATOM      5  O   UNL A   1      30.625  27.185  27.210  1.00  0.00    -0.244 OA
BRANCH   4   6
ATOM      6  C   UNL A   1      31.246  25.844  25.350  1.00  0.00     0.131 C 
ATOM      7  C   UNL A   1      29.623  27.089  23.874  1.00  0.00     0.043 C 
ATOM      8  C   UNL A   1      30.477  25.901  24.242  1.00  0.00    -0.032 C 
ATOM      9  C   UNL A   1      30.390  24.788  23.216  1.00  0.00     0.105 C 
ATOM     10  N   UNL A   1      32.127  24.827  25.540  1.00  0.00    -0.289 N 
ATOM     11  S   UNL A   1      31.195  23.223  23.641  1.00  0.00    -0.129 SA
ATOM     12  C   UNL A   1      32.178  23.868  26.505  1.00  0.00     0.253 C 
ATOM     13  C   UNL A   1      32.632  23.966  24.486  1.00  0.00     0.181 C 
ATOM     14  O   UNL A   1      31.539  23.706  27.514  1.00  0.00    -0.272 OA
ATOM     15  C   UNL A   1      33.264  23.126  25.656  1.00  0.00     0.206 C 
BRANCH  15  16
ATOM     16  N   UNL A   1      33.201  21.656  25.541  1.00  0.00    -0.336 N 
ATOM     17  C   UNL A   1      34.166  20.820  25.007  1.00  0.00     0.272 C 
ATOM     18  H   UNL A   1      32.384  21.225  25.879  1.00  0.00     0.164 HD
ATOM     19  O   UNL A   1      33.843  19.670  24.711  1.00  0.00    -0.267 OA
BRANCH  17  20
ATOM     20  C   UNL A   1      35.524  21.352  24.805  1.00  0.00     0.150 A 
ATOM     21  C   UNL A   1      35.945  22.295  23.827  1.00  0.00     0.056 A 
ATOM     22  N   UNL A   1      36.562  20.987  25.585  1.00  0.00    -0.168 NA
ATOM     23  C   UNL A   1      37.279  22.508  24.066  1.00  0.00     0.109 A 
ATOM     24  N   UNL A   1      37.577  21.776  25.176  1.00  0.00    -0.275 N 
ATOM     25  C   UNL A   1      38.826  21.801  25.902  1.00  0.00     0.173 C 
ENDBRANCH  17  20
ENDBRANCH  15  16
ENDBRANCH   4   6
ENDBRANCH   3   4
ENDBRANCH   2   3
ENDBRANCH   1   2
BRANCH   1  26
ATOM     26  O   UNL A   1      32.447  30.170  26.853  1.00  0.00    -0.458 OA
BRANCH  26  27
ATOM     27  C   UNL A   1      33.095  31.317  27.168  1.00  0.00     0.338 C 
ATOM     28  O   UNL A   1      32.671  32.451  27.023  1.00  0.00    -0.246 OA
BRANCH  27  29
ATOM     29  C   UNL A   1      34.443  30.997  27.688  1.00  0.00     0.060 A 
ATOM     30  C   UNL A   1      34.799  29.687  28.006  1.00  0.00     0.016 A 
ATOM     31  C   UNL A   1      35.333  32.037  27.956  1.00  0.00     0.016 A 
ATOM     32  C   UNL A   1      35.977  29.434  28.708  1.00  0.00     0.010 A 
ATOM     33  C   UNL A   1      36.570  31.762  28.551  1.00  0.00     0.010 A 
ATOM     34  C   UNL A   1      36.890  30.463  28.984  1.00  0.00    -0.014 A 
BRANCH  34  35
ATOM     35  C   UNL A   1      38.136  30.197  29.768  1.00  0.00     0.031 A 
ATOM     36  C   UNL A   1      39.283  29.437  29.143  1.00  0.00     0.074 A 
ATOM     37  C   UNL A   1      38.271  30.657  31.030  1.00  0.00     0.049 A 
ATOM     38  N   UNL A   1      40.342  28.917  29.713  1.00  0.00    -0.248 NA
ATOM     39  C   UNL A   1      39.215  29.210  27.692  1.00  0.00     0.031 C 
ATOM     40  C   UNL A   1      37.285  31.464  31.751  1.00  0.00     0.029 A 
ATOM     41  N   UNL A   1      39.311  30.543  31.920  1.00  0.00    -0.354 N 
ATOM     42  C   UNL A   1      41.011  28.217  28.711  1.00  0.00     0.074 A 
ATOM     43  C   UNL A   1      40.244  28.398  27.496  1.00  0.00     0.031 C 
ATOM     44  C   UNL A   1      37.802  31.846  32.927  1.00  0.00     0.029 A 
ATOM     45  C   UNL A   1      39.101  31.208  33.106  1.00  0.00     0.049 A 
ATOM     46  H   UNL A   1      40.131  30.033  31.727  1.00  0.00     0.167 HD
ATOM     47  C   UNL A   1      42.147  27.478  28.806  1.00  0.00     0.034 A 
ATOM     48  C   UNL A   1      39.841  31.266  34.229  1.00  0.00     0.034 A 
ATOM     49  C   UNL A   1      42.946  27.381  30.008  1.00  0.00     0.049 A 
ATOM     50  C   UNL A   1      41.099  30.447  34.317  1.00  0.00     0.074 A 
ATOM     51  C   UNL A   1      44.121  26.676  30.209  1.00  0.00     0.029 A 
ATOM     52  N   UNL A   1      42.664  28.025  31.205  1.00  0.00    -0.354 N 
ATOM     53  N   UNL A   1      41.653  29.686  33.402  1.00  0.00    -0.248 NA
ATOM     54  C   UNL A   1      41.808  30.465  35.601  1.00  0.00     0.031 C 
ATOM     55  C   UNL A   1      44.516  26.845  31.542  1.00  0.00     0.029 A 
ATOM     56  C   UNL A   1      43.627  27.714  32.155  1.00  0.00     0.049 A 
ATOM     57  H   UNL A   1      41.892  28.618  31.359  1.00  0.00     0.167 HD
ATOM     58  C   UNL A   1      42.773  29.125  34.007  1.00  0.00     0.074 A 
ATOM     59  C   UNL A   1      42.837  29.668  35.349  1.00  0.00     0.031 C 
ATOM     60  C   UNL A   1      43.661  28.232  33.502  1.00  0.00     0.034 A 
BRANCH  47  61
ATOM     61  C   UNL A   1      42.542  26.643  27.607  1.00  0.00     0.023 A 
ATOM     62  C   UNL A   1      42.327  25.257  27.536  1.00  0.00     0.031 A 
ATOM     63  C   UNL A   1      43.187  27.263  26.517  1.00  0.00     0.131 A 
ATOM     64  C   UNL A   1      42.816  24.529  26.437  1.00  0.00     0.055 A 
ATOM     65  C   UNL A   1      43.597  26.546  25.393  1.00  0.00     0.041 A 
ATOM     66  F   UNL A   1      43.440  28.582  26.533  1.00  0.00    -0.206 F 
ATOM     67  C   UNL A   1      43.427  25.167  25.355  1.00  0.00     0.022 A 
BRANCH  64  68
ATOM     68  S   UNL A   1      42.782  22.715  26.507  1.00  0.00     0.124 S 
ATOM     69  O   UNL A   1      42.265  22.377  25.184  1.00  0.00    -0.237 OA
ATOM     70  O   UNL A   1      44.181  22.384  26.755  1.00  0.00    -0.237 OA
ATOM     71  O   UNL A   1      41.868  22.431  27.613  1.00  0.00    -0.744 OA
ENDBRANCH  64  68
ENDBRANCH  47  61
BRANCH  48  72
ATOM     72  C   UNL A   1      39.383  32.083  35.389  1.00  0.00     0.023 A 
ATOM     73  C   UNL A   1      39.828  33.403  35.551  1.00  0.00     0.031 A 
ATOM     74  C   UNL A   1      38.506  31.558  36.354  1.00  0.00     0.131 A 
ATOM     75  C   UNL A   1      39.408  34.150  36.662  1.00  0.00     0.055 A 
ATOM     76  C   UNL A   1      38.051  32.321  37.430  1.00  0.00     0.041 A 
ATOM     77  F   UNL A   1      38.051  30.299  36.246  1.00  0.00    -0.206 F 
ATOM     78  C   UNL A   1      38.509  33.624  37.593  1.00  0.00     0.022 A 
BRANCH  75  79
ATOM     79  S   UNL A   1      40.083  35.817  36.887  1.00  0.00     0.124 S 
ATOM     80  O   UNL A   1      39.507  36.199  38.171  1.00  0.00    -0.237 OA
ATOM     81  O   UNL A   1      41.521  35.562  36.880  1.00  0.00    -0.237 OA
ATOM     82  O   UNL A   1      39.576  36.549  35.729  1.00  0.00    -0.744 OA
ENDBRANCH  75  79
ENDBRANCH  48  72
BRANCH  60  83
ATOM     83  C   UNL A   1      44.779  27.799  34.417  1.00  0.00     0.023 A 
ATOM     84  C   UNL A   1      44.647  26.681  35.260  1.00  0.00     0.031 A 
ATOM     85  C   UNL A   1      45.978  28.531  34.470  1.00  0.00     0.131 A 
ATOM     86  C   UNL A   1      45.673  26.360  36.161  1.00  0.00     0.055 A 
ATOM     87  C   UNL A   1      47.017  28.174  35.330  1.00  0.00     0.041 A 
ATOM     88  F   UNL A   1      46.155  29.610  33.692  1.00  0.00    -0.206 F 
ATOM     89  C   UNL A   1      46.864  27.090  36.191  1.00  0.00     0.022 A 
BRANCH  86  90
ATOM     90  S   UNL A   1      45.393  25.029  37.362  1.00  0.00     0.124 S 
ATOM     91  O   UNL A   1      46.681  24.962  38.047  1.00  0.00    -0.237 OA
ATOM     92  O   UNL A   1      44.279  25.546  38.148  1.00  0.00    -0.237 OA
ATOM     93  O   UNL A   1      45.076  23.873  36.525  1.00  0.00    -0.744 OA
ENDBRANCH  86  90
ENDBRANCH  60  83
ENDBRANCH  34  35
ENDBRANCH  27  29
ENDBRANCH  26  27
ENDBRANCH   1  26
TORSDOF 16
ENDMDL
