MODEL 1
REMARK VINA RESULT:     -10.5      0.000      0.000
REMARK SMILES Cc1ccc(S(=O)(=O)N[C@H]2C=C[C@@H](C(=O)OCCOC(=O)c3ccc(-c4c5nc(c(-c6cc(S(=O)(=O)[O-])ccc6F)c6ccc([nH]6)c(-c6cc(S(=O)(=O)[O-])ccc6F)c6nc(c(-c7cc(S(=O)(=O)[O-])ccc7F)c7ccc4[nH]7)C=C6)C=C5)cc3)C2)c(C)c1
REMARK SMILES IDX 17 1 16 2 14 3 15 4 13 5 10 6 11 7 85 8 12 9 9 10 6 12 7 13
REMARK SMILES IDX 8 14 5 15 1 16 2 17 3 18 88 19 4 20 86 21 87 22 18 23 19 24
REMARK SMILES IDX 20 25 21 26 22 27 23 28 84 29 24 30 83 31 25 32 26 33 27 34
REMARK SMILES IDX 77 35 28 36 82 37 76 38 78 39 29 40 81 41 75 42 74 43 30 45
REMARK SMILES IDX 62 46 42 47 61 48 43 49 46 50 60 51 79 52 44 53 45 54 59 56
REMARK SMILES IDX 80 57 47 58 31 59 32 60 40 61 33 62 39 63 41 64 38 65 34 66
REMARK SMILES IDX 35 67 36 68 37 69 63 70 64 71 72 72 65 73 71 74 73 75 70 76
REMARK SMILES IDX 66 77 67 78 68 79 69 80 48 81 49 82 57 83 50 84 56 85 58 86
REMARK SMILES IDX 55 87 51 88 52 89 53 90 54 91
REMARK H PARENT 9 11 78 44 46 55
REMARK Flexibility Score: inf
ROOT
ATOM      1  C   UNL A   1      41.259  19.607  26.764  1.00  0.00     0.274 C 
ENDROOT
BRANCH   1   2
ATOM      2  O   UNL A   1      41.842  18.739  25.777  1.00  0.00    -0.462 OA
BRANCH   2   3
ATOM      3  C   UNL A   1      43.149  18.412  25.944  1.00  0.00     0.312 C 
ATOM      4  O   UNL A   1      43.550  17.504  26.664  1.00  0.00    -0.252 OA
BRANCH   3   5
ATOM      5  C   UNL A   1      44.090  19.262  25.099  1.00  0.00     0.123 C 
ATOM      6  C   UNL A   1      45.636  21.149  25.165  1.00  0.00     0.093 C 
ATOM      7  C   UNL A   1      46.347  19.840  25.191  1.00  0.00    -0.011 C 
ATOM      8  C   UNL A   1      44.175  20.755  25.420  1.00  0.00     0.043 C 
ATOM      9  C   UNL A   1      45.506  18.802  25.181  1.00  0.00    -0.015 C 
BRANCH   6  10
ATOM     10  N   UNL A   1      46.050  22.090  26.196  1.00  0.00    -0.204 NA
ATOM     11  H   UNL A   1      45.494  21.849  27.016  1.00  0.00     0.142 HD
BRANCH  10  12
ATOM     12  S   UNL A   1      45.978  23.750  26.091  1.00  0.00     0.241 S 
ATOM     13  O   UNL A   1      44.940  24.076  25.132  1.00  0.00    -0.207 OA
ATOM     14  O   UNL A   1      47.338  24.195  25.899  1.00  0.00    -0.207 OA
BRANCH  12  15
ATOM     15  C   UNL A   1      45.472  24.318  27.706  1.00  0.00     0.085 A 
ATOM     16  C   UNL A   1      44.492  25.493  31.737  1.00  0.00     0.044 C 
ATOM     17  C   UNL A   1      44.844  25.093  30.336  1.00  0.00    -0.051 A 
ATOM     18  C   UNL A   1      46.093  25.398  29.795  1.00  0.00     0.005 A 
ATOM     19  C   UNL A   1      43.898  24.439  29.535  1.00  0.00     0.008 A 
ATOM     20  C   UNL A   1      46.401  25.022  28.488  1.00  0.00     0.022 A 
ATOM     21  C   UNL A   1      44.187  24.054  28.211  1.00  0.00    -0.031 A 
ATOM     22  C   UNL A   1      43.072  23.406  27.437  1.00  0.00     0.046 C 
ENDBRANCH  12  15
ENDBRANCH  10  12
ENDBRANCH   6  10
ENDBRANCH   3   5
ENDBRANCH   2   3
ENDBRANCH   1   2
BRANCH   1  23
ATOM     23  C   UNL A   1      40.257  20.562  26.109  1.00  0.00     0.275 C 
BRANCH  23  24
ATOM     24  O   UNL A   1      40.109  21.789  26.853  1.00  0.00    -0.458 OA
BRANCH  24  25
ATOM     25  C   UNL A   1      39.192  22.650  26.353  1.00  0.00     0.338 C 
ATOM     26  O   UNL A   1      38.237  22.377  25.644  1.00  0.00    -0.246 OA
BRANCH  25  27
ATOM     27  C   UNL A   1      39.404  24.002  26.895  1.00  0.00     0.060 A 
ATOM     28  C   UNL A   1      39.816  24.992  26.005  1.00  0.00     0.016 A 
ATOM     29  C   UNL A   1      39.341  24.271  28.260  1.00  0.00     0.016 A 
ATOM     30  C   UNL A   1      40.205  26.242  26.464  1.00  0.00     0.010 A 
ATOM     31  C   UNL A   1      39.695  25.547  28.722  1.00  0.00     0.010 A 
ATOM     32  C   UNL A   1      40.147  26.538  27.828  1.00  0.00    -0.014 A 
BRANCH  32  33
ATOM     33  C   UNL A   1      40.601  27.872  28.300  1.00  0.00     0.031 A 
ATOM     34  C   UNL A   1      42.059  28.231  28.244  1.00  0.00     0.074 A 
ATOM     35  C   UNL A   1      39.694  28.778  28.720  1.00  0.00     0.049 A 
ATOM     36  N   UNL A   1      42.668  29.295  28.700  1.00  0.00    -0.248 NA
ATOM     37  C   UNL A   1      42.952  27.265  27.586  1.00  0.00     0.031 C 
ATOM     38  C   UNL A   1      38.244  28.571  28.745  1.00  0.00     0.029 A 
ATOM     39  N   UNL A   1      39.853  30.054  29.199  1.00  0.00    -0.354 N 
ATOM     40  C   UNL A   1      44.015  29.120  28.404  1.00  0.00     0.074 A 
ATOM     41  C   UNL A   1      44.138  27.834  27.753  1.00  0.00     0.031 C 
ATOM     42  C   UNL A   1      37.648  29.685  29.199  1.00  0.00     0.029 A 
ATOM     43  C   UNL A   1      38.672  30.653  29.574  1.00  0.00     0.049 A 
ATOM     44  H   UNL A   1      40.728  30.499  29.266  1.00  0.00     0.167 HD
ATOM     45  C   UNL A   1      45.050  29.962  28.650  1.00  0.00     0.034 A 
ATOM     46  C   UNL A   1      38.444  31.829  30.194  1.00  0.00     0.034 A 
ATOM     47  C   UNL A   1      44.906  31.245  29.295  1.00  0.00     0.049 A 
ATOM     48  C   UNL A   1      39.625  32.698  30.547  1.00  0.00     0.074 A 
ATOM     49  C   UNL A   1      45.890  32.165  29.616  1.00  0.00     0.029 A 
ATOM     50  N   UNL A   1      43.700  31.795  29.712  1.00  0.00    -0.354 N 
ATOM     51  N   UNL A   1      40.901  32.496  30.307  1.00  0.00    -0.248 NA
ATOM     52  C   UNL A   1      39.337  33.953  31.254  1.00  0.00     0.031 C 
ATOM     53  C   UNL A   1      45.289  33.239  30.280  1.00  0.00     0.029 A 
ATOM     54  C   UNL A   1      43.920  33.029  30.305  1.00  0.00     0.049 A 
ATOM     55  H   UNL A   1      42.819  31.371  29.602  1.00  0.00     0.167 HD
ATOM     56  C   UNL A   1      41.560  33.617  30.804  1.00  0.00     0.074 A 
ATOM     57  C   UNL A   1      40.541  34.498  31.334  1.00  0.00     0.031 C 
ATOM     58  C   UNL A   1      42.889  33.895  30.825  1.00  0.00     0.034 A 
BRANCH  45  59
ATOM     59  C   UNL A   1      46.434  29.499  28.265  1.00  0.00     0.023 A 
ATOM     60  C   UNL A   1      47.244  28.767  29.149  1.00  0.00     0.031 A 
ATOM     61  C   UNL A   1      46.950  29.796  26.990  1.00  0.00     0.131 A 
ATOM     62  C   UNL A   1      48.545  28.401  28.768  1.00  0.00     0.055 A 
ATOM     63  C   UNL A   1      48.217  29.367  26.590  1.00  0.00     0.041 A 
ATOM     64  F   UNL A   1      46.231  30.513  26.111  1.00  0.00    -0.206 F 
ATOM     65  C   UNL A   1      49.027  28.673  27.484  1.00  0.00     0.022 A 
BRANCH  62  66
ATOM     66  S   UNL A   1      49.640  27.662  30.010  1.00  0.00     0.124 S 
ATOM     67  O   UNL A   1      50.773  28.584  29.989  1.00  0.00    -0.237 OA
ATOM     68  O   UNL A   1      48.818  27.689  31.213  1.00  0.00    -0.237 OA
ATOM     69  O   UNL A   1      49.919  26.331  29.474  1.00  0.00    -0.744 OA
ENDBRANCH  62  66
ENDBRANCH  45  59
BRANCH  46  70
ATOM     70  C   UNL A   1      37.061  32.233  30.587  1.00  0.00     0.023 A 
ATOM     71  C   UNL A   1      36.174  32.792  29.653  1.00  0.00     0.031 A 
ATOM     72  C   UNL A   1      36.635  32.152  31.926  1.00  0.00     0.131 A 
ATOM     73  C   UNL A   1      34.942  33.311  30.080  1.00  0.00     0.055 A 
ATOM     74  C   UNL A   1      35.378  32.603  32.333  1.00  0.00     0.041 A 
ATOM     75  F   UNL A   1      37.442  31.634  32.868  1.00  0.00    -0.206 F 
ATOM     76  C   UNL A   1      34.532  33.206  31.410  1.00  0.00     0.022 A 
BRANCH  73  77
ATOM     77  S   UNL A   1      33.944  34.255  28.894  1.00  0.00     0.124 S 
ATOM     78  O   UNL A   1      34.879  35.298  28.487  1.00  0.00    -0.237 OA
ATOM     79  O   UNL A   1      33.635  33.244  27.889  1.00  0.00    -0.237 OA
ATOM     80  O   UNL A   1      32.808  34.709  29.693  1.00  0.00    -0.744 OA
ENDBRANCH  73  77
ENDBRANCH  46  70
BRANCH  58  81
ATOM     81  C   UNL A   1      43.297  35.236  31.386  1.00  0.00     0.023 A 
ATOM     82  C   UNL A   1      43.497  36.355  30.559  1.00  0.00     0.031 A 
ATOM     83  C   UNL A   1      43.513  35.386  32.767  1.00  0.00     0.131 A 
ATOM     84  C   UNL A   1      43.963  37.557  31.112  1.00  0.00     0.055 A 
ATOM     85  C   UNL A   1      43.914  36.602  33.319  1.00  0.00     0.041 A 
ATOM     86  F   UNL A   1      43.339  34.350  33.602  1.00  0.00    -0.206 F 
ATOM     87  C   UNL A   1      44.157  37.693  32.489  1.00  0.00     0.022 A 
BRANCH  84  88
ATOM     88  S   UNL A   1      44.411  38.913  29.994  1.00  0.00     0.124 S 
ATOM     89  O   UNL A   1      43.276  38.937  29.076  1.00  0.00    -0.237 OA
ATOM     90  O   UNL A   1      44.518  40.047  30.905  1.00  0.00    -0.237 OA
ATOM     91  O   UNL A   1      45.674  38.471  29.406  1.00  0.00    -0.744 OA
ENDBRANCH  84  88
ENDBRANCH  58  81
ENDBRANCH  32  33
ENDBRANCH  25  27
ENDBRANCH  24  25
ENDBRANCH  23  24
ENDBRANCH   1  23
TORSDOF 17
ENDMDL
MODEL 2
REMARK VINA RESULT:     -10.3      4.412     10.332
REMARK SMILES Cc1ccc(S(=O)(=O)N[C@H]2C=C[C@@H](C(=O)OCCOC(=O)c3ccc(-c4c5nc(c(-c6cc(S(=O)(=O)[O-])ccc6F)c6ccc([nH]6)c(-c6cc(S(=O)(=O)[O-])ccc6F)c6nc(c(-c7cc(S(=O)(=O)[O-])ccc7F)c7ccc4[nH]7)C=C6)C=C5)cc3)C2)c(C)c1
REMARK SMILES IDX 17 1 16 2 14 3 15 4 13 5 10 6 11 7 85 8 12 9 9 10 6 12 7 13
REMARK SMILES IDX 8 14 5 15 1 16 2 17 3 18 88 19 4 20 86 21 87 22 18 23 19 24
REMARK SMILES IDX 20 25 21 26 22 27 23 28 84 29 24 30 83 31 25 32 26 33 27 34
REMARK SMILES IDX 77 35 28 36 82 37 76 38 78 39 29 40 81 41 75 42 74 43 30 45
REMARK SMILES IDX 62 46 42 47 61 48 43 49 46 50 60 51 79 52 44 53 45 54 59 56
REMARK SMILES IDX 80 57 47 58 31 59 32 60 40 61 33 62 39 63 41 64 38 65 34 66
REMARK SMILES IDX 35 67 36 68 37 69 63 70 64 71 72 72 65 73 71 74 73 75 70 76
REMARK SMILES IDX 66 77 67 78 68 79 69 80 48 81 49 82 57 83 50 84 56 85 58 86
REMARK SMILES IDX 55 87 51 88 52 89 53 90 54 91
REMARK H PARENT 9 11 78 44 46 55
REMARK Flexibility Score: inf
ROOT
ATOM      1  C   UNL A   1      36.036  19.947  25.003  1.00  0.00     0.274 C 
ENDROOT
BRANCH   1   2
ATOM      2  O   UNL A   1      34.830  20.715  25.157  1.00  0.00    -0.462 OA
BRANCH   2   3
ATOM      3  C   UNL A   1      33.680  20.146  24.712  1.00  0.00     0.312 C 
ATOM      4  O   UNL A   1      33.556  18.957  24.436  1.00  0.00    -0.252 OA
BRANCH   3   5
ATOM      5  C   UNL A   1      32.519  21.130  24.631  1.00  0.00     0.123 C 
ATOM      6  C   UNL A   1      31.944  23.501  24.597  1.00  0.00     0.093 C 
ATOM      7  C   UNL A   1      31.932  22.902  23.234  1.00  0.00    -0.011 C 
ATOM      8  C   UNL A   1      32.626  22.420  25.446  1.00  0.00     0.043 C 
ATOM      9  C   UNL A   1      32.272  21.610  23.241  1.00  0.00    -0.015 C 
BRANCH   6  10
ATOM     10  N   UNL A   1      32.706  24.735  24.717  1.00  0.00    -0.204 NA
ATOM     11  H   UNL A   1      33.646  24.444  24.986  1.00  0.00     0.142 HD
BRANCH  10  12
ATOM     12  S   UNL A   1      32.342  26.018  25.714  1.00  0.00     0.241 S 
ATOM     13  O   UNL A   1      33.600  26.586  26.160  1.00  0.00    -0.207 OA
ATOM     14  O   UNL A   1      31.370  25.522  26.660  1.00  0.00    -0.207 OA
BRANCH  12  15
ATOM     15  C   UNL A   1      31.501  27.210  24.686  1.00  0.00     0.085 A 
ATOM     16  C   UNL A   1      29.712  30.041  21.970  1.00  0.00     0.044 C 
ATOM     17  C   UNL A   1      30.329  29.046  22.906  1.00  0.00    -0.051 A 
ATOM     18  C   UNL A   1      30.444  27.702  22.550  1.00  0.00     0.005 A 
ATOM     19  C   UNL A   1      30.762  29.453  24.176  1.00  0.00     0.008 A 
ATOM     20  C   UNL A   1      31.017  26.790  23.437  1.00  0.00     0.022 A 
ATOM     21  C   UNL A   1      31.340  28.547  25.087  1.00  0.00    -0.031 A 
ATOM     22  C   UNL A   1      31.717  29.095  26.436  1.00  0.00     0.046 C 
ENDBRANCH  12  15
ENDBRANCH  10  12
ENDBRANCH   6  10
ENDBRANCH   3   5
ENDBRANCH   2   3
ENDBRANCH   1   2
BRANCH   1  23
ATOM     23  C   UNL A   1      37.208  20.861  24.638  1.00  0.00     0.275 C 
BRANCH  23  24
ATOM     24  O   UNL A   1      37.675  21.626  25.769  1.00  0.00    -0.458 OA
BRANCH  24  25
ATOM     25  C   UNL A   1      38.955  21.378  26.133  1.00  0.00     0.338 C 
ATOM     26  O   UNL A   1      39.585  20.349  25.950  1.00  0.00    -0.246 OA
BRANCH  25  27
ATOM     27  C   UNL A   1      39.579  22.592  26.683  1.00  0.00     0.060 A 
ATOM     28  C   UNL A   1      39.174  23.816  26.153  1.00  0.00     0.016 A 
ATOM     29  C   UNL A   1      40.632  22.537  27.592  1.00  0.00     0.016 A 
ATOM     30  C   UNL A   1      39.836  24.988  26.489  1.00  0.00     0.010 A 
ATOM     31  C   UNL A   1      41.276  23.726  27.965  1.00  0.00     0.010 A 
ATOM     32  C   UNL A   1      40.893  24.960  27.402  1.00  0.00    -0.014 A 
BRANCH  32  33
ATOM     33  C   UNL A   1      41.608  26.223  27.721  1.00  0.00     0.031 A 
ATOM     34  C   UNL A   1      40.931  27.280  28.548  1.00  0.00     0.074 A 
ATOM     35  C   UNL A   1      42.884  26.390  27.317  1.00  0.00     0.049 A 
ATOM     36  N   UNL A   1      41.341  28.486  28.847  1.00  0.00    -0.248 NA
ATOM     37  C   UNL A   1      39.620  26.934  29.117  1.00  0.00     0.031 C 
ATOM     38  C   UNL A   1      43.671  25.401  26.576  1.00  0.00     0.029 A 
ATOM     39  N   UNL A   1      43.747  27.446  27.478  1.00  0.00    -0.354 N 
ATOM     40  C   UNL A   1      40.332  29.051  29.620  1.00  0.00     0.074 A 
ATOM     41  C   UNL A   1      39.278  28.063  29.721  1.00  0.00     0.031 C 
ATOM     42  C   UNL A   1      44.902  25.891  26.360  1.00  0.00     0.029 A 
ATOM     43  C   UNL A   1      44.969  27.255  26.873  1.00  0.00     0.049 A 
ATOM     44  H   UNL A   1      43.515  28.260  27.979  1.00  0.00     0.167 HD
ATOM     45  C   UNL A   1      40.296  30.279  30.195  1.00  0.00     0.034 A 
ATOM     46  C   UNL A   1      46.007  28.099  26.709  1.00  0.00     0.034 A 
ATOM     47  C   UNL A   1      41.360  31.247  30.088  1.00  0.00     0.049 A 
ATOM     48  C   UNL A   1      45.896  29.495  27.273  1.00  0.00     0.074 A 
ATOM     49  C   UNL A   1      41.417  32.529  30.609  1.00  0.00     0.029 A 
ATOM     50  N   UNL A   1      42.561  31.039  29.420  1.00  0.00    -0.354 N 
ATOM     51  N   UNL A   1      44.913  30.034  27.958  1.00  0.00    -0.248 NA
ATOM     52  C   UNL A   1      47.033  30.396  27.041  1.00  0.00     0.031 C 
ATOM     53  C   UNL A   1      42.621  33.115  30.205  1.00  0.00     0.029 A 
ATOM     54  C   UNL A   1      43.352  32.176  29.499  1.00  0.00     0.049 A 
ATOM     55  H   UNL A   1      42.814  30.207  28.959  1.00  0.00     0.167 HD
ATOM     56  C   UNL A   1      45.333  31.325  28.267  1.00  0.00     0.074 A 
ATOM     57  C   UNL A   1      46.662  31.474  27.714  1.00  0.00     0.031 C 
ATOM     58  C   UNL A   1      44.679  32.303  28.944  1.00  0.00     0.034 A 
BRANCH  45  59
ATOM     59  C   UNL A   1      39.045  30.661  30.948  1.00  0.00     0.023 A 
ATOM     60  C   UNL A   1      37.980  31.332  30.325  1.00  0.00     0.031 A 
ATOM     61  C   UNL A   1      38.918  30.346  32.314  1.00  0.00     0.131 A 
ATOM     62  C   UNL A   1      36.858  31.715  31.076  1.00  0.00     0.055 A 
ATOM     63  C   UNL A   1      37.768  30.665  33.038  1.00  0.00     0.041 A 
ATOM     64  F   UNL A   1      39.912  29.727  32.968  1.00  0.00    -0.206 F 
ATOM     65  C   UNL A   1      36.733  31.362  32.423  1.00  0.00     0.022 A 
BRANCH  62  66
ATOM     66  S   UNL A   1      35.611  32.777  30.298  1.00  0.00     0.124 S 
ATOM     67  O   UNL A   1      35.648  32.310  28.914  1.00  0.00    -0.237 OA
ATOM     68  O   UNL A   1      34.405  32.452  31.049  1.00  0.00    -0.237 OA
ATOM     69  O   UNL A   1      36.132  34.127  30.506  1.00  0.00    -0.744 OA
ENDBRANCH  62  66
ENDBRANCH  45  59
BRANCH  46  70
ATOM     70  C   UNL A   1      47.213  27.691  25.928  1.00  0.00     0.023 A 
ATOM     71  C   UNL A   1      47.334  28.004  24.565  1.00  0.00     0.031 A 
ATOM     72  C   UNL A   1      48.222  26.903  26.511  1.00  0.00     0.131 A 
ATOM     73  C   UNL A   1      48.395  27.473  23.816  1.00  0.00     0.055 A 
ATOM     74  C   UNL A   1      49.316  26.439  25.778  1.00  0.00     0.041 A 
ATOM     75  F   UNL A   1      48.158  26.565  27.809  1.00  0.00    -0.206 F 
ATOM     76  C   UNL A   1      49.396  26.706  24.417  1.00  0.00     0.022 A 
BRANCH  73  77
ATOM     77  S   UNL A   1      48.372  27.683  22.013  1.00  0.00     0.124 S 
ATOM     78  O   UNL A   1      47.049  28.258  21.801  1.00  0.00    -0.237 OA
ATOM     79  O   UNL A   1      49.503  28.579  21.800  1.00  0.00    -0.237 OA
ATOM     80  O   UNL A   1      48.550  26.322  21.511  1.00  0.00    -0.744 OA
ENDBRANCH  73  77
ENDBRANCH  46  70
BRANCH  58  81
ATOM     81  C   UNL A   1      45.428  33.593  29.172  1.00  0.00     0.023 A 
ATOM     82  C   UNL A   1      45.384  34.649  28.245  1.00  0.00     0.031 A 
ATOM     83  C   UNL A   1      46.219  33.755  30.323  1.00  0.00     0.131 A 
ATOM     84  C   UNL A   1      46.167  35.794  28.453  1.00  0.00     0.055 A 
ATOM     85  C   UNL A   1      46.946  34.923  30.556  1.00  0.00     0.041 A 
ATOM     86  F   UNL A   1      46.300  32.778  31.239  1.00  0.00    -0.206 F 
ATOM     87  C   UNL A   1      46.935  35.945  29.611  1.00  0.00     0.022 A 
BRANCH  84  88
ATOM     88  S   UNL A   1      46.250  37.042  27.140  1.00  0.00     0.124 S 
ATOM     89  O   UNL A   1      47.113  38.056  27.738  1.00  0.00    -0.237 OA
ATOM     90  O   UNL A   1      46.824  36.290  26.029  1.00  0.00    -0.237 OA
ATOM     91  O   UNL A   1      44.856  37.443  26.960  1.00  0.00    -0.744 OA
ENDBRANCH  84  88
ENDBRANCH  58  81
ENDBRANCH  32  33
ENDBRANCH  25  27
ENDBRANCH  24  25
ENDBRANCH  23  24
ENDBRANCH   1  23
TORSDOF 17
ENDMDL
MODEL 3
REMARK VINA RESULT:     -10.3      3.892      6.669
REMARK SMILES Cc1ccc(S(=O)(=O)N[C@H]2C=C[C@@H](C(=O)OCCOC(=O)c3ccc(-c4c5nc(c(-c6cc(S(=O)(=O)[O-])ccc6F)c6ccc([nH]6)c(-c6cc(S(=O)(=O)[O-])ccc6F)c6nc(c(-c7cc(S(=O)(=O)[O-])ccc7F)c7ccc4[nH]7)C=C6)C=C5)cc3)C2)c(C)c1
REMARK SMILES IDX 17 1 16 2 14 3 15 4 13 5 10 6 11 7 85 8 12 9 9 10 6 12 7 13
REMARK SMILES IDX 8 14 5 15 1 16 2 17 3 18 88 19 4 20 86 21 87 22 18 23 19 24
REMARK SMILES IDX 20 25 21 26 22 27 23 28 84 29 24 30 83 31 25 32 26 33 27 34
REMARK SMILES IDX 77 35 28 36 82 37 76 38 78 39 29 40 81 41 75 42 74 43 30 45
REMARK SMILES IDX 62 46 42 47 61 48 43 49 46 50 60 51 79 52 44 53 45 54 59 56
REMARK SMILES IDX 80 57 47 58 31 59 32 60 40 61 33 62 39 63 41 64 38 65 34 66
REMARK SMILES IDX 35 67 36 68 37 69 63 70 64 71 72 72 65 73 71 74 73 75 70 76
REMARK SMILES IDX 66 77 67 78 68 79 69 80 48 81 49 82 57 83 50 84 56 85 58 86
REMARK SMILES IDX 55 87 51 88 52 89 53 90 54 91
REMARK H PARENT 9 11 78 44 46 55
REMARK Flexibility Score: inf
ROOT
ATOM      1  C   UNL A   1      37.572  20.819  25.282  1.00  0.00     0.274 C 
ENDROOT
BRANCH   1   2
ATOM      2  O   UNL A   1      36.350  20.117  24.995  1.00  0.00    -0.462 OA
BRANCH   2   3
ATOM      3  C   UNL A   1      35.212  20.856  24.964  1.00  0.00     0.312 C 
ATOM      4  O   UNL A   1      34.091  20.413  25.188  1.00  0.00    -0.252 OA
BRANCH   3   5
ATOM      5  C   UNL A   1      35.464  22.329  24.666  1.00  0.00     0.123 C 
ATOM      6  C   UNL A   1      34.487  24.335  23.678  1.00  0.00     0.093 C 
ATOM      7  C   UNL A   1      34.388  24.337  25.165  1.00  0.00    -0.011 C 
ATOM      8  C   UNL A   1      34.903  22.893  23.359  1.00  0.00     0.043 C 
ATOM      9  C   UNL A   1      34.897  23.230  25.711  1.00  0.00    -0.015 C 
BRANCH   6  10
ATOM     10  N   UNL A   1      33.242  24.624  22.982  1.00  0.00    -0.204 NA
ATOM     11  H   UNL A   1      33.202  23.953  22.216  1.00  0.00     0.142 HD
BRANCH  10  12
ATOM     12  S   UNL A   1      32.815  26.085  22.307  1.00  0.00     0.241 S 
ATOM     13  O   UNL A   1      31.587  25.873  21.565  1.00  0.00    -0.207 OA
ATOM     14  O   UNL A   1      34.003  26.585  21.657  1.00  0.00    -0.207 OA
BRANCH  12  15
ATOM     15  C   UNL A   1      32.479  27.175  23.680  1.00  0.00     0.085 A 
ATOM     16  C   UNL A   1      31.993  29.774  27.086  1.00  0.00     0.044 C 
ATOM     17  C   UNL A   1      32.169  28.881  25.895  1.00  0.00    -0.051 A 
ATOM     18  C   UNL A   1      33.032  29.232  24.857  1.00  0.00     0.005 A 
ATOM     19  C   UNL A   1      31.430  27.694  25.794  1.00  0.00     0.008 A 
ATOM     20  C   UNL A   1      33.178  28.391  23.753  1.00  0.00     0.022 A 
ATOM     21  C   UNL A   1      31.560  26.832  24.686  1.00  0.00    -0.031 A 
ATOM     22  C   UNL A   1      30.676  25.616  24.670  1.00  0.00     0.046 C 
ENDBRANCH  12  15
ENDBRANCH  10  12
ENDBRANCH   6  10
ENDBRANCH   3   5
ENDBRANCH   2   3
ENDBRANCH   1   2
BRANCH   1  23
ATOM     23  C   UNL A   1      38.725  19.828  25.468  1.00  0.00     0.275 C 
BRANCH  23  24
ATOM     24  O   UNL A   1      39.993  20.496  25.635  1.00  0.00    -0.458 OA
BRANCH  24  25
ATOM     25  C   UNL A   1      40.460  20.521  26.905  1.00  0.00     0.338 C 
ATOM     26  O   UNL A   1      40.730  19.561  27.608  1.00  0.00    -0.246 OA
BRANCH  25  27
ATOM     27  C   UNL A   1      40.749  21.903  27.321  1.00  0.00     0.060 A 
ATOM     28  C   UNL A   1      40.222  22.930  26.541  1.00  0.00     0.016 A 
ATOM     29  C   UNL A   1      41.626  22.196  28.362  1.00  0.00     0.016 A 
ATOM     30  C   UNL A   1      40.591  24.250  26.760  1.00  0.00     0.010 A 
ATOM     31  C   UNL A   1      41.969  23.532  28.611  1.00  0.00     0.010 A 
ATOM     32  C   UNL A   1      41.467  24.569  27.801  1.00  0.00    -0.014 A 
BRANCH  32  33
ATOM     33  C   UNL A   1      41.874  25.985  27.995  1.00  0.00     0.031 A 
ATOM     34  C   UNL A   1      43.208  26.458  27.491  1.00  0.00     0.074 A 
ATOM     35  C   UNL A   1      41.017  26.854  28.570  1.00  0.00     0.049 A 
ATOM     36  N   UNL A   1      43.790  27.618  27.652  1.00  0.00    -0.248 NA
ATOM     37  C   UNL A   1      43.992  25.498  26.699  1.00  0.00     0.031 C 
ATOM     38  C   UNL A   1      39.664  26.529  29.028  1.00  0.00     0.029 A 
ATOM     39  N   UNL A   1      41.152  28.189  28.861  1.00  0.00    -0.354 N 
ATOM     40  C   UNL A   1      45.016  27.524  27.001  1.00  0.00     0.074 A 
ATOM     41  C   UNL A   1      45.104  26.182  26.466  1.00  0.00     0.031 C 
ATOM     42  C   UNL A   1      39.091  27.635  29.527  1.00  0.00     0.029 A 
ATOM     43  C   UNL A   1      40.058  28.726  29.501  1.00  0.00     0.049 A 
ATOM     44  H   UNL A   1      41.954  28.712  28.633  1.00  0.00     0.167 HD
ATOM     45  C   UNL A   1      45.972  28.475  26.861  1.00  0.00     0.034 A 
ATOM     46  C   UNL A   1      39.873  29.945  30.047  1.00  0.00     0.034 A 
ATOM     47  C   UNL A   1      45.862  29.810  27.396  1.00  0.00     0.049 A 
ATOM     48  C   UNL A   1      40.996  30.950  29.964  1.00  0.00     0.074 A 
ATOM     49  C   UNL A   1      46.782  30.844  27.335  1.00  0.00     0.029 A 
ATOM     50  N   UNL A   1      44.762  30.303  28.088  1.00  0.00    -0.354 N 
ATOM     51  N   UNL A   1      42.171  30.829  29.390  1.00  0.00    -0.248 NA
ATOM     52  C   UNL A   1      40.769  32.252  30.603  1.00  0.00     0.031 C 
ATOM     53  C   UNL A   1      46.265  31.936  28.040  1.00  0.00     0.029 A 
ATOM     54  C   UNL A   1      44.990  31.615  28.474  1.00  0.00     0.049 A 
ATOM     55  H   UNL A   1      43.940  29.794  28.274  1.00  0.00     0.167 HD
ATOM     56  C   UNL A   1      42.807  32.055  29.570  1.00  0.00     0.074 A 
ATOM     57  C   UNL A   1      41.876  32.904  30.285  1.00  0.00     0.031 C 
ATOM     58  C   UNL A   1      44.047  32.446  29.183  1.00  0.00     0.034 A 
BRANCH  45  59
ATOM     59  C   UNL A   1      47.242  28.088  26.141  1.00  0.00     0.023 A 
ATOM     60  C   UNL A   1      47.360  28.180  24.745  1.00  0.00     0.031 A 
ATOM     61  C   UNL A   1      48.352  27.619  26.868  1.00  0.00     0.131 A 
ATOM     62  C   UNL A   1      48.540  27.760  24.112  1.00  0.00     0.055 A 
ATOM     63  C   UNL A   1      49.549  27.272  26.240  1.00  0.00     0.041 A 
ATOM     64  F   UNL A   1      48.289  27.488  28.202  1.00  0.00    -0.206 F 
ATOM     65  C   UNL A   1      49.646  27.332  24.853  1.00  0.00     0.022 A 
BRANCH  62  66
ATOM     66  S   UNL A   1      48.575  27.676  22.301  1.00  0.00     0.124 S 
ATOM     67  O   UNL A   1      48.656  26.234  22.075  1.00  0.00    -0.237 OA
ATOM     68  O   UNL A   1      47.315  28.310  21.931  1.00  0.00    -0.237 OA
ATOM     69  O   UNL A   1      49.779  28.424  21.945  1.00  0.00    -0.744 OA
ENDBRANCH  62  66
ENDBRANCH  45  59
BRANCH  46  70
ATOM     70  C   UNL A   1      38.614  30.275  30.780  1.00  0.00     0.023 A 
ATOM     71  C   UNL A   1      37.560  30.951  30.144  1.00  0.00     0.031 A 
ATOM     72  C   UNL A   1      38.482  30.001  32.154  1.00  0.00     0.131 A 
ATOM     73  C   UNL A   1      36.458  31.391  30.893  1.00  0.00     0.055 A 
ATOM     74  C   UNL A   1      37.349  30.376  32.879  1.00  0.00     0.041 A 
ATOM     75  F   UNL A   1      39.460  29.364  32.819  1.00  0.00    -0.206 F 
ATOM     76  C   UNL A   1      36.338  31.094  32.252  1.00  0.00     0.022 A 
BRANCH  73  77
ATOM     77  S   UNL A   1      35.249  32.483  30.092  1.00  0.00     0.124 S 
ATOM     78  O   UNL A   1      34.786  31.649  28.988  1.00  0.00    -0.237 OA
ATOM     79  O   UNL A   1      34.291  32.712  31.168  1.00  0.00    -0.237 OA
ATOM     80  O   UNL A   1      36.046  33.646  29.707  1.00  0.00    -0.744 OA
ENDBRANCH  73  77
ENDBRANCH  46  70
BRANCH  58  81
ATOM     81  C   UNL A   1      44.434  33.876  29.476  1.00  0.00     0.023 A 
ATOM     82  C   UNL A   1      44.222  34.907  28.544  1.00  0.00     0.031 A 
ATOM     83  C   UNL A   1      45.050  34.204  30.697  1.00  0.00     0.131 A 
ATOM     84  C   UNL A   1      44.678  36.204  28.821  1.00  0.00     0.055 A 
ATOM     85  C   UNL A   1      45.443  35.509  30.994  1.00  0.00     0.041 A 
ATOM     86  F   UNL A   1      45.279  33.259  31.622  1.00  0.00    -0.206 F 
ATOM     87  C   UNL A   1      45.273  36.515  30.047  1.00  0.00     0.022 A 
BRANCH  84  88
ATOM     88  S   UNL A   1      44.577  37.459  27.516  1.00  0.00     0.124 S 
ATOM     89  O   UNL A   1      45.726  37.122  26.681  1.00  0.00    -0.237 OA
ATOM     90  O   UNL A   1      43.266  37.197  26.931  1.00  0.00    -0.237 OA
ATOM     91  O   UNL A   1      44.688  38.721  28.244  1.00  0.00    -0.744 OA
ENDBRANCH  84  88
ENDBRANCH  58  81
ENDBRANCH  32  33
ENDBRANCH  25  27
ENDBRANCH  24  25
ENDBRANCH  23  24
ENDBRANCH   1  23
TORSDOF 17
ENDMDL
