MODEL 1
REMARK VINA RESULT:     -11.5      0.000      0.000
REMARK SMILES C[C@H]1[C@H](C(=O)OCCOC(=O)c2ccc(-c3c4nc(c(-c5cc(S(=O)(=O)[O-])ccc5F)c5ccc([nH]5)c(-c5cc(S(=O)(=O)[O-])ccc5F)c5nc(c(-c6cc(S(=O)(=O)[O-])ccc6F)c6ccc3[nH]6)C=C5)C=C4)cc2)CCN1C(=O)[C@H]1CC[C@@H](C[NH3+])CC1
REMARK SMILES IDX 7 1 6 2 4 3 5 4 3 5 1 6 2 7 77 8 75 9 76 10 78 11 79 12
REMARK SMILES IDX 80 13 87 14 81 15 86 16 82 17 83 18 84 19 85 20 8 24 9 25
REMARK SMILES IDX 10 26 11 27 12 28 13 29 74 30 14 31 73 32 15 33 16 34 17 35
REMARK SMILES IDX 67 36 18 37 72 38 66 39 68 40 19 41 71 42 65 43 64 44 20 46
REMARK SMILES IDX 52 47 32 48 51 49 33 50 36 51 50 52 69 53 34 54 35 55 49 57
REMARK SMILES IDX 70 58 37 59 21 60 22 61 30 62 23 63 29 64 31 65 28 66 24 67
REMARK SMILES IDX 25 68 26 69 27 70 53 71 54 72 62 73 55 74 61 75 63 76 60 77
REMARK SMILES IDX 56 78 57 79 58 80 59 81 38 82 39 83 47 84 40 85 46 86 48 87
REMARK SMILES IDX 45 88 41 89 42 90 43 91 44 92
REMARK H PARENT 85 21 85 22 85 23 68 45 36 56
REMARK Flexibility Score: inf
ROOT
ATOM      1  C   UNL A   1      37.013  22.166  23.599  1.00  0.00     0.274 C 
ENDROOT
BRANCH   1   2
ATOM      2  O   UNL A   1      36.314  23.319  24.111  1.00  0.00    -0.462 OA
BRANCH   2   3
ATOM      3  C   UNL A   1      35.006  23.410  23.761  1.00  0.00     0.311 C 
ATOM      4  O   UNL A   1      34.584  24.092  22.832  1.00  0.00    -0.252 OA
BRANCH   3   5
ATOM      5  C   UNL A   1      34.067  22.648  24.666  1.00  0.00     0.123 C 
ATOM      6  C   UNL A   1      34.106  22.610  27.178  1.00  0.00     0.032 C 
ATOM      7  C   UNL A   1      33.573  23.365  25.948  1.00  0.00     0.096 C 
ATOM      8  N   UNL A   1      32.105  23.276  25.869  1.00  0.00    -0.339 N 
ATOM      9  C   UNL A   1      32.804  22.240  23.907  1.00  0.00     0.039 C 
ATOM     10  C   UNL A   1      31.743  22.182  24.986  1.00  0.00     0.121 C 
BRANCH   8  11
ATOM     11  C   UNL A   1      31.105  24.044  26.426  1.00  0.00     0.225 C 
ATOM     12  O   UNL A   1      30.396  23.574  27.328  1.00  0.00    -0.275 OA
BRANCH  11  13
ATOM     13  C   UNL A   1      30.778  25.467  25.949  1.00  0.00     0.078 C 
ATOM     14  C   UNL A   1      31.759  26.538  26.422  1.00  0.00     0.014 C 
ATOM     15  C   UNL A   1      30.426  25.556  24.459  1.00  0.00     0.014 C 
ATOM     16  C   UNL A   1      31.349  27.940  25.970  1.00  0.00     0.010 C 
ATOM     17  C   UNL A   1      30.064  26.984  24.047  1.00  0.00     0.010 C 
ATOM     18  C   UNL A   1      31.135  28.014  24.448  1.00  0.00     0.044 C 
BRANCH  18  19
ATOM     19  C   UNL A   1      32.479  27.853  23.707  1.00  0.00     0.262 C 
BRANCH  19  20
ATOM     20  N   UNL A   1      32.339  27.840  22.252  1.00  0.00    -0.357 N 
ATOM     21  H   UNL A   1      33.038  28.459  21.838  1.00  0.00     0.344 HD
ATOM     22  H   UNL A   1      31.406  28.163  21.996  1.00  0.00     0.344 HD
ATOM     23  H   UNL A   1      32.478  26.891  21.905  1.00  0.00     0.344 HD
ENDBRANCH  19  20
ENDBRANCH  18  19
ENDBRANCH  11  13
ENDBRANCH   8  11
ENDBRANCH   3   5
ENDBRANCH   2   3
ENDBRANCH   1   2
BRANCH   1  24
ATOM     24  C   UNL A   1      37.207  21.085  24.665  1.00  0.00     0.275 C 
BRANCH  24  25
ATOM     25  O   UNL A   1      37.672  21.628  25.914  1.00  0.00    -0.458 OA
BRANCH  25  26
ATOM     26  C   UNL A   1      38.993  21.461  26.147  1.00  0.00     0.338 C 
ATOM     27  O   UNL A   1      39.680  20.500  25.833  1.00  0.00    -0.246 OA
BRANCH  26  28
ATOM     28  C   UNL A   1      39.556  22.665  26.764  1.00  0.00     0.060 A 
ATOM     29  C   UNL A   1      39.095  23.912  26.333  1.00  0.00     0.016 A 
ATOM     30  C   UNL A   1      40.619  22.568  27.660  1.00  0.00     0.016 A 
ATOM     31  C   UNL A   1      39.719  25.075  26.770  1.00  0.00     0.010 A 
ATOM     32  C   UNL A   1      41.224  23.739  28.121  1.00  0.00     0.010 A 
ATOM     33  C   UNL A   1      40.790  24.997  27.667  1.00  0.00    -0.014 A 
BRANCH  33  34
ATOM     34  C   UNL A   1      41.492  26.225  28.111  1.00  0.00     0.031 A 
ATOM     35  C   UNL A   1      40.730  27.286  28.850  1.00  0.00     0.074 A 
ATOM     36  C   UNL A   1      42.795  26.395  27.824  1.00  0.00     0.049 A 
ATOM     37  N   UNL A   1      41.078  28.514  29.132  1.00  0.00    -0.248 NA
ATOM     38  C   UNL A   1      39.391  26.911  29.328  1.00  0.00     0.031 C 
ATOM     39  C   UNL A   1      43.653  25.402  27.175  1.00  0.00     0.029 A 
ATOM     40  N   UNL A   1      43.620  27.472  28.020  1.00  0.00    -0.354 N 
ATOM     41  C   UNL A   1      39.989  29.074  29.791  1.00  0.00     0.074 A 
ATOM     42  C   UNL A   1      38.967  28.050  29.857  1.00  0.00     0.031 C 
ATOM     43  C   UNL A   1      44.878  25.924  27.009  1.00  0.00     0.029 A 
ATOM     44  C   UNL A   1      44.871  27.308  27.472  1.00  0.00     0.049 A 
ATOM     45  H   UNL A   1      43.345  28.283  28.507  1.00  0.00     0.167 HD
ATOM     46  C   UNL A   1      39.861  30.330  30.285  1.00  0.00     0.034 A 
ATOM     47  C   UNL A   1      45.875  28.192  27.307  1.00  0.00     0.034 A 
ATOM     48  C   UNL A   1      40.900  31.329  30.208  1.00  0.00     0.049 A 
ATOM     49  C   UNL A   1      45.681  29.608  27.784  1.00  0.00     0.074 A 
ATOM     50  C   UNL A   1      40.882  32.633  30.669  1.00  0.00     0.029 A 
ATOM     51  N   UNL A   1      42.146  31.130  29.625  1.00  0.00    -0.354 N 
ATOM     52  N   UNL A   1      44.630  30.146  28.358  1.00  0.00    -0.248 NA
ATOM     53  C   UNL A   1      46.801  30.536  27.583  1.00  0.00     0.031 C 
ATOM     54  C   UNL A   1      42.093  33.240  30.315  1.00  0.00     0.029 A 
ATOM     55  C   UNL A   1      42.894  32.295  29.694  1.00  0.00     0.049 A 
ATOM     56  H   UNL A   1      42.452  30.287  29.222  1.00  0.00     0.167 HD
ATOM     57  C   UNL A   1      44.975  31.469  28.614  1.00  0.00     0.074 A 
ATOM     58  C   UNL A   1      46.329  31.647  28.132  1.00  0.00     0.031 C 
ATOM     59  C   UNL A   1      44.243  32.448  29.205  1.00  0.00     0.034 A 
BRANCH  46  60
ATOM     60  C   UNL A   1      38.529  30.706  30.886  1.00  0.00     0.023 A 
ATOM     61  C   UNL A   1      37.509  31.298  30.122  1.00  0.00     0.031 A 
ATOM     62  C   UNL A   1      38.292  30.501  32.257  1.00  0.00     0.131 A 
ATOM     63  C   UNL A   1      36.327  31.725  30.746  1.00  0.00     0.055 A 
ATOM     64  C   UNL A   1      37.083  30.860  32.858  1.00  0.00     0.041 A 
ATOM     65  F   UNL A   1      39.238  29.961  33.042  1.00  0.00    -0.206 F 
ATOM     66  C   UNL A   1      36.097  31.490  32.104  1.00  0.00     0.022 A 
BRANCH  63  67
ATOM     67  S   UNL A   1      35.150  32.719  29.786  1.00  0.00     0.124 S 
ATOM     68  O   UNL A   1      34.669  31.745  28.810  1.00  0.00    -0.237 OA
ATOM     69  O   UNL A   1      34.190  33.136  30.801  1.00  0.00    -0.237 OA
ATOM     70  O   UNL A   1      35.978  33.789  29.232  1.00  0.00    -0.744 OA
ENDBRANCH  63  67
ENDBRANCH  46  60
BRANCH  47  71
ATOM     71  C   UNL A   1      47.119  27.786  26.595  1.00  0.00     0.023 A 
ATOM     72  C   UNL A   1      47.243  27.936  25.206  1.00  0.00     0.031 A 
ATOM     73  C   UNL A   1      48.198  27.218  27.298  1.00  0.00     0.131 A 
ATOM     74  C   UNL A   1      48.407  27.493  24.558  1.00  0.00     0.055 A 
ATOM     75  C   UNL A   1      49.373  26.825  26.655  1.00  0.00     0.041 A 
ATOM     76  F   UNL A   1      48.131  27.054  28.629  1.00  0.00    -0.206 F 
ATOM     77  C   UNL A   1      49.477  26.952  25.274  1.00  0.00     0.022 A 
BRANCH  74  78
ATOM     78  S   UNL A   1      48.475  27.572  22.747  1.00  0.00     0.124 S 
ATOM     79  O   UNL A   1      49.743  28.259  22.527  1.00  0.00    -0.237 OA
ATOM     80  O   UNL A   1      48.438  26.160  22.381  1.00  0.00    -0.237 OA
ATOM     81  O   UNL A   1      47.280  28.337  22.396  1.00  0.00    -0.744 OA
ENDBRANCH  74  78
ENDBRANCH  47  71
BRANCH  59  82
ATOM     82  C   UNL A   1      44.922  33.775  29.420  1.00  0.00     0.023 A 
ATOM     83  C   UNL A   1      45.014  34.735  28.400  1.00  0.00     0.031 A 
ATOM     84  C   UNL A   1      45.470  34.082  30.679  1.00  0.00     0.131 A 
ATOM     85  C   UNL A   1      45.671  35.950  28.646  1.00  0.00     0.055 A 
ATOM     86  C   UNL A   1      46.082  35.309  30.932  1.00  0.00     0.041 A 
ATOM     87  F   UNL A   1      45.405  33.195  31.686  1.00  0.00    -0.206 F 
ATOM     88  C   UNL A   1      46.192  36.249  29.910  1.00  0.00     0.022 A 
BRANCH  85  89
ATOM     89  S   UNL A   1      45.876  37.126  27.282  1.00  0.00     0.124 S 
ATOM     90  O   UNL A   1      47.034  37.898  27.719  1.00  0.00    -0.237 OA
ATOM     91  O   UNL A   1      46.090  36.247  26.137  1.00  0.00    -0.237 OA
ATOM     92  O   UNL A   1      44.610  37.859  27.267  1.00  0.00    -0.744 OA
ENDBRANCH  85  89
ENDBRANCH  59  82
ENDBRANCH  33  34
ENDBRANCH  26  28
ENDBRANCH  25  26
ENDBRANCH  24  25
ENDBRANCH   1  24
TORSDOF 18
ENDMDL
MODEL 2
REMARK VINA RESULT:     -11.5      5.098     10.194
REMARK SMILES C[C@H]1[C@H](C(=O)OCCOC(=O)c2ccc(-c3c4nc(c(-c5cc(S(=O)(=O)[O-])ccc5F)c5ccc([nH]5)c(-c5cc(S(=O)(=O)[O-])ccc5F)c5nc(c(-c6cc(S(=O)(=O)[O-])ccc6F)c6ccc3[nH]6)C=C5)C=C4)cc2)CCN1C(=O)[C@H]1CC[C@@H](C[NH3+])CC1
REMARK SMILES IDX 7 1 6 2 4 3 5 4 3 5 1 6 2 7 77 8 75 9 76 10 78 11 79 12
REMARK SMILES IDX 80 13 87 14 81 15 86 16 82 17 83 18 84 19 85 20 8 24 9 25
REMARK SMILES IDX 10 26 11 27 12 28 13 29 74 30 14 31 73 32 15 33 16 34 17 35
REMARK SMILES IDX 67 36 18 37 72 38 66 39 68 40 19 41 71 42 65 43 64 44 20 46
REMARK SMILES IDX 52 47 32 48 51 49 33 50 36 51 50 52 69 53 34 54 35 55 49 57
REMARK SMILES IDX 70 58 37 59 21 60 22 61 30 62 23 63 29 64 31 65 28 66 24 67
REMARK SMILES IDX 25 68 26 69 27 70 53 71 54 72 62 73 55 74 61 75 63 76 60 77
REMARK SMILES IDX 56 78 57 79 58 80 59 81 38 82 39 83 47 84 40 85 46 86 48 87
REMARK SMILES IDX 45 88 41 89 42 90 43 91 44 92
REMARK H PARENT 85 21 85 22 85 23 68 45 36 56
REMARK Flexibility Score: inf
ROOT
ATOM      1  C   UNL A   1      31.459  29.715  25.346  1.00  0.00     0.274 C 
ENDROOT
BRANCH   1   2
ATOM      2  O   UNL A   1      32.147  28.479  25.629  1.00  0.00    -0.462 OA
BRANCH   2   3
ATOM      3  C   UNL A   1      31.350  27.430  25.953  1.00  0.00     0.311 C 
ATOM      4  O   UNL A   1      31.014  27.144  27.098  1.00  0.00    -0.252 OA
BRANCH   3   5
ATOM      5  C   UNL A   1      30.951  26.568  24.778  1.00  0.00     0.123 C 
ATOM      6  C   UNL A   1      31.345  27.070  22.348  1.00  0.00     0.032 C 
ATOM      7  C   UNL A   1      31.962  26.442  23.610  1.00  0.00     0.096 C 
ATOM      8  N   UNL A   1      32.143  24.990  23.443  1.00  0.00    -0.339 N 
ATOM      9  C   UNL A   1      30.667  25.137  25.235  1.00  0.00     0.039 C 
ATOM     10  C   UNL A   1      31.002  24.301  24.018  1.00  0.00     0.121 C 
BRANCH   8  11
ATOM     11  C   UNL A   1      33.174  24.247  22.909  1.00  0.00     0.225 C 
ATOM     12  O   UNL A   1      33.294  24.155  21.679  1.00  0.00    -0.275 OA
BRANCH  11  13
ATOM     13  C   UNL A   1      34.178  23.467  23.771  1.00  0.00     0.078 C 
ATOM     14  C   UNL A   1      34.471  24.096  25.132  1.00  0.00     0.014 C 
ATOM     15  C   UNL A   1      33.909  21.958  23.825  1.00  0.00     0.014 C 
ATOM     16  C   UNL A   1      35.523  23.312  25.918  1.00  0.00     0.010 C 
ATOM     17  C   UNL A   1      34.963  21.224  24.657  1.00  0.00     0.010 C 
ATOM     18  C   UNL A   1      35.145  21.827  26.061  1.00  0.00     0.044 C 
BRANCH  18  19
ATOM     19  C   UNL A   1      33.918  21.671  26.984  1.00  0.00     0.262 C 
BRANCH  19  20
ATOM     20  N   UNL A   1      33.283  20.357  26.884  1.00  0.00    -0.357 N 
ATOM     21  H   UNL A   1      32.351  20.398  27.298  1.00  0.00     0.344 HD
ATOM     22  H   UNL A   1      33.846  19.668  27.382  1.00  0.00     0.344 HD
ATOM     23  H   UNL A   1      33.207  20.090  25.902  1.00  0.00     0.344 HD
ENDBRANCH  19  20
ENDBRANCH  18  19
ENDBRANCH  11  13
ENDBRANCH   8  11
ENDBRANCH   3   5
ENDBRANCH   2   3
ENDBRANCH   1   2
BRANCH   1  24
ATOM     24  C   UNL A   1      31.817  30.821  26.342  1.00  0.00     0.275 C 
BRANCH  24  25
ATOM     25  O   UNL A   1      33.039  30.542  27.050  1.00  0.00    -0.458 OA
BRANCH  25  26
ATOM     26  C   UNL A   1      33.691  31.635  27.505  1.00  0.00     0.338 C 
ATOM     27  O   UNL A   1      33.255  32.775  27.576  1.00  0.00    -0.246 OA
BRANCH  26  28
ATOM     28  C   UNL A   1      35.012  31.262  28.017  1.00  0.00     0.060 A 
ATOM     29  C   UNL A   1      35.200  29.959  28.488  1.00  0.00     0.016 A 
ATOM     30  C   UNL A   1      36.013  32.221  28.155  1.00  0.00     0.016 A 
ATOM     31  C   UNL A   1      36.382  29.615  29.134  1.00  0.00     0.010 A 
ATOM     32  C   UNL A   1      37.212  31.865  28.776  1.00  0.00     0.010 A 
ATOM     33  C   UNL A   1      37.397  30.566  29.284  1.00  0.00    -0.014 A 
BRANCH  33  34
ATOM     34  C   UNL A   1      38.647  30.227  30.005  1.00  0.00     0.031 A 
ATOM     35  C   UNL A   1      39.592  29.222  29.413  1.00  0.00     0.074 A 
ATOM     36  C   UNL A   1      38.912  30.797  31.194  1.00  0.00     0.049 A 
ATOM     37  N   UNL A   1      40.613  28.619  29.964  1.00  0.00    -0.248 NA
ATOM     38  C   UNL A   1      39.345  28.841  28.015  1.00  0.00     0.031 C 
ATOM     39  C   UNL A   1      38.104  31.838  31.830  1.00  0.00     0.029 A 
ATOM     40  N   UNL A   1      39.924  30.564  32.091  1.00  0.00    -0.354 N 
ATOM     41  C   UNL A   1      41.113  27.759  28.993  1.00  0.00     0.074 A 
ATOM     42  C   UNL A   1      40.275  27.916  27.822  1.00  0.00     0.031 C 
ATOM     43  C   UNL A   1      38.639  32.140  33.023  1.00  0.00     0.029 A 
ATOM     44  C   UNL A   1      39.782  31.266  33.266  1.00  0.00     0.049 A 
ATOM     45  H   UNL A   1      40.677  29.957  31.911  1.00  0.00     0.167 HD
ATOM     46  C   UNL A   1      42.171  26.915  29.080  1.00  0.00     0.034 A 
ATOM     47  C   UNL A   1      40.459  31.169  34.427  1.00  0.00     0.034 A 
ATOM     48  C   UNL A   1      42.991  26.783  30.260  1.00  0.00     0.049 A 
ATOM     49  C   UNL A   1      41.576  30.163  34.535  1.00  0.00     0.074 A 
ATOM     50  C   UNL A   1      44.084  25.960  30.467  1.00  0.00     0.029 A 
ATOM     51  N   UNL A   1      42.803  27.496  31.438  1.00  0.00    -0.354 N 
ATOM     52  N   UNL A   1      42.011  29.316  33.631  1.00  0.00    -0.248 NA
ATOM     53  C   UNL A   1      42.286  30.094  35.818  1.00  0.00     0.031 C 
ATOM     54  C   UNL A   1      44.520  26.132  31.786  1.00  0.00     0.029 A 
ATOM     55  C   UNL A   1      43.743  27.113  32.382  1.00  0.00     0.049 A 
ATOM     56  H   UNL A   1      42.104  28.173  31.583  1.00  0.00     0.167 HD
ATOM     57  C   UNL A   1      43.065  28.633  34.228  1.00  0.00     0.074 A 
ATOM     58  C   UNL A   1      43.200  29.166  35.568  1.00  0.00     0.031 C 
ATOM     59  C   UNL A   1      43.858  27.660  33.712  1.00  0.00     0.034 A 
BRANCH  46  60
ATOM     60  C   UNL A   1      42.449  26.026  27.893  1.00  0.00     0.023 A 
ATOM     61  C   UNL A   1      41.873  24.750  27.769  1.00  0.00     0.031 A 
ATOM     62  C   UNL A   1      43.336  26.451  26.888  1.00  0.00     0.131 A 
ATOM     63  C   UNL A   1      42.242  23.919  26.700  1.00  0.00     0.055 A 
ATOM     64  C   UNL A   1      43.641  25.647  25.787  1.00  0.00     0.041 A 
ATOM     65  F   UNL A   1      43.934  27.650  26.965  1.00  0.00    -0.206 F 
ATOM     66  C   UNL A   1      43.105  24.366  25.697  1.00  0.00     0.022 A 
BRANCH  63  67
ATOM     67  S   UNL A   1      41.688  22.191  26.715  1.00  0.00     0.124 S 
ATOM     68  O   UNL A   1      42.479  21.637  27.812  1.00  0.00    -0.237 OA
ATOM     69  O   UNL A   1      40.257  22.321  26.961  1.00  0.00    -0.237 OA
ATOM     70  O   UNL A   1      42.053  21.703  25.386  1.00  0.00    -0.744 OA
ENDBRANCH  63  67
ENDBRANCH  46  60
BRANCH  47  71
ATOM     71  C   UNL A   1      40.053  31.993  35.600  1.00  0.00     0.023 A 
ATOM     72  C   UNL A   1      39.060  31.553  36.486  1.00  0.00     0.031 A 
ATOM     73  C   UNL A   1      40.642  33.249  35.836  1.00  0.00     0.131 A 
ATOM     74  C   UNL A   1      38.661  32.377  37.552  1.00  0.00     0.055 A 
ATOM     75  C   UNL A   1      40.277  34.042  36.925  1.00  0.00     0.041 A 
ATOM     76  F   UNL A   1      41.599  33.716  35.018  1.00  0.00    -0.206 F 
ATOM     77  C   UNL A   1      39.272  33.611  37.784  1.00  0.00     0.022 A 
BRANCH  74  78
ATOM     78  S   UNL A   1      37.277  31.839  38.593  1.00  0.00     0.124 S 
ATOM     79  O   UNL A   1      37.056  30.479  38.115  1.00  0.00    -0.237 OA
ATOM     80  O   UNL A   1      37.840  31.965  39.934  1.00  0.00    -0.237 OA
ATOM     81  O   UNL A   1      36.219  32.795  38.272  1.00  0.00    -0.744 OA
ENDBRANCH  74  78
ENDBRANCH  47  71
BRANCH  59  82
ATOM     82  C   UNL A   1      44.983  27.162  34.581  1.00  0.00     0.023 A 
ATOM     83  C   UNL A   1      44.876  25.976  35.325  1.00  0.00     0.031 A 
ATOM     84  C   UNL A   1      46.187  27.886  34.647  1.00  0.00     0.131 A 
ATOM     85  C   UNL A   1      45.947  25.563  36.132  1.00  0.00     0.055 A 
ATOM     86  C   UNL A   1      47.264  27.449  35.416  1.00  0.00     0.041 A 
ATOM     87  F   UNL A   1      46.335  29.027  33.953  1.00  0.00    -0.206 F 
ATOM     88  C   UNL A   1      47.145  26.284  36.170  1.00  0.00     0.022 A 
BRANCH  85  89
ATOM     89  S   UNL A   1      45.744  24.090  37.169  1.00  0.00     0.124 S 
ATOM     90  O   UNL A   1      45.175  23.132  36.227  1.00  0.00    -0.237 OA
ATOM     91  O   UNL A   1      47.111  23.821  37.605  1.00  0.00    -0.237 OA
ATOM     92  O   UNL A   1      44.837  24.536  38.226  1.00  0.00    -0.744 OA
ENDBRANCH  85  89
ENDBRANCH  59  82
ENDBRANCH  33  34
ENDBRANCH  26  28
ENDBRANCH  25  26
ENDBRANCH  24  25
ENDBRANCH   1  24
TORSDOF 18
ENDMDL
MODEL 3
REMARK VINA RESULT:     -11.5      5.121     10.080
REMARK SMILES C[C@H]1[C@H](C(=O)OCCOC(=O)c2ccc(-c3c4nc(c(-c5cc(S(=O)(=O)[O-])ccc5F)c5ccc([nH]5)c(-c5cc(S(=O)(=O)[O-])ccc5F)c5nc(c(-c6cc(S(=O)(=O)[O-])ccc6F)c6ccc3[nH]6)C=C5)C=C4)cc2)CCN1C(=O)[C@H]1CC[C@@H](C[NH3+])CC1
REMARK SMILES IDX 7 1 6 2 4 3 5 4 3 5 1 6 2 7 77 8 75 9 76 10 78 11 79 12
REMARK SMILES IDX 80 13 87 14 81 15 86 16 82 17 83 18 84 19 85 20 8 24 9 25
REMARK SMILES IDX 10 26 11 27 12 28 13 29 74 30 14 31 73 32 15 33 16 34 17 35
REMARK SMILES IDX 67 36 18 37 72 38 66 39 68 40 19 41 71 42 65 43 64 44 20 46
REMARK SMILES IDX 52 47 32 48 51 49 33 50 36 51 50 52 69 53 34 54 35 55 49 57
REMARK SMILES IDX 70 58 37 59 21 60 22 61 30 62 23 63 29 64 31 65 28 66 24 67
REMARK SMILES IDX 25 68 26 69 27 70 53 71 54 72 62 73 55 74 61 75 63 76 60 77
REMARK SMILES IDX 56 78 57 79 58 80 59 81 38 82 39 83 47 84 40 85 46 86 48 87
REMARK SMILES IDX 45 88 41 89 42 90 43 91 44 92
REMARK H PARENT 85 21 85 22 85 23 68 45 36 56
REMARK Flexibility Score: inf
ROOT
ATOM      1  C   UNL A   1      31.496  29.667  24.548  1.00  0.00     0.274 C 
ENDROOT
BRANCH   1   2
ATOM      2  O   UNL A   1      30.205  29.504  23.925  1.00  0.00    -0.462 OA
BRANCH   2   3
ATOM      3  C   UNL A   1      30.223  28.960  22.682  1.00  0.00     0.311 C 
ATOM      4  O   UNL A   1      30.128  29.606  21.643  1.00  0.00    -0.252 OA
BRANCH   3   5
ATOM      5  C   UNL A   1      30.296  27.452  22.665  1.00  0.00     0.123 C 
ATOM      6  C   UNL A   1      31.883  26.041  21.322  1.00  0.00     0.032 C 
ATOM      7  C   UNL A   1      31.705  26.806  22.645  1.00  0.00     0.096 C 
ATOM      8  N   UNL A   1      31.697  25.882  23.791  1.00  0.00    -0.339 N 
ATOM      9  C   UNL A   1      29.591  26.868  23.890  1.00  0.00     0.039 C 
ATOM     10  C   UNL A   1      30.322  25.564  24.133  1.00  0.00     0.121 C 
BRANCH   8  11
ATOM     11  C   UNL A   1      32.715  25.355  24.556  1.00  0.00     0.225 C 
ATOM     12  O   UNL A   1      33.069  25.935  25.593  1.00  0.00    -0.275 OA
BRANCH  11  13
ATOM     13  C   UNL A   1      33.489  24.088  24.163  1.00  0.00     0.078 C 
ATOM     14  C   UNL A   1      35.009  24.232  24.205  1.00  0.00     0.014 C 
ATOM     15  C   UNL A   1      32.964  22.809  24.828  1.00  0.00     0.014 C 
ATOM     16  C   UNL A   1      35.724  22.961  23.743  1.00  0.00     0.010 C 
ATOM     17  C   UNL A   1      33.738  21.573  24.368  1.00  0.00     0.010 C 
ATOM     18  C   UNL A   1      35.261  21.723  24.530  1.00  0.00     0.044 C 
BRANCH  18  19
ATOM     19  C   UNL A   1      35.738  21.808  25.996  1.00  0.00     0.262 C 
BRANCH  19  20
ATOM     20  N   UNL A   1      37.190  21.918  26.125  1.00  0.00    -0.357 N 
ATOM     21  H   UNL A   1      37.497  21.405  26.952  1.00  0.00     0.344 HD
ATOM     22  H   UNL A   1      37.450  22.900  26.219  1.00  0.00     0.344 HD
ATOM     23  H   UNL A   1      37.636  21.525  25.296  1.00  0.00     0.344 HD
ENDBRANCH  19  20
ENDBRANCH  18  19
ENDBRANCH  11  13
ENDBRANCH   8  11
ENDBRANCH   3   5
ENDBRANCH   2   3
ENDBRANCH   1   2
BRANCH   1  24
ATOM     24  C   UNL A   1      31.434  30.564  25.787  1.00  0.00     0.275 C 
BRANCH  24  25
ATOM     25  O   UNL A   1      32.547  30.347  26.673  1.00  0.00    -0.458 OA
BRANCH  25  26
ATOM     26  C   UNL A   1      33.105  31.476  27.164  1.00  0.00     0.338 C 
ATOM     27  O   UNL A   1      32.584  32.578  27.251  1.00  0.00    -0.246 OA
BRANCH  26  28
ATOM     28  C   UNL A   1      34.441  31.192  27.696  1.00  0.00     0.060 A 
ATOM     29  C   UNL A   1      34.757  29.873  28.034  1.00  0.00     0.016 A 
ATOM     30  C   UNL A   1      35.324  32.232  27.981  1.00  0.00     0.016 A 
ATOM     31  C   UNL A   1      35.947  29.588  28.694  1.00  0.00     0.010 A 
ATOM     32  C   UNL A   1      36.533  31.939  28.617  1.00  0.00     0.010 A 
ATOM     33  C   UNL A   1      36.843  30.619  28.992  1.00  0.00    -0.014 A 
BRANCH  33  34
ATOM     34  C   UNL A   1      38.098  30.338  29.731  1.00  0.00     0.031 A 
ATOM     35  C   UNL A   1      39.106  29.394  29.143  1.00  0.00     0.074 A 
ATOM     36  C   UNL A   1      38.310  30.905  30.932  1.00  0.00     0.049 A 
ATOM     37  N   UNL A   1      40.148  28.839  29.704  1.00  0.00    -0.248 NA
ATOM     38  C   UNL A   1      38.904  29.020  27.735  1.00  0.00     0.031 C 
ATOM     39  C   UNL A   1      37.436  31.891  31.567  1.00  0.00     0.029 A 
ATOM     40  N   UNL A   1      39.318  30.714  31.843  1.00  0.00    -0.354 N 
ATOM     41  C   UNL A   1      40.711  28.021  28.730  1.00  0.00     0.074 A 
ATOM     42  C   UNL A   1      39.885  28.150  27.546  1.00  0.00     0.031 C 
ATOM     43  C   UNL A   1      37.934  32.205  32.773  1.00  0.00     0.029 A 
ATOM     44  C   UNL A   1      39.119  31.390  33.025  1.00  0.00     0.049 A 
ATOM     45  H   UNL A   1      40.106  30.151  31.669  1.00  0.00     0.167 HD
ATOM     46  C   UNL A   1      41.811  27.235  28.825  1.00  0.00     0.034 A 
ATOM     47  C   UNL A   1      39.780  31.314  34.196  1.00  0.00     0.034 A 
ATOM     48  C   UNL A   1      42.617  27.131  30.018  1.00  0.00     0.049 A 
ATOM     49  C   UNL A   1      40.947  30.368  34.311  1.00  0.00     0.074 A 
ATOM     50  C   UNL A   1      43.749  26.365  30.234  1.00  0.00     0.029 A 
ATOM     51  N   UNL A   1      42.370  27.816  31.202  1.00  0.00    -0.354 N 
ATOM     52  N   UNL A   1      41.443  29.559  33.404  1.00  0.00    -0.248 NA
ATOM     53  C   UNL A   1      41.638  30.319  35.606  1.00  0.00     0.031 C 
ATOM     54  C   UNL A   1      44.153  26.542  31.562  1.00  0.00     0.029 A 
ATOM     55  C   UNL A   1      43.314  27.471  32.157  1.00  0.00     0.049 A 
ATOM     56  H   UNL A   1      41.633  28.451  31.343  1.00  0.00     0.167 HD
ATOM     57  C   UNL A   1      42.522  28.925  34.011  1.00  0.00     0.074 A 
ATOM     58  C   UNL A   1      42.605  29.446  35.360  1.00  0.00     0.031 C 
ATOM     59  C   UNL A   1      43.376  28.004  33.496  1.00  0.00     0.034 A 
BRANCH  46  60
ATOM     60  C   UNL A   1      42.157  26.379  27.632  1.00  0.00     0.023 A 
ATOM     61  C   UNL A   1      41.708  25.053  27.512  1.00  0.00     0.031 A 
ATOM     62  C   UNL A   1      42.983  26.890  26.615  1.00  0.00     0.131 A 
ATOM     63  C   UNL A   1      42.141  24.263  26.436  1.00  0.00     0.055 A 
ATOM     64  C   UNL A   1      43.350  26.122  25.507  1.00  0.00     0.041 A 
ATOM     65  F   UNL A   1      43.461  28.143  26.687  1.00  0.00    -0.206 F 
ATOM     66  C   UNL A   1      42.940  24.795  25.421  1.00  0.00     0.022 A 
BRANCH  63  67
ATOM     67  S   UNL A   1      41.760  22.489  26.455  1.00  0.00     0.124 S 
ATOM     68  O   UNL A   1      42.609  21.994  25.374  1.00  0.00    -0.237 OA
ATOM     69  O   UNL A   1      42.148  22.098  27.804  1.00  0.00    -0.237 OA
ATOM     70  O   UNL A   1      40.324  22.444  26.179  1.00  0.00    -0.744 OA
ENDBRANCH  63  67
ENDBRANCH  46  60
BRANCH  47  71
ATOM     71  C   UNL A   1      39.309  32.098  35.373  1.00  0.00     0.023 A 
ATOM     72  C   UNL A   1      39.741  33.414  35.588  1.00  0.00     0.031 A 
ATOM     73  C   UNL A   1      38.434  31.525  36.315  1.00  0.00     0.131 A 
ATOM     74  C   UNL A   1      39.322  34.107  36.736  1.00  0.00     0.055 A 
ATOM     75  C   UNL A   1      37.981  32.236  37.428  1.00  0.00     0.041 A 
ATOM     76  F   UNL A   1      37.990  30.268  36.155  1.00  0.00    -0.206 F 
ATOM     77  C   UNL A   1      38.436  33.532  37.649  1.00  0.00     0.022 A 
BRANCH  74  78
ATOM     78  S   UNL A   1      40.011  35.754  37.055  1.00  0.00     0.124 S 
ATOM     79  O   UNL A   1      41.427  35.455  37.234  1.00  0.00    -0.237 OA
ATOM     80  O   UNL A   1      39.655  36.472  35.835  1.00  0.00    -0.237 OA
ATOM     81  O   UNL A   1      39.306  36.189  38.259  1.00  0.00    -0.744 OA
ENDBRANCH  74  78
ENDBRANCH  47  71
BRANCH  59  82
ATOM     82  C   UNL A   1      44.511  27.555  34.379  1.00  0.00     0.023 A 
ATOM     83  C   UNL A   1      44.384  26.463  35.252  1.00  0.00     0.031 A 
ATOM     84  C   UNL A   1      45.744  28.229  34.325  1.00  0.00     0.131 A 
ATOM     85  C   UNL A   1      45.467  26.095  36.065  1.00  0.00     0.055 A 
ATOM     86  C   UNL A   1      46.831  27.832  35.103  1.00  0.00     0.041 A 
ATOM     87  F   UNL A   1      45.913  29.280  33.505  1.00  0.00    -0.206 F 
ATOM     88  C   UNL A   1      46.693  26.763  35.985  1.00  0.00     0.022 A 
BRANCH  85  89
ATOM     89  S   UNL A   1      45.243  24.754  37.265  1.00  0.00     0.124 S 
ATOM     90  O   UNL A   1      43.829  24.880  37.601  1.00  0.00    -0.237 OA
ATOM     91  O   UNL A   1      45.612  23.573  36.490  1.00  0.00    -0.237 OA
ATOM     92  O   UNL A   1      46.170  25.099  38.342  1.00  0.00    -0.744 OA
ENDBRANCH  85  89
ENDBRANCH  59  82
ENDBRANCH  33  34
ENDBRANCH  26  28
ENDBRANCH  25  26
ENDBRANCH  24  25
ENDBRANCH   1  24
TORSDOF 18
ENDMDL
