MODEL 1
REMARK VINA RESULT:     -10.6      0.000      0.000
REMARK SMILES COc1ccc([C@@H](C#N)CC(=O)OCCOC(=O)c2ccc(-c3c4nc(c(-c5cc(S(=O)(=O)[O-])ccc5F)c5ccc([nH]5)c(-c5cc(S(=O)(=O)[O-])ccc5F)c5nc(c(-c6cc(S(=O)(=O)[O-])ccc6F)c6ccc3[nH]6)C=C5)C=C4)cc2)cc1
REMARK SMILES IDX 14 1 13 2 11 3 12 4 10 5 7 6 6 7 3 8 4 9 83 10 5 11 82 12
REMARK SMILES IDX 2 13 1 14 8 15 9 16 15 17 16 18 17 19 18 20 19 21 20 22
REMARK SMILES IDX 81 23 21 24 80 25 22 26 23 27 24 28 74 29 25 30 79 31 73 32
REMARK SMILES IDX 75 33 26 34 78 35 72 36 71 37 27 39 59 40 39 41 58 42 40 43
REMARK SMILES IDX 43 44 57 45 76 46 41 47 42 48 56 50 77 51 44 52 28 53 29 54
REMARK SMILES IDX 37 55 30 56 36 57 38 58 35 59 31 60 32 61 33 62 34 63 60 64
REMARK SMILES IDX 61 65 69 66 62 67 68 68 70 69 67 70 63 71 64 72 65 73 66 74
REMARK SMILES IDX 45 75 46 76 54 77 47 78 53 79 55 80 52 81 48 82 49 83 50 84
REMARK SMILES IDX 51 85
REMARK H PARENT 75 38 43 49
REMARK Flexibility Score: inf
ROOT
ATOM      1  C   UNL A   1      34.999  20.571  25.058  1.00  0.00     0.274 C 
ENDROOT
BRANCH   1   2
ATOM      2  O   UNL A   1      34.073  21.497  24.463  1.00  0.00    -0.462 OA
BRANCH   2   3
ATOM      3  C   UNL A   1      32.758  21.206  24.566  1.00  0.00     0.307 C 
ATOM      4  O   UNL A   1      32.285  20.083  24.443  1.00  0.00    -0.252 OA
BRANCH   3   5
ATOM      5  C   UNL A   1      31.883  22.417  24.783  1.00  0.00     0.146 C 
BRANCH   5   6
ATOM      6  C   UNL A   1      32.161  23.311  26.020  1.00  0.00     0.133 C 
BRANCH   6   7
ATOM      7  C   UNL A   1      32.519  24.728  25.535  1.00  0.00    -0.030 A 
ATOM      8  C   UNL A   1      33.467  27.278  24.794  1.00  0.00     0.118 A 
ATOM      9  C   UNL A   1      33.729  26.180  23.984  1.00  0.00     0.047 A 
ATOM     10  C   UNL A   1      32.670  27.125  25.931  1.00  0.00     0.047 A 
ATOM     11  C   UNL A   1      33.264  24.919  24.349  1.00  0.00     0.009 A 
ATOM     12  C   UNL A   1      32.196  25.858  26.299  1.00  0.00     0.009 A 
BRANCH   8  13
ATOM     13  O   UNL A   1      33.999  28.467  24.375  1.00  0.00    -0.497 OA
ATOM     14  C   UNL A   1      33.960  28.647  22.963  1.00  0.00     0.278 C 
ENDBRANCH   8  13
ENDBRANCH   6   7
BRANCH   6  15
ATOM     15  C   UNL A   1      30.824  23.407  26.737  1.00  0.00     0.071 C 
ATOM     16  N   UNL A   1      29.714  23.488  27.331  1.00  0.00    -0.198 NA
ENDBRANCH   6  15
ENDBRANCH   5   6
ENDBRANCH   3   5
ENDBRANCH   2   3
ENDBRANCH   1   2
BRANCH   1  17
ATOM     17  C   UNL A   1      36.433  20.922  24.658  1.00  0.00     0.275 C 
BRANCH  17  18
ATOM     18  O   UNL A   1      37.117  21.608  25.723  1.00  0.00    -0.458 OA
BRANCH  18  19
ATOM     19  C   UNL A   1      38.403  21.229  25.923  1.00  0.00     0.338 C 
ATOM     20  O   UNL A   1      38.921  20.175  25.598  1.00  0.00    -0.246 OA
BRANCH  19  21
ATOM     21  C   UNL A   1      39.166  22.374  26.438  1.00  0.00     0.060 A 
ATOM     22  C   UNL A   1      38.756  23.654  26.060  1.00  0.00     0.016 A 
ATOM     23  C   UNL A   1      40.301  22.201  27.225  1.00  0.00     0.016 A 
ATOM     24  C   UNL A   1      39.458  24.775  26.475  1.00  0.00     0.010 A 
ATOM     25  C   UNL A   1      41.006  23.331  27.653  1.00  0.00     0.010 A 
ATOM     26  C   UNL A   1      40.585  24.622  27.283  1.00  0.00    -0.014 A 
BRANCH  26  27
ATOM     27  C   UNL A   1      41.336  25.823  27.708  1.00  0.00     0.031 A 
ATOM     28  C   UNL A   1      40.645  26.875  28.520  1.00  0.00     0.074 A 
ATOM     29  C   UNL A   1      42.637  25.943  27.385  1.00  0.00     0.049 A 
ATOM     30  N   UNL A   1      41.063  28.064  28.860  1.00  0.00    -0.248 NA
ATOM     31  C   UNL A   1      39.299  26.540  29.011  1.00  0.00     0.031 C 
ATOM     32  C   UNL A   1      43.426  24.934  26.675  1.00  0.00     0.029 A 
ATOM     33  N   UNL A   1      43.522  26.964  27.608  1.00  0.00    -0.354 N 
ATOM     34  C   UNL A   1      40.024  28.636  29.583  1.00  0.00     0.074 A 
ATOM     35  C   UNL A   1      38.951  27.665  29.619  1.00  0.00     0.031 C 
ATOM     36  C   UNL A   1      44.677  25.393  26.512  1.00  0.00     0.029 A 
ATOM     37  C   UNL A   1      44.758  26.750  27.042  1.00  0.00     0.049 A 
ATOM     38  H   UNL A   1      43.296  27.773  28.123  1.00  0.00     0.167 HD
ATOM     39  C   UNL A   1      39.977  29.866  30.155  1.00  0.00     0.034 A 
ATOM     40  C   UNL A   1      45.813  27.578  26.917  1.00  0.00     0.034 A 
ATOM     41  C   UNL A   1      41.066  30.810  30.105  1.00  0.00     0.049 A 
ATOM     42  C   UNL A   1      45.699  28.975  27.468  1.00  0.00     0.074 A 
ATOM     43  C   UNL A   1      41.136  32.080  30.648  1.00  0.00     0.029 A 
ATOM     44  N   UNL A   1      42.280  30.587  29.462  1.00  0.00    -0.354 N 
ATOM     45  N   UNL A   1      44.692  29.532  28.103  1.00  0.00    -0.248 NA
ATOM     46  C   UNL A   1      46.853  29.858  27.273  1.00  0.00     0.031 C 
ATOM     47  C   UNL A   1      42.363  32.647  30.282  1.00  0.00     0.029 A 
ATOM     48  C   UNL A   1      43.089  31.708  29.565  1.00  0.00     0.049 A 
ATOM     49  H   UNL A   1      42.528  29.753  29.002  1.00  0.00     0.167 HD
ATOM     50  C   UNL A   1      45.097  30.831  28.389  1.00  0.00     0.074 A 
ATOM     51  C   UNL A   1      46.447  30.965  27.877  1.00  0.00     0.031 C 
ATOM     52  C   UNL A   1      44.419  31.826  29.018  1.00  0.00     0.034 A 
BRANCH  39  53
ATOM     53  C   UNL A   1      38.680  30.271  30.810  1.00  0.00     0.023 A 
ATOM     54  C   UNL A   1      37.654  30.916  30.098  1.00  0.00     0.031 A 
ATOM     55  C   UNL A   1      38.490  30.049  32.185  1.00  0.00     0.131 A 
ATOM     56  C   UNL A   1      36.515  31.376  30.779  1.00  0.00     0.055 A 
ATOM     57  C   UNL A   1      37.325  30.445  32.842  1.00  0.00     0.041 A 
ATOM     58  F   UNL A   1      39.448  29.462  32.921  1.00  0.00    -0.206 F 
ATOM     59  C   UNL A   1      36.334  31.125  32.141  1.00  0.00     0.022 A 
BRANCH  56  60
ATOM     60  S   UNL A   1      35.338  32.431  29.888  1.00  0.00     0.124 S 
ATOM     61  O   UNL A   1      36.183  33.562  29.510  1.00  0.00    -0.237 OA
ATOM     62  O   UNL A   1      34.901  31.566  28.799  1.00  0.00    -0.237 OA
ATOM     63  O   UNL A   1      34.321  32.733  30.893  1.00  0.00    -0.744 OA
ENDBRANCH  56  60
ENDBRANCH  39  53
BRANCH  40  64
ATOM     64  C   UNL A   1      47.026  27.144  26.169  1.00  0.00     0.023 A 
ATOM     65  C   UNL A   1      48.092  26.505  26.818  1.00  0.00     0.031 A 
ATOM     66  C   UNL A   1      47.148  27.399  24.790  1.00  0.00     0.131 A 
ATOM     67  C   UNL A   1      49.248  26.170  26.096  1.00  0.00     0.055 A 
ATOM     68  C   UNL A   1      48.279  27.019  24.067  1.00  0.00     0.041 A 
ATOM     69  F   UNL A   1      46.157  28.011  24.121  1.00  0.00    -0.206 F 
ATOM     70  C   UNL A   1      49.343  26.410  24.722  1.00  0.00     0.022 A 
BRANCH  67  71
ATOM     71  S   UNL A   1      50.664  25.475  26.992  1.00  0.00     0.124 S 
ATOM     72  O   UNL A   1      51.588  25.177  25.904  1.00  0.00    -0.237 OA
ATOM     73  O   UNL A   1      51.038  26.580  27.869  1.00  0.00    -0.237 OA
ATOM     74  O   UNL A   1      50.100  24.310  27.670  1.00  0.00    -0.744 OA
ENDBRANCH  67  71
ENDBRANCH  40  64
BRANCH  52  75
ATOM     75  C   UNL A   1      45.150  33.132  29.190  1.00  0.00     0.023 A 
ATOM     76  C   UNL A   1      45.181  34.095  28.167  1.00  0.00     0.031 A 
ATOM     77  C   UNL A   1      45.843  33.404  30.382  1.00  0.00     0.131 A 
ATOM     78  C   UNL A   1      45.934  35.266  28.335  1.00  0.00     0.055 A 
ATOM     79  C   UNL A   1      46.547  34.595  30.564  1.00  0.00     0.041 A 
ATOM     80  F   UNL A   1      45.847  32.515  31.388  1.00  0.00    -0.206 F 
ATOM     81  C   UNL A   1      46.606  35.528  29.532  1.00  0.00     0.022 A 
BRANCH  78  82
ATOM     82  S   UNL A   1      46.090  36.409  26.936  1.00  0.00     0.124 S 
ATOM     83  O   UNL A   1      46.032  35.501  25.795  1.00  0.00    -0.237 OA
ATOM     84  O   UNL A   1      44.935  37.283  27.113  1.00  0.00    -0.237 OA
ATOM     85  O   UNL A   1      47.388  37.046  27.156  1.00  0.00    -0.744 OA
ENDBRANCH  78  82
ENDBRANCH  52  75
ENDBRANCH  26  27
ENDBRANCH  19  21
ENDBRANCH  18  19
ENDBRANCH  17  18
ENDBRANCH   1  17
TORSDOF 18
ENDMDL
MODEL 2
REMARK VINA RESULT:     -10.5      4.942     10.126
REMARK SMILES COc1ccc([C@@H](C#N)CC(=O)OCCOC(=O)c2ccc(-c3c4nc(c(-c5cc(S(=O)(=O)[O-])ccc5F)c5ccc([nH]5)c(-c5cc(S(=O)(=O)[O-])ccc5F)c5nc(c(-c6cc(S(=O)(=O)[O-])ccc6F)c6ccc3[nH]6)C=C5)C=C4)cc2)cc1
REMARK SMILES IDX 14 1 13 2 11 3 12 4 10 5 7 6 6 7 3 8 4 9 83 10 5 11 82 12
REMARK SMILES IDX 2 13 1 14 8 15 9 16 15 17 16 18 17 19 18 20 19 21 20 22
REMARK SMILES IDX 81 23 21 24 80 25 22 26 23 27 24 28 74 29 25 30 79 31 73 32
REMARK SMILES IDX 75 33 26 34 78 35 72 36 71 37 27 39 59 40 39 41 58 42 40 43
REMARK SMILES IDX 43 44 57 45 76 46 41 47 42 48 56 50 77 51 44 52 28 53 29 54
REMARK SMILES IDX 37 55 30 56 36 57 38 58 35 59 31 60 32 61 33 62 34 63 60 64
REMARK SMILES IDX 61 65 69 66 62 67 68 68 70 69 67 70 63 71 64 72 65 73 66 74
REMARK SMILES IDX 45 75 46 76 54 77 47 78 53 79 55 80 52 81 48 82 49 83 50 84
REMARK SMILES IDX 51 85
REMARK H PARENT 75 38 43 49
REMARK Flexibility Score: inf
ROOT
ATOM      1  C   UNL A   1      31.276  29.422  24.576  1.00  0.00     0.274 C 
ENDROOT
BRANCH   1   2
ATOM      2  O   UNL A   1      31.935  28.156  24.401  1.00  0.00    -0.462 OA
BRANCH   2   3
ATOM      3  C   UNL A   1      31.151  27.075  24.197  1.00  0.00     0.307 C 
ATOM      4  O   UNL A   1      30.287  26.688  24.974  1.00  0.00    -0.252 OA
BRANCH   3   5
ATOM      5  C   UNL A   1      31.477  26.318  22.932  1.00  0.00     0.146 C 
BRANCH   5   6
ATOM      6  C   UNL A   1      32.968  26.168  22.529  1.00  0.00     0.133 C 
BRANCH   6   7
ATOM      7  C   UNL A   1      33.584  25.011  23.339  1.00  0.00    -0.030 A 
ATOM      8  C   UNL A   1      34.404  22.835  24.932  1.00  0.00     0.118 A 
ATOM      9  C   UNL A   1      33.961  22.614  23.634  1.00  0.00     0.047 A 
ATOM     10  C   UNL A   1      34.514  24.142  25.413  1.00  0.00     0.047 A 
ATOM     11  C   UNL A   1      33.552  23.687  22.846  1.00  0.00     0.009 A 
ATOM     12  C   UNL A   1      34.108  25.224  24.621  1.00  0.00     0.009 A 
BRANCH   8  13
ATOM     13  O   UNL A   1      34.745  21.716  25.643  1.00  0.00    -0.497 OA
ATOM     14  C   UNL A   1      34.398  21.785  27.022  1.00  0.00     0.278 C 
ENDBRANCH   8  13
ENDBRANCH   6   7
BRANCH   6  15
ATOM     15  C   UNL A   1      32.934  25.728  21.075  1.00  0.00     0.071 C 
ATOM     16  N   UNL A   1      32.905  25.365  19.867  1.00  0.00    -0.198 NA
ENDBRANCH   6  15
ENDBRANCH   5   6
ENDBRANCH   3   5
ENDBRANCH   2   3
ENDBRANCH   1   2
BRANCH   1  17
ATOM     17  C   UNL A   1      31.573  29.990  25.964  1.00  0.00     0.275 C 
BRANCH  17  18
ATOM     18  O   UNL A   1      32.962  30.343  26.096  1.00  0.00    -0.458 OA
BRANCH  18  19
ATOM     19  C   UNL A   1      33.221  31.364  26.948  1.00  0.00     0.338 C 
ATOM     20  O   UNL A   1      32.477  32.279  27.252  1.00  0.00    -0.246 OA
BRANCH  19  21
ATOM     21  C   UNL A   1      34.500  31.112  27.625  1.00  0.00     0.060 A 
ATOM     22  C   UNL A   1      34.726  29.833  28.137  1.00  0.00     0.016 A 
ATOM     23  C   UNL A   1      35.440  32.121  27.812  1.00  0.00     0.016 A 
ATOM     24  C   UNL A   1      35.893  29.539  28.824  1.00  0.00     0.010 A 
ATOM     25  C   UNL A   1      36.623  31.826  28.498  1.00  0.00     0.010 A 
ATOM     26  C   UNL A   1      36.856  30.533  29.003  1.00  0.00    -0.014 A 
BRANCH  26  27
ATOM     27  C   UNL A   1      38.090  30.215  29.751  1.00  0.00     0.031 A 
ATOM     28  C   UNL A   1      39.102  29.291  29.145  1.00  0.00     0.074 A 
ATOM     29  C   UNL A   1      38.305  30.780  30.953  1.00  0.00     0.049 A 
ATOM     30  N   UNL A   1      40.166  28.760  29.686  1.00  0.00    -0.248 NA
ATOM     31  C   UNL A   1      38.881  28.913  27.741  1.00  0.00     0.031 C 
ATOM     32  C   UNL A   1      37.426  31.762  31.592  1.00  0.00     0.029 A 
ATOM     33  N   UNL A   1      39.324  30.609  31.853  1.00  0.00    -0.354 N 
ATOM     34  C   UNL A   1      40.730  27.961  28.700  1.00  0.00     0.074 A 
ATOM     35  C   UNL A   1      39.881  28.069  27.532  1.00  0.00     0.031 C 
ATOM     36  C   UNL A   1      37.940  32.098  32.786  1.00  0.00     0.029 A 
ATOM     37  C   UNL A   1      39.143  31.306  33.025  1.00  0.00     0.049 A 
ATOM     38  H   UNL A   1      40.110  30.041  31.678  1.00  0.00     0.167 HD
ATOM     39  C   UNL A   1      41.853  27.203  28.774  1.00  0.00     0.034 A 
ATOM     40  C   UNL A   1      39.836  31.265  34.178  1.00  0.00     0.034 A 
ATOM     41  C   UNL A   1      42.681  27.119  29.953  1.00  0.00     0.049 A 
ATOM     42  C   UNL A   1      41.018  30.337  34.273  1.00  0.00     0.074 A 
ATOM     43  C   UNL A   1      43.840  26.390  30.146  1.00  0.00     0.029 A 
ATOM     44  N   UNL A   1      42.429  27.786  31.147  1.00  0.00    -0.354 N 
ATOM     45  N   UNL A   1      41.517  29.540  33.355  1.00  0.00    -0.248 NA
ATOM     46  C   UNL A   1      41.720  30.290  35.560  1.00  0.00     0.031 C 
ATOM     47  C   UNL A   1      44.254  26.566  31.473  1.00  0.00     0.029 A 
ATOM     48  C   UNL A   1      43.390  27.457  32.091  1.00  0.00     0.049 A 
ATOM     49  H   UNL A   1      41.677  28.403  31.300  1.00  0.00     0.167 HD
ATOM     50  C   UNL A   1      42.597  28.902  33.953  1.00  0.00     0.074 A 
ATOM     51  C   UNL A   1      42.690  29.424  35.303  1.00  0.00     0.031 C 
ATOM     52  C   UNL A   1      43.440  27.968  33.440  1.00  0.00     0.034 A 
BRANCH  39  53
ATOM     53  C   UNL A   1      42.193  26.356  27.573  1.00  0.00     0.023 A 
ATOM     54  C   UNL A   1      41.796  25.012  27.471  1.00  0.00     0.031 A 
ATOM     55  C   UNL A   1      42.972  26.895  26.534  1.00  0.00     0.131 A 
ATOM     56  C   UNL A   1      42.237  24.234  26.388  1.00  0.00     0.055 A 
ATOM     57  C   UNL A   1      43.346  26.136  25.424  1.00  0.00     0.041 A 
ATOM     58  F   UNL A   1      43.402  28.166  26.591  1.00  0.00    -0.206 F 
ATOM     59  C   UNL A   1      42.990  24.793  25.353  1.00  0.00     0.022 A 
BRANCH  56  60
ATOM     60  S   UNL A   1      41.930  22.446  26.421  1.00  0.00     0.124 S 
ATOM     61  O   UNL A   1      42.336  22.103  27.782  1.00  0.00    -0.237 OA
ATOM     62  O   UNL A   1      40.503  22.366  26.139  1.00  0.00    -0.237 OA
ATOM     63  O   UNL A   1      42.805  21.929  25.371  1.00  0.00    -0.744 OA
ENDBRANCH  56  60
ENDBRANCH  39  53
BRANCH  40  64
ATOM     64  C   UNL A   1      39.383  32.054  35.358  1.00  0.00     0.023 A 
ATOM     65  C   UNL A   1      39.777  33.388  35.536  1.00  0.00     0.031 A 
ATOM     66  C   UNL A   1      38.574  31.465  36.348  1.00  0.00     0.131 A 
ATOM     67  C   UNL A   1      39.386  34.082  36.693  1.00  0.00     0.055 A 
ATOM     68  C   UNL A   1      38.148  32.174  37.471  1.00  0.00     0.041 A 
ATOM     69  F   UNL A   1      38.172  30.190  36.227  1.00  0.00    -0.206 F 
ATOM     70  C   UNL A   1      38.564  33.489  37.654  1.00  0.00     0.022 A 
BRANCH  67  71
ATOM     71  S   UNL A   1      40.029  35.757  36.962  1.00  0.00     0.124 S 
ATOM     72  O   UNL A   1      39.309  36.162  38.164  1.00  0.00    -0.237 OA
ATOM     73  O   UNL A   1      41.458  35.510  37.121  1.00  0.00    -0.237 OA
ATOM     74  O   UNL A   1      39.654  36.466  35.740  1.00  0.00    -0.744 OA
ENDBRANCH  67  71
ENDBRANCH  40  64
BRANCH  52  75
ATOM     75  C   UNL A   1      44.535  27.478  34.350  1.00  0.00     0.023 A 
ATOM     76  C   UNL A   1      44.367  26.334  35.149  1.00  0.00     0.031 A 
ATOM     77  C   UNL A   1      45.750  28.178  34.437  1.00  0.00     0.131 A 
ATOM     78  C   UNL A   1      45.381  25.952  36.040  1.00  0.00     0.055 A 
ATOM     79  C   UNL A   1      46.776  27.762  35.286  1.00  0.00     0.041 A 
ATOM     80  F   UNL A   1      45.960  29.279  33.696  1.00  0.00    -0.206 F 
ATOM     81  C   UNL A   1      46.589  26.651  36.103  1.00  0.00     0.022 A 
BRANCH  78  82
ATOM     82  S   UNL A   1      45.067  24.573  37.176  1.00  0.00     0.124 S 
ATOM     83  O   UNL A   1      43.744  24.904  37.695  1.00  0.00    -0.237 OA
ATOM     84  O   UNL A   1      45.132  23.416  36.290  1.00  0.00    -0.237 OA
ATOM     85  O   UNL A   1      46.156  24.673  38.146  1.00  0.00    -0.744 OA
ENDBRANCH  78  82
ENDBRANCH  52  75
ENDBRANCH  26  27
ENDBRANCH  19  21
ENDBRANCH  18  19
ENDBRANCH  17  18
ENDBRANCH   1  17
TORSDOF 18
ENDMDL
MODEL 3
REMARK VINA RESULT:     -10.4      1.736      3.011
REMARK SMILES COc1ccc([C@@H](C#N)CC(=O)OCCOC(=O)c2ccc(-c3c4nc(c(-c5cc(S(=O)(=O)[O-])ccc5F)c5ccc([nH]5)c(-c5cc(S(=O)(=O)[O-])ccc5F)c5nc(c(-c6cc(S(=O)(=O)[O-])ccc6F)c6ccc3[nH]6)C=C5)C=C4)cc2)cc1
REMARK SMILES IDX 14 1 13 2 11 3 12 4 10 5 7 6 6 7 3 8 4 9 83 10 5 11 82 12
REMARK SMILES IDX 2 13 1 14 8 15 9 16 15 17 16 18 17 19 18 20 19 21 20 22
REMARK SMILES IDX 81 23 21 24 80 25 22 26 23 27 24 28 74 29 25 30 79 31 73 32
REMARK SMILES IDX 75 33 26 34 78 35 72 36 71 37 27 39 59 40 39 41 58 42 40 43
REMARK SMILES IDX 43 44 57 45 76 46 41 47 42 48 56 50 77 51 44 52 28 53 29 54
REMARK SMILES IDX 37 55 30 56 36 57 38 58 35 59 31 60 32 61 33 62 34 63 60 64
REMARK SMILES IDX 61 65 69 66 62 67 68 68 70 69 67 70 63 71 64 72 65 73 66 74
REMARK SMILES IDX 45 75 46 76 54 77 47 78 53 79 55 80 52 81 48 82 49 83 50 84
REMARK SMILES IDX 51 85
REMARK H PARENT 75 38 43 49
REMARK Flexibility Score: inf
ROOT
ATOM      1  C   UNL A   1      35.400  22.809  26.081  1.00  0.00     0.274 C 
ENDROOT
BRANCH   1   2
ATOM      2  O   UNL A   1      34.780  23.309  24.883  1.00  0.00    -0.462 OA
BRANCH   2   3
ATOM      3  C   UNL A   1      33.990  24.398  25.005  1.00  0.00     0.307 C 
ATOM      4  O   UNL A   1      34.202  25.325  25.777  1.00  0.00    -0.252 OA
BRANCH   3   5
ATOM      5  C   UNL A   1      32.755  24.353  24.139  1.00  0.00     0.146 C 
BRANCH   5   6
ATOM      6  C   UNL A   1      31.603  23.398  24.551  1.00  0.00     0.133 C 
BRANCH   6   7
ATOM      7  C   UNL A   1      32.000  21.957  24.180  1.00  0.00    -0.030 A 
ATOM      8  C   UNL A   1      32.403  19.253  23.494  1.00  0.00     0.118 A 
ATOM      9  C   UNL A   1      32.210  20.198  22.495  1.00  0.00     0.047 A 
ATOM     10  C   UNL A   1      32.472  19.660  24.828  1.00  0.00     0.047 A 
ATOM     11  C   UNL A   1      32.008  21.535  22.832  1.00  0.00     0.009 A 
ATOM     12  C   UNL A   1      32.274  21.004  25.170  1.00  0.00     0.009 A 
BRANCH   8  13
ATOM     13  O   UNL A   1      32.551  17.960  23.069  1.00  0.00    -0.497 OA
ATOM     14  C   UNL A   1      33.784  17.365  23.462  1.00  0.00     0.278 C 
ENDBRANCH   8  13
ENDBRANCH   6   7
BRANCH   6  15
ATOM     15  C   UNL A   1      31.561  23.475  26.068  1.00  0.00     0.071 C 
ATOM     16  N   UNL A   1      31.524  23.538  27.328  1.00  0.00    -0.198 NA
ENDBRANCH   6  15
ENDBRANCH   5   6
ENDBRANCH   3   5
ENDBRANCH   2   3
ENDBRANCH   1   2
BRANCH   1  17
ATOM     17  C   UNL A   1      36.175  21.525  25.783  1.00  0.00     0.275 C 
BRANCH  17  18
ATOM     18  O   UNL A   1      37.441  21.813  25.163  1.00  0.00    -0.458 OA
BRANCH  18  19
ATOM     19  C   UNL A   1      38.530  21.379  25.843  1.00  0.00     0.338 C 
ATOM     20  O   UNL A   1      38.962  20.241  25.895  1.00  0.00    -0.246 OA
BRANCH  19  21
ATOM     21  C   UNL A   1      39.256  22.538  26.378  1.00  0.00     0.060 A 
ATOM     22  C   UNL A   1      38.948  23.797  25.859  1.00  0.00     0.016 A 
ATOM     23  C   UNL A   1      40.265  22.395  27.326  1.00  0.00     0.016 A 
ATOM     24  C   UNL A   1      39.625  24.927  26.289  1.00  0.00     0.010 A 
ATOM     25  C   UNL A   1      40.944  23.534  27.768  1.00  0.00     0.010 A 
ATOM     26  C   UNL A   1      40.625  24.805  27.254  1.00  0.00    -0.014 A 
BRANCH  26  27
ATOM     27  C   UNL A   1      41.353  26.014  27.695  1.00  0.00     0.031 A 
ATOM     28  C   UNL A   1      40.638  27.049  28.508  1.00  0.00     0.074 A 
ATOM     29  C   UNL A   1      42.655  26.158  27.385  1.00  0.00     0.049 A 
ATOM     30  N   UNL A   1      41.035  28.243  28.862  1.00  0.00    -0.248 NA
ATOM     31  C   UNL A   1      39.294  26.690  28.985  1.00  0.00     0.031 C 
ATOM     32  C   UNL A   1      43.466  25.167  26.675  1.00  0.00     0.029 A 
ATOM     33  N   UNL A   1      43.522  27.191  27.624  1.00  0.00    -0.354 N 
ATOM     34  C   UNL A   1      39.981  28.793  29.579  1.00  0.00     0.074 A 
ATOM     35  C   UNL A   1      38.922  27.805  29.598  1.00  0.00     0.031 C 
ATOM     36  C   UNL A   1      44.711  25.646  26.527  1.00  0.00     0.029 A 
ATOM     37  C   UNL A   1      44.766  27.000  27.068  1.00  0.00     0.049 A 
ATOM     38  H   UNL A   1      43.278  27.992  28.143  1.00  0.00     0.167 HD
ATOM     39  C   UNL A   1      39.908  30.017  30.160  1.00  0.00     0.034 A 
ATOM     40  C   UNL A   1      45.809  27.845  26.959  1.00  0.00     0.034 A 
ATOM     41  C   UNL A   1      40.984  30.978  30.126  1.00  0.00     0.049 A 
ATOM     42  C   UNL A   1      45.668  29.236  27.520  1.00  0.00     0.074 A 
ATOM     43  C   UNL A   1      41.029  32.245  30.680  1.00  0.00     0.029 A 
ATOM     44  N   UNL A   1      42.206  30.779  29.494  1.00  0.00    -0.354 N 
ATOM     45  N   UNL A   1      44.647  29.772  28.149  1.00  0.00    -0.248 NA
ATOM     46  C   UNL A   1      46.810  30.139  27.341  1.00  0.00     0.031 C 
ATOM     47  C   UNL A   1      42.250  32.835  30.330  1.00  0.00     0.029 A 
ATOM     48  C   UNL A   1      42.996  31.912  29.613  1.00  0.00     0.049 A 
ATOM     49  H   UNL A   1      42.472  29.953  29.030  1.00  0.00     0.167 HD
ATOM     50  C   UNL A   1      45.029  31.075  28.449  1.00  0.00     0.074 A 
ATOM     51  C   UNL A   1      46.382  31.235  27.950  1.00  0.00     0.031 C 
ATOM     52  C   UNL A   1      44.330  32.055  29.078  1.00  0.00     0.034 A 
BRANCH  39  53
ATOM     53  C   UNL A   1      38.599  30.397  30.806  1.00  0.00     0.023 A 
ATOM     54  C   UNL A   1      37.584  31.063  30.099  1.00  0.00     0.031 A 
ATOM     55  C   UNL A   1      38.387  30.128  32.169  1.00  0.00     0.131 A 
ATOM     56  C   UNL A   1      36.433  31.498  30.775  1.00  0.00     0.055 A 
ATOM     57  C   UNL A   1      37.209  30.499  32.819  1.00  0.00     0.041 A 
ATOM     58  F   UNL A   1      39.334  29.518  32.901  1.00  0.00    -0.206 F 
ATOM     59  C   UNL A   1      36.229  31.200  32.125  1.00  0.00     0.022 A 
BRANCH  56  60
ATOM     60  S   UNL A   1      35.268  32.580  29.901  1.00  0.00     0.124 S 
ATOM     61  O   UNL A   1      34.356  32.962  30.977  1.00  0.00    -0.237 OA
ATOM     62  O   UNL A   1      36.137  33.635  29.394  1.00  0.00    -0.237 OA
ATOM     63  O   UNL A   1      34.687  31.706  28.884  1.00  0.00    -0.744 OA
ENDBRANCH  56  60
ENDBRANCH  39  53
BRANCH  40  64
ATOM     64  C   UNL A   1      47.035  27.436  26.219  1.00  0.00     0.023 A 
ATOM     65  C   UNL A   1      47.217  27.771  24.869  1.00  0.00     0.031 A 
ATOM     66  C   UNL A   1      48.032  26.668  26.850  1.00  0.00     0.131 A 
ATOM     67  C   UNL A   1      48.353  27.313  24.184  1.00  0.00     0.055 A 
ATOM     68  C   UNL A   1      49.183  26.257  26.177  1.00  0.00     0.041 A 
ATOM     69  F   UNL A   1      47.905  26.318  28.140  1.00  0.00    -0.206 F 
ATOM     70  C   UNL A   1      49.344  26.570  24.832  1.00  0.00     0.022 A 
BRANCH  67  71
ATOM     71  S   UNL A   1      48.489  27.643  22.405  1.00  0.00     0.124 S 
ATOM     72  O   UNL A   1      49.719  28.424  22.339  1.00  0.00    -0.237 OA
ATOM     73  O   UNL A   1      48.554  26.293  21.853  1.00  0.00    -0.237 OA
ATOM     74  O   UNL A   1      47.264  28.378  22.100  1.00  0.00    -0.744 OA
ENDBRANCH  67  71
ENDBRANCH  40  64
BRANCH  52  75
ATOM     75  C   UNL A   1      45.038  33.371  29.267  1.00  0.00     0.023 A 
ATOM     76  C   UNL A   1      44.851  34.439  28.373  1.00  0.00     0.031 A 
ATOM     77  C   UNL A   1      45.929  33.548  30.339  1.00  0.00     0.131 A 
ATOM     78  C   UNL A   1      45.586  35.622  28.538  1.00  0.00     0.055 A 
ATOM     79  C   UNL A   1      46.617  34.747  30.529  1.00  0.00     0.041 A 
ATOM     80  F   UNL A   1      46.144  32.557  31.220  1.00  0.00    -0.206 F 
ATOM     81  C   UNL A   1      46.456  35.788  29.619  1.00  0.00     0.022 A 
BRANCH  78  82
ATOM     82  S   UNL A   1      45.447  36.916  27.275  1.00  0.00     0.124 S 
ATOM     83  O   UNL A   1      46.276  36.379  26.199  1.00  0.00    -0.237 OA
ATOM     84  O   UNL A   1      44.012  36.951  27.016  1.00  0.00    -0.237 OA
ATOM     85  O   UNL A   1      45.985  38.102  27.938  1.00  0.00    -0.744 OA
ENDBRANCH  78  82
ENDBRANCH  52  75
ENDBRANCH  26  27
ENDBRANCH  19  21
ENDBRANCH  18  19
ENDBRANCH  17  18
ENDBRANCH   1  17
TORSDOF 18
ENDMDL
