MODEL 1
REMARK VINA RESULT:     -11.4      0.000      0.000
REMARK SMILES Cn1cccc1C(=O)N[C@](C)(C(=O)OCCOC(=O)c1ccc(-c2c3nc(c(-c4cc(S(=O)(=O)[O-])ccc4F)c4ccc([nH]4)c(-c4cc(S(=O)(=O)[O-])ccc4F)c4nc(c(-c5cc(S(=O)(=O)[O-])ccc5F)c5ccc2[nH]5)C=C4)C=C3)cc1)C(F)(F)F
REMARK SMILES IDX 16 1 15 2 14 3 12 4 13 5 10 6 11 7 9 8 7 9 8 10 6 12 1 13
REMARK SMILES IDX 2 14 3 15 4 16 5 17 83 18 84 19 85 20 86 21 17 22 18 23
REMARK SMILES IDX 19 24 20 25 21 26 82 27 22 28 81 29 23 30 24 31 25 32 75 33
REMARK SMILES IDX 26 34 80 35 74 36 76 37 27 38 79 39 73 40 72 41 28 43 60 44
REMARK SMILES IDX 40 45 59 46 41 47 44 48 58 49 77 50 42 51 43 52 57 54 78 55
REMARK SMILES IDX 45 56 29 57 30 58 38 59 31 60 37 61 39 62 36 63 32 64 33 65
REMARK SMILES IDX 34 66 35 67 61 68 62 69 70 70 63 71 69 72 71 73 68 74 64 75
REMARK SMILES IDX 65 76 66 77 67 78 46 79 47 80 55 81 48 82 54 83 56 84 53 85
REMARK SMILES IDX 49 86 50 87 51 88 52 89
REMARK H PARENT 9 11 76 42 44 53
REMARK Flexibility Score: inf
ROOT
ATOM      1  C   UNL A   1      36.099  21.302  24.810  1.00  0.00     0.275 C 
ENDROOT
BRANCH   1   2
ATOM      2  C   UNL A   1      34.644  21.078  25.225  1.00  0.00     0.274 C 
BRANCH   2   3
ATOM      3  O   UNL A   1      33.778  22.105  24.698  1.00  0.00    -0.460 OA
BRANCH   3   4
ATOM      4  C   UNL A   1      33.320  23.059  25.559  1.00  0.00     0.341 C 
ATOM      5  O   UNL A   1      33.236  22.871  26.765  1.00  0.00    -0.249 OA
BRANCH   4   6
ATOM      6  C   UNL A   1      32.847  24.328  24.818  1.00  0.00     0.231 C 
ATOM      7  C   UNL A   1      32.556  24.184  23.322  1.00  0.00     0.058 C 
BRANCH   6   8
ATOM      8  N   UNL A   1      31.711  24.828  25.640  1.00  0.00    -0.328 N 
ATOM      9  C   UNL A   1      30.883  25.891  25.785  1.00  0.00     0.269 C 
ATOM     10  O   UNL A   1      29.856  25.548  26.391  1.00  0.00    -0.268 OA
ATOM     11  H   UNL A   1      31.483  24.148  26.315  1.00  0.00     0.165 HD
BRANCH   9  12
ATOM     12  C   UNL A   1      31.081  27.300  25.468  1.00  0.00     0.106 A 
ATOM     13  C   UNL A   1      32.400  28.607  27.276  1.00  0.00     0.150 C 
ATOM     14  N   UNL A   1      31.664  28.417  26.050  1.00  0.00    -0.347 N 
ATOM     15  C   UNL A   1      31.600  29.494  25.177  1.00  0.00     0.086 A 
ATOM     16  C   UNL A   1      31.020  29.092  24.009  1.00  0.00     0.020 A 
ATOM     17  C   UNL A   1      30.698  27.741  24.189  1.00  0.00     0.033 A 
ENDBRANCH   9  12
ENDBRANCH   6   8
BRANCH   6  18
ATOM     18  C   UNL A   1      34.049  25.308  24.933  1.00  0.00     0.422 C 
ATOM     19  F   UNL A   1      35.233  24.711  24.683  1.00  0.00    -0.168 F 
ATOM     20  F   UNL A   1      33.921  26.316  24.031  1.00  0.00    -0.168 F 
ATOM     21  F   UNL A   1      34.108  25.901  26.147  1.00  0.00    -0.168 F 
ENDBRANCH   6  18
ENDBRANCH   4   6
ENDBRANCH   3   4
ENDBRANCH   2   3
ENDBRANCH   1   2
BRANCH   1  22
ATOM     22  O   UNL A   1      36.907  21.577  25.965  1.00  0.00    -0.458 OA
BRANCH  22  23
ATOM     23  C   UNL A   1      38.225  21.304  25.846  1.00  0.00     0.338 C 
ATOM     24  O   UNL A   1      38.736  20.363  25.250  1.00  0.00    -0.246 OA
BRANCH  23  25
ATOM     25  C   UNL A   1      38.984  22.433  26.394  1.00  0.00     0.060 A 
ATOM     26  C   UNL A   1      38.524  23.714  26.098  1.00  0.00     0.016 A 
ATOM     27  C   UNL A   1      40.161  22.259  27.120  1.00  0.00     0.016 A 
ATOM     28  C   UNL A   1      39.232  24.835  26.502  1.00  0.00     0.010 A 
ATOM     29  C   UNL A   1      40.858  23.391  27.563  1.00  0.00     0.010 A 
ATOM     30  C   UNL A   1      40.404  24.687  27.248  1.00  0.00    -0.014 A 
BRANCH  30  31
ATOM     31  C   UNL A   1      41.178  25.898  27.618  1.00  0.00     0.031 A 
ATOM     32  C   UNL A   1      40.539  26.941  28.488  1.00  0.00     0.074 A 
ATOM     33  C   UNL A   1      42.462  26.029  27.230  1.00  0.00     0.049 A 
ATOM     34  N   UNL A   1      40.966  28.136  28.801  1.00  0.00    -0.248 NA
ATOM     35  C   UNL A   1      39.238  26.592  29.078  1.00  0.00     0.031 C 
ATOM     36  C   UNL A   1      43.219  25.039  26.460  1.00  0.00     0.029 A 
ATOM     37  N   UNL A   1      43.363  27.044  27.439  1.00  0.00    -0.354 N 
ATOM     38  C   UNL A   1      39.964  28.704  29.579  1.00  0.00     0.074 A 
ATOM     39  C   UNL A   1      38.908  27.719  29.689  1.00  0.00     0.031 C 
ATOM     40  C   UNL A   1      44.471  25.487  26.279  1.00  0.00     0.029 A 
ATOM     41  C   UNL A   1      44.584  26.827  26.844  1.00  0.00     0.049 A 
ATOM     42  H   UNL A   1      43.155  27.849  27.965  1.00  0.00     0.167 HD
ATOM     43  C   UNL A   1      39.931  29.939  30.139  1.00  0.00     0.034 A 
ATOM     44  C   UNL A   1      45.655  27.635  26.725  1.00  0.00     0.034 A 
ATOM     45  C   UNL A   1      41.014  30.887  30.041  1.00  0.00     0.049 A 
ATOM     46  C   UNL A   1      45.578  29.020  27.315  1.00  0.00     0.074 A 
ATOM     47  C   UNL A   1      41.088  32.172  30.550  1.00  0.00     0.029 A 
ATOM     48  N   UNL A   1      42.221  30.648  29.395  1.00  0.00    -0.354 N 
ATOM     49  N   UNL A   1      44.589  29.584  27.970  1.00  0.00    -0.248 NA
ATOM     50  C   UNL A   1      46.754  29.881  27.138  1.00  0.00     0.031 C 
ATOM     51  C   UNL A   1      42.316  32.725  30.170  1.00  0.00     0.029 A 
ATOM     52  C   UNL A   1      43.037  31.766  29.477  1.00  0.00     0.049 A 
ATOM     53  H   UNL A   1      42.462  29.806  28.944  1.00  0.00     0.167 HD
ATOM     54  C   UNL A   1      45.027  30.865  28.289  1.00  0.00     0.074 A 
ATOM     55  C   UNL A   1      46.379  30.980  27.776  1.00  0.00     0.031 C 
ATOM     56  C   UNL A   1      44.374  31.861  28.941  1.00  0.00     0.034 A 
BRANCH  43  57
ATOM     57  C   UNL A   1      38.653  30.350  30.827  1.00  0.00     0.023 A 
ATOM     58  C   UNL A   1      37.604  30.992  30.143  1.00  0.00     0.031 A 
ATOM     59  C   UNL A   1      38.506  30.140  32.210  1.00  0.00     0.131 A 
ATOM     60  C   UNL A   1      36.491  31.463  30.857  1.00  0.00     0.055 A 
ATOM     61  C   UNL A   1      37.361  30.543  32.900  1.00  0.00     0.041 A 
ATOM     62  F   UNL A   1      39.485  29.556  32.920  1.00  0.00    -0.206 F 
ATOM     63  C   UNL A   1      36.351  31.222  32.226  1.00  0.00     0.022 A 
BRANCH  60  64
ATOM     64  S   UNL A   1      35.293  32.520  29.999  1.00  0.00     0.124 S 
ATOM     65  O   UNL A   1      36.132  33.644  29.588  1.00  0.00    -0.237 OA
ATOM     66  O   UNL A   1      34.817  31.654  28.928  1.00  0.00    -0.237 OA
ATOM     67  O   UNL A   1      34.309  32.833  31.033  1.00  0.00    -0.744 OA
ENDBRANCH  60  64
ENDBRANCH  43  57
BRANCH  44  68
ATOM     68  C   UNL A   1      46.850  27.197  25.947  1.00  0.00     0.023 A 
ATOM     69  C   UNL A   1      47.063  27.628  24.628  1.00  0.00     0.031 A 
ATOM     70  C   UNL A   1      47.785  26.307  26.509  1.00  0.00     0.131 A 
ATOM     71  C   UNL A   1      48.167  27.145  23.905  1.00  0.00     0.055 A 
ATOM     72  C   UNL A   1      48.907  25.872  25.805  1.00  0.00     0.041 A 
ATOM     73  F   UNL A   1      47.626  25.860  27.765  1.00  0.00    -0.206 F 
ATOM     74  C   UNL A   1      49.098  26.284  24.491  1.00  0.00     0.022 A 
BRANCH  71  75
ATOM     75  S   UNL A   1      48.332  27.601  22.157  1.00  0.00     0.124 S 
ATOM     76  O   UNL A   1      49.498  28.476  22.186  1.00  0.00    -0.237 OA
ATOM     77  O   UNL A   1      48.519  26.301  21.521  1.00  0.00    -0.237 OA
ATOM     78  O   UNL A   1      47.064  28.262  21.856  1.00  0.00    -0.744 OA
ENDBRANCH  71  75
ENDBRANCH  44  68
BRANCH  56  79
ATOM     79  C   UNL A   1      45.138  33.140  29.155  1.00  0.00     0.023 A 
ATOM     80  C   UNL A   1      44.990  34.238  28.290  1.00  0.00     0.031 A 
ATOM     81  C   UNL A   1      46.041  33.252  30.227  1.00  0.00     0.131 A 
ATOM     82  C   UNL A   1      45.775  35.385  28.481  1.00  0.00     0.055 A 
ATOM     83  C   UNL A   1      46.782  34.414  30.440  1.00  0.00     0.041 A 
ATOM     84  F   UNL A   1      46.219  32.231  31.080  1.00  0.00    -0.206 F 
ATOM     85  C   UNL A   1      46.660  35.485  29.558  1.00  0.00     0.022 A 
BRANCH  82  86
ATOM     86  S   UNL A   1      45.684  36.718  27.254  1.00  0.00     0.124 S 
ATOM     87  O   UNL A   1      46.665  36.286  26.263  1.00  0.00    -0.237 OA
ATOM     88  O   UNL A   1      44.287  36.660  26.834  1.00  0.00    -0.237 OA
ATOM     89  O   UNL A   1      46.053  37.909  28.014  1.00  0.00    -0.744 OA
ENDBRANCH  82  86
ENDBRANCH  56  79
ENDBRANCH  30  31
ENDBRANCH  23  25
ENDBRANCH  22  23
ENDBRANCH   1  22
TORSDOF 17
ENDMDL
MODEL 2
REMARK VINA RESULT:     -11.3      5.142     10.220
REMARK SMILES Cn1cccc1C(=O)N[C@](C)(C(=O)OCCOC(=O)c1ccc(-c2c3nc(c(-c4cc(S(=O)(=O)[O-])ccc4F)c4ccc([nH]4)c(-c4cc(S(=O)(=O)[O-])ccc4F)c4nc(c(-c5cc(S(=O)(=O)[O-])ccc5F)c5ccc2[nH]5)C=C4)C=C3)cc1)C(F)(F)F
REMARK SMILES IDX 16 1 15 2 14 3 12 4 13 5 10 6 11 7 9 8 7 9 8 10 6 12 1 13
REMARK SMILES IDX 2 14 3 15 4 16 5 17 83 18 84 19 85 20 86 21 17 22 18 23
REMARK SMILES IDX 19 24 20 25 21 26 82 27 22 28 81 29 23 30 24 31 25 32 75 33
REMARK SMILES IDX 26 34 80 35 74 36 76 37 27 38 79 39 73 40 72 41 28 43 60 44
REMARK SMILES IDX 40 45 59 46 41 47 44 48 58 49 77 50 42 51 43 52 57 54 78 55
REMARK SMILES IDX 45 56 29 57 30 58 38 59 31 60 37 61 39 62 36 63 32 64 33 65
REMARK SMILES IDX 34 66 35 67 61 68 62 69 70 70 63 71 69 72 71 73 68 74 64 75
REMARK SMILES IDX 65 76 66 77 67 78 46 79 47 80 55 81 48 82 54 83 56 84 53 85
REMARK SMILES IDX 49 86 50 87 51 88 52 89
REMARK H PARENT 9 11 76 42 44 53
REMARK Flexibility Score: inf
ROOT
ATOM      1  C   UNL A   1      31.512  29.922  25.663  1.00  0.00     0.275 C 
ENDROOT
BRANCH   1   2
ATOM      2  C   UNL A   1      31.472  29.189  24.321  1.00  0.00     0.274 C 
BRANCH   2   3
ATOM      3  O   UNL A   1      31.335  27.763  24.499  1.00  0.00    -0.460 OA
BRANCH   3   4
ATOM      4  C   UNL A   1      31.976  26.945  23.616  1.00  0.00     0.341 C 
ATOM      5  O   UNL A   1      31.958  27.137  22.408  1.00  0.00    -0.249 OA
BRANCH   4   6
ATOM      6  C   UNL A   1      32.621  25.729  24.317  1.00  0.00     0.231 C 
ATOM      7  C   UNL A   1      31.732  24.939  25.281  1.00  0.00     0.058 C 
BRANCH   6   8
ATOM      8  N   UNL A   1      33.210  24.938  23.204  1.00  0.00    -0.328 N 
ATOM      9  C   UNL A   1      33.654  23.695  22.894  1.00  0.00     0.269 C 
ATOM     10  O   UNL A   1      33.653  23.538  21.663  1.00  0.00    -0.268 OA
ATOM     11  H   UNL A   1      33.316  25.521  22.417  1.00  0.00     0.165 HD
BRANCH   9  12
ATOM     12  C   UNL A   1      34.213  22.647  23.740  1.00  0.00     0.106 A 
ATOM     13  C   UNL A   1      32.474  20.896  24.529  1.00  0.00     0.150 C 
ATOM     14  N   UNL A   1      33.767  21.527  24.426  1.00  0.00    -0.347 N 
ATOM     15  C   UNL A   1      34.842  20.863  25.000  1.00  0.00     0.086 A 
ATOM     16  C   UNL A   1      35.998  21.506  24.666  1.00  0.00     0.020 A 
ATOM     17  C   UNL A   1      35.610  22.607  23.891  1.00  0.00     0.033 A 
ENDBRANCH   9  12
ENDBRANCH   6   8
BRANCH   6  18
ATOM     18  C   UNL A   1      33.756  26.346  25.182  1.00  0.00     0.422 C 
ATOM     19  F   UNL A   1      34.773  25.487  25.397  1.00  0.00    -0.168 F 
ATOM     20  F   UNL A   1      34.285  27.431  24.557  1.00  0.00    -0.168 F 
ATOM     21  F   UNL A   1      33.301  26.791  26.376  1.00  0.00    -0.168 F 
ENDBRANCH   6  18
ENDBRANCH   4   6
ENDBRANCH   3   4
ENDBRANCH   2   3
ENDBRANCH   1   2
BRANCH   1  22
ATOM     22  O   UNL A   1      32.872  30.094  26.093  1.00  0.00    -0.458 OA
BRANCH  22  23
ATOM     23  C   UNL A   1      33.106  31.143  26.911  1.00  0.00     0.338 C 
ATOM     24  O   UNL A   1      32.331  32.049  27.196  1.00  0.00    -0.246 OA
BRANCH  23  25
ATOM     25  C   UNL A   1      34.400  30.938  27.571  1.00  0.00     0.060 A 
ATOM     26  C   UNL A   1      34.724  29.636  27.946  1.00  0.00     0.016 A 
ATOM     27  C   UNL A   1      35.252  31.994  27.888  1.00  0.00     0.016 A 
ATOM     28  C   UNL A   1      35.886  29.368  28.652  1.00  0.00     0.010 A 
ATOM     29  C   UNL A   1      36.447  31.720  28.568  1.00  0.00     0.010 A 
ATOM     30  C   UNL A   1      36.766  30.407  28.965  1.00  0.00    -0.014 A 
BRANCH  30  31
ATOM     31  C   UNL A   1      37.974  30.106  29.774  1.00  0.00     0.031 A 
ATOM     32  C   UNL A   1      39.047  29.230  29.196  1.00  0.00     0.074 A 
ATOM     33  C   UNL A   1      38.135  30.666  30.989  1.00  0.00     0.049 A 
ATOM     34  N   UNL A   1      40.098  28.713  29.775  1.00  0.00    -0.248 NA
ATOM     35  C   UNL A   1      38.910  28.883  27.774  1.00  0.00     0.031 C 
ATOM     36  C   UNL A   1      37.204  31.606  31.617  1.00  0.00     0.029 A 
ATOM     37  N   UNL A   1      39.144  30.536  31.911  1.00  0.00    -0.354 N 
ATOM     38  C   UNL A   1      40.720  27.936  28.805  1.00  0.00     0.074 A 
ATOM     39  C   UNL A   1      39.925  28.051  27.600  1.00  0.00     0.031 C 
ATOM     40  C   UNL A   1      37.694  31.981  32.810  1.00  0.00     0.029 A 
ATOM     41  C   UNL A   1      38.928  31.247  33.068  1.00  0.00     0.049 A 
ATOM     42  H   UNL A   1      39.946  29.986  31.757  1.00  0.00     0.167 HD
ATOM     43  C   UNL A   1      41.847  27.189  28.920  1.00  0.00     0.034 A 
ATOM     44  C   UNL A   1      39.619  31.267  34.225  1.00  0.00     0.034 A 
ATOM     45  C   UNL A   1      42.638  27.120  30.125  1.00  0.00     0.049 A 
ATOM     46  C   UNL A   1      40.841  30.394  34.345  1.00  0.00     0.074 A 
ATOM     47  C   UNL A   1      43.786  26.386  30.366  1.00  0.00     0.029 A 
ATOM     48  N   UNL A   1      42.366  27.823  31.293  1.00  0.00    -0.354 N 
ATOM     49  N   UNL A   1      41.371  29.588  33.454  1.00  0.00    -0.248 NA
ATOM     50  C   UNL A   1      41.549  30.421  35.631  1.00  0.00     0.031 C 
ATOM     51  C   UNL A   1      44.178  26.606  31.692  1.00  0.00     0.029 A 
ATOM     52  C   UNL A   1      43.313  27.526  32.261  1.00  0.00     0.049 A 
ATOM     53  H   UNL A   1      41.610  28.443  31.415  1.00  0.00     0.167 HD
ATOM     54  C   UNL A   1      42.479  29.017  34.069  1.00  0.00     0.074 A 
ATOM     55  C   UNL A   1      42.556  29.590  35.399  1.00  0.00     0.031 C 
ATOM     56  C   UNL A   1      43.355  28.098  33.586  1.00  0.00     0.034 A 
BRANCH  43  57
ATOM     57  C   UNL A   1      42.228  26.330  27.740  1.00  0.00     0.023 A 
ATOM     58  C   UNL A   1      41.782  25.004  27.600  1.00  0.00     0.031 A 
ATOM     59  C   UNL A   1      43.101  26.837  26.761  1.00  0.00     0.131 A 
ATOM     60  C   UNL A   1      42.267  24.211  26.548  1.00  0.00     0.055 A 
ATOM     61  C   UNL A   1      43.519  26.068  25.674  1.00  0.00     0.041 A 
ATOM     62  F   UNL A   1      43.581  28.088  26.856  1.00  0.00    -0.206 F 
ATOM     63  C   UNL A   1      43.113  24.741  25.570  1.00  0.00     0.022 A 
BRANCH  60  64
ATOM     64  S   UNL A   1      41.890  22.437  26.551  1.00  0.00     0.124 S 
ATOM     65  O   UNL A   1      42.566  21.990  25.335  1.00  0.00    -0.237 OA
ATOM     66  O   UNL A   1      42.476  21.991  27.809  1.00  0.00    -0.237 OA
ATOM     67  O   UNL A   1      40.430  22.396  26.492  1.00  0.00    -0.744 OA
ENDBRANCH  60  64
ENDBRANCH  43  57
BRANCH  44  68
ATOM     68  C   UNL A   1      39.128  32.066  35.384  1.00  0.00     0.023 A 
ATOM     69  C   UNL A   1      38.493  31.457  36.477  1.00  0.00     0.031 A 
ATOM     70  C   UNL A   1      39.262  33.468  35.397  1.00  0.00     0.131 A 
ATOM     71  C   UNL A   1      37.989  32.248  37.523  1.00  0.00     0.055 A 
ATOM     72  C   UNL A   1      38.807  34.244  36.462  1.00  0.00     0.041 A 
ATOM     73  F   UNL A   1      39.857  34.102  34.374  1.00  0.00    -0.206 F 
ATOM     74  C   UNL A   1      38.157  33.636  37.530  1.00  0.00     0.022 A 
BRANCH  71  75
ATOM     75  S   UNL A   1      37.042  31.446  38.846  1.00  0.00     0.124 S 
ATOM     76  O   UNL A   1      35.829  32.255  38.876  1.00  0.00    -0.237 OA
ATOM     77  O   UNL A   1      36.896  30.087  38.334  1.00  0.00    -0.237 OA
ATOM     78  O   UNL A   1      37.909  31.578  40.014  1.00  0.00    -0.744 OA
ENDBRANCH  71  75
ENDBRANCH  44  68
BRANCH  56  79
ATOM     79  C   UNL A   1      44.479  27.693  34.501  1.00  0.00     0.023 A 
ATOM     80  C   UNL A   1      44.392  26.547  35.311  1.00  0.00     0.031 A 
ATOM     81  C   UNL A   1      45.644  28.476  34.579  1.00  0.00     0.131 A 
ATOM     82  C   UNL A   1      45.430  26.245  36.204  1.00  0.00     0.055 A 
ATOM     83  C   UNL A   1      46.695  28.142  35.433  1.00  0.00     0.041 A 
ATOM     84  F   UNL A   1      45.775  29.581  33.827  1.00  0.00    -0.206 F 
ATOM     85  C   UNL A   1      46.586  27.028  36.261  1.00  0.00     0.022 A 
BRANCH  82  86
ATOM     86  S   UNL A   1      45.216  24.857  37.352  1.00  0.00     0.124 S 
ATOM     87  O   UNL A   1      44.658  25.518  38.527  1.00  0.00    -0.237 OA
ATOM     88  O   UNL A   1      44.304  23.984  36.619  1.00  0.00    -0.237 OA
ATOM     89  O   UNL A   1      46.571  24.337  37.518  1.00  0.00    -0.744 OA
ENDBRANCH  82  86
ENDBRANCH  56  79
ENDBRANCH  30  31
ENDBRANCH  23  25
ENDBRANCH  22  23
ENDBRANCH   1  22
TORSDOF 17
ENDMDL
MODEL 3
REMARK VINA RESULT:     -11.2      5.070     10.111
REMARK SMILES Cn1cccc1C(=O)N[C@](C)(C(=O)OCCOC(=O)c1ccc(-c2c3nc(c(-c4cc(S(=O)(=O)[O-])ccc4F)c4ccc([nH]4)c(-c4cc(S(=O)(=O)[O-])ccc4F)c4nc(c(-c5cc(S(=O)(=O)[O-])ccc5F)c5ccc2[nH]5)C=C4)C=C3)cc1)C(F)(F)F
REMARK SMILES IDX 16 1 15 2 14 3 12 4 13 5 10 6 11 7 9 8 7 9 8 10 6 12 1 13
REMARK SMILES IDX 2 14 3 15 4 16 5 17 83 18 84 19 85 20 86 21 17 22 18 23
REMARK SMILES IDX 19 24 20 25 21 26 82 27 22 28 81 29 23 30 24 31 25 32 75 33
REMARK SMILES IDX 26 34 80 35 74 36 76 37 27 38 79 39 73 40 72 41 28 43 60 44
REMARK SMILES IDX 40 45 59 46 41 47 44 48 58 49 77 50 42 51 43 52 57 54 78 55
REMARK SMILES IDX 45 56 29 57 30 58 38 59 31 60 37 61 39 62 36 63 32 64 33 65
REMARK SMILES IDX 34 66 35 67 61 68 62 69 70 70 63 71 69 72 71 73 68 74 64 75
REMARK SMILES IDX 65 76 66 77 67 78 46 79 47 80 55 81 48 82 54 83 56 84 53 85
REMARK SMILES IDX 49 86 50 87 51 88 52 89
REMARK H PARENT 9 11 76 42 44 53
REMARK Flexibility Score: inf
ROOT
ATOM      1  C   UNL A   1      31.576  30.220  25.982  1.00  0.00     0.275 C 
ENDROOT
BRANCH   1   2
ATOM      2  C   UNL A   1      31.383  29.527  24.633  1.00  0.00     0.274 C 
BRANCH   2   3
ATOM      3  O   UNL A   1      32.153  28.309  24.547  1.00  0.00    -0.460 OA
BRANCH   3   4
ATOM      4  C   UNL A   1      31.482  27.123  24.605  1.00  0.00     0.341 C 
ATOM      5  O   UNL A   1      30.286  27.031  24.363  1.00  0.00    -0.249 OA
BRANCH   4   6
ATOM      6  C   UNL A   1      32.385  25.971  25.098  1.00  0.00     0.231 C 
ATOM      7  C   UNL A   1      33.644  26.367  25.872  1.00  0.00     0.058 C 
BRANCH   6   8
ATOM      8  N   UNL A   1      31.454  25.063  25.822  1.00  0.00    -0.328 N 
ATOM      9  C   UNL A   1      31.429  23.930  26.565  1.00  0.00     0.269 C 
ATOM     10  O   UNL A   1      30.390  23.890  27.242  1.00  0.00    -0.268 OA
ATOM     11  H   UNL A   1      30.536  25.406  25.727  1.00  0.00     0.165 HD
BRANCH   9  12
ATOM     12  C   UNL A   1      32.324  22.779  26.573  1.00  0.00     0.106 A 
ATOM     13  C   UNL A   1      32.315  21.427  24.362  1.00  0.00     0.150 C 
ATOM     14  N   UNL A   1      32.687  21.747  25.719  1.00  0.00    -0.347 N 
ATOM     15  C   UNL A   1      33.694  20.987  26.294  1.00  0.00     0.086 A 
ATOM     16  C   UNL A   1      34.033  21.528  27.500  1.00  0.00     0.020 A 
ATOM     17  C   UNL A   1      33.187  22.631  27.673  1.00  0.00     0.033 A 
ENDBRANCH   9  12
ENDBRANCH   6   8
BRANCH   6  18
ATOM     18  C   UNL A   1      32.877  25.287  23.792  1.00  0.00     0.422 C 
ATOM     19  F   UNL A   1      33.381  26.165  22.901  1.00  0.00    -0.168 F 
ATOM     20  F   UNL A   1      33.868  24.399  24.071  1.00  0.00    -0.168 F 
ATOM     21  F   UNL A   1      31.898  24.572  23.192  1.00  0.00    -0.168 F 
ENDBRANCH   6  18
ENDBRANCH   4   6
ENDBRANCH   3   4
ENDBRANCH   2   3
ENDBRANCH   1   2
BRANCH   1  22
ATOM     22  O   UNL A   1      32.973  30.442  26.230  1.00  0.00    -0.458 OA
BRANCH  22  23
ATOM     23  C   UNL A   1      33.276  31.498  27.017  1.00  0.00     0.338 C 
ATOM     24  O   UNL A   1      32.547  32.439  27.306  1.00  0.00    -0.246 OA
BRANCH  23  25
ATOM     25  C   UNL A   1      34.581  31.254  27.640  1.00  0.00     0.060 A 
ATOM     26  C   UNL A   1      34.886  29.940  27.987  1.00  0.00     0.016 A 
ATOM     27  C   UNL A   1      35.465  32.286  27.950  1.00  0.00     0.016 A 
ATOM     28  C   UNL A   1      36.059  29.636  28.659  1.00  0.00     0.010 A 
ATOM     29  C   UNL A   1      36.670  31.976  28.595  1.00  0.00     0.010 A 
ATOM     30  C   UNL A   1      36.970  30.650  28.964  1.00  0.00    -0.014 A 
BRANCH  30  31
ATOM     31  C   UNL A   1      38.191  30.311  29.736  1.00  0.00     0.031 A 
ATOM     32  C   UNL A   1      39.229  29.420  29.118  1.00  0.00     0.074 A 
ATOM     33  C   UNL A   1      38.396  30.849  30.955  1.00  0.00     0.049 A 
ATOM     34  N   UNL A   1      40.283  28.871  29.662  1.00  0.00    -0.248 NA
ATOM     35  C   UNL A   1      39.047  29.097  27.695  1.00  0.00     0.031 C 
ATOM     36  C   UNL A   1      37.502  31.800  31.621  1.00  0.00     0.029 A 
ATOM     37  N   UNL A   1      39.425  30.682  31.848  1.00  0.00    -0.354 N 
ATOM     38  C   UNL A   1      40.862  28.095  28.666  1.00  0.00     0.074 A 
ATOM     39  C   UNL A   1      40.039  28.245  27.484  1.00  0.00     0.031 C 
ATOM     40  C   UNL A   1      38.032  32.146  32.805  1.00  0.00     0.029 A 
ATOM     41  C   UNL A   1      39.255  31.381  33.021  1.00  0.00     0.049 A 
ATOM     42  H   UNL A   1      40.210  30.117  31.666  1.00  0.00     0.167 HD
ATOM     43  C   UNL A   1      41.974  27.321  28.741  1.00  0.00     0.034 A 
ATOM     44  C   UNL A   1      39.976  31.369  34.159  1.00  0.00     0.034 A 
ATOM     45  C   UNL A   1      42.794  27.217  29.923  1.00  0.00     0.049 A 
ATOM     46  C   UNL A   1      41.181  30.467  34.235  1.00  0.00     0.074 A 
ATOM     47  C   UNL A   1      43.931  26.454  30.124  1.00  0.00     0.029 A 
ATOM     48  N   UNL A   1      42.568  27.908  31.108  1.00  0.00    -0.354 N 
ATOM     49  N   UNL A   1      41.669  29.663  33.319  1.00  0.00    -0.248 NA
ATOM     50  C   UNL A   1      41.922  30.459  35.502  1.00  0.00     0.031 C 
ATOM     51  C   UNL A   1      44.362  26.646  31.442  1.00  0.00     0.029 A 
ATOM     52  C   UNL A   1      43.533  27.577  32.047  1.00  0.00     0.049 A 
ATOM     53  H   UNL A   1      41.830  28.544  31.258  1.00  0.00     0.167 HD
ATOM     54  C   UNL A   1      42.780  29.058  33.897  1.00  0.00     0.074 A 
ATOM     55  C   UNL A   1      42.903  29.610  35.232  1.00  0.00     0.031 C 
ATOM     56  C   UNL A   1      43.622  28.128  33.378  1.00  0.00     0.034 A 
BRANCH  43  57
ATOM     57  C   UNL A   1      42.306  26.472  27.539  1.00  0.00     0.023 A 
ATOM     58  C   UNL A   1      41.871  25.140  27.417  1.00  0.00     0.031 A 
ATOM     59  C   UNL A   1      43.120  26.995  26.518  1.00  0.00     0.131 A 
ATOM     60  C   UNL A   1      42.312  24.358  26.337  1.00  0.00     0.055 A 
ATOM     61  C   UNL A   1      43.491  26.235  25.407  1.00  0.00     0.041 A 
ATOM     62  F   UNL A   1      43.586  28.252  26.593  1.00  0.00    -0.206 F 
ATOM     63  C   UNL A   1      43.098  24.903  25.320  1.00  0.00     0.022 A 
BRANCH  60  64
ATOM     64  S   UNL A   1      41.960  22.579  26.353  1.00  0.00     0.124 S 
ATOM     65  O   UNL A   1      42.584  22.144  25.105  1.00  0.00    -0.237 OA
ATOM     66  O   UNL A   1      42.612  22.138  27.580  1.00  0.00    -0.237 OA
ATOM     67  O   UNL A   1      40.500  22.517  26.364  1.00  0.00    -0.744 OA
ENDBRANCH  60  64
ENDBRANCH  43  57
BRANCH  44  68
ATOM     68  C   UNL A   1      39.533  32.161  35.342  1.00  0.00     0.023 A 
ATOM     69  C   UNL A   1      38.770  31.582  36.368  1.00  0.00     0.031 A 
ATOM     70  C   UNL A   1      39.845  33.530  35.446  1.00  0.00     0.131 A 
ATOM     71  C   UNL A   1      38.319  32.375  37.436  1.00  0.00     0.055 A 
ATOM     72  C   UNL A   1      39.440  34.301  36.535  1.00  0.00     0.041 A 
ATOM     73  F   UNL A   1      40.568  34.136  34.490  1.00  0.00    -0.206 F 
ATOM     74  C   UNL A   1      38.663  33.726  37.534  1.00  0.00     0.022 A 
BRANCH  71  75
ATOM     75  S   UNL A   1      37.210  31.633  38.666  1.00  0.00     0.124 S 
ATOM     76  O   UNL A   1      37.065  30.275  38.155  1.00  0.00    -0.237 OA
ATOM     77  O   UNL A   1      37.982  31.778  39.896  1.00  0.00    -0.237 OA
ATOM     78  O   UNL A   1      36.010  32.462  38.586  1.00  0.00    -0.744 OA
ENDBRANCH  71  75
ENDBRANCH  44  68
BRANCH  56  79
ATOM     79  C   UNL A   1      44.760  27.684  34.258  1.00  0.00     0.023 A 
ATOM     80  C   UNL A   1      44.644  26.566  35.102  1.00  0.00     0.031 A 
ATOM     81  C   UNL A   1      45.968  28.403  34.266  1.00  0.00     0.131 A 
ATOM     82  C   UNL A   1      45.702  26.230  35.960  1.00  0.00     0.055 A 
ATOM     83  C   UNL A   1      47.034  28.034  35.086  1.00  0.00     0.041 A 
ATOM     84  F   UNL A   1      46.127  29.480  33.479  1.00  0.00    -0.206 F 
ATOM     85  C   UNL A   1      46.900  26.949  35.948  1.00  0.00     0.022 A 
BRANCH  82  86
ATOM     86  S   UNL A   1      45.461  24.886  37.154  1.00  0.00     0.124 S 
ATOM     87  O   UNL A   1      45.104  23.768  36.285  1.00  0.00    -0.237 OA
ATOM     88  O   UNL A   1      46.769  24.801  37.796  1.00  0.00    -0.237 OA
ATOM     89  O   UNL A   1      44.382  25.375  38.009  1.00  0.00    -0.744 OA
ENDBRANCH  82  86
ENDBRANCH  56  79
ENDBRANCH  30  31
ENDBRANCH  23  25
ENDBRANCH  22  23
ENDBRANCH   1  22
TORSDOF 17
ENDMDL
