MODEL 1
REMARK VINA RESULT:     -11.6      0.000      0.000
REMARK SMILES C[C@@H](C(=O)OCCOC(=O)c1ccc(-c2c3nc(c(-c4cc(S(=O)(=O)[O-])ccc4F)c4ccc([nH]4)c(-c4cc(S(=O)(=O)[O-])ccc4F)c4nc(c(-c5cc(S(=O)(=O)[O-])ccc5F)c5ccc2[nH]5)C=C4)C=C3)cc1)c1ccc(=O)n(C(F)F)c1
REMARK SMILES IDX 7 1 6 2 5 3 3 4 4 5 2 6 1 7 74 8 75 9 83 10 76 11 79 12
REMARK SMILES IDX 77 13 78 14 80 15 81 16 82 17 8 18 9 19 10 20 11 21 12 22
REMARK SMILES IDX 73 23 13 24 72 25 14 26 15 27 16 28 66 29 17 30 71 31 65 32
REMARK SMILES IDX 67 33 18 34 70 35 64 36 63 37 19 39 51 40 31 41 50 42 32 43
REMARK SMILES IDX 35 44 49 45 68 46 33 47 34 48 48 50 69 51 36 52 20 53 21 54
REMARK SMILES IDX 29 55 22 56 28 57 30 58 27 59 23 60 24 61 25 62 26 63 52 64
REMARK SMILES IDX 53 65 61 66 54 67 60 68 62 69 59 70 55 71 56 72 57 73 58 74
REMARK SMILES IDX 37 75 38 76 46 77 39 78 45 79 47 80 44 81 40 82 41 83 42 84
REMARK SMILES IDX 43 85
REMARK H PARENT 67 38 35 49
REMARK Flexibility Score: inf
ROOT
ATOM      1  C   UNL A   1      36.358  20.840  25.044  1.00  0.00     0.275 C 
ENDROOT
BRANCH   1   2
ATOM      2  C   UNL A   1      35.533  21.501  26.144  1.00  0.00     0.274 C 
BRANCH   2   3
ATOM      3  O   UNL A   1      34.601  22.445  25.579  1.00  0.00    -0.462 OA
BRANCH   3   4
ATOM      4  C   UNL A   1      33.397  22.579  26.204  1.00  0.00     0.313 C 
ATOM      5  O   UNL A   1      33.264  22.712  27.414  1.00  0.00    -0.252 OA
BRANCH   4   6
ATOM      6  C   UNL A   1      32.223  22.450  25.225  1.00  0.00     0.127 C 
ATOM      7  C   UNL A   1      30.845  22.585  25.882  1.00  0.00     0.025 C 
BRANCH   6   8
ATOM      8  C   UNL A   1      32.332  21.165  24.417  1.00  0.00    -0.017 A 
ATOM      9  C   UNL A   1      32.194  21.267  22.974  1.00  0.00     0.012 A 
ATOM     10  C   UNL A   1      32.491  19.942  24.955  1.00  0.00     0.099 A 
ATOM     11  C   UNL A   1      32.170  20.173  22.203  1.00  0.00     0.072 A 
ATOM     12  N   UNL A   1      32.514  18.799  24.173  1.00  0.00    -0.258 N 
ATOM     13  C   UNL A   1      32.298  18.821  22.805  1.00  0.00     0.254 A 
ATOM     14  O   UNL A   1      32.204  17.847  22.068  1.00  0.00    -0.269 OA
BRANCH  12  15
ATOM     15  C   UNL A   1      32.660  17.498  24.781  1.00  0.00     0.451 C 
ATOM     16  F   UNL A   1      33.899  17.007  24.551  1.00  0.00    -0.185 F 
ATOM     17  F   UNL A   1      32.461  17.555  26.117  1.00  0.00    -0.185 F 
ENDBRANCH  12  15
ENDBRANCH   6   8
ENDBRANCH   4   6
ENDBRANCH   3   4
ENDBRANCH   2   3
ENDBRANCH   1   2
BRANCH   1  18
ATOM     18  O   UNL A   1      37.580  21.574  24.854  1.00  0.00    -0.458 OA
BRANCH  18  19
ATOM     19  C   UNL A   1      38.613  21.215  25.644  1.00  0.00     0.338 C 
ATOM     20  O   UNL A   1      39.088  20.094  25.784  1.00  0.00    -0.246 OA
BRANCH  19  21
ATOM     21  C   UNL A   1      39.161  22.398  26.321  1.00  0.00     0.060 A 
ATOM     22  C   UNL A   1      38.579  23.642  26.094  1.00  0.00     0.016 A 
ATOM     23  C   UNL A   1      40.350  22.298  27.048  1.00  0.00     0.016 A 
ATOM     24  C   UNL A   1      39.247  24.797  26.494  1.00  0.00     0.010 A 
ATOM     25  C   UNL A   1      40.962  23.460  27.536  1.00  0.00     0.010 A 
ATOM     26  C   UNL A   1      40.451  24.730  27.217  1.00  0.00    -0.014 A 
BRANCH  26  27
ATOM     27  C   UNL A   1      41.195  25.983  27.559  1.00  0.00     0.031 A 
ATOM     28  C   UNL A   1      40.557  27.037  28.439  1.00  0.00     0.074 A 
ATOM     29  C   UNL A   1      42.471  26.152  27.156  1.00  0.00     0.049 A 
ATOM     30  N   UNL A   1      41.003  28.225  28.769  1.00  0.00    -0.248 NA
ATOM     31  C   UNL A   1      39.241  26.719  29.016  1.00  0.00     0.031 C 
ATOM     32  C   UNL A   1      43.239  25.194  26.355  1.00  0.00     0.029 A 
ATOM     33  N   UNL A   1      43.361  27.174  27.383  1.00  0.00    -0.354 N 
ATOM     34  C   UNL A   1      40.025  28.793  29.581  1.00  0.00     0.074 A 
ATOM     35  C   UNL A   1      38.945  27.834  29.667  1.00  0.00     0.031 C 
ATOM     36  C   UNL A   1      44.497  25.642  26.219  1.00  0.00     0.029 A 
ATOM     37  C   UNL A   1      44.601  26.965  26.824  1.00  0.00     0.049 A 
ATOM     38  H   UNL A   1      43.133  27.981  27.898  1.00  0.00     0.167 HD
ATOM     39  C   UNL A   1      40.024  30.000  30.200  1.00  0.00     0.034 A 
ATOM     40  C   UNL A   1      45.690  27.759  26.758  1.00  0.00     0.034 A 
ATOM     41  C   UNL A   1      41.108  30.949  30.126  1.00  0.00     0.049 A 
ATOM     42  C   UNL A   1      45.623  29.137  27.360  1.00  0.00     0.074 A 
ATOM     43  C   UNL A   1      41.191  32.210  30.691  1.00  0.00     0.029 A 
ATOM     44  N   UNL A   1      42.303  30.739  29.452  1.00  0.00    -0.354 N 
ATOM     45  N   UNL A   1      44.644  29.700  28.029  1.00  0.00    -0.248 NA
ATOM     46  C   UNL A   1      46.798  29.999  27.170  1.00  0.00     0.031 C 
ATOM     47  C   UNL A   1      42.408  32.786  30.305  1.00  0.00     0.029 A 
ATOM     48  C   UNL A   1      43.112  31.861  29.554  1.00  0.00     0.049 A 
ATOM     49  H   UNL A   1      42.541  29.914  28.970  1.00  0.00     0.167 HD
ATOM     50  C   UNL A   1      45.083  30.986  28.329  1.00  0.00     0.074 A 
ATOM     51  C   UNL A   1      46.426  31.103  27.800  1.00  0.00     0.031 C 
ATOM     52  C   UNL A   1      44.430  31.983  28.980  1.00  0.00     0.034 A 
BRANCH  39  53
ATOM     53  C   UNL A   1      38.774  30.395  30.949  1.00  0.00     0.023 A 
ATOM     54  C   UNL A   1      37.699  31.052  30.326  1.00  0.00     0.031 A 
ATOM     55  C   UNL A   1      38.669  30.112  32.324  1.00  0.00     0.131 A 
ATOM     56  C   UNL A   1      36.584  31.443  31.086  1.00  0.00     0.055 A 
ATOM     57  C   UNL A   1      37.533  30.448  33.060  1.00  0.00     0.041 A 
ATOM     58  F   UNL A   1      39.676  29.510  32.976  1.00  0.00    -0.206 F 
ATOM     59  C   UNL A   1      36.486  31.126  32.444  1.00  0.00     0.022 A 
BRANCH  56  60
ATOM     60  S   UNL A   1      35.307  32.474  30.310  1.00  0.00     0.124 S 
ATOM     61  O   UNL A   1      34.934  31.663  29.153  1.00  0.00    -0.237 OA
ATOM     62  O   UNL A   1      34.308  32.588  31.365  1.00  0.00    -0.237 OA
ATOM     63  O   UNL A   1      36.016  33.711  29.987  1.00  0.00    -0.744 OA
ENDBRANCH  56  60
ENDBRANCH  39  53
BRANCH  40  64
ATOM     64  C   UNL A   1      46.899  27.314  26.004  1.00  0.00     0.023 A 
ATOM     65  C   UNL A   1      47.104  27.676  24.663  1.00  0.00     0.031 A 
ATOM     66  C   UNL A   1      47.856  26.484  26.617  1.00  0.00     0.131 A 
ATOM     67  C   UNL A   1      48.229  27.191  23.974  1.00  0.00     0.055 A 
ATOM     68  C   UNL A   1      48.999  26.051  25.947  1.00  0.00     0.041 A 
ATOM     69  F   UNL A   1      47.702  26.096  27.894  1.00  0.00    -0.206 F 
ATOM     70  C   UNL A   1      49.186  26.397  24.613  1.00  0.00     0.022 A 
BRANCH  67  71
ATOM     71  S   UNL A   1      48.395  27.548  22.204  1.00  0.00     0.124 S 
ATOM     72  O   UNL A   1      49.551  28.438  22.186  1.00  0.00    -0.237 OA
ATOM     73  O   UNL A   1      48.599  26.218  21.641  1.00  0.00    -0.237 OA
ATOM     74  O   UNL A   1      47.120  28.176  21.861  1.00  0.00    -0.744 OA
ENDBRANCH  67  71
ENDBRANCH  40  64
BRANCH  52  75
ATOM     75  C   UNL A   1      45.172  33.285  29.138  1.00  0.00     0.023 A 
ATOM     76  C   UNL A   1      45.041  34.319  28.194  1.00  0.00     0.031 A 
ATOM     77  C   UNL A   1      46.042  33.483  30.224  1.00  0.00     0.131 A 
ATOM     78  C   UNL A   1      45.807  35.487  28.326  1.00  0.00     0.055 A 
ATOM     79  C   UNL A   1      46.765  34.667  30.376  1.00  0.00     0.041 A 
ATOM     80  F   UNL A   1      46.205  32.527  31.152  1.00  0.00    -0.206 F 
ATOM     81  C   UNL A   1      46.660  35.671  29.418  1.00  0.00     0.022 A 
BRANCH  78  82
ATOM     82  S   UNL A   1      45.740  36.727  27.004  1.00  0.00     0.124 S 
ATOM     83  O   UNL A   1      46.539  37.813  27.564  1.00  0.00    -0.237 OA
ATOM     84  O   UNL A   1      46.333  36.016  25.876  1.00  0.00    -0.237 OA
ATOM     85  O   UNL A   1      44.313  37.013  26.874  1.00  0.00    -0.744 OA
ENDBRANCH  78  82
ENDBRANCH  52  75
ENDBRANCH  26  27
ENDBRANCH  19  21
ENDBRANCH  18  19
ENDBRANCH   1  18
TORSDOF 16
ENDMDL
MODEL 2
REMARK VINA RESULT:     -11.3      1.726      2.062
REMARK SMILES C[C@@H](C(=O)OCCOC(=O)c1ccc(-c2c3nc(c(-c4cc(S(=O)(=O)[O-])ccc4F)c4ccc([nH]4)c(-c4cc(S(=O)(=O)[O-])ccc4F)c4nc(c(-c5cc(S(=O)(=O)[O-])ccc5F)c5ccc2[nH]5)C=C4)C=C3)cc1)c1ccc(=O)n(C(F)F)c1
REMARK SMILES IDX 7 1 6 2 5 3 3 4 4 5 2 6 1 7 74 8 75 9 83 10 76 11 79 12
REMARK SMILES IDX 77 13 78 14 80 15 81 16 82 17 8 18 9 19 10 20 11 21 12 22
REMARK SMILES IDX 73 23 13 24 72 25 14 26 15 27 16 28 66 29 17 30 71 31 65 32
REMARK SMILES IDX 67 33 18 34 70 35 64 36 63 37 19 39 51 40 31 41 50 42 32 43
REMARK SMILES IDX 35 44 49 45 68 46 33 47 34 48 48 50 69 51 36 52 20 53 21 54
REMARK SMILES IDX 29 55 22 56 28 57 30 58 27 59 23 60 24 61 25 62 26 63 52 64
REMARK SMILES IDX 53 65 61 66 54 67 60 68 62 69 59 70 55 71 56 72 57 73 58 74
REMARK SMILES IDX 37 75 38 76 46 77 39 78 45 79 47 80 44 81 40 82 41 83 42 84
REMARK SMILES IDX 43 85
REMARK H PARENT 67 38 35 49
REMARK Flexibility Score: inf
ROOT
ATOM      1  C   UNL A   1      37.019  21.226  24.370  1.00  0.00     0.275 C 
ENDROOT
BRANCH   1   2
ATOM      2  C   UNL A   1      36.517  22.522  23.740  1.00  0.00     0.274 C 
BRANCH   2   3
ATOM      3  O   UNL A   1      35.196  22.840  24.224  1.00  0.00    -0.462 OA
BRANCH   3   4
ATOM      4  C   UNL A   1      34.207  22.960  23.293  1.00  0.00     0.313 C 
ATOM      5  O   UNL A   1      34.381  23.384  22.157  1.00  0.00    -0.252 OA
BRANCH   4   6
ATOM      6  C   UNL A   1      32.832  22.589  23.863  1.00  0.00     0.127 C 
ATOM      7  C   UNL A   1      32.385  23.465  25.038  1.00  0.00     0.025 C 
BRANCH   6   8
ATOM      8  C   UNL A   1      32.776  21.110  24.218  1.00  0.00    -0.017 A 
ATOM      9  C   UNL A   1      32.830  20.755  25.626  1.00  0.00     0.012 A 
ATOM     10  C   UNL A   1      32.736  20.114  23.314  1.00  0.00     0.099 A 
ATOM     11  C   UNL A   1      32.894  19.476  26.015  1.00  0.00     0.072 A 
ATOM     12  N   UNL A   1      32.758  18.782  23.694  1.00  0.00    -0.258 N 
ATOM     13  C   UNL A   1      32.899  18.380  25.012  1.00  0.00     0.254 A 
ATOM     14  O   UNL A   1      33.026  17.229  25.412  1.00  0.00    -0.269 OA
BRANCH  12  15
ATOM     15  C   UNL A   1      32.741  17.736  22.700  1.00  0.00     0.451 C 
ATOM     16  F   UNL A   1      32.310  18.221  21.513  1.00  0.00    -0.185 F 
ATOM     17  F   UNL A   1      33.971  17.202  22.526  1.00  0.00    -0.185 F 
ENDBRANCH  12  15
ENDBRANCH   6   8
ENDBRANCH   4   6
ENDBRANCH   3   4
ENDBRANCH   2   3
ENDBRANCH   1   2
BRANCH   1  18
ATOM     18  O   UNL A   1      37.432  21.480  25.724  1.00  0.00    -0.458 OA
BRANCH  18  19
ATOM     19  C   UNL A   1      38.749  21.333  25.977  1.00  0.00     0.338 C 
ATOM     20  O   UNL A   1      39.457  20.372  25.702  1.00  0.00    -0.246 OA
BRANCH  19  21
ATOM     21  C   UNL A   1      39.275  22.546  26.618  1.00  0.00     0.060 A 
ATOM     22  C   UNL A   1      38.764  23.787  26.247  1.00  0.00     0.016 A 
ATOM     23  C   UNL A   1      40.385  22.465  27.462  1.00  0.00     0.016 A 
ATOM     24  C   UNL A   1      39.435  24.948  26.626  1.00  0.00     0.010 A 
ATOM     25  C   UNL A   1      40.991  23.640  27.923  1.00  0.00     0.010 A 
ATOM     26  C   UNL A   1      40.561  24.898  27.466  1.00  0.00    -0.014 A 
BRANCH  26  27
ATOM     27  C   UNL A   1      41.316  26.150  27.788  1.00  0.00     0.031 A 
ATOM     28  C   UNL A   1      40.672  27.243  28.615  1.00  0.00     0.074 A 
ATOM     29  C   UNL A   1      42.605  26.286  27.414  1.00  0.00     0.049 A 
ATOM     30  N   UNL A   1      41.129  28.433  28.919  1.00  0.00    -0.248 NA
ATOM     31  C   UNL A   1      39.336  26.964  29.165  1.00  0.00     0.031 C 
ATOM     32  C   UNL A   1      43.379  25.291  26.667  1.00  0.00     0.029 A 
ATOM     33  N   UNL A   1      43.505  27.301  27.634  1.00  0.00    -0.354 N 
ATOM     34  C   UNL A   1      40.138  29.043  29.685  1.00  0.00     0.074 A 
ATOM     35  C   UNL A   1      39.041  28.103  29.772  1.00  0.00     0.031 C 
ATOM     36  C   UNL A   1      44.647  25.714  26.551  1.00  0.00     0.029 A 
ATOM     37  C   UNL A   1      44.757  27.055  27.116  1.00  0.00     0.049 A 
ATOM     38  H   UNL A   1      43.277  28.128  28.115  1.00  0.00     0.167 HD
ATOM     39  C   UNL A   1      40.140  30.269  30.264  1.00  0.00     0.034 A 
ATOM     40  C   UNL A   1      45.860  27.829  27.055  1.00  0.00     0.034 A 
ATOM     41  C   UNL A   1      41.242  31.198  30.190  1.00  0.00     0.049 A 
ATOM     42  C   UNL A   1      45.799  29.226  27.610  1.00  0.00     0.074 A 
ATOM     43  C   UNL A   1      41.330  32.475  30.716  1.00  0.00     0.029 A 
ATOM     44  N   UNL A   1      42.451  30.948  29.556  1.00  0.00    -0.354 N 
ATOM     45  N   UNL A   1      44.812  29.826  28.233  1.00  0.00    -0.248 NA
ATOM     46  C   UNL A   1      46.993  30.063  27.425  1.00  0.00     0.031 C 
ATOM     47  C   UNL A   1      42.566  33.020  30.346  1.00  0.00     0.029 A 
ATOM     48  C   UNL A   1      43.276  32.059  29.645  1.00  0.00     0.049 A 
ATOM     49  H   UNL A   1      42.688  30.103  29.108  1.00  0.00     0.167 HD
ATOM     50  C   UNL A   1      45.264  31.114  28.504  1.00  0.00     0.074 A 
ATOM     51  C   UNL A   1      46.622  31.193  28.008  1.00  0.00     0.031 C 
ATOM     52  C   UNL A   1      44.611  32.142  29.104  1.00  0.00     0.034 A 
BRANCH  39  53
ATOM     53  C   UNL A   1      38.878  30.707  30.966  1.00  0.00     0.023 A 
ATOM     54  C   UNL A   1      37.787  31.264  30.274  1.00  0.00     0.031 A 
ATOM     55  C   UNL A   1      38.775  30.571  32.363  1.00  0.00     0.131 A 
ATOM     56  C   UNL A   1      36.660  31.704  30.987  1.00  0.00     0.055 A 
ATOM     57  C   UNL A   1      37.627  30.953  33.058  1.00  0.00     0.041 A 
ATOM     58  F   UNL A   1      39.795  30.070  33.076  1.00  0.00    -0.206 F 
ATOM     59  C   UNL A   1      36.565  31.532  32.371  1.00  0.00     0.022 A 
BRANCH  56  60
ATOM     60  S   UNL A   1      35.358  32.610  30.104  1.00  0.00     0.124 S 
ATOM     61  O   UNL A   1      34.996  31.660  29.053  1.00  0.00    -0.237 OA
ATOM     62  O   UNL A   1      34.362  32.828  31.144  1.00  0.00    -0.237 OA
ATOM     63  O   UNL A   1      36.039  33.815  29.632  1.00  0.00    -0.744 OA
ENDBRANCH  56  60
ENDBRANCH  39  53
BRANCH  40  64
ATOM     64  C   UNL A   1      47.081  27.341  26.348  1.00  0.00     0.023 A 
ATOM     65  C   UNL A   1      48.068  26.596  27.014  1.00  0.00     0.031 A 
ATOM     66  C   UNL A   1      47.289  27.648  24.991  1.00  0.00     0.131 A 
ATOM     67  C   UNL A   1      49.228  26.203  26.324  1.00  0.00     0.055 A 
ATOM     68  C   UNL A   1      48.415  27.207  24.296  1.00  0.00     0.041 A 
ATOM     69  F   UNL A   1      46.384  28.369  24.309  1.00  0.00    -0.206 F 
ATOM     70  C   UNL A   1      49.398  26.487  24.966  1.00  0.00     0.022 A 
BRANCH  67  71
ATOM     71  S   UNL A   1      50.555  25.374  27.241  1.00  0.00     0.124 S 
ATOM     72  O   UNL A   1      50.979  26.419  28.165  1.00  0.00    -0.237 OA
ATOM     73  O   UNL A   1      49.856  24.238  27.831  1.00  0.00    -0.237 OA
ATOM     74  O   UNL A   1      51.525  25.030  26.201  1.00  0.00    -0.744 OA
ENDBRANCH  67  71
ENDBRANCH  40  64
BRANCH  52  75
ATOM     75  C   UNL A   1      45.369  33.437  29.240  1.00  0.00     0.023 A 
ATOM     76  C   UNL A   1      45.321  34.420  28.236  1.00  0.00     0.031 A 
ATOM     77  C   UNL A   1      46.173  33.677  30.368  1.00  0.00     0.131 A 
ATOM     78  C   UNL A   1      46.103  35.579  28.355  1.00  0.00     0.055 A 
ATOM     79  C   UNL A   1      46.910  34.854  30.504  1.00  0.00     0.041 A 
ATOM     80  F   UNL A   1      46.255  32.770  31.354  1.00  0.00    -0.206 F 
ATOM     81  C   UNL A   1      46.888  35.806  29.489  1.00  0.00     0.022 A 
BRANCH  78  82
ATOM     82  S   UNL A   1      46.147  36.747  26.969  1.00  0.00     0.124 S 
ATOM     83  O   UNL A   1      47.242  37.633  27.351  1.00  0.00    -0.237 OA
ATOM     84  O   UNL A   1      46.404  35.871  25.829  1.00  0.00    -0.237 OA
ATOM     85  O   UNL A   1      44.820  37.358  26.992  1.00  0.00    -0.744 OA
ENDBRANCH  78  82
ENDBRANCH  52  75
ENDBRANCH  26  27
ENDBRANCH  19  21
ENDBRANCH  18  19
ENDBRANCH   1  18
TORSDOF 16
ENDMDL
MODEL 3
REMARK VINA RESULT:     -11.2      2.114      2.913
REMARK SMILES C[C@@H](C(=O)OCCOC(=O)c1ccc(-c2c3nc(c(-c4cc(S(=O)(=O)[O-])ccc4F)c4ccc([nH]4)c(-c4cc(S(=O)(=O)[O-])ccc4F)c4nc(c(-c5cc(S(=O)(=O)[O-])ccc5F)c5ccc2[nH]5)C=C4)C=C3)cc1)c1ccc(=O)n(C(F)F)c1
REMARK SMILES IDX 7 1 6 2 5 3 3 4 4 5 2 6 1 7 74 8 75 9 83 10 76 11 79 12
REMARK SMILES IDX 77 13 78 14 80 15 81 16 82 17 8 18 9 19 10 20 11 21 12 22
REMARK SMILES IDX 73 23 13 24 72 25 14 26 15 27 16 28 66 29 17 30 71 31 65 32
REMARK SMILES IDX 67 33 18 34 70 35 64 36 63 37 19 39 51 40 31 41 50 42 32 43
REMARK SMILES IDX 35 44 49 45 68 46 33 47 34 48 48 50 69 51 36 52 20 53 21 54
REMARK SMILES IDX 29 55 22 56 28 57 30 58 27 59 23 60 24 61 25 62 26 63 52 64
REMARK SMILES IDX 53 65 61 66 54 67 60 68 62 69 59 70 55 71 56 72 57 73 58 74
REMARK SMILES IDX 37 75 38 76 46 77 39 78 45 79 47 80 44 81 40 82 41 83 42 84
REMARK SMILES IDX 43 85
REMARK H PARENT 67 38 35 49
REMARK Flexibility Score: inf
ROOT
ATOM      1  C   UNL A   1      36.684  20.396  25.004  1.00  0.00     0.275 C 
ENDROOT
BRANCH   1   2
ATOM      2  C   UNL A   1      35.305  21.046  25.033  1.00  0.00     0.274 C 
BRANCH   2   3
ATOM      3  O   UNL A   1      35.375  22.401  24.544  1.00  0.00    -0.462 OA
BRANCH   3   4
ATOM      4  C   UNL A   1      34.521  22.741  23.537  1.00  0.00     0.313 C 
ATOM      5  O   UNL A   1      34.876  23.235  22.474  1.00  0.00    -0.252 OA
BRANCH   4   6
ATOM      6  C   UNL A   1      33.054  22.520  23.927  1.00  0.00     0.127 C 
ATOM      7  C   UNL A   1      32.130  22.224  22.742  1.00  0.00     0.025 C 
BRANCH   6   8
ATOM      8  C   UNL A   1      32.536  23.683  24.761  1.00  0.00    -0.017 A 
ATOM      9  C   UNL A   1      31.320  23.471  25.527  1.00  0.00     0.012 A 
ATOM     10  C   UNL A   1      33.099  24.906  24.790  1.00  0.00     0.099 A 
ATOM     11  C   UNL A   1      30.742  24.473  26.199  1.00  0.00     0.072 A 
ATOM     12  N   UNL A   1      32.542  25.948  25.514  1.00  0.00    -0.258 N 
ATOM     13  C   UNL A   1      31.339  25.834  26.190  1.00  0.00     0.254 A 
ATOM     14  O   UNL A   1      30.739  26.734  26.764  1.00  0.00    -0.269 OA
BRANCH  12  15
ATOM     15  C   UNL A   1      33.154  27.255  25.504  1.00  0.00     0.451 C 
ATOM     16  F   UNL A   1      33.803  27.480  26.669  1.00  0.00    -0.185 F 
ATOM     17  F   UNL A   1      34.039  27.376  24.489  1.00  0.00    -0.185 F 
ENDBRANCH  12  15
ENDBRANCH   6   8
ENDBRANCH   4   6
ENDBRANCH   3   4
ENDBRANCH   2   3
ENDBRANCH   1   2
BRANCH   1  18
ATOM     18  O   UNL A   1      37.697  21.416  25.047  1.00  0.00    -0.458 OA
BRANCH  18  19
ATOM     19  C   UNL A   1      38.801  21.124  25.767  1.00  0.00     0.338 C 
ATOM     20  O   UNL A   1      39.357  20.037  25.866  1.00  0.00    -0.246 OA
BRANCH  19  21
ATOM     21  C   UNL A   1      39.311  22.338  26.418  1.00  0.00     0.060 A 
ATOM     22  C   UNL A   1      38.769  23.573  26.073  1.00  0.00     0.016 A 
ATOM     23  C   UNL A   1      40.434  22.267  27.244  1.00  0.00     0.016 A 
ATOM     24  C   UNL A   1      39.421  24.742  26.460  1.00  0.00     0.010 A 
ATOM     25  C   UNL A   1      41.023  23.448  27.713  1.00  0.00     0.010 A 
ATOM     26  C   UNL A   1      40.561  24.703  27.282  1.00  0.00    -0.014 A 
BRANCH  26  27
ATOM     27  C   UNL A   1      41.294  25.965  27.612  1.00  0.00     0.031 A 
ATOM     28  C   UNL A   1      40.659  27.011  28.503  1.00  0.00     0.074 A 
ATOM     29  C   UNL A   1      42.561  26.151  27.185  1.00  0.00     0.049 A 
ATOM     30  N   UNL A   1      41.096  28.204  28.826  1.00  0.00    -0.248 NA
ATOM     31  C   UNL A   1      39.358  26.676  29.103  1.00  0.00     0.031 C 
ATOM     32  C   UNL A   1      43.327  25.204  26.371  1.00  0.00     0.029 A 
ATOM     33  N   UNL A   1      43.442  27.184  27.398  1.00  0.00    -0.354 N 
ATOM     34  C   UNL A   1      40.125  28.759  29.655  1.00  0.00     0.074 A 
ATOM     35  C   UNL A   1      39.059  27.786  29.760  1.00  0.00     0.031 C 
ATOM     36  C   UNL A   1      44.576  25.667  26.213  1.00  0.00     0.029 A 
ATOM     37  C   UNL A   1      44.674  26.992  26.817  1.00  0.00     0.049 A 
ATOM     38  H   UNL A   1      43.212  27.988  27.917  1.00  0.00     0.167 HD
ATOM     39  C   UNL A   1      40.120  29.966  30.275  1.00  0.00     0.034 A 
ATOM     40  C   UNL A   1      45.752  27.799  26.732  1.00  0.00     0.034 A 
ATOM     41  C   UNL A   1      41.190  30.929  30.183  1.00  0.00     0.049 A 
ATOM     42  C   UNL A   1      45.678  29.176  27.336  1.00  0.00     0.074 A 
ATOM     43  C   UNL A   1      41.267  32.191  30.747  1.00  0.00     0.029 A 
ATOM     44  N   UNL A   1      42.376  30.735  29.487  1.00  0.00    -0.354 N 
ATOM     45  N   UNL A   1      44.704  29.726  28.022  1.00  0.00    -0.248 NA
ATOM     46  C   UNL A   1      46.838  30.052  27.126  1.00  0.00     0.031 C 
ATOM     47  C   UNL A   1      42.469  32.782  30.340  1.00  0.00     0.029 A 
ATOM     48  C   UNL A   1      43.172  31.867  29.576  1.00  0.00     0.049 A 
ATOM     49  H   UNL A   1      42.616  29.912  29.001  1.00  0.00     0.167 HD
ATOM     50  C   UNL A   1      45.131  31.017  28.316  1.00  0.00     0.074 A 
ATOM     51  C   UNL A   1      46.463  31.152  27.763  1.00  0.00     0.031 C 
ATOM     52  C   UNL A   1      44.478  32.006  28.979  1.00  0.00     0.034 A 
BRANCH  39  53
ATOM     53  C   UNL A   1      38.879  30.344  31.047  1.00  0.00     0.023 A 
ATOM     54  C   UNL A   1      37.821  31.066  30.465  1.00  0.00     0.031 A 
ATOM     55  C   UNL A   1      38.764  29.980  32.401  1.00  0.00     0.131 A 
ATOM     56  C   UNL A   1      36.715  31.437  31.248  1.00  0.00     0.055 A 
ATOM     57  C   UNL A   1      37.634  30.298  33.157  1.00  0.00     0.041 A 
ATOM     58  F   UNL A   1      39.753  29.313  33.015  1.00  0.00    -0.206 F 
ATOM     59  C   UNL A   1      36.606  31.038  32.583  1.00  0.00     0.022 A 
BRANCH  56  60
ATOM     60  S   UNL A   1      35.465  32.545  30.536  1.00  0.00     0.124 S 
ATOM     61  O   UNL A   1      35.297  31.982  29.198  1.00  0.00    -0.237 OA
ATOM     62  O   UNL A   1      34.341  32.382  31.448  1.00  0.00    -0.237 OA
ATOM     63  O   UNL A   1      36.111  33.856  30.572  1.00  0.00    -0.744 OA
ENDBRANCH  56  60
ENDBRANCH  39  53
BRANCH  40  64
ATOM     64  C   UNL A   1      46.953  27.370  25.956  1.00  0.00     0.023 A 
ATOM     65  C   UNL A   1      47.132  27.740  24.613  1.00  0.00     0.031 A 
ATOM     66  C   UNL A   1      47.928  26.547  26.550  1.00  0.00     0.131 A 
ATOM     67  C   UNL A   1      48.250  27.269  23.904  1.00  0.00     0.055 A 
ATOM     68  C   UNL A   1      49.065  26.130  25.859  1.00  0.00     0.041 A 
ATOM     69  F   UNL A   1      47.800  26.153  27.828  1.00  0.00    -0.206 F 
ATOM     70  C   UNL A   1      49.226  26.483  24.524  1.00  0.00     0.022 A 
BRANCH  67  71
ATOM     71  S   UNL A   1      48.384  27.635  22.133  1.00  0.00     0.124 S 
ATOM     72  O   UNL A   1      48.593  26.307  21.568  1.00  0.00    -0.237 OA
ATOM     73  O   UNL A   1      47.095  28.258  21.851  1.00  0.00    -0.237 OA
ATOM     74  O   UNL A   1      49.535  28.534  22.056  1.00  0.00    -0.744 OA
ENDBRANCH  67  71
ENDBRANCH  40  64
BRANCH  52  75
ATOM     75  C   UNL A   1      45.206  33.317  29.125  1.00  0.00     0.023 A 
ATOM     76  C   UNL A   1      44.973  34.383  28.238  1.00  0.00     0.031 A 
ATOM     77  C   UNL A   1      46.163  33.492  30.139  1.00  0.00     0.131 A 
ATOM     78  C   UNL A   1      45.726  35.562  28.350  1.00  0.00     0.055 A 
ATOM     79  C   UNL A   1      46.874  34.686  30.276  1.00  0.00     0.041 A 
ATOM     80  F   UNL A   1      46.425  32.505  31.010  1.00  0.00    -0.206 F 
ATOM     81  C   UNL A   1      46.667  35.723  29.371  1.00  0.00     0.022 A 
BRANCH  78  82
ATOM     82  S   UNL A   1      45.521  36.851  27.090  1.00  0.00     0.124 S 
ATOM     83  O   UNL A   1      44.108  36.720  26.747  1.00  0.00    -0.237 OA
ATOM     84  O   UNL A   1      45.891  38.061  27.818  1.00  0.00    -0.237 OA
ATOM     85  O   UNL A   1      46.453  36.453  26.037  1.00  0.00    -0.744 OA
ENDBRANCH  78  82
ENDBRANCH  52  75
ENDBRANCH  26  27
ENDBRANCH  19  21
ENDBRANCH  18  19
ENDBRANCH   1  18
TORSDOF 16
ENDMDL
