MODEL 1
REMARK VINA RESULT:     -12.3      0.000      0.000
REMARK SMILES Cc1nsc(NC(=O)c2ccc(N)cc2)c1C(=O)OCCOC(=O)c1ccc(-c2c3nc(c(-c4cc(S(=O)(=O)[O-])ccc4F)c4ccc([nH]4)c(-c4cc(S(=O)(=O)[O-])ccc4F)c4nc(c(-c5cc(S(=O)(=O)[O-])ccc5F)c5ccc2[nH]5)C=C4)C=C3)cc1
REMARK SMILES IDX 20 1 19 2 17 3 18 4 16 5 1 6 2 7 3 8 4 9 5 10 6 11 7 12 8 14
REMARK SMILES IDX 9 15 10 16 15 17 11 18 14 19 12 20 13 21 21 24 22 25 23 26
REMARK SMILES IDX 24 27 25 28 26 29 87 30 27 31 86 32 28 33 29 34 30 35 80 36
REMARK SMILES IDX 31 37 85 38 79 39 81 40 32 41 84 42 78 43 77 44 33 46 65 47
REMARK SMILES IDX 45 48 64 49 46 50 49 51 63 52 82 53 47 54 48 55 62 57 83 58
REMARK SMILES IDX 50 59 34 60 35 61 43 62 36 63 42 64 44 65 41 66 37 67 38 68
REMARK SMILES IDX 39 69 40 70 66 71 67 72 75 73 68 74 74 75 76 76 73 77 69 78
REMARK SMILES IDX 70 79 71 80 72 81 51 82 52 83 60 84 53 85 59 86 61 87 58 88
REMARK SMILES IDX 54 89 55 90 56 91 57 92
REMARK H PARENT 6 13 13 22 13 23 81 45 49 56
REMARK Flexibility Score: inf
ROOT
ATOM      1  C   UNL A   1      32.402  30.308  26.703  1.00  0.00     0.275 C 
ENDROOT
BRANCH   1   2
ATOM      2  O   UNL A   1      32.713  28.913  26.536  1.00  0.00    -0.458 OA
BRANCH   2   3
ATOM      3  C   UNL A   1      31.713  28.025  26.806  1.00  0.00     0.343 C 
ATOM      4  O   UNL A   1      31.173  27.914  27.906  1.00  0.00    -0.246 OA
BRANCH   3   5
ATOM      5  C   UNL A   1      31.265  27.290  25.630  1.00  0.00     0.117 A 
ATOM      6  C   UNL A   1      30.851  29.274  23.962  1.00  0.00     0.069 C 
ATOM      7  C   UNL A   1      30.853  27.837  24.356  1.00  0.00     0.068 A 
ATOM      8  N   UNL A   1      30.421  26.957  23.453  1.00  0.00    -0.195 NA
ATOM      9  S   UNL A   1      30.336  25.473  24.164  1.00  0.00    -0.017 S 
ATOM     10  C   UNL A   1      31.078  25.911  25.627  1.00  0.00     0.131 A 
BRANCH  10  11
ATOM     11  N   UNL A   1      31.306  25.029  26.673  1.00  0.00    -0.312 N 
ATOM     12  C   UNL A   1      32.114  23.920  26.798  1.00  0.00     0.256 C 
ATOM     13  H   UNL A   1      30.790  25.236  27.486  1.00  0.00     0.171 HD
ATOM     14  O   UNL A   1      31.950  23.157  27.750  1.00  0.00    -0.269 OA
BRANCH  12  15
ATOM     15  C   UNL A   1      33.236  23.641  25.884  1.00  0.00     0.040 A 
ATOM     16  C   UNL A   1      34.300  24.540  25.765  1.00  0.00     0.016 A 
ATOM     17  C   UNL A   1      33.266  22.429  25.191  1.00  0.00     0.016 A 
ATOM     18  C   UNL A   1      35.328  24.278  24.857  1.00  0.00     0.026 A 
ATOM     19  C   UNL A   1      34.312  22.168  24.301  1.00  0.00     0.026 A 
ATOM     20  C   UNL A   1      35.317  23.116  24.081  1.00  0.00     0.031 A 
BRANCH  20  21
ATOM     21  N   UNL A   1      36.364  22.845  23.212  1.00  0.00    -0.399 N 
ATOM     22  H   UNL A   1      36.958  22.079  23.381  1.00  0.00     0.156 HD
ATOM     23  H   UNL A   1      36.513  23.420  22.426  1.00  0.00     0.156 HD
ENDBRANCH  20  21
ENDBRANCH  12  15
ENDBRANCH  10  11
ENDBRANCH   3   5
ENDBRANCH   2   3
ENDBRANCH   1   2
BRANCH   1  24
ATOM     24  C   UNL A   1      33.382  30.975  27.661  1.00  0.00     0.275 C 
BRANCH  24  25
ATOM     25  O   UNL A   1      34.733  30.805  27.230  1.00  0.00    -0.458 OA
BRANCH  25  26
ATOM     26  C   UNL A   1      35.605  31.684  27.774  1.00  0.00     0.338 C 
ATOM     27  O   UNL A   1      35.647  32.885  27.572  1.00  0.00    -0.246 OA
BRANCH  26  28
ATOM     28  C   UNL A   1      36.643  30.962  28.509  1.00  0.00     0.060 A 
ATOM     29  C   UNL A   1      37.677  31.713  29.075  1.00  0.00     0.016 A 
ATOM     30  C   UNL A   1      36.716  29.567  28.392  1.00  0.00     0.016 A 
ATOM     31  C   UNL A   1      38.856  31.073  29.393  1.00  0.00     0.010 A 
ATOM     32  C   UNL A   1      37.895  28.932  28.709  1.00  0.00     0.010 A 
ATOM     33  C   UNL A   1      38.974  29.700  29.139  1.00  0.00    -0.014 A 
BRANCH  33  34
ATOM     34  C   UNL A   1      40.243  29.061  29.432  1.00  0.00     0.031 A 
ATOM     35  C   UNL A   1      40.548  28.958  30.880  1.00  0.00     0.074 A 
ATOM     36  C   UNL A   1      40.990  28.473  28.478  1.00  0.00     0.049 A 
ATOM     37  N   UNL A   1      41.580  29.401  31.515  1.00  0.00    -0.248 NA
ATOM     38  C   UNL A   1      39.502  28.400  31.753  1.00  0.00     0.031 C 
ATOM     39  C   UNL A   1      40.644  28.251  27.071  1.00  0.00     0.029 A 
ATOM     40  N   UNL A   1      42.173  27.819  28.612  1.00  0.00    -0.354 N 
ATOM     41  C   UNL A   1      41.410  29.009  32.839  1.00  0.00     0.074 A 
ATOM     42  C   UNL A   1      40.053  28.552  32.954  1.00  0.00     0.031 C 
ATOM     43  C   UNL A   1      41.466  27.307  26.560  1.00  0.00     0.029 A 
ATOM     44  C   UNL A   1      42.462  26.958  27.560  1.00  0.00     0.049 A 
ATOM     45  H   UNL A   1      42.771  27.941  29.385  1.00  0.00     0.167 HD
ATOM     46  C   UNL A   1      42.464  28.902  33.692  1.00  0.00     0.034 A 
ATOM     47  C   UNL A   1      43.382  25.959  27.561  1.00  0.00     0.034 A 
ATOM     48  C   UNL A   1      43.591  29.678  33.230  1.00  0.00     0.049 A 
ATOM     49  C   UNL A   1      44.355  26.260  28.644  1.00  0.00     0.074 A 
ATOM     50  C   UNL A   1      43.775  31.017  32.944  1.00  0.00     0.029 A 
ATOM     51  N   UNL A   1      44.642  29.027  32.623  1.00  0.00    -0.354 N 
ATOM     52  N   UNL A   1      45.147  27.299  28.632  1.00  0.00    -0.248 NA
ATOM     53  C   UNL A   1      44.114  25.688  29.962  1.00  0.00     0.031 C 
ATOM     54  C   UNL A   1      44.592  31.034  31.776  1.00  0.00     0.029 A 
ATOM     55  C   UNL A   1      44.916  29.713  31.462  1.00  0.00     0.049 A 
ATOM     56  H   UNL A   1      45.108  28.226  32.955  1.00  0.00     0.167 HD
ATOM     57  C   UNL A   1      45.153  27.766  29.938  1.00  0.00     0.074 A 
ATOM     58  C   UNL A   1      44.581  26.677  30.729  1.00  0.00     0.031 C 
ATOM     59  C   UNL A   1      45.352  29.087  30.227  1.00  0.00     0.034 A 
BRANCH  46  60
ATOM     60  C   UNL A   1      42.581  27.839  34.760  1.00  0.00     0.023 A 
ATOM     61  C   UNL A   1      43.291  26.669  34.433  1.00  0.00     0.031 A 
ATOM     62  C   UNL A   1      41.816  27.780  35.949  1.00  0.00     0.131 A 
ATOM     63  C   UNL A   1      43.143  25.497  35.197  1.00  0.00     0.055 A 
ATOM     64  C   UNL A   1      41.732  26.636  36.745  1.00  0.00     0.041 A 
ATOM     65  F   UNL A   1      41.032  28.783  36.360  1.00  0.00    -0.206 F 
ATOM     66  C   UNL A   1      42.369  25.473  36.353  1.00  0.00     0.022 A 
BRANCH  63  67
ATOM     67  S   UNL A   1      43.823  23.954  34.539  1.00  0.00     0.124 S 
ATOM     68  O   UNL A   1      42.649  23.088  34.539  1.00  0.00    -0.237 OA
ATOM     69  O   UNL A   1      44.313  24.377  33.231  1.00  0.00    -0.237 OA
ATOM     70  O   UNL A   1      44.858  23.600  35.508  1.00  0.00    -0.744 OA
ENDBRANCH  63  67
ENDBRANCH  46  60
BRANCH  47  71
ATOM     71  C   UNL A   1      43.212  24.618  26.934  1.00  0.00     0.023 A 
ATOM     72  C   UNL A   1      44.133  24.079  26.014  1.00  0.00     0.031 A 
ATOM     73  C   UNL A   1      42.208  23.741  27.413  1.00  0.00     0.131 A 
ATOM     74  C   UNL A   1      44.015  22.731  25.598  1.00  0.00     0.055 A 
ATOM     75  C   UNL A   1      42.087  22.417  26.987  1.00  0.00     0.041 A 
ATOM     76  F   UNL A   1      41.353  24.118  28.376  1.00  0.00    -0.206 F 
ATOM     77  C   UNL A   1      42.997  21.904  26.080  1.00  0.00     0.022 A 
BRANCH  74  78
ATOM     78  S   UNL A   1      45.253  22.000  24.478  1.00  0.00     0.124 S 
ATOM     79  O   UNL A   1      45.579  23.119  23.604  1.00  0.00    -0.237 OA
ATOM     80  O   UNL A   1      46.297  21.573  25.404  1.00  0.00    -0.237 OA
ATOM     81  O   UNL A   1      44.525  20.907  23.833  1.00  0.00    -0.744 OA
ENDBRANCH  74  78
ENDBRANCH  47  71
BRANCH  59  82
ATOM     82  C   UNL A   1      45.829  30.015  29.125  1.00  0.00     0.023 A 
ATOM     83  C   UNL A   1      44.979  30.806  28.317  1.00  0.00     0.031 A 
ATOM     84  C   UNL A   1      47.215  30.207  28.991  1.00  0.00     0.131 A 
ATOM     85  C   UNL A   1      45.529  31.739  27.415  1.00  0.00     0.055 A 
ATOM     86  C   UNL A   1      47.755  31.145  28.111  1.00  0.00     0.041 A 
ATOM     87  F   UNL A   1      48.076  29.509  29.750  1.00  0.00    -0.206 F 
ATOM     88  C   UNL A   1      46.913  31.912  27.315  1.00  0.00     0.022 A 
BRANCH  85  89
ATOM     89  S   UNL A   1      44.452  32.742  26.340  1.00  0.00     0.124 S 
ATOM     90  O   UNL A   1      43.769  33.632  27.272  1.00  0.00    -0.237 OA
ATOM     91  O   UNL A   1      45.409  33.375  25.435  1.00  0.00    -0.237 OA
ATOM     92  O   UNL A   1      43.585  31.747  25.705  1.00  0.00    -0.744 OA
ENDBRANCH  85  89
ENDBRANCH  59  82
ENDBRANCH  33  34
ENDBRANCH  26  28
ENDBRANCH  25  26
ENDBRANCH  24  25
ENDBRANCH   1  24
TORSDOF 17
ENDMDL
MODEL 2
REMARK VINA RESULT:     -11.9      2.233      7.239
REMARK SMILES Cc1nsc(NC(=O)c2ccc(N)cc2)c1C(=O)OCCOC(=O)c1ccc(-c2c3nc(c(-c4cc(S(=O)(=O)[O-])ccc4F)c4ccc([nH]4)c(-c4cc(S(=O)(=O)[O-])ccc4F)c4nc(c(-c5cc(S(=O)(=O)[O-])ccc5F)c5ccc2[nH]5)C=C4)C=C3)cc1
REMARK SMILES IDX 20 1 19 2 17 3 18 4 16 5 1 6 2 7 3 8 4 9 5 10 6 11 7 12 8 14
REMARK SMILES IDX 9 15 10 16 15 17 11 18 14 19 12 20 13 21 21 24 22 25 23 26
REMARK SMILES IDX 24 27 25 28 26 29 87 30 27 31 86 32 28 33 29 34 30 35 80 36
REMARK SMILES IDX 31 37 85 38 79 39 81 40 32 41 84 42 78 43 77 44 33 46 65 47
REMARK SMILES IDX 45 48 64 49 46 50 49 51 63 52 82 53 47 54 48 55 62 57 83 58
REMARK SMILES IDX 50 59 34 60 35 61 43 62 36 63 42 64 44 65 41 66 37 67 38 68
REMARK SMILES IDX 39 69 40 70 66 71 67 72 75 73 68 74 74 75 76 76 73 77 69 78
REMARK SMILES IDX 70 79 71 80 72 81 51 82 52 83 60 84 53 85 59 86 61 87 58 88
REMARK SMILES IDX 54 89 55 90 56 91 57 92
REMARK H PARENT 6 13 13 22 13 23 81 45 49 56
REMARK Flexibility Score: inf
ROOT
ATOM      1  C   UNL A   1      33.514  29.694  26.782  1.00  0.00     0.275 C 
ENDROOT
BRANCH   1   2
ATOM      2  O   UNL A   1      33.325  28.270  26.859  1.00  0.00    -0.458 OA
BRANCH   2   3
ATOM      3  C   UNL A   1      32.053  27.831  27.078  1.00  0.00     0.343 C 
ATOM      4  O   UNL A   1      31.432  28.023  28.123  1.00  0.00    -0.246 OA
BRANCH   3   5
ATOM      5  C   UNL A   1      31.453  27.202  25.908  1.00  0.00     0.117 A 
ATOM      6  C   UNL A   1      31.064  29.306  24.388  1.00  0.00     0.069 C 
ATOM      7  C   UNL A   1      30.982  27.852  24.705  1.00  0.00     0.068 A 
ATOM      8  N   UNL A   1      30.409  27.062  23.798  1.00  0.00    -0.195 NA
ATOM      9  S   UNL A   1      30.264  25.550  24.435  1.00  0.00    -0.017 S 
ATOM     10  C   UNL A   1      31.156  25.843  25.850  1.00  0.00     0.131 A 
BRANCH  10  11
ATOM     11  N   UNL A   1      31.397  24.886  26.825  1.00  0.00    -0.312 N 
ATOM     12  C   UNL A   1      32.187  23.758  26.848  1.00  0.00     0.256 C 
ATOM     13  H   UNL A   1      30.910  25.045  27.666  1.00  0.00     0.171 HD
ATOM     14  O   UNL A   1      32.037  22.933  27.750  1.00  0.00    -0.269 OA
BRANCH  12  15
ATOM     15  C   UNL A   1      33.277  23.525  25.883  1.00  0.00     0.040 A 
ATOM     16  C   UNL A   1      33.262  22.404  25.048  1.00  0.00     0.016 A 
ATOM     17  C   UNL A   1      34.290  24.477  25.755  1.00  0.00     0.016 A 
ATOM     18  C   UNL A   1      34.329  22.178  24.176  1.00  0.00     0.026 A 
ATOM     19  C   UNL A   1      35.342  24.250  24.864  1.00  0.00     0.026 A 
ATOM     20  C   UNL A   1      35.402  23.071  24.113  1.00  0.00     0.031 A 
BRANCH  20  21
ATOM     21  N   UNL A   1      36.437  22.860  23.213  1.00  0.00    -0.399 N 
ATOM     22  H   UNL A   1      37.061  23.591  23.000  1.00  0.00     0.156 HD
ATOM     23  H   UNL A   1      36.546  21.979  22.787  1.00  0.00     0.156 HD
ENDBRANCH  20  21
ENDBRANCH  12  15
ENDBRANCH  10  11
ENDBRANCH   3   5
ENDBRANCH   2   3
ENDBRANCH   1   2
BRANCH   1  24
ATOM     24  C   UNL A   1      34.921  30.083  27.219  1.00  0.00     0.275 C 
BRANCH  24  25
ATOM     25  O   UNL A   1      35.317  29.381  28.398  1.00  0.00    -0.458 OA
BRANCH  25  26
ATOM     26  C   UNL A   1      36.412  29.888  29.007  1.00  0.00     0.338 C 
ATOM     27  O   UNL A   1      36.483  30.941  29.616  1.00  0.00    -0.246 OA
BRANCH  26  28
ATOM     28  C   UNL A   1      37.584  29.080  28.673  1.00  0.00     0.060 A 
ATOM     29  C   UNL A   1      38.037  28.168  29.631  1.00  0.00     0.016 A 
ATOM     30  C   UNL A   1      38.356  29.427  27.556  1.00  0.00     0.016 A 
ATOM     31  C   UNL A   1      39.336  27.713  29.544  1.00  0.00     0.010 A 
ATOM     32  C   UNL A   1      39.652  28.972  27.473  1.00  0.00     0.010 A 
ATOM     33  C   UNL A   1      40.150  28.177  28.503  1.00  0.00    -0.014 A 
BRANCH  33  34
ATOM     34  C   UNL A   1      41.528  27.726  28.464  1.00  0.00     0.031 A 
ATOM     35  C   UNL A   1      41.721  26.434  27.761  1.00  0.00     0.074 A 
ATOM     36  C   UNL A   1      42.550  28.495  28.885  1.00  0.00     0.049 A 
ATOM     37  N   UNL A   1      42.258  25.350  28.210  1.00  0.00    -0.248 NA
ATOM     38  C   UNL A   1      41.117  26.295  26.425  1.00  0.00     0.031 C 
ATOM     39  C   UNL A   1      42.507  29.897  29.314  1.00  0.00     0.029 A 
ATOM     40  N   UNL A   1      43.879  28.214  28.880  1.00  0.00    -0.354 N 
ATOM     41  C   UNL A   1      42.239  24.448  27.151  1.00  0.00     0.074 A 
ATOM     42  C   UNL A   1      41.384  25.021  26.148  1.00  0.00     0.031 C 
ATOM     43  C   UNL A   1      43.759  30.405  29.279  1.00  0.00     0.029 A 
ATOM     44  C   UNL A   1      44.692  29.339  28.951  1.00  0.00     0.049 A 
ATOM     45  H   UNL A   1      44.235  27.297  28.830  1.00  0.00     0.167 HD
ATOM     46  C   UNL A   1      43.092  23.390  27.100  1.00  0.00     0.034 A 
ATOM     47  C   UNL A   1      46.015  29.402  28.650  1.00  0.00     0.034 A 
ATOM     48  C   UNL A   1      43.603  23.067  28.411  1.00  0.00     0.049 A 
ATOM     49  C   UNL A   1      46.549  28.017  28.733  1.00  0.00     0.074 A 
ATOM     50  C   UNL A   1      43.007  22.712  29.607  1.00  0.00     0.029 A 
ATOM     51  N   UNL A   1      44.881  23.458  28.742  1.00  0.00    -0.354 N 
ATOM     52  N   UNL A   1      46.600  27.331  29.843  1.00  0.00    -0.248 NA
ATOM     53  C   UNL A   1      46.576  27.218  27.516  1.00  0.00     0.031 C 
ATOM     54  C   UNL A   1      43.757  23.397  30.607  1.00  0.00     0.029 A 
ATOM     55  C   UNL A   1      44.804  24.068  29.972  1.00  0.00     0.049 A 
ATOM     56  H   UNL A   1      45.694  23.327  28.202  1.00  0.00     0.167 HD
ATOM     57  C   UNL A   1      46.234  26.041  29.490  1.00  0.00     0.074 A 
ATOM     58  C   UNL A   1      46.329  26.010  28.031  1.00  0.00     0.031 C 
ATOM     59  C   UNL A   1      45.616  25.202  30.374  1.00  0.00     0.034 A 
BRANCH  46  60
ATOM     60  C   UNL A   1      43.712  22.866  25.825  1.00  0.00     0.023 A 
ATOM     61  C   UNL A   1      43.752  21.470  25.653  1.00  0.00     0.031 A 
ATOM     62  C   UNL A   1      44.504  23.617  24.925  1.00  0.00     0.131 A 
ATOM     63  C   UNL A   1      44.615  20.882  24.711  1.00  0.00     0.055 A 
ATOM     64  C   UNL A   1      45.305  23.032  23.942  1.00  0.00     0.041 A 
ATOM     65  F   UNL A   1      44.629  24.947  25.002  1.00  0.00    -0.206 F 
ATOM     66  C   UNL A   1      45.391  21.654  23.852  1.00  0.00     0.022 A 
BRANCH  63  67
ATOM     67  S   UNL A   1      44.851  19.088  24.767  1.00  0.00     0.124 S 
ATOM     68  O   UNL A   1      45.817  18.950  25.851  1.00  0.00    -0.237 OA
ATOM     69  O   UNL A   1      43.498  18.618  25.045  1.00  0.00    -0.237 OA
ATOM     70  O   UNL A   1      45.361  18.773  23.434  1.00  0.00    -0.744 OA
ENDBRANCH  63  67
ENDBRANCH  46  60
BRANCH  47  71
ATOM     71  C   UNL A   1      46.694  30.524  27.943  1.00  0.00     0.023 A 
ATOM     72  C   UNL A   1      46.001  31.464  27.154  1.00  0.00     0.031 A 
ATOM     73  C   UNL A   1      48.054  30.809  28.218  1.00  0.00     0.131 A 
ATOM     74  C   UNL A   1      46.672  32.610  26.662  1.00  0.00     0.055 A 
ATOM     75  C   UNL A   1      48.713  31.932  27.719  1.00  0.00     0.041 A 
ATOM     76  F   UNL A   1      48.772  30.041  29.053  1.00  0.00    -0.206 F 
ATOM     77  C   UNL A   1      48.021  32.843  26.942  1.00  0.00     0.022 A 
BRANCH  74  78
ATOM     78  S   UNL A   1      45.763  33.876  25.717  1.00  0.00     0.124 S 
ATOM     79  O   UNL A   1      46.835  34.557  25.003  1.00  0.00    -0.237 OA
ATOM     80  O   UNL A   1      44.854  33.069  24.910  1.00  0.00    -0.237 OA
ATOM     81  O   UNL A   1      45.112  34.674  26.756  1.00  0.00    -0.744 OA
ENDBRANCH  74  78
ENDBRANCH  47  71
BRANCH  59  82
ATOM     82  C   UNL A   1      45.561  25.594  31.840  1.00  0.00     0.023 A 
ATOM     83  C   UNL A   1      46.599  25.366  32.772  1.00  0.00     0.031 A 
ATOM     84  C   UNL A   1      44.462  26.361  32.266  1.00  0.00     0.131 A 
ATOM     85  C   UNL A   1      46.505  25.892  34.077  1.00  0.00     0.055 A 
ATOM     86  C   UNL A   1      44.382  26.897  33.552  1.00  0.00     0.041 A 
ATOM     87  F   UNL A   1      43.456  26.641  31.420  1.00  0.00    -0.206 F 
ATOM     88  C   UNL A   1      45.403  26.660  34.464  1.00  0.00     0.022 A 
BRANCH  85  89
ATOM     89  S   UNL A   1      47.815  25.579  35.305  1.00  0.00     0.124 S 
ATOM     90  O   UNL A   1      48.097  24.156  35.151  1.00  0.00    -0.237 OA
ATOM     91  O   UNL A   1      48.874  26.491  34.879  1.00  0.00    -0.237 OA
ATOM     92  O   UNL A   1      47.181  25.937  36.576  1.00  0.00    -0.744 OA
ENDBRANCH  85  89
ENDBRANCH  59  82
ENDBRANCH  33  34
ENDBRANCH  26  28
ENDBRANCH  25  26
ENDBRANCH  24  25
ENDBRANCH   1  24
TORSDOF 17
ENDMDL
MODEL 3
REMARK VINA RESULT:     -11.9      1.352      1.764
REMARK SMILES Cc1nsc(NC(=O)c2ccc(N)cc2)c1C(=O)OCCOC(=O)c1ccc(-c2c3nc(c(-c4cc(S(=O)(=O)[O-])ccc4F)c4ccc([nH]4)c(-c4cc(S(=O)(=O)[O-])ccc4F)c4nc(c(-c5cc(S(=O)(=O)[O-])ccc5F)c5ccc2[nH]5)C=C4)C=C3)cc1
REMARK SMILES IDX 20 1 19 2 17 3 18 4 16 5 1 6 2 7 3 8 4 9 5 10 6 11 7 12 8 14
REMARK SMILES IDX 9 15 10 16 15 17 11 18 14 19 12 20 13 21 21 24 22 25 23 26
REMARK SMILES IDX 24 27 25 28 26 29 87 30 27 31 86 32 28 33 29 34 30 35 80 36
REMARK SMILES IDX 31 37 85 38 79 39 81 40 32 41 84 42 78 43 77 44 33 46 65 47
REMARK SMILES IDX 45 48 64 49 46 50 49 51 63 52 82 53 47 54 48 55 62 57 83 58
REMARK SMILES IDX 50 59 34 60 35 61 43 62 36 63 42 64 44 65 41 66 37 67 38 68
REMARK SMILES IDX 39 69 40 70 66 71 67 72 75 73 68 74 74 75 76 76 73 77 69 78
REMARK SMILES IDX 70 79 71 80 72 81 51 82 52 83 60 84 53 85 59 86 61 87 58 88
REMARK SMILES IDX 54 89 55 90 56 91 57 92
REMARK H PARENT 6 13 13 22 13 23 81 45 49 56
REMARK Flexibility Score: inf
ROOT
ATOM      1  C   UNL A   1      33.420  29.643  27.181  1.00  0.00     0.275 C 
ENDROOT
BRANCH   1   2
ATOM      2  O   UNL A   1      32.147  29.392  26.559  1.00  0.00    -0.458 OA
BRANCH   2   3
ATOM      3  C   UNL A   1      31.554  28.196  26.838  1.00  0.00     0.343 C 
ATOM      4  O   UNL A   1      31.318  27.798  27.978  1.00  0.00    -0.246 OA
BRANCH   3   5
ATOM      5  C   UNL A   1      31.121  27.477  25.646  1.00  0.00     0.117 A 
ATOM      6  C   UNL A   1      30.738  29.484  23.998  1.00  0.00     0.069 C 
ATOM      7  C   UNL A   1      30.729  28.042  24.374  1.00  0.00     0.068 A 
ATOM      8  N   UNL A   1      30.308  27.175  23.453  1.00  0.00    -0.195 NA
ATOM      9  S   UNL A   1      30.209  25.682  24.144  1.00  0.00    -0.017 S 
ATOM     10  C   UNL A   1      30.930  26.099  25.624  1.00  0.00     0.131 A 
BRANCH  10  11
ATOM     11  N   UNL A   1      31.140  25.203  26.661  1.00  0.00    -0.312 N 
ATOM     12  C   UNL A   1      31.919  24.072  26.773  1.00  0.00     0.256 C 
ATOM     13  H   UNL A   1      30.634  25.417  27.478  1.00  0.00     0.171 HD
ATOM     14  O   UNL A   1      31.740  23.306  27.720  1.00  0.00    -0.269 OA
BRANCH  12  15
ATOM     15  C   UNL A   1      33.029  23.771  25.851  1.00  0.00     0.040 A 
ATOM     16  C   UNL A   1      32.855  22.870  24.797  1.00  0.00     0.016 A 
ATOM     17  C   UNL A   1      34.238  24.455  25.993  1.00  0.00     0.016 A 
ATOM     18  C   UNL A   1      33.935  22.563  23.965  1.00  0.00     0.026 A 
ATOM     19  C   UNL A   1      35.304  24.155  25.142  1.00  0.00     0.026 A 
ATOM     20  C   UNL A   1      35.181  23.164  24.162  1.00  0.00     0.031 A 
BRANCH  20  21
ATOM     21  N   UNL A   1      36.236  22.885  23.305  1.00  0.00    -0.399 N 
ATOM     22  H   UNL A   1      36.057  22.569  22.390  1.00  0.00     0.156 HD
ATOM     23  H   UNL A   1      37.164  23.003  23.613  1.00  0.00     0.156 HD
ENDBRANCH  20  21
ENDBRANCH  12  15
ENDBRANCH  10  11
ENDBRANCH   3   5
ENDBRANCH   2   3
ENDBRANCH   1   2
BRANCH   1  24
ATOM     24  C   UNL A   1      33.566  31.114  27.553  1.00  0.00     0.275 C 
BRANCH  24  25
ATOM     25  O   UNL A   1      34.937  31.512  27.589  1.00  0.00    -0.458 OA
BRANCH  25  26
ATOM     26  C   UNL A   1      35.529  31.360  28.795  1.00  0.00     0.338 C 
ATOM     27  O   UNL A   1      35.083  31.715  29.873  1.00  0.00    -0.246 OA
BRANCH  26  28
ATOM     28  C   UNL A   1      36.897  30.874  28.619  1.00  0.00     0.060 A 
ATOM     29  C   UNL A   1      37.064  29.556  28.182  1.00  0.00     0.016 A 
ATOM     30  C   UNL A   1      37.960  31.624  29.141  1.00  0.00     0.016 A 
ATOM     31  C   UNL A   1      38.276  28.939  28.406  1.00  0.00     0.010 A 
ATOM     32  C   UNL A   1      39.168  31.003  29.364  1.00  0.00     0.010 A 
ATOM     33  C   UNL A   1      39.291  29.649  29.059  1.00  0.00    -0.014 A 
BRANCH  33  34
ATOM     34  C   UNL A   1      40.538  28.959  29.331  1.00  0.00     0.031 A 
ATOM     35  C   UNL A   1      40.825  28.777  30.775  1.00  0.00     0.074 A 
ATOM     36  C   UNL A   1      41.278  28.397  28.357  1.00  0.00     0.049 A 
ATOM     37  N   UNL A   1      41.862  29.159  31.441  1.00  0.00    -0.248 NA
ATOM     38  C   UNL A   1      39.753  28.208  31.611  1.00  0.00     0.031 C 
ATOM     39  C   UNL A   1      40.941  28.254  26.937  1.00  0.00     0.029 A 
ATOM     40  N   UNL A   1      42.441  27.703  28.470  1.00  0.00    -0.354 N 
ATOM     41  C   UNL A   1      41.667  28.708  32.743  1.00  0.00     0.074 A 
ATOM     42  C   UNL A   1      40.296  28.285  32.823  1.00  0.00     0.031 C 
ATOM     43  C   UNL A   1      41.741  27.313  26.389  1.00  0.00     0.029 A 
ATOM     44  C   UNL A   1      42.716  26.887  27.380  1.00  0.00     0.049 A 
ATOM     45  H   UNL A   1      43.034  27.771  29.253  1.00  0.00     0.167 HD
ATOM     46  C   UNL A   1      42.709  28.529  33.599  1.00  0.00     0.034 A 
ATOM     47  C   UNL A   1      43.607  25.863  27.340  1.00  0.00     0.034 A 
ATOM     48  C   UNL A   1      43.862  29.293  33.185  1.00  0.00     0.049 A 
ATOM     49  C   UNL A   1      44.577  26.083  28.445  1.00  0.00     0.074 A 
ATOM     50  C   UNL A   1      44.087  30.640  32.967  1.00  0.00     0.029 A 
ATOM     51  N   UNL A   1      44.900  28.643  32.557  1.00  0.00    -0.354 N 
ATOM     52  N   UNL A   1      45.397  27.097  28.491  1.00  0.00    -0.248 NA
ATOM     53  C   UNL A   1      44.305  25.454  29.731  1.00  0.00     0.031 C 
ATOM     54  C   UNL A   1      44.916  30.690  31.809  1.00  0.00     0.029 A 
ATOM     55  C   UNL A   1      45.206  29.376  31.434  1.00  0.00     0.049 A 
ATOM     56  H   UNL A   1      45.340  27.814  32.854  1.00  0.00     0.167 HD
ATOM     57  C   UNL A   1      45.403  27.500  29.819  1.00  0.00     0.074 A 
ATOM     58  C   UNL A   1      44.793  26.391  30.550  1.00  0.00     0.031 C 
ATOM     59  C   UNL A   1      45.637  28.799  30.174  1.00  0.00     0.034 A 
BRANCH  46  60
ATOM     60  C   UNL A   1      42.784  27.413  34.615  1.00  0.00     0.023 A 
ATOM     61  C   UNL A   1      43.563  26.288  34.283  1.00  0.00     0.031 A 
ATOM     62  C   UNL A   1      41.932  27.259  35.733  1.00  0.00     0.131 A 
ATOM     63  C   UNL A   1      43.403  25.071  34.969  1.00  0.00     0.055 A 
ATOM     64  C   UNL A   1      41.831  26.070  36.458  1.00  0.00     0.041 A 
ATOM     65  F   UNL A   1      41.078  28.209  36.133  1.00  0.00    -0.206 F 
ATOM     66  C   UNL A   1      42.543  24.954  36.057  1.00  0.00     0.022 A 
BRANCH  63  67
ATOM     67  S   UNL A   1      44.194  23.592  34.286  1.00  0.00     0.124 S 
ATOM     68  O   UNL A   1      45.364  24.160  33.625  1.00  0.00    -0.237 OA
ATOM     69  O   UNL A   1      44.450  22.808  35.490  1.00  0.00    -0.237 OA
ATOM     70  O   UNL A   1      43.175  23.047  33.391  1.00  0.00    -0.744 OA
ENDBRANCH  63  67
ENDBRANCH  46  60
BRANCH  47  71
ATOM     71  C   UNL A   1      43.405  24.560  26.646  1.00  0.00     0.023 A 
ATOM     72  C   UNL A   1      42.416  23.632  27.030  1.00  0.00     0.031 A 
ATOM     73  C   UNL A   1      44.075  24.302  25.425  1.00  0.00     0.131 A 
ATOM     74  C   UNL A   1      42.150  22.502  26.221  1.00  0.00     0.055 A 
ATOM     75  C   UNL A   1      43.819  23.178  24.639  1.00  0.00     0.041 A 
ATOM     76  F   UNL A   1      44.950  25.179  24.911  1.00  0.00    -0.206 F 
ATOM     77  C   UNL A   1      42.848  22.274  25.032  1.00  0.00     0.022 A 
BRANCH  74  78
ATOM     78  S   UNL A   1      40.812  21.345  26.662  1.00  0.00     0.124 S 
ATOM     79  O   UNL A   1      41.291  20.089  26.098  1.00  0.00    -0.237 OA
ATOM     80  O   UNL A   1      40.788  21.437  28.117  1.00  0.00    -0.237 OA
ATOM     81  O   UNL A   1      39.639  21.911  25.995  1.00  0.00    -0.744 OA
ENDBRANCH  74  78
ENDBRANCH  47  71
BRANCH  59  82
ATOM     82  C   UNL A   1      46.151  29.765  29.122  1.00  0.00     0.023 A 
ATOM     83  C   UNL A   1      45.333  30.623  28.350  1.00  0.00     0.031 A 
ATOM     84  C   UNL A   1      47.544  29.920  29.008  1.00  0.00     0.131 A 
ATOM     85  C   UNL A   1      45.920  31.581  27.500  1.00  0.00     0.055 A 
ATOM     86  C   UNL A   1      48.120  30.883  28.180  1.00  0.00     0.041 A 
ATOM     87  F   UNL A   1      48.377  29.158  29.737  1.00  0.00    -0.206 F 
ATOM     88  C   UNL A   1      47.309  31.715  27.418  1.00  0.00     0.022 A 
BRANCH  85  89
ATOM     89  S   UNL A   1      44.884  32.671  26.469  1.00  0.00     0.124 S 
ATOM     90  O   UNL A   1      44.219  33.532  27.441  1.00  0.00    -0.237 OA
ATOM     91  O   UNL A   1      45.867  33.319  25.605  1.00  0.00    -0.237 OA
ATOM     92  O   UNL A   1      43.992  31.737  25.777  1.00  0.00    -0.744 OA
ENDBRANCH  85  89
ENDBRANCH  59  82
ENDBRANCH  33  34
ENDBRANCH  26  28
ENDBRANCH  25  26
ENDBRANCH  24  25
ENDBRANCH   1  24
TORSDOF 17
ENDMDL
