MODEL 1
REMARK VINA RESULT:     -12.8      0.000      0.000
REMARK SMILES Cc1noc2c1-c1c(c(C(=O)OCCOC(=O)c3ccc(-c4c5nc(c(-c6cc(S(=O)(=O)[O-])ccc6F)c6ccc([nH]6)c(-c6cc(S(=O)(=O)[O-])ccc6F)c6nc(c(-c7cc(S(=O)(=O)[O-])ccc7F)c7ccc4[nH]7)C=C6)C=C5)cc3)nn1C)CC2
REMARK SMILES IDX 15 1 14 2 13 3 12 4 10 5 11 6 9 7 1 8 2 9 3 10 6 11 4 12
REMARK SMILES IDX 5 13 7 14 85 15 8 16 82 17 84 18 81 19 83 20 16 21 17 22
REMARK SMILES IDX 18 23 19 24 80 25 20 26 79 27 21 28 22 29 23 30 73 31 24 32
REMARK SMILES IDX 78 33 72 34 74 35 25 36 77 37 71 38 70 39 26 41 58 42 38 43
REMARK SMILES IDX 57 44 39 45 42 46 56 47 75 48 40 49 41 50 55 52 76 53 43 54
REMARK SMILES IDX 27 55 28 56 36 57 29 58 35 59 37 60 34 61 30 62 31 63 32 64
REMARK SMILES IDX 33 65 59 66 60 67 68 68 61 69 67 70 69 71 66 72 62 73 63 74
REMARK SMILES IDX 64 75 65 76 44 77 45 78 53 79 46 80 52 81 54 82 51 83 47 84
REMARK SMILES IDX 48 85 49 86 50 87
REMARK H PARENT 74 40 42 51
REMARK Flexibility Score: inf
ROOT
ATOM      1  O   UNL A   1      39.322  22.992  26.714  1.00  0.00    -0.458 OA
ENDROOT
BRANCH   1   2
ATOM      2  C   UNL A   1      39.158  21.752  26.030  1.00  0.00     0.275 C 
BRANCH   2   3
ATOM      3  C   UNL A   1      37.776  21.661  25.404  1.00  0.00     0.275 C 
BRANCH   3   4
ATOM      4  O   UNL A   1      37.386  22.927  24.855  1.00  0.00    -0.457 OA
BRANCH   4   5
ATOM      5  C   UNL A   1      36.435  22.895  23.861  1.00  0.00     0.359 C 
ATOM      6  O   UNL A   1      36.702  22.945  22.674  1.00  0.00    -0.244 OA
BRANCH   5   7
ATOM      7  C   UNL A   1      35.069  22.763  24.412  1.00  0.00     0.174 A 
ATOM      8  C   UNL A   1      29.854  22.566  26.717  1.00  0.00     0.071 C 
ATOM      9  C   UNL A   1      30.661  23.768  26.428  1.00  0.00     0.090 A 
ATOM     10  N   UNL A   1      30.117  24.970  26.708  1.00  0.00    -0.084 NA
ATOM     11  C   UNL A   1      31.968  23.920  25.924  1.00  0.00     0.066 A 
ATOM     12  O   UNL A   1      31.077  25.918  26.396  1.00  0.00    -0.360 OA
ATOM     13  C   UNL A   1      32.175  25.279  25.947  1.00  0.00     0.146 A 
ATOM     14  C   UNL A   1      33.080  23.111  25.375  1.00  0.00     0.077 A 
ATOM     15  C   UNL A   1      33.354  26.051  25.485  1.00  0.00     0.084 C 
ATOM     16  C   UNL A   1      34.293  23.734  25.105  1.00  0.00     0.014 A 
ATOM     17  N   UNL A   1      33.238  21.814  24.998  1.00  0.00    -0.267 N 
ATOM     18  C   UNL A   1      34.608  25.149  25.513  1.00  0.00     0.048 C 
ATOM     19  N   UNL A   1      34.376  21.609  24.302  1.00  0.00    -0.165 NA
ATOM     20  C   UNL A   1      32.343  20.701  25.178  1.00  0.00     0.174 C 
ENDBRANCH   5   7
ENDBRANCH   4   5
ENDBRANCH   3   4
ENDBRANCH   2   3
ENDBRANCH   1   2
BRANCH   1  21
ATOM     21  C   UNL A   1      40.481  23.122  27.402  1.00  0.00     0.338 C 
ATOM     22  O   UNL A   1      41.083  22.239  27.990  1.00  0.00    -0.246 OA
BRANCH  21  23
ATOM     23  C   UNL A   1      40.771  24.553  27.550  1.00  0.00     0.060 A 
ATOM     24  C   UNL A   1      41.779  24.935  28.438  1.00  0.00     0.016 A 
ATOM     25  C   UNL A   1      39.865  25.484  27.019  1.00  0.00     0.016 A 
ATOM     26  C   UNL A   1      41.783  26.234  28.912  1.00  0.00     0.010 A 
ATOM     27  C   UNL A   1      39.851  26.765  27.514  1.00  0.00     0.010 A 
ATOM     28  C   UNL A   1      40.770  27.110  28.500  1.00  0.00    -0.014 A 
BRANCH  28  29
ATOM     29  C   UNL A   1      40.785  28.480  28.976  1.00  0.00     0.031 A 
ATOM     30  C   UNL A   1      41.923  29.243  28.414  1.00  0.00     0.074 A 
ATOM     31  C   UNL A   1      39.780  29.022  29.692  1.00  0.00     0.049 A 
ATOM     32  N   UNL A   1      42.966  29.680  29.036  1.00  0.00    -0.248 NA
ATOM     33  C   UNL A   1      42.024  29.343  26.945  1.00  0.00     0.031 C 
ATOM     34  C   UNL A   1      38.493  28.410  30.037  1.00  0.00     0.029 A 
ATOM     35  N   UNL A   1      39.651  30.286  30.182  1.00  0.00    -0.354 N 
ATOM     36  C   UNL A   1      43.709  30.354  28.075  1.00  0.00     0.074 A 
ATOM     37  C   UNL A   1      43.230  29.891  26.805  1.00  0.00     0.031 C 
ATOM     38  C   UNL A   1      37.643  29.366  30.478  1.00  0.00     0.029 A 
ATOM     39  C   UNL A   1      38.357  30.630  30.572  1.00  0.00     0.049 A 
ATOM     40  H   UNL A   1      40.411  30.908  30.255  1.00  0.00     0.167 HD
ATOM     41  C   UNL A   1      44.415  31.467  28.406  1.00  0.00     0.034 A 
ATOM     42  C   UNL A   1      37.894  31.872  30.894  1.00  0.00     0.034 A 
ATOM     43  C   UNL A   1      44.649  31.518  29.834  1.00  0.00     0.049 A 
ATOM     44  C   UNL A   1      39.080  32.698  31.230  1.00  0.00     0.074 A 
ATOM     45  C   UNL A   1      45.249  30.669  30.746  1.00  0.00     0.029 A 
ATOM     46  N   UNL A   1      43.872  32.375  30.582  1.00  0.00    -0.354 N 
ATOM     47  N   UNL A   1      39.836  32.473  32.268  1.00  0.00    -0.248 NA
ATOM     48  C   UNL A   1      39.715  33.450  30.157  1.00  0.00     0.031 C 
ATOM     49  C   UNL A   1      44.433  30.744  31.913  1.00  0.00     0.029 A 
ATOM     50  C   UNL A   1      43.437  31.697  31.695  1.00  0.00     0.049 A 
ATOM     51  H   UNL A   1      43.665  33.311  30.359  1.00  0.00     0.167 HD
ATOM     52  C   UNL A   1      41.135  32.647  31.812  1.00  0.00     0.074 A 
ATOM     53  C   UNL A   1      40.993  33.348  30.537  1.00  0.00     0.031 C 
ATOM     54  C   UNL A   1      42.174  31.954  32.366  1.00  0.00     0.034 A 
BRANCH  41  55
ATOM     55  C   UNL A   1      44.511  32.696  27.522  1.00  0.00     0.023 A 
ATOM     56  C   UNL A   1      43.832  33.846  27.960  1.00  0.00     0.031 A 
ATOM     57  C   UNL A   1      44.955  32.724  26.177  1.00  0.00     0.131 A 
ATOM     58  C   UNL A   1      43.520  34.885  27.066  1.00  0.00     0.055 A 
ATOM     59  C   UNL A   1      44.700  33.790  25.311  1.00  0.00     0.041 A 
ATOM     60  F   UNL A   1      45.579  31.700  25.586  1.00  0.00    -0.206 F 
ATOM     61  C   UNL A   1      43.947  34.864  25.742  1.00  0.00     0.022 A 
BRANCH  58  62
ATOM     62  S   UNL A   1      42.380  36.175  27.621  1.00  0.00     0.124 S 
ATOM     63  O   UNL A   1      42.531  37.170  26.564  1.00  0.00    -0.237 OA
ATOM     64  O   UNL A   1      41.111  35.457  27.655  1.00  0.00    -0.237 OA
ATOM     65  O   UNL A   1      42.916  36.560  28.924  1.00  0.00    -0.744 OA
ENDBRANCH  58  62
ENDBRANCH  41  55
BRANCH  42  66
ATOM     66  C   UNL A   1      36.555  32.456  30.580  1.00  0.00     0.023 A 
ATOM     67  C   UNL A   1      35.763  33.157  31.520  1.00  0.00     0.031 A 
ATOM     68  C   UNL A   1      36.145  32.533  29.229  1.00  0.00     0.131 A 
ATOM     69  C   UNL A   1      34.623  33.885  31.093  1.00  0.00     0.055 A 
ATOM     70  C   UNL A   1      35.021  33.252  28.816  1.00  0.00     0.041 A 
ATOM     71  F   UNL A   1      36.878  31.979  28.250  1.00  0.00    -0.206 F 
ATOM     72  C   UNL A   1      34.258  33.937  29.745  1.00  0.00     0.022 A 
BRANCH  69  73
ATOM     73  S   UNL A   1      33.616  34.839  32.281  1.00  0.00     0.124 S 
ATOM     74  O   UNL A   1      32.551  35.367  31.438  1.00  0.00    -0.237 OA
ATOM     75  O   UNL A   1      33.233  33.823  33.254  1.00  0.00    -0.237 OA
ATOM     76  O   UNL A   1      34.548  35.849  32.789  1.00  0.00    -0.744 OA
ENDBRANCH  69  73
ENDBRANCH  42  66
BRANCH  54  77
ATOM     77  C   UNL A   1      41.943  31.254  33.693  1.00  0.00     0.023 A 
ATOM     78  C   UNL A   1      41.899  29.853  33.888  1.00  0.00     0.031 A 
ATOM     79  C   UNL A   1      41.864  32.071  34.835  1.00  0.00     0.131 A 
ATOM     80  C   UNL A   1      41.768  29.326  35.190  1.00  0.00     0.055 A 
ATOM     81  C   UNL A   1      41.759  31.546  36.122  1.00  0.00     0.041 A 
ATOM     82  F   UNL A   1      41.922  33.408  34.721  1.00  0.00    -0.206 F 
ATOM     83  C   UNL A   1      41.704  30.170  36.304  1.00  0.00     0.022 A 
BRANCH  80  84
ATOM     84  S   UNL A   1      41.653  27.526  35.468  1.00  0.00     0.124 S 
ATOM     85  O   UNL A   1      43.021  27.062  35.277  1.00  0.00    -0.237 OA
ATOM     86  O   UNL A   1      41.135  27.450  36.831  1.00  0.00    -0.237 OA
ATOM     87  O   UNL A   1      40.711  27.083  34.437  1.00  0.00    -0.744 OA
ENDBRANCH  80  84
ENDBRANCH  54  77
ENDBRANCH  28  29
ENDBRANCH  21  23
ENDBRANCH   1  21
TORSDOF 14
ENDMDL
MODEL 2
REMARK VINA RESULT:     -12.7      1.398      1.807
REMARK SMILES Cc1noc2c1-c1c(c(C(=O)OCCOC(=O)c3ccc(-c4c5nc(c(-c6cc(S(=O)(=O)[O-])ccc6F)c6ccc([nH]6)c(-c6cc(S(=O)(=O)[O-])ccc6F)c6nc(c(-c7cc(S(=O)(=O)[O-])ccc7F)c7ccc4[nH]7)C=C6)C=C5)cc3)nn1C)CC2
REMARK SMILES IDX 15 1 14 2 13 3 12 4 10 5 11 6 9 7 1 8 2 9 3 10 6 11 4 12
REMARK SMILES IDX 5 13 7 14 85 15 8 16 82 17 84 18 81 19 83 20 16 21 17 22
REMARK SMILES IDX 18 23 19 24 80 25 20 26 79 27 21 28 22 29 23 30 73 31 24 32
REMARK SMILES IDX 78 33 72 34 74 35 25 36 77 37 71 38 70 39 26 41 58 42 38 43
REMARK SMILES IDX 57 44 39 45 42 46 56 47 75 48 40 49 41 50 55 52 76 53 43 54
REMARK SMILES IDX 27 55 28 56 36 57 29 58 35 59 37 60 34 61 30 62 31 63 32 64
REMARK SMILES IDX 33 65 59 66 60 67 68 68 61 69 67 70 69 71 66 72 62 73 63 74
REMARK SMILES IDX 64 75 65 76 44 77 45 78 53 79 46 80 52 81 54 82 51 83 47 84
REMARK SMILES IDX 48 85 49 86 50 87
REMARK H PARENT 74 40 42 51
REMARK Flexibility Score: inf
ROOT
ATOM      1  O   UNL A   1      39.249  23.285  26.425  1.00  0.00    -0.458 OA
ENDROOT
BRANCH   1   2
ATOM      2  C   UNL A   1      39.018  21.928  26.059  1.00  0.00     0.275 C 
BRANCH   2   3
ATOM      3  C   UNL A   1      37.551  21.699  25.730  1.00  0.00     0.275 C 
BRANCH   3   4
ATOM      4  O   UNL A   1      37.368  21.569  24.313  1.00  0.00    -0.457 OA
BRANCH   4   5
ATOM      5  C   UNL A   1      36.519  22.477  23.723  1.00  0.00     0.359 C 
ATOM      6  O   UNL A   1      36.848  23.206  22.805  1.00  0.00    -0.244 OA
BRANCH   5   7
ATOM      7  C   UNL A   1      35.167  22.433  24.319  1.00  0.00     0.174 A 
ATOM      8  C   UNL A   1      30.028  22.575  26.794  1.00  0.00     0.071 C 
ATOM      9  C   UNL A   1      30.895  23.724  26.463  1.00  0.00     0.090 A 
ATOM     10  N   UNL A   1      30.431  24.959  26.743  1.00  0.00    -0.084 NA
ATOM     11  C   UNL A   1      32.190  23.791  25.915  1.00  0.00     0.066 A 
ATOM     12  O   UNL A   1      31.435  25.844  26.387  1.00  0.00    -0.360 OA
ATOM     13  C   UNL A   1      32.478  25.136  25.911  1.00  0.00     0.146 A 
ATOM     14  C   UNL A   1      33.235  22.912  25.341  1.00  0.00     0.077 A 
ATOM     15  C   UNL A   1      33.685  25.831  25.400  1.00  0.00     0.084 C 
ATOM     16  C   UNL A   1      34.472  23.457  25.023  1.00  0.00     0.014 A 
ATOM     17  N   UNL A   1      33.303  21.603  24.978  1.00  0.00    -0.267 N 
ATOM     18  C   UNL A   1      34.883  24.857  25.401  1.00  0.00     0.048 C 
ATOM     19  N   UNL A   1      34.403  21.322  24.249  1.00  0.00    -0.165 NA
ATOM     20  C   UNL A   1      32.350  20.547  25.203  1.00  0.00     0.174 C 
ENDBRANCH   5   7
ENDBRANCH   4   5
ENDBRANCH   3   4
ENDBRANCH   2   3
ENDBRANCH   1   2
BRANCH   1  21
ATOM     21  C   UNL A   1      40.426  23.522  27.051  1.00  0.00     0.338 C 
ATOM     22  O   UNL A   1      41.373  22.758  27.137  1.00  0.00    -0.246 OA
BRANCH  21  23
ATOM     23  C   UNL A   1      40.290  24.755  27.837  1.00  0.00     0.060 A 
ATOM     24  C   UNL A   1      39.164  25.553  27.624  1.00  0.00     0.016 A 
ATOM     25  C   UNL A   1      41.400  25.223  28.556  1.00  0.00     0.016 A 
ATOM     26  C   UNL A   1      39.215  26.880  28.007  1.00  0.00     0.010 A 
ATOM     27  C   UNL A   1      41.462  26.549  28.907  1.00  0.00     0.010 A 
ATOM     28  C   UNL A   1      40.395  27.378  28.575  1.00  0.00    -0.014 A 
BRANCH  28  29
ATOM     29  C   UNL A   1      40.444  28.764  29.001  1.00  0.00     0.031 A 
ATOM     30  C   UNL A   1      41.644  29.457  28.475  1.00  0.00     0.074 A 
ATOM     31  C   UNL A   1      39.427  29.375  29.639  1.00  0.00     0.049 A 
ATOM     32  N   UNL A   1      42.669  29.873  29.139  1.00  0.00    -0.248 NA
ATOM     33  C   UNL A   1      41.829  29.495  27.012  1.00  0.00     0.031 C 
ATOM     34  C   UNL A   1      38.098  28.831  29.934  1.00  0.00     0.029 A 
ATOM     35  N   UNL A   1      39.327  30.661  30.075  1.00  0.00    -0.354 N 
ATOM     36  C   UNL A   1      43.492  30.478  28.197  1.00  0.00     0.074 A 
ATOM     37  C   UNL A   1      43.064  29.986  26.919  1.00  0.00     0.031 C 
ATOM     38  C   UNL A   1      37.268  29.838  30.292  1.00  0.00     0.029 A 
ATOM     39  C   UNL A   1      38.030  31.074  30.380  1.00  0.00     0.049 A 
ATOM     40  H   UNL A   1      40.109  31.253  30.168  1.00  0.00     0.167 HD
ATOM     41  C   UNL A   1      44.228  31.572  28.526  1.00  0.00     0.034 A 
ATOM     42  C   UNL A   1      37.606  32.345  30.630  1.00  0.00     0.034 A 
ATOM     43  C   UNL A   1      44.386  31.669  29.962  1.00  0.00     0.049 A 
ATOM     44  C   UNL A   1      38.807  33.134  31.001  1.00  0.00     0.074 A 
ATOM     45  C   UNL A   1      44.898  30.831  30.936  1.00  0.00     0.029 A 
ATOM     46  N   UNL A   1      43.608  32.586  30.634  1.00  0.00    -0.354 N 
ATOM     47  N   UNL A   1      39.495  32.918  32.088  1.00  0.00    -0.248 NA
ATOM     48  C   UNL A   1      39.532  33.817  29.938  1.00  0.00     0.031 C 
ATOM     49  C   UNL A   1      44.025  30.985  32.053  1.00  0.00     0.029 A 
ATOM     50  C   UNL A   1      43.084  31.970  31.745  1.00  0.00     0.049 A 
ATOM     51  H   UNL A   1      43.455  33.520  30.366  1.00  0.00     0.167 HD
ATOM     52  C   UNL A   1      40.823  33.019  31.698  1.00  0.00     0.074 A 
ATOM     53  C   UNL A   1      40.781  33.676  30.393  1.00  0.00     0.031 C 
ATOM     54  C   UNL A   1      41.799  32.306  32.335  1.00  0.00     0.034 A 
BRANCH  41  55
ATOM     55  C   UNL A   1      44.425  32.761  27.605  1.00  0.00     0.023 A 
ATOM     56  C   UNL A   1      43.780  33.956  27.965  1.00  0.00     0.031 A 
ATOM     57  C   UNL A   1      44.938  32.717  26.285  1.00  0.00     0.131 A 
ATOM     58  C   UNL A   1      43.561  34.973  27.019  1.00  0.00     0.055 A 
ATOM     59  C   UNL A   1      44.777  33.760  25.369  1.00  0.00     0.041 A 
ATOM     60  F   UNL A   1      45.543  31.645  25.764  1.00  0.00    -0.206 F 
ATOM     61  C   UNL A   1      44.053  34.882  25.721  1.00  0.00     0.022 A 
BRANCH  58  62
ATOM     62  S   UNL A   1      42.456  36.332  27.467  1.00  0.00     0.124 S 
ATOM     63  O   UNL A   1      41.147  35.715  27.285  1.00  0.00    -0.237 OA
ATOM     64  O   UNL A   1      42.857  36.601  28.843  1.00  0.00    -0.237 OA
ATOM     65  O   UNL A   1      42.795  37.375  26.502  1.00  0.00    -0.744 OA
ENDBRANCH  58  62
ENDBRANCH  41  55
BRANCH  42  66
ATOM     66  C   UNL A   1      36.313  32.972  30.221  1.00  0.00     0.023 A 
ATOM     67  C   UNL A   1      35.509  33.751  31.086  1.00  0.00     0.031 A 
ATOM     68  C   UNL A   1      35.974  33.003  28.849  1.00  0.00     0.131 A 
ATOM     69  C   UNL A   1      34.426  34.508  30.568  1.00  0.00     0.055 A 
ATOM     70  C   UNL A   1      34.907  33.751  28.345  1.00  0.00     0.041 A 
ATOM     71  F   UNL A   1      36.728  32.372  27.935  1.00  0.00    -0.206 F 
ATOM     72  C   UNL A   1      34.132  34.512  29.202  1.00  0.00     0.022 A 
BRANCH  69  73
ATOM     73  S   UNL A   1      33.407  35.561  31.657  1.00  0.00     0.124 S 
ATOM     74  O   UNL A   1      32.775  34.587  32.538  1.00  0.00    -0.237 OA
ATOM     75  O   UNL A   1      34.402  36.438  32.264  1.00  0.00    -0.237 OA
ATOM     76  O   UNL A   1      32.490  36.230  30.730  1.00  0.00    -0.744 OA
ENDBRANCH  69  73
ENDBRANCH  42  66
BRANCH  54  77
ATOM     77  C   UNL A   1      41.466  31.668  33.671  1.00  0.00     0.023 A 
ATOM     78  C   UNL A   1      41.490  32.323  34.925  1.00  0.00     0.031 A 
ATOM     79  C   UNL A   1      41.001  30.341  33.642  1.00  0.00     0.131 A 
ATOM     80  C   UNL A   1      41.069  31.641  36.086  1.00  0.00     0.055 A 
ATOM     81  C   UNL A   1      40.563  29.678  34.786  1.00  0.00     0.041 A 
ATOM     82  F   UNL A   1      40.932  29.670  32.479  1.00  0.00    -0.206 F 
ATOM     83  C   UNL A   1      40.601  30.324  36.015  1.00  0.00     0.022 A 
BRANCH  80  84
ATOM     84  S   UNL A   1      41.140  32.440  37.724  1.00  0.00     0.124 S 
ATOM     85  O   UNL A   1      39.753  32.431  38.170  1.00  0.00    -0.237 OA
ATOM     86  O   UNL A   1      42.056  31.572  38.459  1.00  0.00    -0.237 OA
ATOM     87  O   UNL A   1      41.676  33.772  37.429  1.00  0.00    -0.744 OA
ENDBRANCH  80  84
ENDBRANCH  54  77
ENDBRANCH  28  29
ENDBRANCH  21  23
ENDBRANCH   1  21
TORSDOF 14
ENDMDL
MODEL 3
REMARK VINA RESULT:     -12.6      4.254      9.855
REMARK SMILES Cc1noc2c1-c1c(c(C(=O)OCCOC(=O)c3ccc(-c4c5nc(c(-c6cc(S(=O)(=O)[O-])ccc6F)c6ccc([nH]6)c(-c6cc(S(=O)(=O)[O-])ccc6F)c6nc(c(-c7cc(S(=O)(=O)[O-])ccc7F)c7ccc4[nH]7)C=C6)C=C5)cc3)nn1C)CC2
REMARK SMILES IDX 15 1 14 2 13 3 12 4 10 5 11 6 9 7 1 8 2 9 3 10 6 11 4 12
REMARK SMILES IDX 5 13 7 14 85 15 8 16 82 17 84 18 81 19 83 20 16 21 17 22
REMARK SMILES IDX 18 23 19 24 80 25 20 26 79 27 21 28 22 29 23 30 73 31 24 32
REMARK SMILES IDX 78 33 72 34 74 35 25 36 77 37 71 38 70 39 26 41 58 42 38 43
REMARK SMILES IDX 57 44 39 45 42 46 56 47 75 48 40 49 41 50 55 52 76 53 43 54
REMARK SMILES IDX 27 55 28 56 36 57 29 58 35 59 37 60 34 61 30 62 31 63 32 64
REMARK SMILES IDX 33 65 59 66 60 67 68 68 61 69 67 70 69 71 66 72 62 73 63 74
REMARK SMILES IDX 64 75 65 76 44 77 45 78 53 79 46 80 52 81 54 82 51 83 47 84
REMARK SMILES IDX 48 85 49 86 50 87
REMARK H PARENT 74 40 42 51
REMARK Flexibility Score: inf
ROOT
ATOM      1  O   UNL A   1      35.363  31.572  27.584  1.00  0.00    -0.458 OA
ENDROOT
BRANCH   1   2
ATOM      2  C   UNL A   1      33.956  31.344  27.620  1.00  0.00     0.275 C 
BRANCH   2   3
ATOM      3  C   UNL A   1      33.639  29.886  27.327  1.00  0.00     0.275 C 
BRANCH   3   4
ATOM      4  O   UNL A   1      32.237  29.715  27.078  1.00  0.00    -0.457 OA
BRANCH   4   5
ATOM      5  C   UNL A   1      31.778  28.419  27.041  1.00  0.00     0.359 C 
ATOM      6  O   UNL A   1      31.372  27.821  28.020  1.00  0.00    -0.244 OA
BRANCH   5   7
ATOM      7  C   UNL A   1      31.813  27.863  25.671  1.00  0.00     0.174 A 
ATOM      8  C   UNL A   1      32.277  25.582  20.462  1.00  0.00     0.071 C 
ATOM      9  C   UNL A   1      32.903  25.101  21.710  1.00  0.00     0.090 A 
ATOM     10  N   UNL A   1      33.654  23.982  21.643  1.00  0.00    -0.084 NA
ATOM     11  C   UNL A   1      32.902  25.621  23.019  1.00  0.00     0.066 A 
ATOM     12  O   UNL A   1      34.159  23.773  22.915  1.00  0.00    -0.360 OA
ATOM     13  C   UNL A   1      33.717  24.760  23.717  1.00  0.00     0.146 A 
ATOM     14  C   UNL A   1      32.290  26.710  23.814  1.00  0.00     0.077 A 
ATOM     15  C   UNL A   1      34.059  24.765  25.160  1.00  0.00     0.084 C 
ATOM     16  C   UNL A   1      32.711  26.904  25.123  1.00  0.00     0.014 A 
ATOM     17  N   UNL A   1      31.315  27.634  23.598  1.00  0.00    -0.267 N 
ATOM     18  C   UNL A   1      33.891  26.190  25.729  1.00  0.00     0.048 C 
ATOM     19  N   UNL A   1      30.923  28.251  24.732  1.00  0.00    -0.165 NA
ATOM     20  C   UNL A   1      30.629  27.962  22.375  1.00  0.00     0.174 C 
ENDBRANCH   5   7
ENDBRANCH   4   5
ENDBRANCH   3   4
ENDBRANCH   2   3
ENDBRANCH   1   2
BRANCH   1  21
ATOM     21  C   UNL A   1      35.981  31.555  28.789  1.00  0.00     0.338 C 
ATOM     22  O   UNL A   1      35.674  32.205  29.775  1.00  0.00    -0.246 OA
BRANCH  21  23
ATOM     23  C   UNL A   1      37.243  30.819  28.649  1.00  0.00     0.060 A 
ATOM     24  C   UNL A   1      37.187  29.483  28.244  1.00  0.00     0.016 A 
ATOM     25  C   UNL A   1      38.414  31.380  29.180  1.00  0.00     0.016 A 
ATOM     26  C   UNL A   1      38.270  28.667  28.513  1.00  0.00     0.010 A 
ATOM     27  C   UNL A   1      39.476  30.561  29.475  1.00  0.00     0.010 A 
ATOM     28  C   UNL A   1      39.371  29.202  29.196  1.00  0.00    -0.014 A 
BRANCH  28  29
ATOM     29  C   UNL A   1      40.519  28.356  29.458  1.00  0.00     0.031 A 
ATOM     30  C   UNL A   1      40.828  28.285  30.905  1.00  0.00     0.074 A 
ATOM     31  C   UNL A   1      41.103  27.594  28.513  1.00  0.00     0.049 A 
ATOM     32  N   UNL A   1      41.847  28.783  31.520  1.00  0.00    -0.248 NA
ATOM     33  C   UNL A   1      39.772  27.794  31.810  1.00  0.00     0.031 C 
ATOM     34  C   UNL A   1      40.669  27.395  27.127  1.00  0.00     0.029 A 
ATOM     35  N   UNL A   1      42.163  26.745  28.620  1.00  0.00    -0.354 N 
ATOM     36  C   UNL A   1      41.687  28.414  32.850  1.00  0.00     0.074 A 
ATOM     37  C   UNL A   1      40.305  28.059  33.001  1.00  0.00     0.031 C 
ATOM     38  C   UNL A   1      41.317  26.330  26.600  1.00  0.00     0.029 A 
ATOM     39  C   UNL A   1      42.302  25.852  27.558  1.00  0.00     0.049 A 
ATOM     40  H   UNL A   1      42.781  26.761  29.386  1.00  0.00     0.167 HD
ATOM     41  C   UNL A   1      42.769  28.120  33.619  1.00  0.00     0.034 A 
ATOM     42  C   UNL A   1      43.126  24.767  27.494  1.00  0.00     0.034 A 
ATOM     43  C   UNL A   1      43.972  28.685  33.044  1.00  0.00     0.049 A 
ATOM     44  C   UNL A   1      44.182  24.969  28.517  1.00  0.00     0.074 A 
ATOM     45  C   UNL A   1      44.367  29.963  32.693  1.00  0.00     0.029 A 
ATOM     46  N   UNL A   1      44.823  27.836  32.371  1.00  0.00    -0.354 N 
ATOM     47  N   UNL A   1      45.072  25.921  28.446  1.00  0.00    -0.248 NA
ATOM     48  C   UNL A   1      43.949  24.442  29.854  1.00  0.00     0.031 C 
ATOM     49  C   UNL A   1      45.091  29.804  31.474  1.00  0.00     0.029 A 
ATOM     50  C   UNL A   1      45.184  28.440  31.191  1.00  0.00     0.049 A 
ATOM     51  H   UNL A   1      45.121  26.951  32.681  1.00  0.00     0.167 HD
ATOM     52  C   UNL A   1      45.174  26.414  29.739  1.00  0.00     0.074 A 
ATOM     53  C   UNL A   1      44.541  25.398  30.578  1.00  0.00     0.031 C 
ATOM     54  C   UNL A   1      45.502  27.720  29.969  1.00  0.00     0.034 A 
BRANCH  41  55
ATOM     55  C   UNL A   1      42.803  26.984  34.622  1.00  0.00     0.023 A 
ATOM     56  C   UNL A   1      43.554  25.849  34.271  1.00  0.00     0.031 A 
ATOM     57  C   UNL A   1      41.932  26.821  35.728  1.00  0.00     0.131 A 
ATOM     58  C   UNL A   1      43.341  24.615  34.910  1.00  0.00     0.055 A 
ATOM     59  C   UNL A   1      41.775  25.608  36.404  1.00  0.00     0.041 A 
ATOM     60  F   UNL A   1      41.115  27.782  36.171  1.00  0.00    -0.206 F 
ATOM     61  C   UNL A   1      42.455  24.486  35.974  1.00  0.00     0.022 A 
BRANCH  58  62
ATOM     62  S   UNL A   1      44.110  23.141  34.197  1.00  0.00     0.124 S 
ATOM     63  O   UNL A   1      44.401  22.358  35.393  1.00  0.00    -0.237 OA
ATOM     64  O   UNL A   1      43.044  22.635  33.339  1.00  0.00    -0.237 OA
ATOM     65  O   UNL A   1      45.276  23.674  33.498  1.00  0.00    -0.744 OA
ENDBRANCH  58  62
ENDBRANCH  41  55
BRANCH  42  66
ATOM     66  C   UNL A   1      42.842  23.441  26.867  1.00  0.00     0.023 A 
ATOM     67  C   UNL A   1      43.798  22.694  26.139  1.00  0.00     0.031 A 
ATOM     68  C   UNL A   1      41.643  22.771  27.203  1.00  0.00     0.131 A 
ATOM     69  C   UNL A   1      43.532  21.348  25.780  1.00  0.00     0.055 A 
ATOM     70  C   UNL A   1      41.387  21.444  26.847  1.00  0.00     0.041 A 
ATOM     71  F   UNL A   1      40.711  23.360  27.969  1.00  0.00    -0.206 F 
ATOM     72  C   UNL A   1      42.334  20.724  26.139  1.00  0.00     0.022 A 
BRANCH  69  73
ATOM     73  S   UNL A   1      44.772  20.349  24.887  1.00  0.00     0.124 S 
ATOM     74  O   UNL A   1      44.525  20.709  23.496  1.00  0.00    -0.237 OA
ATOM     75  O   UNL A   1      46.027  20.815  25.467  1.00  0.00    -0.237 OA
ATOM     76  O   UNL A   1      44.417  18.970  25.232  1.00  0.00    -0.744 OA
ENDBRANCH  69  73
ENDBRANCH  42  66
BRANCH  54  77
ATOM     77  C   UNL A   1      46.073  28.530  28.820  1.00  0.00     0.023 A 
ATOM     78  C   UNL A   1      47.425  28.525  28.401  1.00  0.00     0.031 A 
ATOM     79  C   UNL A   1      45.158  29.271  28.050  1.00  0.00     0.131 A 
ATOM     80  C   UNL A   1      47.812  29.255  27.258  1.00  0.00     0.055 A 
ATOM     81  C   UNL A   1      45.539  29.971  26.908  1.00  0.00     0.041 A 
ATOM     82  F   UNL A   1      43.856  29.299  28.382  1.00  0.00    -0.206 F 
ATOM     83  C   UNL A   1      46.870  29.971  26.510  1.00  0.00     0.022 A 
BRANCH  80  84
ATOM     84  S   UNL A   1      49.555  29.312  26.725  1.00  0.00     0.124 S 
ATOM     85  O   UNL A   1      49.553  28.580  25.465  1.00  0.00    -0.237 OA
ATOM     86  O   UNL A   1      49.810  30.747  26.631  1.00  0.00    -0.237 OA
ATOM     87  O   UNL A   1      50.266  28.642  27.817  1.00  0.00    -0.744 OA
ENDBRANCH  80  84
ENDBRANCH  54  77
ENDBRANCH  28  29
ENDBRANCH  21  23
ENDBRANCH   1  21
TORSDOF 14
ENDMDL
