MODEL 1
REMARK VINA RESULT:     -11.4      0.000      0.000
REMARK SMILES CCc1ccccc1NC(=O)CCN1C[C@H](C(=O)OCCOC(=O)c2ccc(-c3c4nc(c(-c5cc(S(=O)(=O)[O-])ccc5F)c5ccc([nH]5)c(-c5cc(S(=O)(=O)[O-])ccc5F)c5nc(c(-c6cc(S(=O)(=O)[O-])ccc6F)c6ccc3[nH]6)C=C5)C=C4)cc2)CC1=O
REMARK SMILES IDX 20 1 19 2 17 3 18 4 16 5 14 6 15 7 89 8 88 9 90 10 13 11
REMARK SMILES IDX 12 12 10 13 9 14 11 16 8 17 3 18 4 19 5 20 7 21 6 22 2 23
REMARK SMILES IDX 1 24 21 25 22 26 23 27 24 28 25 29 26 30 87 31 27 32 86 33
REMARK SMILES IDX 28 34 29 35 30 36 80 37 31 38 85 39 79 40 81 41 32 42 84 43
REMARK SMILES IDX 78 44 77 45 33 47 65 48 45 49 64 50 46 51 49 52 63 53 82 54
REMARK SMILES IDX 47 55 48 56 62 58 83 59 50 60 34 61 35 62 43 63 36 64 42 65
REMARK SMILES IDX 44 66 41 67 37 68 38 69 39 70 40 71 66 72 67 73 75 74 68 75
REMARK SMILES IDX 74 76 76 77 73 78 69 79 70 80 71 81 72 82 51 83 52 84 60 85
REMARK SMILES IDX 53 86 59 87 61 88 58 89 54 90 55 91 56 92 57 93
REMARK H PARENT 9 15 81 46 49 57
REMARK Flexibility Score: inf
ROOT
ATOM      1  C   UNL A   1      31.985  30.647  26.238  1.00  0.00     0.274 C 
ENDROOT
BRANCH   1   2
ATOM      2  O   UNL A   1      31.776  29.534  27.155  1.00  0.00    -0.462 OA
BRANCH   2   3
ATOM      3  C   UNL A   1      31.671  28.171  26.627  1.00  0.00     0.311 C 
ATOM      4  O   UNL A   1      32.427  27.508  27.400  1.00  0.00    -0.252 OA
BRANCH   3   5
ATOM      5  C   UNL A   1      30.510  27.569  24.875  1.00  0.00     0.128 C 
ATOM      6  N   UNL A   1      31.118  26.317  22.795  1.00  0.00    -0.341 N 
ATOM      7  C   UNL A   1      30.786  27.655  23.211  1.00  0.00     0.135 C 
ATOM      8  C   UNL A   1      30.434  25.357  23.519  1.00  0.00     0.223 C 
ATOM      9  C   UNL A   1      29.589  26.084  24.528  1.00  0.00     0.117 C 
ATOM     10  O   UNL A   1      30.525  24.147  23.401  1.00  0.00    -0.275 OA
BRANCH   6  11
ATOM     11  C   UNL A   1      32.243  26.015  21.940  1.00  0.00     0.129 C 
BRANCH  11  12
ATOM     12  C   UNL A   1      33.525  25.622  22.673  1.00  0.00     0.122 C 
BRANCH  12  13
ATOM     13  C   UNL A   1      33.913  26.482  23.856  1.00  0.00     0.226 C 
ATOM     14  N   UNL A   1      34.049  25.970  25.111  1.00  0.00    -0.326 N 
ATOM     15  H   UNL A   1      34.318  26.624  25.797  1.00  0.00     0.169 HD
ATOM     16  O   UNL A   1      34.127  27.689  23.691  1.00  0.00    -0.275 OA
BRANCH  14  17
ATOM     17  C   UNL A   1      33.868  24.670  25.582  1.00  0.00     0.044 A 
ATOM     18  C   UNL A   1      35.184  23.450  25.341  1.00  0.00    -0.025 A 
ATOM     19  C   UNL A   1      34.881  21.725  25.879  1.00  0.00     0.006 A 
ATOM     20  C   UNL A   1      33.346  21.235  26.667  1.00  0.00     0.000 A 
ATOM     21  C   UNL A   1      32.359  24.186  26.419  1.00  0.00     0.026 A 
ATOM     22  C   UNL A   1      32.049  22.469  26.864  1.00  0.00     0.002 A 
BRANCH  18  23
ATOM     23  C   UNL A   1      36.616  23.834  24.964  1.00  0.00     0.034 C 
ATOM     24  C   UNL A   1      37.693  24.078  26.003  1.00  0.00     0.009 C 
ENDBRANCH  18  23
ENDBRANCH  14  17
ENDBRANCH  12  13
ENDBRANCH  11  12
ENDBRANCH   6  11
ENDBRANCH   3   5
ENDBRANCH   2   3
ENDBRANCH   1   2
BRANCH   1  25
ATOM     25  C   UNL A   1      31.575  31.985  26.858  1.00  0.00     0.275 C 
BRANCH  25  26
ATOM     26  O   UNL A   1      32.527  33.046  26.629  1.00  0.00    -0.458 OA
BRANCH  26  27
ATOM     27  C   UNL A   1      33.066  33.599  27.744  1.00  0.00     0.338 C 
ATOM     28  O   UNL A   1      32.530  34.401  28.493  1.00  0.00    -0.246 OA
BRANCH  27  29
ATOM     29  C   UNL A   1      34.371  32.985  28.073  1.00  0.00     0.060 A 
ATOM     30  C   UNL A   1      34.296  31.716  28.604  1.00  0.00     0.016 A 
ATOM     31  C   UNL A   1      35.594  33.631  28.101  1.00  0.00     0.016 A 
ATOM     32  C   UNL A   1      35.329  31.102  29.279  1.00  0.00     0.010 A 
ATOM     33  C   UNL A   1      36.711  32.958  28.647  1.00  0.00     0.010 A 
ATOM     34  C   UNL A   1      36.577  31.690  29.252  1.00  0.00    -0.014 A 
BRANCH  34  35
ATOM     35  C   UNL A   1      37.671  30.971  29.946  1.00  0.00     0.031 A 
ATOM     36  C   UNL A   1      37.962  31.330  31.367  1.00  0.00     0.074 A 
ATOM     37  C   UNL A   1      38.272  29.902  29.378  1.00  0.00     0.049 A 
ATOM     38  N   UNL A   1      38.992  31.025  32.103  1.00  0.00    -0.248 NA
ATOM     39  C   UNL A   1      36.937  32.131  32.055  1.00  0.00     0.031 C 
ATOM     40  C   UNL A   1      37.894  29.296  28.095  1.00  0.00     0.029 A 
ATOM     41  N   UNL A   1      39.311  29.117  29.809  1.00  0.00    -0.354 N 
ATOM     42  C   UNL A   1      38.768  31.638  33.329  1.00  0.00     0.074 A 
ATOM     43  C   UNL A   1      37.500  32.328  33.238  1.00  0.00     0.031 C 
ATOM     44  C   UNL A   1      38.688  28.241  27.849  1.00  0.00     0.029 A 
ATOM     45  C   UNL A   1      39.710  28.175  28.883  1.00  0.00     0.049 A 
ATOM     46  H   UNL A   1      39.732  29.216  30.693  1.00  0.00     0.167 HD
ATOM     47  C   UNL A   1      39.571  31.626  34.418  1.00  0.00     0.034 A 
ATOM     48  C   UNL A   1      40.825  27.417  28.839  1.00  0.00     0.034 A 
ATOM     49  C   UNL A   1      40.824  30.916  34.450  1.00  0.00     0.049 A 
ATOM     50  C   UNL A   1      41.815  27.585  29.970  1.00  0.00     0.074 A 
ATOM     51  C   UNL A   1      41.794  30.911  35.434  1.00  0.00     0.029 A 
ATOM     52  N   UNL A   1      41.271  30.068  33.442  1.00  0.00    -0.354 N 
ATOM     53  N   UNL A   1      41.703  28.308  31.063  1.00  0.00    -0.248 NA
ATOM     54  C   UNL A   1      43.085  26.858  29.859  1.00  0.00     0.031 C 
ATOM     55  C   UNL A   1      42.858  30.120  34.988  1.00  0.00     0.029 A 
ATOM     56  C   UNL A   1      42.512  29.553  33.770  1.00  0.00     0.049 A 
ATOM     57  H   UNL A   1      40.777  29.866  32.615  1.00  0.00     0.167 HD
ATOM     58  C   UNL A   1      42.870  28.086  31.787  1.00  0.00     0.074 A 
ATOM     59  C   UNL A   1      43.661  27.150  31.014  1.00  0.00     0.031 C 
ATOM     60  C   UNL A   1      43.260  28.605  32.980  1.00  0.00     0.034 A 
BRANCH  47  61
ATOM     61  C   UNL A   1      39.163  32.481  35.586  1.00  0.00     0.023 A 
ATOM     62  C   UNL A   1      39.580  33.816  35.712  1.00  0.00     0.031 A 
ATOM     63  C   UNL A   1      38.394  31.928  36.626  1.00  0.00     0.131 A 
ATOM     64  C   UNL A   1      39.287  34.529  36.884  1.00  0.00     0.055 A 
ATOM     65  C   UNL A   1      38.033  32.671  37.750  1.00  0.00     0.041 A 
ATOM     66  F   UNL A   1      38.002  30.645  36.578  1.00  0.00    -0.206 F 
ATOM     67  C   UNL A   1      38.490  33.977  37.890  1.00  0.00     0.022 A 
BRANCH  64  68
ATOM     68  S   UNL A   1      40.091  36.134  37.143  1.00  0.00     0.124 S 
ATOM     69  O   UNL A   1      39.331  36.664  38.274  1.00  0.00    -0.237 OA
ATOM     70  O   UNL A   1      41.471  35.758  37.422  1.00  0.00    -0.237 OA
ATOM     71  O   UNL A   1      39.877  36.833  35.878  1.00  0.00    -0.744 OA
ENDBRANCH  64  68
ENDBRANCH  47  61
BRANCH  48  72
ATOM     72  C   UNL A   1      41.150  26.552  27.659  1.00  0.00     0.023 A 
ATOM     73  C   UNL A   1      41.015  25.155  27.726  1.00  0.00     0.031 A 
ATOM     74  C   UNL A   1      41.732  27.089  26.494  1.00  0.00     0.131 A 
ATOM     75  C   UNL A   1      41.532  24.347  26.698  1.00  0.00     0.055 A 
ATOM     76  C   UNL A   1      42.162  26.287  25.435  1.00  0.00     0.041 A 
ATOM     77  F   UNL A   1      41.918  28.414  26.370  1.00  0.00    -0.206 F 
ATOM     78  C   UNL A   1      42.087  24.904  25.545  1.00  0.00     0.022 A 
BRANCH  75  79
ATOM     79  S   UNL A   1      41.638  22.556  26.976  1.00  0.00     0.124 S 
ATOM     80  O   UNL A   1      42.756  22.471  27.908  1.00  0.00    -0.237 OA
ATOM     81  O   UNL A   1      40.320  22.257  27.526  1.00  0.00    -0.237 OA
ATOM     82  O   UNL A   1      41.893  22.019  25.641  1.00  0.00    -0.744 OA
ENDBRANCH  75  79
ENDBRANCH  48  72
BRANCH  60  83
ATOM     83  C   UNL A   1      44.560  28.099  33.550  1.00  0.00     0.023 A 
ATOM     84  C   UNL A   1      44.621  26.954  34.359  1.00  0.00     0.031 A 
ATOM     85  C   UNL A   1      45.757  28.782  33.271  1.00  0.00     0.131 A 
ATOM     86  C   UNL A   1      45.846  26.562  34.915  1.00  0.00     0.055 A 
ATOM     87  C   UNL A   1      46.984  28.341  33.759  1.00  0.00     0.041 A 
ATOM     88  F   UNL A   1      45.752  29.888  32.507  1.00  0.00    -0.206 F 
ATOM     89  C   UNL A   1      47.031  27.232  34.599  1.00  0.00     0.022 A 
BRANCH  86  90
ATOM     90  S   UNL A   1      45.851  25.234  36.147  1.00  0.00     0.124 S 
ATOM     91  O   UNL A   1      46.939  25.642  37.029  1.00  0.00    -0.237 OA
ATOM     92  O   UNL A   1      44.507  25.323  36.709  1.00  0.00    -0.237 OA
ATOM     93  O   UNL A   1      46.112  24.033  35.354  1.00  0.00    -0.744 OA
ENDBRANCH  86  90
ENDBRANCH  60  83
ENDBRANCH  34  35
ENDBRANCH  27  29
ENDBRANCH  26  27
ENDBRANCH  25  26
ENDBRANCH   1  25
TORSDOF 19
ENDMDL
MODEL 2
REMARK VINA RESULT:     -11.4      8.820     14.754
REMARK SMILES CCc1ccccc1NC(=O)CCN1C[C@H](C(=O)OCCOC(=O)c2ccc(-c3c4nc(c(-c5cc(S(=O)(=O)[O-])ccc5F)c5ccc([nH]5)c(-c5cc(S(=O)(=O)[O-])ccc5F)c5nc(c(-c6cc(S(=O)(=O)[O-])ccc6F)c6ccc3[nH]6)C=C5)C=C4)cc2)CC1=O
REMARK SMILES IDX 20 1 19 2 17 3 18 4 16 5 14 6 15 7 89 8 88 9 90 10 13 11
REMARK SMILES IDX 12 12 10 13 9 14 11 16 8 17 3 18 4 19 5 20 7 21 6 22 2 23
REMARK SMILES IDX 1 24 21 25 22 26 23 27 24 28 25 29 26 30 87 31 27 32 86 33
REMARK SMILES IDX 28 34 29 35 30 36 80 37 31 38 85 39 79 40 81 41 32 42 84 43
REMARK SMILES IDX 78 44 77 45 33 47 65 48 45 49 64 50 46 51 49 52 63 53 82 54
REMARK SMILES IDX 47 55 48 56 62 58 83 59 50 60 34 61 35 62 43 63 36 64 42 65
REMARK SMILES IDX 44 66 41 67 37 68 38 69 39 70 40 71 66 72 67 73 75 74 68 75
REMARK SMILES IDX 74 76 76 77 73 78 69 79 70 80 71 81 72 82 51 83 52 84 60 85
REMARK SMILES IDX 53 86 59 87 61 88 58 89 54 90 55 91 56 92 57 93
REMARK H PARENT 9 15 81 46 49 57
REMARK Flexibility Score: inf
ROOT
ATOM      1  C   UNL A   1      47.611  39.907  27.509  1.00  0.00     0.274 C 
ENDROOT
BRANCH   1   2
ATOM      2  O   UNL A   1      47.545  39.515  26.108  1.00  0.00    -0.462 OA
BRANCH   2   3
ATOM      3  C   UNL A   1      46.481  40.051  25.254  1.00  0.00     0.311 C 
ATOM      4  O   UNL A   1      46.775  39.589  24.110  1.00  0.00    -0.252 OA
BRANCH   3   5
ATOM      5  C   UNL A   1      44.870  41.377  25.907  1.00  0.00     0.128 C 
ATOM      6  N   UNL A   1      43.035  42.541  24.667  1.00  0.00    -0.341 N 
ATOM      7  C   UNL A   1      44.272  42.849  25.335  1.00  0.00     0.135 C 
ATOM      8  C   UNL A   1      42.356  41.497  25.272  1.00  0.00     0.223 C 
ATOM      9  C   UNL A   1      43.201  41.033  26.426  1.00  0.00     0.117 C 
ATOM     10  O   UNL A   1      41.297  41.010  24.919  1.00  0.00    -0.275 OA
BRANCH   6  11
ATOM     11  C   UNL A   1      42.697  43.055  23.360  1.00  0.00     0.129 C 
BRANCH  11  12
ATOM     12  C   UNL A   1      43.854  43.698  22.598  1.00  0.00     0.122 C 
BRANCH  12  13
ATOM     13  C   UNL A   1      44.612  42.798  21.645  1.00  0.00     0.226 C 
ATOM     14  N   UNL A   1      44.481  42.900  20.294  1.00  0.00    -0.326 N 
ATOM     15  H   UNL A   1      45.035  42.270  19.776  1.00  0.00     0.169 HD
ATOM     16  O   UNL A   1      45.387  41.946  22.094  1.00  0.00    -0.275 OA
BRANCH  14  17
ATOM     17  C   UNL A   1      43.689  43.751  19.523  1.00  0.00     0.044 A 
ATOM     18  C   UNL A   1      44.437  45.222  18.776  1.00  0.00    -0.025 A 
ATOM     19  C   UNL A   1      43.354  46.375  17.854  1.00  0.00     0.006 A 
ATOM     20  C   UNL A   1      41.601  46.061  17.639  1.00  0.00     0.000 A 
ATOM     21  C   UNL A   1      41.949  43.416  19.259  1.00  0.00     0.026 A 
ATOM     22  C   UNL A   1      40.887  44.604  18.420  1.00  0.00     0.002 A 
BRANCH  18  23
ATOM     23  C   UNL A   1      45.949  45.412  18.647  1.00  0.00     0.034 C 
ATOM     24  C   UNL A   1      46.852  45.584  19.852  1.00  0.00     0.009 C 
ENDBRANCH  18  23
ENDBRANCH  14  17
ENDBRANCH  12  13
ENDBRANCH  11  12
ENDBRANCH   6  11
ENDBRANCH   3   5
ENDBRANCH   2   3
ENDBRANCH   1   2
BRANCH   1  25
ATOM     25  C   UNL A   1      46.866  38.925  28.416  1.00  0.00     0.275 C 
BRANCH  25  26
ATOM     26  O   UNL A   1      46.623  37.640  27.804  1.00  0.00    -0.458 OA
BRANCH  26  27
ATOM     27  C   UNL A   1      45.336  37.213  27.835  1.00  0.00     0.338 C 
ATOM     28  O   UNL A   1      44.338  37.888  27.637  1.00  0.00    -0.246 OA
BRANCH  27  29
ATOM     29  C   UNL A   1      45.260  35.743  27.982  1.00  0.00     0.060 A 
ATOM     30  C   UNL A   1      44.579  35.097  26.973  1.00  0.00     0.016 A 
ATOM     31  C   UNL A   1      45.603  35.014  29.106  1.00  0.00     0.016 A 
ATOM     32  C   UNL A   1      44.104  33.806  27.070  1.00  0.00     0.010 A 
ATOM     33  C   UNL A   1      45.266  33.643  29.163  1.00  0.00     0.010 A 
ATOM     34  C   UNL A   1      44.500  33.035  28.144  1.00  0.00    -0.014 A 
BRANCH  34  35
ATOM     35  C   UNL A   1      44.008  31.638  28.184  1.00  0.00     0.031 A 
ATOM     36  C   UNL A   1      44.821  30.584  27.506  1.00  0.00     0.074 A 
ATOM     37  C   UNL A   1      42.955  31.293  28.956  1.00  0.00     0.049 A 
ATOM     38  N   UNL A   1      44.500  29.359  27.201  1.00  0.00    -0.248 NA
ATOM     39  C   UNL A   1      46.195  30.963  27.137  1.00  0.00     0.031 C 
ATOM     40  C   UNL A   1      42.237  32.192  29.868  1.00  0.00     0.029 A 
ATOM     41  N   UNL A   1      42.314  30.091  29.122  1.00  0.00    -0.354 N 
ATOM     42  C   UNL A   1      45.612  28.832  26.558  1.00  0.00     0.074 A 
ATOM     43  C   UNL A   1      46.619  29.870  26.521  1.00  0.00     0.031 C 
ATOM     44  C   UNL A   1      41.261  31.511  30.490  1.00  0.00     0.029 A 
ATOM     45  C   UNL A   1      41.198  30.169  29.929  1.00  0.00     0.049 A 
ATOM     46  H   UNL A   1      42.619  29.254  28.704  1.00  0.00     0.167 HD
ATOM     47  C   UNL A   1      45.753  27.591  26.036  1.00  0.00     0.034 A 
ATOM     48  C   UNL A   1      40.195  29.287  30.116  1.00  0.00     0.034 A 
ATOM     49  C   UNL A   1      44.714  26.597  26.106  1.00  0.00     0.049 A 
ATOM     50  C   UNL A   1      40.273  27.986  29.347  1.00  0.00     0.074 A 
ATOM     51  C   UNL A   1      44.669  25.345  25.523  1.00  0.00     0.029 A 
ATOM     52  N   UNL A   1      43.532  26.747  26.824  1.00  0.00    -0.354 N 
ATOM     53  N   UNL A   1      41.243  27.540  28.578  1.00  0.00    -0.248 NA
ATOM     54  C   UNL A   1      39.123  27.081  29.447  1.00  0.00     0.031 C 
ATOM     55  C   UNL A   1      43.430  24.771  25.827  1.00  0.00     0.029 A 
ATOM     56  C   UNL A   1      42.742  25.622  26.679  1.00  0.00     0.049 A 
ATOM     57  H   UNL A   1      43.292  27.540  27.355  1.00  0.00     0.167 HD
ATOM     58  C   UNL A   1      40.835  26.284  28.141  1.00  0.00     0.074 A 
ATOM     59  C   UNL A   1      39.542  26.039  28.747  1.00  0.00     0.031 C 
ATOM     60  C   UNL A   1      41.464  25.408  27.317  1.00  0.00     0.034 A 
BRANCH  47  61
ATOM     61  C   UNL A   1      47.015  27.305  25.269  1.00  0.00     0.023 A 
ATOM     62  C   UNL A   1      47.199  27.746  23.948  1.00  0.00     0.031 A 
ATOM     63  C   UNL A   1      48.027  26.519  25.850  1.00  0.00     0.131 A 
ATOM     64  C   UNL A   1      48.333  27.338  23.230  1.00  0.00     0.055 A 
ATOM     65  C   UNL A   1      49.193  26.190  25.158  1.00  0.00     0.041 A 
ATOM     66  F   UNL A   1      47.886  26.036  27.095  1.00  0.00    -0.206 F 
ATOM     67  C   UNL A   1      49.345  26.590  23.835  1.00  0.00     0.022 A 
BRANCH  64  68
ATOM     68  S   UNL A   1      48.392  27.670  21.448  1.00  0.00     0.124 S 
ATOM     69  O   UNL A   1      47.060  28.222  21.208  1.00  0.00    -0.237 OA
ATOM     70  O   UNL A   1      49.502  28.609  21.335  1.00  0.00    -0.237 OA
ATOM     71  O   UNL A   1      48.628  26.353  20.861  1.00  0.00    -0.744 OA
ENDBRANCH  64  68
ENDBRANCH  47  61
BRANCH  48  72
ATOM     72  C   UNL A   1      38.983  29.622  30.930  1.00  0.00     0.023 A 
ATOM     73  C   UNL A   1      37.941  30.397  30.394  1.00  0.00     0.031 A 
ATOM     74  C   UNL A   1      38.905  29.293  32.298  1.00  0.00     0.131 A 
ATOM     75  C   UNL A   1      36.924  30.887  31.232  1.00  0.00     0.055 A 
ATOM     76  C   UNL A   1      37.844  29.707  33.107  1.00  0.00     0.041 A 
ATOM     77  F   UNL A   1      39.877  28.577  32.886  1.00  0.00    -0.206 F 
ATOM     78  C   UNL A   1      36.858  30.532  32.580  1.00  0.00     0.022 A 
BRANCH  75  79
ATOM     79  S   UNL A   1      35.795  32.148  30.575  1.00  0.00     0.124 S 
ATOM     80  O   UNL A   1      35.429  31.570  29.287  1.00  0.00    -0.237 OA
ATOM     81  O   UNL A   1      34.746  32.173  31.589  1.00  0.00    -0.237 OA
ATOM     82  O   UNL A   1      36.627  33.348  30.508  1.00  0.00    -0.744 OA
ENDBRANCH  75  79
ENDBRANCH  48  72
BRANCH  60  83
ATOM     83  C   UNL A   1      40.793  24.077  27.098  1.00  0.00     0.023 A 
ATOM     84  C   UNL A   1      39.641  23.946  26.308  1.00  0.00     0.031 A 
ATOM     85  C   UNL A   1      41.326  22.921  27.696  1.00  0.00     0.131 A 
ATOM     86  C   UNL A   1      39.021  22.695  26.188  1.00  0.00     0.055 A 
ATOM     87  C   UNL A   1      40.753  21.666  27.506  1.00  0.00     0.041 A 
ATOM     88  F   UNL A   1      42.424  22.993  28.467  1.00  0.00    -0.206 F 
ATOM     89  C   UNL A   1      39.584  21.550  26.760  1.00  0.00     0.022 A 
BRANCH  86  90
ATOM     90  S   UNL A   1      37.407  22.605  25.369  1.00  0.00     0.124 S 
ATOM     91  O   UNL A   1      37.610  21.518  24.418  1.00  0.00    -0.237 OA
ATOM     92  O   UNL A   1      36.507  22.319  26.482  1.00  0.00    -0.237 OA
ATOM     93  O   UNL A   1      37.252  23.931  24.773  1.00  0.00    -0.744 OA
ENDBRANCH  86  90
ENDBRANCH  60  83
ENDBRANCH  34  35
ENDBRANCH  27  29
ENDBRANCH  26  27
ENDBRANCH  25  26
ENDBRANCH   1  25
TORSDOF 19
ENDMDL
MODEL 3
REMARK VINA RESULT:     -11.2      1.832      2.549
REMARK SMILES CCc1ccccc1NC(=O)CCN1C[C@H](C(=O)OCCOC(=O)c2ccc(-c3c4nc(c(-c5cc(S(=O)(=O)[O-])ccc5F)c5ccc([nH]5)c(-c5cc(S(=O)(=O)[O-])ccc5F)c5nc(c(-c6cc(S(=O)(=O)[O-])ccc6F)c6ccc3[nH]6)C=C5)C=C4)cc2)CC1=O
REMARK SMILES IDX 20 1 19 2 17 3 18 4 16 5 14 6 15 7 89 8 88 9 90 10 13 11
REMARK SMILES IDX 12 12 10 13 9 14 11 16 8 17 3 18 4 19 5 20 7 21 6 22 2 23
REMARK SMILES IDX 1 24 21 25 22 26 23 27 24 28 25 29 26 30 87 31 27 32 86 33
REMARK SMILES IDX 28 34 29 35 30 36 80 37 31 38 85 39 79 40 81 41 32 42 84 43
REMARK SMILES IDX 78 44 77 45 33 47 65 48 45 49 64 50 46 51 49 52 63 53 82 54
REMARK SMILES IDX 47 55 48 56 62 58 83 59 50 60 34 61 35 62 43 63 36 64 42 65
REMARK SMILES IDX 44 66 41 67 37 68 38 69 39 70 40 71 66 72 67 73 75 74 68 75
REMARK SMILES IDX 74 76 76 77 73 78 69 79 70 80 71 81 72 82 51 83 52 84 60 85
REMARK SMILES IDX 53 86 59 87 61 88 58 89 54 90 55 91 56 92 57 93
REMARK H PARENT 9 15 81 46 49 57
REMARK Flexibility Score: inf
ROOT
ATOM      1  C   UNL A   1      31.496  31.220  26.127  1.00  0.00     0.274 C 
ENDROOT
BRANCH   1   2
ATOM      2  O   UNL A   1      32.159  30.098  26.777  1.00  0.00    -0.462 OA
BRANCH   2   3
ATOM      3  C   UNL A   1      32.949  29.159  25.976  1.00  0.00     0.311 C 
ATOM      4  O   UNL A   1      34.090  29.207  26.527  1.00  0.00    -0.252 OA
BRANCH   3   5
ATOM      5  C   UNL A   1      32.232  28.057  24.230  1.00  0.00     0.128 C 
ATOM      6  N   UNL A   1      30.905  25.948  23.991  1.00  0.00    -0.341 N 
ATOM      7  C   UNL A   1      32.249  26.425  23.797  1.00  0.00     0.135 C 
ATOM      8  C   UNL A   1      29.958  26.918  23.709  1.00  0.00     0.223 C 
ATOM      9  C   UNL A   1      30.706  28.162  23.317  1.00  0.00     0.117 C 
ATOM     10  O   UNL A   1      28.748  26.808  23.800  1.00  0.00    -0.275 OA
BRANCH   6  11
ATOM     11  C   UNL A   1      30.598  24.717  24.681  1.00  0.00     0.129 C 
BRANCH  11  12
ATOM     12  C   UNL A   1      30.967  24.696  26.163  1.00  0.00     0.122 C 
BRANCH  12  13
ATOM     13  C   UNL A   1      30.791  23.374  26.880  1.00  0.00     0.226 C 
ATOM     14  N   UNL A   1      31.752  22.411  26.870  1.00  0.00    -0.326 N 
ATOM     15  H   UNL A   1      31.530  21.599  27.383  1.00  0.00     0.169 HD
ATOM     16  O   UNL A   1      29.749  23.154  27.509  1.00  0.00    -0.275 OA
BRANCH  14  17
ATOM     17  C   UNL A   1      33.002  22.385  26.250  1.00  0.00     0.044 A 
ATOM     18  C   UNL A   1      33.511  20.903  25.342  1.00  0.00    -0.025 A 
ATOM     19  C   UNL A   1      35.195  20.858  24.625  1.00  0.00     0.006 A 
ATOM     20  C   UNL A   1      36.320  22.249  24.761  1.00  0.00     0.000 A 
ATOM     21  C   UNL A   1      34.110  23.791  26.337  1.00  0.00     0.026 A 
ATOM     22  C   UNL A   1      35.790  23.695  25.695  1.00  0.00     0.002 A 
BRANCH  18  23
ATOM     23  C   UNL A   1      32.529  19.809  24.919  1.00  0.00     0.034 C 
ATOM     24  C   UNL A   1      32.948  18.627  24.067  1.00  0.00     0.009 C 
ENDBRANCH  18  23
ENDBRANCH  14  17
ENDBRANCH  12  13
ENDBRANCH  11  12
ENDBRANCH   6  11
ENDBRANCH   3   5
ENDBRANCH   2   3
ENDBRANCH   1   2
BRANCH   1  25
ATOM     25  C   UNL A   1      31.487  32.471  27.008  1.00  0.00     0.275 C 
BRANCH  25  26
ATOM     26  O   UNL A   1      32.656  33.303  26.846  1.00  0.00    -0.458 OA
BRANCH  26  27
ATOM     27  C   UNL A   1      33.178  33.806  27.992  1.00  0.00     0.338 C 
ATOM     28  O   UNL A   1      32.635  34.582  28.763  1.00  0.00    -0.246 OA
BRANCH  27  29
ATOM     29  C   UNL A   1      34.472  33.169  28.318  1.00  0.00     0.060 A 
ATOM     30  C   UNL A   1      34.385  31.849  28.706  1.00  0.00     0.016 A 
ATOM     31  C   UNL A   1      35.685  33.815  28.478  1.00  0.00     0.016 A 
ATOM     32  C   UNL A   1      35.391  31.172  29.363  1.00  0.00     0.010 A 
ATOM     33  C   UNL A   1      36.781  33.094  29.004  1.00  0.00     0.010 A 
ATOM     34  C   UNL A   1      36.632  31.767  29.462  1.00  0.00    -0.014 A 
BRANCH  34  35
ATOM     35  C   UNL A   1      37.699  30.985  30.130  1.00  0.00     0.031 A 
ATOM     36  C   UNL A   1      37.933  31.210  31.588  1.00  0.00     0.074 A 
ATOM     37  C   UNL A   1      38.322  29.971  29.490  1.00  0.00     0.049 A 
ATOM     38  N   UNL A   1      38.934  30.837  32.333  1.00  0.00    -0.248 NA
ATOM     39  C   UNL A   1      36.880  31.947  32.306  1.00  0.00     0.031 C 
ATOM     40  C   UNL A   1      37.996  29.486  28.143  1.00  0.00     0.029 A 
ATOM     41  N   UNL A   1      39.344  29.146  29.888  1.00  0.00    -0.354 N 
ATOM     42  C   UNL A   1      38.660  31.334  33.600  1.00  0.00     0.074 A 
ATOM     43  C   UNL A   1      37.396  32.034  33.523  1.00  0.00     0.031 C 
ATOM     44  C   UNL A   1      38.800  28.456  27.833  1.00  0.00     0.029 A 
ATOM     45  C   UNL A   1      39.780  28.293  28.896  1.00  0.00     0.049 A 
ATOM     46  H   UNL A   1      39.730  29.162  30.794  1.00  0.00     0.167 HD
ATOM     47  C   UNL A   1      39.420  31.220  34.715  1.00  0.00     0.034 A 
ATOM     48  C   UNL A   1      40.896  27.539  28.826  1.00  0.00     0.034 A 
ATOM     49  C   UNL A   1      40.671  30.508  34.731  1.00  0.00     0.049 A 
ATOM     50  C   UNL A   1      41.841  27.599  30.006  1.00  0.00     0.074 A 
ATOM     51  C   UNL A   1      41.601  30.409  35.748  1.00  0.00     0.029 A 
ATOM     52  N   UNL A   1      41.158  29.755  33.667  1.00  0.00    -0.354 N 
ATOM     53  N   UNL A   1      41.686  28.219  31.156  1.00  0.00    -0.248 NA
ATOM     54  C   UNL A   1      43.115  26.883  29.878  1.00  0.00     0.031 C 
ATOM     55  C   UNL A   1      42.682  29.659  35.273  1.00  0.00     0.029 A 
ATOM     56  C   UNL A   1      42.385  29.208  33.996  1.00  0.00     0.049 A 
ATOM     57  H   UNL A   1      40.698  29.631  32.807  1.00  0.00     0.167 HD
ATOM     58  C   UNL A   1      42.823  27.929  31.902  1.00  0.00     0.074 A 
ATOM     59  C   UNL A   1      43.644  27.065  31.078  1.00  0.00     0.031 C 
ATOM     60  C   UNL A   1      43.165  28.334  33.151  1.00  0.00     0.034 A 
BRANCH  47  61
ATOM     61  C   UNL A   1      38.965  31.966  35.939  1.00  0.00     0.023 A 
ATOM     62  C   UNL A   1      38.275  31.330  36.984  1.00  0.00     0.031 A 
ATOM     63  C   UNL A   1      39.169  33.355  36.031  1.00  0.00     0.131 A 
ATOM     64  C   UNL A   1      37.752  32.093  38.039  1.00  0.00     0.055 A 
ATOM     65  C   UNL A   1      38.722  34.094  37.126  1.00  0.00     0.041 A 
ATOM     66  F   UNL A   1      39.786  34.021  35.042  1.00  0.00    -0.206 F 
ATOM     67  C   UNL A   1      37.998  33.465  38.134  1.00  0.00     0.022 A 
BRANCH  64  68
ATOM     68  S   UNL A   1      36.617  31.293  39.205  1.00  0.00     0.124 S 
ATOM     69  O   UNL A   1      37.461  31.158  40.391  1.00  0.00    -0.237 OA
ATOM     70  O   UNL A   1      35.528  32.257  39.303  1.00  0.00    -0.237 OA
ATOM     71  O   UNL A   1      36.278  30.034  38.544  1.00  0.00    -0.744 OA
ENDBRANCH  64  68
ENDBRANCH  47  61
BRANCH  48  72
ATOM     72  C   UNL A   1      41.269  26.784  27.586  1.00  0.00     0.023 A 
ATOM     73  C   UNL A   1      41.069  25.397  27.493  1.00  0.00     0.031 A 
ATOM     74  C   UNL A   1      41.957  27.410  26.527  1.00  0.00     0.131 A 
ATOM     75  C   UNL A   1      41.624  24.675  26.422  1.00  0.00     0.055 A 
ATOM     76  C   UNL A   1      42.428  26.700  25.420  1.00  0.00     0.041 A 
ATOM     77  F   UNL A   1      42.209  28.729  26.558  1.00  0.00    -0.206 F 
ATOM     78  C   UNL A   1      42.285  25.318  25.376  1.00  0.00     0.022 A 
BRANCH  75  79
ATOM     79  S   UNL A   1      41.631  22.862  26.515  1.00  0.00     0.124 S 
ATOM     80  O   UNL A   1      42.338  22.636  27.770  1.00  0.00    -0.237 OA
ATOM     81  O   UNL A   1      40.205  22.553  26.516  1.00  0.00    -0.237 OA
ATOM     82  O   UNL A   1      42.355  22.463  25.309  1.00  0.00    -0.744 OA
ENDBRANCH  75  79
ENDBRANCH  48  72
BRANCH  60  83
ATOM     83  C   UNL A   1      44.442  27.774  33.723  1.00  0.00     0.023 A 
ATOM     84  C   UNL A   1      44.468  26.572  34.447  1.00  0.00     0.031 A 
ATOM     85  C   UNL A   1      45.653  28.465  33.534  1.00  0.00     0.131 A 
ATOM     86  C   UNL A   1      45.671  26.128  35.010  1.00  0.00     0.055 A 
ATOM     87  C   UNL A   1      46.860  27.976  34.027  1.00  0.00     0.041 A 
ATOM     88  F   UNL A   1      45.681  29.624  32.855  1.00  0.00    -0.206 F 
ATOM     89  C   UNL A   1      46.871  26.808  34.783  1.00  0.00     0.022 A 
BRANCH  86  90
ATOM     90  S   UNL A   1      45.626  24.712  36.139  1.00  0.00     0.124 S 
ATOM     91  O   UNL A   1      45.524  23.589  35.214  1.00  0.00    -0.237 OA
ATOM     92  O   UNL A   1      46.895  24.838  36.850  1.00  0.00    -0.237 OA
ATOM     93  O   UNL A   1      44.435  24.960  36.950  1.00  0.00    -0.744 OA
ENDBRANCH  86  90
ENDBRANCH  60  83
ENDBRANCH  34  35
ENDBRANCH  27  29
ENDBRANCH  26  27
ENDBRANCH  25  26
ENDBRANCH   1  25
TORSDOF 19
ENDMDL
