MODEL 1
REMARK VINA RESULT:     -12.2      0.000      0.000
REMARK SMILES Cc1ccccc1CN1C(=O)[C@H](CC(=O)OCCOC(=O)c2ccc(-c3c4nc(c(-c5cc(S(=O)(=O)[O-])ccc5F)c5ccc([nH]5)c(-c5cc(S(=O)(=O)[O-])ccc5F)c5nc(c(-c6cc(S(=O)(=O)[O-])ccc6F)c6ccc3[nH]6)C=C5)C=C4)cc2)n2c(nc3ccccc32)[C@H]1C
REMARK SMILES IDX 17 1 16 2 14 3 15 4 13 5 12 6 9 7 10 8 94 9 11 10 86 11
REMARK SMILES IDX 95 12 85 13 87 14 93 15 88 16 92 17 89 18 91 19 90 20 8 21
REMARK SMILES IDX 7 22 1 23 2 24 3 25 4 26 6 27 5 28 18 29 19 30 20 31 21 32
REMARK SMILES IDX 22 33 23 34 84 35 24 36 83 37 25 38 26 39 27 40 77 41 28 42
REMARK SMILES IDX 82 43 76 44 78 45 29 46 81 47 75 48 74 49 30 51 62 52 42 53
REMARK SMILES IDX 61 54 43 55 46 56 60 57 79 58 44 59 45 60 59 62 80 63 47 64
REMARK SMILES IDX 31 65 32 66 40 67 33 68 39 69 41 70 38 71 34 72 35 73 36 74
REMARK SMILES IDX 37 75 63 76 64 77 72 78 65 79 71 80 73 81 70 82 66 83 67 84
REMARK SMILES IDX 68 85 69 86 48 87 49 88 57 89 50 90 56 91 58 92 55 93 51 94
REMARK SMILES IDX 52 95 53 96 54 97
REMARK H PARENT 78 50 46 61
REMARK Flexibility Score: inf
ROOT
ATOM      1  C   UNL A   1      32.605  30.262  27.147  1.00  0.00     0.274 C 
ENDROOT
BRANCH   1   2
ATOM      2  O   UNL A   1      32.619  29.099  27.991  1.00  0.00    -0.462 OA
BRANCH   2   3
ATOM      3  C   UNL A   1      32.213  27.975  27.360  1.00  0.00     0.308 C 
ATOM      4  O   UNL A   1      31.159  27.386  27.590  1.00  0.00    -0.252 OA
BRANCH   3   5
ATOM      5  C   UNL A   1      33.212  27.523  26.326  1.00  0.00     0.158 C 
BRANCH   5   6
ATOM      6  C   UNL A   1      32.352  27.014  25.176  1.00  0.00     0.189 C 
ATOM      7  N   UNL A   1      31.903  27.619  22.852  1.00  0.00    -0.327 N 
ATOM      8  C   UNL A   1      32.376  28.078  24.065  1.00  0.00     0.247 C 
ATOM      9  C   UNL A   1      32.744  26.546  22.302  1.00  0.00     0.149 C 
ATOM     10  O   UNL A   1      32.715  29.248  24.220  1.00  0.00    -0.272 OA
ATOM     11  C   UNL A   1      32.796  25.427  23.318  1.00  0.00     0.133 A 
ATOM     12  C   UNL A   1      32.391  26.010  20.925  1.00  0.00     0.040 C 
ATOM     13  N   UNL A   1      32.662  25.689  24.665  1.00  0.00    -0.313 N 
ATOM     14  N   UNL A   1      32.924  24.133  23.101  1.00  0.00    -0.231 NA
ATOM     15  C   UNL A   1      32.517  24.486  25.319  1.00  0.00     0.069 A 
ATOM     16  C   UNL A   1      32.716  23.536  24.320  1.00  0.00     0.089 A 
ATOM     17  C   UNL A   1      32.201  24.130  26.639  1.00  0.00     0.028 A 
ATOM     18  C   UNL A   1      32.638  22.170  24.637  1.00  0.00     0.030 A 
ATOM     19  C   UNL A   1      32.113  22.762  26.931  1.00  0.00     0.002 A 
ATOM     20  C   UNL A   1      32.333  21.794  25.950  1.00  0.00     0.002 A 
BRANCH   7  21
ATOM     21  C   UNL A   1      31.108  28.565  22.061  1.00  0.00     0.156 C 
BRANCH  21  22
ATOM     22  C   UNL A   1      29.640  28.503  22.451  1.00  0.00    -0.026 A 
ATOM     23  C   UNL A   1      28.932  30.769  21.405  1.00  0.00     0.044 C 
ATOM     24  C   UNL A   1      28.705  29.551  22.265  1.00  0.00    -0.046 A 
ATOM     25  C   UNL A   1      27.429  29.440  22.856  1.00  0.00     0.004 A 
ATOM     26  C   UNL A   1      27.072  28.323  23.609  1.00  0.00     0.000 A 
ATOM     27  C   UNL A   1      29.209  27.346  23.123  1.00  0.00     0.006 A 
ATOM     28  C   UNL A   1      27.957  27.264  23.723  1.00  0.00     0.000 A 
ENDBRANCH  21  22
ENDBRANCH   7  21
ENDBRANCH   5   6
ENDBRANCH   3   5
ENDBRANCH   2   3
ENDBRANCH   1   2
BRANCH   1  29
ATOM     29  C   UNL A   1      33.752  31.229  27.488  1.00  0.00     0.275 C 
BRANCH  29  30
ATOM     30  O   UNL A   1      34.626  30.592  28.443  1.00  0.00    -0.458 OA
BRANCH  30  31
ATOM     31  C   UNL A   1      35.653  29.848  27.963  1.00  0.00     0.338 C 
ATOM     32  O   UNL A   1      35.861  29.568  26.780  1.00  0.00    -0.246 OA
BRANCH  31  33
ATOM     33  C   UNL A   1      36.605  29.536  29.071  1.00  0.00     0.060 A 
ATOM     34  C   UNL A   1      37.814  28.877  28.826  1.00  0.00     0.016 A 
ATOM     35  C   UNL A   1      36.373  30.025  30.361  1.00  0.00     0.016 A 
ATOM     36  C   UNL A   1      38.760  28.716  29.869  1.00  0.00     0.010 A 
ATOM     37  C   UNL A   1      37.302  29.845  31.398  1.00  0.00     0.010 A 
ATOM     38  C   UNL A   1      38.524  29.202  31.179  1.00  0.00    -0.014 A 
BRANCH  38  39
ATOM     39  C   UNL A   1      39.707  29.425  32.104  1.00  0.00     0.031 A 
ATOM     40  C   UNL A   1      40.761  30.212  31.257  1.00  0.00     0.074 A 
ATOM     41  C   UNL A   1      39.765  29.741  33.458  1.00  0.00     0.049 A 
ATOM     42  N   UNL A   1      40.470  31.388  30.766  1.00  0.00    -0.248 NA
ATOM     43  C   UNL A   1      42.050  29.763  30.708  1.00  0.00     0.031 C 
ATOM     44  C   UNL A   1      40.986  29.531  34.259  1.00  0.00     0.029 A 
ATOM     45  N   UNL A   1      38.905  30.313  34.451  1.00  0.00    -0.354 N 
ATOM     46  C   UNL A   1      41.667  32.011  30.414  1.00  0.00     0.074 A 
ATOM     47  C   UNL A   1      42.542  30.893  30.139  1.00  0.00     0.031 C 
ATOM     48  C   UNL A   1      40.900  30.160  35.455  1.00  0.00     0.029 A 
ATOM     49  C   UNL A   1      39.657  30.930  35.530  1.00  0.00     0.049 A 
ATOM     50  H   UNL A   1      37.922  30.290  34.408  1.00  0.00     0.167 HD
ATOM     51  C   UNL A   1      41.868  33.337  30.751  1.00  0.00     0.034 A 
ATOM     52  C   UNL A   1      39.516  32.077  36.315  1.00  0.00     0.034 A 
ATOM     53  C   UNL A   1      40.870  33.680  31.733  1.00  0.00     0.049 A 
ATOM     54  C   UNL A   1      38.424  33.060  35.885  1.00  0.00     0.074 A 
ATOM     55  C   UNL A   1      40.748  32.979  32.907  1.00  0.00     0.029 A 
ATOM     56  N   UNL A   1      39.819  34.591  31.684  1.00  0.00    -0.354 N 
ATOM     57  N   UNL A   1      38.674  34.119  35.165  1.00  0.00    -0.248 NA
ATOM     58  C   UNL A   1      36.987  32.937  36.142  1.00  0.00     0.031 C 
ATOM     59  C   UNL A   1      39.384  32.897  32.951  1.00  0.00     0.029 A 
ATOM     60  C   UNL A   1      38.886  34.119  32.586  1.00  0.00     0.049 A 
ATOM     61  H   UNL A   1      39.754  35.399  31.125  1.00  0.00     0.167 HD
ATOM     62  C   UNL A   1      37.524  34.381  34.431  1.00  0.00     0.074 A 
ATOM     63  C   UNL A   1      36.470  33.824  35.264  1.00  0.00     0.031 C 
ATOM     64  C   UNL A   1      37.592  34.563  33.053  1.00  0.00     0.034 A 
BRANCH  51  65
ATOM     65  C   UNL A   1      43.060  34.248  30.737  1.00  0.00     0.023 A 
ATOM     66  C   UNL A   1      43.111  35.223  29.701  1.00  0.00     0.031 A 
ATOM     67  C   UNL A   1      44.221  34.072  31.484  1.00  0.00     0.131 A 
ATOM     68  C   UNL A   1      44.290  35.880  29.352  1.00  0.00     0.055 A 
ATOM     69  C   UNL A   1      45.397  34.781  31.174  1.00  0.00     0.041 A 
ATOM     70  F   UNL A   1      44.266  33.170  32.477  1.00  0.00    -0.206 F 
ATOM     71  C   UNL A   1      45.446  35.666  30.089  1.00  0.00     0.022 A 
BRANCH  68  72
ATOM     72  S   UNL A   1      44.296  36.877  27.832  1.00  0.00     0.124 S 
ATOM     73  O   UNL A   1      45.724  37.010  27.565  1.00  0.00    -0.237 OA
ATOM     74  O   UNL A   1      43.534  36.042  26.910  1.00  0.00    -0.237 OA
ATOM     75  O   UNL A   1      43.632  38.113  28.243  1.00  0.00    -0.744 OA
ENDBRANCH  68  72
ENDBRANCH  51  65
BRANCH  52  76
ATOM     76  C   UNL A   1      40.661  32.794  37.096  1.00  0.00     0.023 A 
ATOM     77  C   UNL A   1      41.925  33.182  36.586  1.00  0.00     0.031 A 
ATOM     78  C   UNL A   1      40.532  32.926  38.504  1.00  0.00     0.131 A 
ATOM     79  C   UNL A   1      42.969  33.613  37.473  1.00  0.00     0.055 A 
ATOM     80  C   UNL A   1      41.562  33.306  39.371  1.00  0.00     0.041 A 
ATOM     81  F   UNL A   1      39.371  32.680  39.106  1.00  0.00    -0.206 F 
ATOM     82  C   UNL A   1      42.795  33.648  38.860  1.00  0.00     0.022 A 
BRANCH  79  83
ATOM     83  S   UNL A   1      44.583  34.209  36.847  1.00  0.00     0.124 S 
ATOM     84  O   UNL A   1      44.793  35.431  37.619  1.00  0.00    -0.237 OA
ATOM     85  O   UNL A   1      45.480  33.101  37.165  1.00  0.00    -0.237 OA
ATOM     86  O   UNL A   1      44.360  34.414  35.416  1.00  0.00    -0.744 OA
ENDBRANCH  79  83
ENDBRANCH  52  76
BRANCH  64  87
ATOM     87  C   UNL A   1      36.410  34.513  32.131  1.00  0.00     0.023 A 
ATOM     88  C   UNL A   1      35.259  35.260  32.386  1.00  0.00     0.031 A 
ATOM     89  C   UNL A   1      36.393  33.704  30.966  1.00  0.00     0.131 A 
ATOM     90  C   UNL A   1      34.131  35.134  31.561  1.00  0.00     0.055 A 
ATOM     91  C   UNL A   1      35.279  33.604  30.130  1.00  0.00     0.041 A 
ATOM     92  F   UNL A   1      37.451  32.968  30.592  1.00  0.00    -0.206 F 
ATOM     93  C   UNL A   1      34.131  34.313  30.432  1.00  0.00     0.022 A 
BRANCH  90  94
ATOM     94  S   UNL A   1      32.650  36.080  31.981  1.00  0.00     0.124 S 
ATOM     95  O   UNL A   1      31.789  35.042  32.541  1.00  0.00    -0.237 OA
ATOM     96  O   UNL A   1      33.162  37.065  32.928  1.00  0.00    -0.237 OA
ATOM     97  O   UNL A   1      32.220  36.621  30.694  1.00  0.00    -0.744 OA
ENDBRANCH  90  94
ENDBRANCH  64  87
ENDBRANCH  38  39
ENDBRANCH  31  33
ENDBRANCH  30  31
ENDBRANCH  29  30
ENDBRANCH   1  29
TORSDOF 17
ENDMDL
MODEL 2
REMARK VINA RESULT:     -11.7      1.901      3.675
REMARK SMILES Cc1ccccc1CN1C(=O)[C@H](CC(=O)OCCOC(=O)c2ccc(-c3c4nc(c(-c5cc(S(=O)(=O)[O-])ccc5F)c5ccc([nH]5)c(-c5cc(S(=O)(=O)[O-])ccc5F)c5nc(c(-c6cc(S(=O)(=O)[O-])ccc6F)c6ccc3[nH]6)C=C5)C=C4)cc2)n2c(nc3ccccc32)[C@H]1C
REMARK SMILES IDX 17 1 16 2 14 3 15 4 13 5 12 6 9 7 10 8 94 9 11 10 86 11
REMARK SMILES IDX 95 12 85 13 87 14 93 15 88 16 92 17 89 18 91 19 90 20 8 21
REMARK SMILES IDX 7 22 1 23 2 24 3 25 4 26 6 27 5 28 18 29 19 30 20 31 21 32
REMARK SMILES IDX 22 33 23 34 84 35 24 36 83 37 25 38 26 39 27 40 77 41 28 42
REMARK SMILES IDX 82 43 76 44 78 45 29 46 81 47 75 48 74 49 30 51 62 52 42 53
REMARK SMILES IDX 61 54 43 55 46 56 60 57 79 58 44 59 45 60 59 62 80 63 47 64
REMARK SMILES IDX 31 65 32 66 40 67 33 68 39 69 41 70 38 71 34 72 35 73 36 74
REMARK SMILES IDX 37 75 63 76 64 77 72 78 65 79 71 80 73 81 70 82 66 83 67 84
REMARK SMILES IDX 68 85 69 86 48 87 49 88 57 89 50 90 56 91 58 92 55 93 51 94
REMARK SMILES IDX 52 95 53 96 54 97
REMARK H PARENT 78 50 46 61
REMARK Flexibility Score: inf
ROOT
ATOM      1  C   UNL A   1      32.140  30.098  27.304  1.00  0.00     0.274 C 
ENDROOT
BRANCH   1   2
ATOM      2  O   UNL A   1      32.286  28.836  26.632  1.00  0.00    -0.462 OA
BRANCH   2   3
ATOM      3  C   UNL A   1      31.618  27.828  27.237  1.00  0.00     0.308 C 
ATOM      4  O   UNL A   1      31.732  27.525  28.422  1.00  0.00    -0.252 OA
BRANCH   3   5
ATOM      5  C   UNL A   1      30.701  27.113  26.278  1.00  0.00     0.158 C 
BRANCH   5   6
ATOM      6  C   UNL A   1      31.555  25.981  25.720  1.00  0.00     0.189 C 
ATOM      7  N   UNL A   1      31.357  23.571  25.378  1.00  0.00    -0.327 N 
ATOM      8  C   UNL A   1      30.868  24.653  26.081  1.00  0.00     0.247 C 
ATOM      9  C   UNL A   1      31.109  23.691  23.934  1.00  0.00     0.149 C 
ATOM     10  O   UNL A   1      30.008  24.519  26.949  1.00  0.00    -0.272 OA
ATOM     11  C   UNL A   1      31.747  24.976  23.457  1.00  0.00     0.133 A 
ATOM     12  C   UNL A   1      31.515  22.525  23.050  1.00  0.00     0.040 C 
ATOM     13  N   UNL A   1      31.893  26.051  24.309  1.00  0.00    -0.313 N 
ATOM     14  N   UNL A   1      32.261  25.242  22.273  1.00  0.00    -0.231 NA
ATOM     15  C   UNL A   1      32.699  26.979  23.687  1.00  0.00     0.069 A 
ATOM     16  C   UNL A   1      32.885  26.458  22.409  1.00  0.00     0.089 A 
ATOM     17  C   UNL A   1      33.306  28.173  24.105  1.00  0.00     0.028 A 
ATOM     18  C   UNL A   1      33.675  27.158  21.482  1.00  0.00     0.030 A 
ATOM     19  C   UNL A   1      34.103  28.848  23.170  1.00  0.00     0.002 A 
ATOM     20  C   UNL A   1      34.282  28.356  21.877  1.00  0.00     0.002 A 
BRANCH   7  21
ATOM     21  C   UNL A   1      31.469  22.308  26.118  1.00  0.00     0.156 C 
BRANCH  21  22
ATOM     22  C   UNL A   1      32.798  21.625  25.833  1.00  0.00    -0.026 A 
ATOM     23  C   UNL A   1      34.332  23.587  26.555  1.00  0.00     0.044 C 
ATOM     24  C   UNL A   1      34.065  22.250  25.912  1.00  0.00    -0.046 A 
ATOM     25  C   UNL A   1      35.197  21.562  25.425  1.00  0.00     0.004 A 
ATOM     26  C   UNL A   1      35.090  20.284  24.879  1.00  0.00     0.000 A 
ATOM     27  C   UNL A   1      32.743  20.296  25.377  1.00  0.00     0.006 A 
ATOM     28  C   UNL A   1      33.864  19.642  24.876  1.00  0.00     0.000 A 
ENDBRANCH  21  22
ENDBRANCH   7  21
ENDBRANCH   5   6
ENDBRANCH   3   5
ENDBRANCH   2   3
ENDBRANCH   1   2
BRANCH   1  29
ATOM     29  C   UNL A   1      33.448  30.908  27.285  1.00  0.00     0.275 C 
BRANCH  29  30
ATOM     30  O   UNL A   1      34.352  30.354  28.263  1.00  0.00    -0.458 OA
BRANCH  30  31
ATOM     31  C   UNL A   1      35.480  29.751  27.813  1.00  0.00     0.338 C 
ATOM     32  O   UNL A   1      35.786  29.563  26.634  1.00  0.00    -0.246 OA
BRANCH  31  33
ATOM     33  C   UNL A   1      36.393  29.479  28.963  1.00  0.00     0.060 A 
ATOM     34  C   UNL A   1      37.565  28.733  28.799  1.00  0.00     0.016 A 
ATOM     35  C   UNL A   1      36.170  30.088  30.203  1.00  0.00     0.016 A 
ATOM     36  C   UNL A   1      38.482  28.605  29.872  1.00  0.00     0.010 A 
ATOM     37  C   UNL A   1      37.071  29.941  31.270  1.00  0.00     0.010 A 
ATOM     38  C   UNL A   1      38.255  29.213  31.132  1.00  0.00    -0.014 A 
BRANCH  38  39
ATOM     39  C   UNL A   1      39.434  29.443  32.059  1.00  0.00     0.031 A 
ATOM     40  C   UNL A   1      40.497  30.212  31.206  1.00  0.00     0.074 A 
ATOM     41  C   UNL A   1      39.487  29.779  33.408  1.00  0.00     0.049 A 
ATOM     42  N   UNL A   1      40.215  31.381  30.696  1.00  0.00    -0.248 NA
ATOM     43  C   UNL A   1      41.786  29.748  30.671  1.00  0.00     0.031 C 
ATOM     44  C   UNL A   1      40.702  29.575  34.219  1.00  0.00     0.029 A 
ATOM     45  N   UNL A   1      38.625  30.370  34.388  1.00  0.00    -0.354 N 
ATOM     46  C   UNL A   1      41.417  31.992  30.341  1.00  0.00     0.074 A 
ATOM     47  C   UNL A   1      42.288  30.866  30.088  1.00  0.00     0.031 C 
ATOM     48  C   UNL A   1      40.613  30.223  35.406  1.00  0.00     0.029 A 
ATOM     49  C   UNL A   1      39.374  31.000  35.462  1.00  0.00     0.049 A 
ATOM     50  H   UNL A   1      37.641  30.352  34.340  1.00  0.00     0.167 HD
ATOM     51  C   UNL A   1      41.623  33.323  30.660  1.00  0.00     0.034 A 
ATOM     52  C   UNL A   1      39.234  32.160  36.229  1.00  0.00     0.034 A 
ATOM     53  C   UNL A   1      40.622  33.686  31.631  1.00  0.00     0.049 A 
ATOM     54  C   UNL A   1      38.150  33.142  35.778  1.00  0.00     0.074 A 
ATOM     55  C   UNL A   1      40.490  33.003  32.814  1.00  0.00     0.029 A 
ATOM     56  N   UNL A   1      39.576  34.601  31.561  1.00  0.00    -0.354 N 
ATOM     57  N   UNL A   1      38.410  34.189  35.044  1.00  0.00    -0.248 NA
ATOM     58  C   UNL A   1      36.711  33.031  36.029  1.00  0.00     0.031 C 
ATOM     59  C   UNL A   1      39.126  32.929  32.852  1.00  0.00     0.029 A 
ATOM     60  C   UNL A   1      38.636  34.148  32.466  1.00  0.00     0.049 A 
ATOM     61  H   UNL A   1      39.518  35.401  30.990  1.00  0.00     0.167 HD
ATOM     62  C   UNL A   1      37.265  34.446  34.299  1.00  0.00     0.074 A 
ATOM     63  C   UNL A   1      36.204  33.907  35.134  1.00  0.00     0.031 C 
ATOM     64  C   UNL A   1      37.342  34.606  32.919  1.00  0.00     0.034 A 
BRANCH  51  65
ATOM     65  C   UNL A   1      42.820  34.227  30.638  1.00  0.00     0.023 A 
ATOM     66  C   UNL A   1      43.028  35.045  31.785  1.00  0.00     0.031 A 
ATOM     67  C   UNL A   1      43.596  34.515  29.519  1.00  0.00     0.131 A 
ATOM     68  C   UNL A   1      43.863  36.161  31.763  1.00  0.00     0.055 A 
ATOM     69  C   UNL A   1      44.488  35.605  29.516  1.00  0.00     0.041 A 
ATOM     70  F   UNL A   1      43.463  33.799  28.391  1.00  0.00    -0.206 F 
ATOM     71  C   UNL A   1      44.604  36.450  30.627  1.00  0.00     0.022 A 
BRANCH  68  72
ATOM     72  S   UNL A   1      43.820  37.288  33.189  1.00  0.00     0.124 S 
ATOM     73  O   UNL A   1      43.698  38.590  32.540  1.00  0.00    -0.237 OA
ATOM     74  O   UNL A   1      42.652  36.814  33.924  1.00  0.00    -0.237 OA
ATOM     75  O   UNL A   1      45.105  37.047  33.843  1.00  0.00    -0.744 OA
ENDBRANCH  68  72
ENDBRANCH  51  65
BRANCH  52  76
ATOM     76  C   UNL A   1      40.379  32.883  37.005  1.00  0.00     0.023 A 
ATOM     77  C   UNL A   1      41.637  33.282  36.488  1.00  0.00     0.031 A 
ATOM     78  C   UNL A   1      40.259  33.007  38.415  1.00  0.00     0.131 A 
ATOM     79  C   UNL A   1      42.683  33.718  37.370  1.00  0.00     0.055 A 
ATOM     80  C   UNL A   1      41.292  33.392  39.276  1.00  0.00     0.041 A 
ATOM     81  F   UNL A   1      39.104  32.750  39.023  1.00  0.00    -0.206 F 
ATOM     82  C   UNL A   1      42.518  33.745  38.758  1.00  0.00     0.022 A 
BRANCH  79  83
ATOM     83  S   UNL A   1      44.288  34.329  36.736  1.00  0.00     0.124 S 
ATOM     84  O   UNL A   1      44.312  35.711  37.207  1.00  0.00    -0.237 OA
ATOM     85  O   UNL A   1      45.248  33.430  37.371  1.00  0.00    -0.237 OA
ATOM     86  O   UNL A   1      44.184  34.174  35.285  1.00  0.00    -0.744 OA
ENDBRANCH  79  83
ENDBRANCH  52  76
BRANCH  64  87
ATOM     87  C   UNL A   1      36.164  34.548  31.991  1.00  0.00     0.023 A 
ATOM     88  C   UNL A   1      35.007  35.286  32.242  1.00  0.00     0.031 A 
ATOM     89  C   UNL A   1      36.160  33.742  30.825  1.00  0.00     0.131 A 
ATOM     90  C   UNL A   1      33.883  35.152  31.412  1.00  0.00     0.055 A 
ATOM     91  C   UNL A   1      35.050  33.634  29.983  1.00  0.00     0.041 A 
ATOM     92  F   UNL A   1      37.225  33.015  30.454  1.00  0.00    -0.206 F 
ATOM     93  C   UNL A   1      33.895  34.333  30.282  1.00  0.00     0.022 A 
BRANCH  90  94
ATOM     94  S   UNL A   1      32.393  36.085  31.827  1.00  0.00     0.124 S 
ATOM     95  O   UNL A   1      32.942  37.168  32.638  1.00  0.00    -0.237 OA
ATOM     96  O   UNL A   1      31.881  36.465  30.515  1.00  0.00    -0.237 OA
ATOM     97  O   UNL A   1      31.579  35.113  32.553  1.00  0.00    -0.744 OA
ENDBRANCH  90  94
ENDBRANCH  64  87
ENDBRANCH  38  39
ENDBRANCH  31  33
ENDBRANCH  30  31
ENDBRANCH  29  30
ENDBRANCH   1  29
TORSDOF 17
ENDMDL
MODEL 3
REMARK VINA RESULT:     -11.7      4.795      9.152
REMARK SMILES Cc1ccccc1CN1C(=O)[C@H](CC(=O)OCCOC(=O)c2ccc(-c3c4nc(c(-c5cc(S(=O)(=O)[O-])ccc5F)c5ccc([nH]5)c(-c5cc(S(=O)(=O)[O-])ccc5F)c5nc(c(-c6cc(S(=O)(=O)[O-])ccc6F)c6ccc3[nH]6)C=C5)C=C4)cc2)n2c(nc3ccccc32)[C@H]1C
REMARK SMILES IDX 17 1 16 2 14 3 15 4 13 5 12 6 9 7 10 8 94 9 11 10 86 11
REMARK SMILES IDX 95 12 85 13 87 14 93 15 88 16 92 17 89 18 91 19 90 20 8 21
REMARK SMILES IDX 7 22 1 23 2 24 3 25 4 26 6 27 5 28 18 29 19 30 20 31 21 32
REMARK SMILES IDX 22 33 23 34 84 35 24 36 83 37 25 38 26 39 27 40 77 41 28 42
REMARK SMILES IDX 82 43 76 44 78 45 29 46 81 47 75 48 74 49 30 51 62 52 42 53
REMARK SMILES IDX 61 54 43 55 46 56 60 57 79 58 44 59 45 60 59 62 80 63 47 64
REMARK SMILES IDX 31 65 32 66 40 67 33 68 39 69 41 70 38 71 34 72 35 73 36 74
REMARK SMILES IDX 37 75 63 76 64 77 72 78 65 79 71 80 73 81 70 82 66 83 67 84
REMARK SMILES IDX 68 85 69 86 48 87 49 88 57 89 50 90 56 91 58 92 55 93 51 94
REMARK SMILES IDX 52 95 53 96 54 97
REMARK H PARENT 78 50 46 61
REMARK Flexibility Score: inf
ROOT
ATOM      1  C   UNL A   1      38.192  20.078  25.042  1.00  0.00     0.274 C 
ENDROOT
BRANCH   1   2
ATOM      2  O   UNL A   1      38.007  21.502  25.007  1.00  0.00    -0.462 OA
BRANCH   2   3
ATOM      3  C   UNL A   1      36.750  21.886  25.323  1.00  0.00     0.308 C 
ATOM      4  O   UNL A   1      36.238  21.759  26.432  1.00  0.00    -0.252 OA
BRANCH   3   5
ATOM      5  C   UNL A   1      36.040  22.500  24.143  1.00  0.00     0.158 C 
BRANCH   5   6
ATOM      6  C   UNL A   1      34.581  22.558  24.575  1.00  0.00     0.189 C 
ATOM      7  N   UNL A   1      32.750  24.173  24.538  1.00  0.00    -0.327 N 
ATOM      8  C   UNL A   1      34.120  24.021  24.479  1.00  0.00     0.247 C 
ATOM      9  C   UNL A   1      32.074  23.538  23.397  1.00  0.00     0.149 C 
ATOM     10  O   UNL A   1      34.871  24.992  24.420  1.00  0.00    -0.272 OA
ATOM     11  C   UNL A   1      32.455  22.075  23.386  1.00  0.00     0.133 A 
ATOM     12  C   UNL A   1      30.569  23.707  23.286  1.00  0.00     0.040 C 
ATOM     13  N   UNL A   1      33.663  21.655  23.900  1.00  0.00    -0.313 N 
ATOM     14  N   UNL A   1      31.742  21.050  22.963  1.00  0.00    -0.231 NA
ATOM     15  C   UNL A   1      33.640  20.280  23.970  1.00  0.00     0.069 A 
ATOM     16  C   UNL A   1      32.442  19.933  23.350  1.00  0.00     0.089 A 
ATOM     17  C   UNL A   1      34.498  19.321  24.531  1.00  0.00     0.028 A 
ATOM     18  C   UNL A   1      32.083  18.579  23.242  1.00  0.00     0.030 A 
ATOM     19  C   UNL A   1      34.114  17.977  24.426  1.00  0.00     0.002 A 
ATOM     20  C   UNL A   1      32.930  17.607  23.786  1.00  0.00     0.002 A 
BRANCH   7  21
ATOM     21  C   UNL A   1      32.253  25.340  25.277  1.00  0.00     0.156 C 
BRANCH  21  22
ATOM     22  C   UNL A   1      32.549  26.629  24.526  1.00  0.00    -0.026 A 
ATOM     23  C   UNL A   1      33.954  27.769  26.384  1.00  0.00     0.044 C 
ATOM     24  C   UNL A   1      33.202  27.757  25.077  1.00  0.00    -0.046 A 
ATOM     25  C   UNL A   1      33.231  28.958  24.337  1.00  0.00     0.004 A 
ATOM     26  C   UNL A   1      32.639  29.050  23.079  1.00  0.00     0.000 A 
ATOM     27  C   UNL A   1      32.059  26.726  23.212  1.00  0.00     0.006 A 
ATOM     28  C   UNL A   1      32.072  27.924  22.507  1.00  0.00     0.000 A 
ENDBRANCH  21  22
ENDBRANCH   7  21
ENDBRANCH   5   6
ENDBRANCH   3   5
ENDBRANCH   2   3
ENDBRANCH   1   2
BRANCH   1  29
ATOM     29  C   UNL A   1      39.491  19.689  25.771  1.00  0.00     0.275 C 
BRANCH  29  30
ATOM     30  O   UNL A   1      40.246  20.888  26.042  1.00  0.00    -0.458 OA
BRANCH  30  31
ATOM     31  C   UNL A   1      40.553  21.165  27.333  1.00  0.00     0.338 C 
ATOM     32  O   UNL A   1      40.954  20.359  28.177  1.00  0.00    -0.246 OA
BRANCH  31  33
ATOM     33  C   UNL A   1      40.486  22.640  27.558  1.00  0.00     0.060 A 
ATOM     34  C   UNL A   1      41.606  23.362  27.982  1.00  0.00     0.016 A 
ATOM     35  C   UNL A   1      39.336  23.356  27.210  1.00  0.00     0.016 A 
ATOM     36  C   UNL A   1      41.554  24.777  28.055  1.00  0.00     0.010 A 
ATOM     37  C   UNL A   1      39.280  24.756  27.304  1.00  0.00     0.010 A 
ATOM     38  C   UNL A   1      40.387  25.505  27.712  1.00  0.00    -0.014 A 
BRANCH  38  39
ATOM     39  C   UNL A   1      40.518  26.975  27.359  1.00  0.00     0.031 A 
ATOM     40  C   UNL A   1      39.644  27.739  28.408  1.00  0.00     0.074 A 
ATOM     41  C   UNL A   1      41.612  27.720  26.929  1.00  0.00     0.049 A 
ATOM     42  N   UNL A   1      39.918  27.656  29.683  1.00  0.00    -0.248 NA
ATOM     43  C   UNL A   1      38.360  28.435  28.232  1.00  0.00     0.031 C 
ATOM     44  C   UNL A   1      41.455  29.029  26.268  1.00  0.00     0.029 A 
ATOM     45  N   UNL A   1      43.040  27.619  26.956  1.00  0.00    -0.354 N 
ATOM     46  C   UNL A   1      39.264  28.705  30.328  1.00  0.00     0.074 A 
ATOM     47  C   UNL A   1      38.134  28.960  29.464  1.00  0.00     0.031 C 
ATOM     48  C   UNL A   1      42.638  29.685  26.195  1.00  0.00     0.029 A 
ATOM     49  C   UNL A   1      43.679  28.923  26.886  1.00  0.00     0.049 A 
ATOM     50  H   UNL A   1      43.532  26.768  27.015  1.00  0.00     0.167 HD
ATOM     51  C   UNL A   1      39.944  29.447  31.278  1.00  0.00     0.034 A 
ATOM     52  C   UNL A   1      44.799  29.517  27.472  1.00  0.00     0.034 A 
ATOM     53  C   UNL A   1      41.346  29.152  31.124  1.00  0.00     0.049 A 
ATOM     54  C   UNL A   1      45.473  28.727  28.597  1.00  0.00     0.074 A 
ATOM     55  C   UNL A   1      41.990  29.341  29.927  1.00  0.00     0.029 A 
ATOM     56  N   UNL A   1      42.248  28.541  31.988  1.00  0.00    -0.354 N 
ATOM     57  N   UNL A   1      45.239  28.960  29.859  1.00  0.00    -0.248 NA
ATOM     58  C   UNL A   1      46.390  27.595  28.442  1.00  0.00     0.031 C 
ATOM     59  C   UNL A   1      42.727  28.190  29.912  1.00  0.00     0.029 A 
ATOM     60  C   UNL A   1      43.225  28.003  31.173  1.00  0.00     0.049 A 
ATOM     61  H   UNL A   1      42.201  28.499  32.971  1.00  0.00     0.167 HD
ATOM     62  C   UNL A   1      45.428  27.756  30.526  1.00  0.00     0.074 A 
ATOM     63  C   UNL A   1      46.384  27.060  29.682  1.00  0.00     0.031 C 
ATOM     64  C   UNL A   1      44.450  27.266  31.387  1.00  0.00     0.034 A 
BRANCH  51  65
ATOM     65  C   UNL A   1      39.658  30.733  31.997  1.00  0.00     0.023 A 
ATOM     66  C   UNL A   1      39.669  30.690  33.419  1.00  0.00     0.031 A 
ATOM     67  C   UNL A   1      39.151  31.890  31.413  1.00  0.00     0.131 A 
ATOM     68  C   UNL A   1      39.086  31.687  34.200  1.00  0.00     0.055 A 
ATOM     69  C   UNL A   1      38.617  32.927  32.202  1.00  0.00     0.041 A 
ATOM     70  F   UNL A   1      39.096  32.016  30.077  1.00  0.00    -0.206 F 
ATOM     71  C   UNL A   1      38.555  32.818  33.597  1.00  0.00     0.022 A 
BRANCH  68  72
ATOM     72  S   UNL A   1      38.903  31.379  35.983  1.00  0.00     0.124 S 
ATOM     73  O   UNL A   1      37.490  31.676  36.197  1.00  0.00    -0.237 OA
ATOM     74  O   UNL A   1      39.301  29.980  36.099  1.00  0.00    -0.237 OA
ATOM     75  O   UNL A   1      39.828  32.339  36.583  1.00  0.00    -0.744 OA
ENDBRANCH  68  72
ENDBRANCH  51  65
BRANCH  52  76
ATOM     76  C   UNL A   1      45.046  31.051  27.618  1.00  0.00     0.023 A 
ATOM     77  C   UNL A   1      44.163  32.004  28.184  1.00  0.00     0.031 A 
ATOM     78  C   UNL A   1      46.177  31.613  26.969  1.00  0.00     0.131 A 
ATOM     79  C   UNL A   1      44.414  33.411  28.035  1.00  0.00     0.055 A 
ATOM     80  C   UNL A   1      46.399  32.982  26.789  1.00  0.00     0.041 A 
ATOM     81  F   UNL A   1      47.132  30.832  26.470  1.00  0.00    -0.206 F 
ATOM     82  C   UNL A   1      45.512  33.894  27.318  1.00  0.00     0.022 A 
BRANCH  79  83
ATOM     83  S   UNL A   1      43.349  34.671  28.828  1.00  0.00     0.124 S 
ATOM     84  O   UNL A   1      42.498  33.866  29.700  1.00  0.00    -0.237 OA
ATOM     85  O   UNL A   1      44.316  35.528  29.507  1.00  0.00    -0.237 OA
ATOM     86  O   UNL A   1      42.656  35.310  27.710  1.00  0.00    -0.744 OA
ENDBRANCH  79  83
ENDBRANCH  52  76
BRANCH  64  87
ATOM     87  C   UNL A   1      44.391  25.852  31.886  1.00  0.00     0.023 A 
ATOM     88  C   UNL A   1      44.527  25.556  33.243  1.00  0.00     0.031 A 
ATOM     89  C   UNL A   1      44.204  24.750  31.015  1.00  0.00     0.131 A 
ATOM     90  C   UNL A   1      44.556  24.223  33.682  1.00  0.00     0.055 A 
ATOM     91  C   UNL A   1      44.203  23.425  31.458  1.00  0.00     0.041 A 
ATOM     92  F   UNL A   1      44.024  24.906  29.694  1.00  0.00    -0.206 F 
ATOM     93  C   UNL A   1      44.394  23.154  32.800  1.00  0.00     0.022 A 
BRANCH  90  94
ATOM     94  S   UNL A   1      44.800  23.904  35.443  1.00  0.00     0.124 S 
ATOM     95  O   UNL A   1      43.883  24.869  36.045  1.00  0.00    -0.237 OA
ATOM     96  O   UNL A   1      44.421  22.500  35.566  1.00  0.00    -0.237 OA
ATOM     97  O   UNL A   1      46.220  24.182  35.642  1.00  0.00    -0.744 OA
ENDBRANCH  90  94
ENDBRANCH  64  87
ENDBRANCH  38  39
ENDBRANCH  31  33
ENDBRANCH  30  31
ENDBRANCH  29  30
ENDBRANCH   1  29
TORSDOF 17
ENDMDL
