MODEL 1
REMARK VINA RESULT:     -12.4      0.000      0.000
REMARK SMILES Cc1c(C)c2c(c(C)c1O)CC[C@@](C)(C(=O)OCCOC(=O)c1ccc(-c3c4nc(c(-c5cc(S(=O)(=O)[O-])ccc5F)c5ccc([nH]5)c(-c5cc(S(=O)(=O)[O-])ccc5F)c5nc(c(-c6cc(S(=O)(=O)[O-])ccc6F)c6ccc3[nH]6)C=C5)C=C4)cc1)O2
REMARK SMILES IDX 19 1 18 2 17 3 15 4 16 5 13 6 1 7 2 8 3 9 9 10 4 11 5 12
REMARK SMILES IDX 7 13 6 14 86 15 8 16 11 17 12 18 14 19 10 20 20 22 21 23
REMARK SMILES IDX 22 24 23 25 24 26 85 27 25 28 84 29 26 30 27 31 28 32 78 33
REMARK SMILES IDX 29 34 83 35 77 36 79 37 30 38 82 39 76 40 75 41 31 43 63 44
REMARK SMILES IDX 43 45 62 46 44 47 47 48 61 49 80 50 45 51 46 52 60 54 81 55
REMARK SMILES IDX 48 56 32 57 33 58 41 59 34 60 40 61 42 62 39 63 35 64 36 65
REMARK SMILES IDX 37 66 38 67 64 68 65 69 73 70 66 71 72 72 74 73 71 74 67 75
REMARK SMILES IDX 68 76 69 77 70 78 49 79 50 80 58 81 51 82 57 83 59 84 56 85
REMARK SMILES IDX 52 86 53 87 54 88 55 89
REMARK H PARENT 10 21 79 42 47 53
REMARK Flexibility Score: inf
ROOT
ATOM      1  C   UNL A   1      35.869  20.733  25.380  1.00  0.00     0.275 C 
ENDROOT
BRANCH   1   2
ATOM      2  C   UNL A   1      34.605  21.219  24.671  1.00  0.00     0.274 C 
BRANCH   2   3
ATOM      3  O   UNL A   1      34.036  22.359  25.347  1.00  0.00    -0.459 OA
BRANCH   3   4
ATOM      4  C   UNL A   1      33.106  23.078  24.649  1.00  0.00     0.350 C 
ATOM      5  O   UNL A   1      32.380  22.593  23.789  1.00  0.00    -0.247 OA
BRANCH   4   6
ATOM      6  C   UNL A   1      33.140  24.580  25.017  1.00  0.00     0.203 C 
ATOM      7  C   UNL A   1      30.430  29.397  22.168  1.00  0.00     0.049 C 
ATOM      8  C   UNL A   1      31.020  28.607  23.312  1.00  0.00    -0.002 A 
ATOM      9  C   UNL A   1      31.474  27.278  23.129  1.00  0.00    -0.002 A 
ATOM     10  C   UNL A   1      31.176  29.202  24.578  1.00  0.00     0.122 A 
ATOM     11  C   UNL A   1      31.421  26.645  21.759  1.00  0.00     0.049 C 
ATOM     12  C   UNL A   1      31.989  26.557  24.232  1.00  0.00     0.127 A 
ATOM     13  C   UNL A   1      31.693  28.494  25.675  1.00  0.00    -0.002 A 
ATOM     14  C   UNL A   1      32.039  27.135  25.510  1.00  0.00     0.001 A 
ATOM     15  O   UNL A   1      32.420  25.277  23.983  1.00  0.00    -0.475 OA
ATOM     16  C   UNL A   1      31.842  29.163  27.018  1.00  0.00     0.049 C 
ATOM     17  C   UNL A   1      32.481  26.317  26.694  1.00  0.00     0.044 C 
ATOM     18  C   UNL A   1      32.486  24.833  26.376  1.00  0.00     0.065 C 
ATOM     19  C   UNL A   1      34.618  24.990  24.956  1.00  0.00     0.069 C 
BRANCH  10  20
ATOM     20  O   UNL A   1      30.841  30.516  24.797  1.00  0.00    -0.507 OA
ATOM     21  H   UNL A   1      31.504  31.135  25.030  1.00  0.00     0.293 HD
ENDBRANCH  10  20
ENDBRANCH   4   6
ENDBRANCH   3   4
ENDBRANCH   2   3
ENDBRANCH   1   2
BRANCH   1  22
ATOM     22  O   UNL A   1      36.901  21.725  25.265  1.00  0.00    -0.458 OA
BRANCH  22  23
ATOM     23  C   UNL A   1      38.144  21.330  25.626  1.00  0.00     0.338 C 
ATOM     24  O   UNL A   1      38.650  20.234  25.469  1.00  0.00    -0.246 OA
BRANCH  23  25
ATOM     25  C   UNL A   1      38.844  22.477  26.222  1.00  0.00     0.060 A 
ATOM     26  C   UNL A   1      38.356  23.757  25.973  1.00  0.00     0.016 A 
ATOM     27  C   UNL A   1      40.029  22.298  26.939  1.00  0.00     0.016 A 
ATOM     28  C   UNL A   1      39.068  24.867  26.410  1.00  0.00     0.010 A 
ATOM     29  C   UNL A   1      40.722  23.420  27.411  1.00  0.00     0.010 A 
ATOM     30  C   UNL A   1      40.258  24.717  27.129  1.00  0.00    -0.014 A 
BRANCH  30  31
ATOM     31  C   UNL A   1      41.050  25.925  27.474  1.00  0.00     0.031 A 
ATOM     32  C   UNL A   1      40.459  26.956  28.395  1.00  0.00     0.074 A 
ATOM     33  C   UNL A   1      42.323  26.057  27.051  1.00  0.00     0.049 A 
ATOM     34  N   UNL A   1      40.924  28.132  28.730  1.00  0.00    -0.248 NA
ATOM     35  C   UNL A   1      39.175  26.614  29.026  1.00  0.00     0.031 C 
ATOM     36  C   UNL A   1      43.054  25.077  26.247  1.00  0.00     0.029 A 
ATOM     37  N   UNL A   1      43.236  27.060  27.263  1.00  0.00    -0.354 N 
ATOM     38  C   UNL A   1      39.972  28.687  29.576  1.00  0.00     0.074 A 
ATOM     39  C   UNL A   1      38.904  27.719  29.705  1.00  0.00     0.031 C 
ATOM     40  C   UNL A   1      44.312  25.512  26.062  1.00  0.00     0.029 A 
ATOM     41  C   UNL A   1      44.455  26.833  26.667  1.00  0.00     0.049 A 
ATOM     42  H   UNL A   1      43.038  27.867  27.792  1.00  0.00     0.167 HD
ATOM     43  C   UNL A   1      39.987  29.898  30.185  1.00  0.00     0.034 A 
ATOM     44  C   UNL A   1      45.549  27.615  26.583  1.00  0.00     0.034 A 
ATOM     45  C   UNL A   1      41.071  30.841  30.075  1.00  0.00     0.049 A 
ATOM     46  C   UNL A   1      45.513  28.990  27.195  1.00  0.00     0.074 A 
ATOM     47  C   UNL A   1      41.172  32.108  30.623  1.00  0.00     0.029 A 
ATOM     48  N   UNL A   1      42.249  30.616  29.376  1.00  0.00    -0.354 N 
ATOM     49  N   UNL A   1      44.552  29.560  27.884  1.00  0.00    -0.248 NA
ATOM     50  C   UNL A   1      46.697  29.836  26.995  1.00  0.00     0.031 C 
ATOM     51  C   UNL A   1      42.391  32.665  30.217  1.00  0.00     0.029 A 
ATOM     52  C   UNL A   1      43.075  31.725  29.464  1.00  0.00     0.049 A 
ATOM     53  H   UNL A   1      42.467  29.787  28.889  1.00  0.00     0.167 HD
ATOM     54  C   UNL A   1      45.013  30.836  28.192  1.00  0.00     0.074 A 
ATOM     55  C   UNL A   1      46.345  30.944  27.634  1.00  0.00     0.031 C 
ATOM     56  C   UNL A   1      44.387  31.829  28.872  1.00  0.00     0.034 A 
BRANCH  43  57
ATOM     57  C   UNL A   1      38.758  30.296  30.959  1.00  0.00     0.023 A 
ATOM     58  C   UNL A   1      37.692  30.989  30.362  1.00  0.00     0.031 A 
ATOM     59  C   UNL A   1      38.668  29.988  32.328  1.00  0.00     0.131 A 
ATOM     60  C   UNL A   1      36.601  31.395  31.147  1.00  0.00     0.055 A 
ATOM     61  C   UNL A   1      37.554  30.342  33.089  1.00  0.00     0.041 A 
ATOM     62  F   UNL A   1      39.671  29.346  32.950  1.00  0.00    -0.206 F 
ATOM     63  C   UNL A   1      36.516  31.056  32.501  1.00  0.00     0.022 A 
BRANCH  60  64
ATOM     64  S   UNL A   1      35.328  32.447  30.399  1.00  0.00     0.124 S 
ATOM     65  O   UNL A   1      34.953  31.664  29.224  1.00  0.00    -0.237 OA
ATOM     66  O   UNL A   1      34.326  32.533  31.455  1.00  0.00    -0.237 OA
ATOM     67  O   UNL A   1      36.037  33.691  30.111  1.00  0.00    -0.744 OA
ENDBRANCH  60  64
ENDBRANCH  43  57
BRANCH  44  68
ATOM     68  C   UNL A   1      46.740  27.153  25.818  1.00  0.00     0.023 A 
ATOM     69  C   UNL A   1      46.968  27.572  24.499  1.00  0.00     0.031 A 
ATOM     70  C   UNL A   1      47.668  26.272  26.404  1.00  0.00     0.131 A 
ATOM     71  C   UNL A   1      48.090  27.098  23.801  1.00  0.00     0.055 A 
ATOM     72  C   UNL A   1      48.802  25.834  25.721  1.00  0.00     0.041 A 
ATOM     73  F   UNL A   1      47.492  25.842  27.663  1.00  0.00    -0.206 F 
ATOM     74  C   UNL A   1      49.016  26.245  24.408  1.00  0.00     0.022 A 
BRANCH  71  75
ATOM     75  S   UNL A   1      48.324  27.598  22.072  1.00  0.00     0.124 S 
ATOM     76  O   UNL A   1      47.079  28.304  21.797  1.00  0.00    -0.237 OA
ATOM     77  O   UNL A   1      49.526  28.422  22.151  1.00  0.00    -0.237 OA
ATOM     78  O   UNL A   1      48.491  26.327  21.371  1.00  0.00    -0.744 OA
ENDBRANCH  71  75
ENDBRANCH  44  68
BRANCH  56  79
ATOM     79  C   UNL A   1      45.144  33.117  29.053  1.00  0.00     0.023 A 
ATOM     80  C   UNL A   1      45.128  34.118  28.067  1.00  0.00     0.031 A 
ATOM     81  C   UNL A   1      45.874  33.350  30.231  1.00  0.00     0.131 A 
ATOM     82  C   UNL A   1      45.860  35.299  28.263  1.00  0.00     0.055 A 
ATOM     83  C   UNL A   1      46.565  34.544  30.439  1.00  0.00     0.041 A 
ATOM     84  F   UNL A   1      45.918  32.424  31.202  1.00  0.00    -0.206 F 
ATOM     85  C   UNL A   1      46.565  35.525  29.449  1.00  0.00     0.022 A 
BRANCH  82  86
ATOM     86  S   UNL A   1      45.911  36.526  26.929  1.00  0.00     0.124 S 
ATOM     87  O   UNL A   1      46.242  35.700  25.772  1.00  0.00    -0.237 OA
ATOM     88  O   UNL A   1      44.561  37.077  26.953  1.00  0.00    -0.237 OA
ATOM     89  O   UNL A   1      46.963  37.449  27.353  1.00  0.00    -0.744 OA
ENDBRANCH  82  86
ENDBRANCH  56  79
ENDBRANCH  30  31
ENDBRANCH  23  25
ENDBRANCH  22  23
ENDBRANCH   1  22
TORSDOF 15
ENDMDL
MODEL 2
REMARK VINA RESULT:     -12.4      0.665      1.406
REMARK SMILES Cc1c(C)c2c(c(C)c1O)CC[C@@](C)(C(=O)OCCOC(=O)c1ccc(-c3c4nc(c(-c5cc(S(=O)(=O)[O-])ccc5F)c5ccc([nH]5)c(-c5cc(S(=O)(=O)[O-])ccc5F)c5nc(c(-c6cc(S(=O)(=O)[O-])ccc6F)c6ccc3[nH]6)C=C5)C=C4)cc1)O2
REMARK SMILES IDX 19 1 18 2 17 3 15 4 16 5 13 6 1 7 2 8 3 9 9 10 4 11 5 12
REMARK SMILES IDX 7 13 6 14 86 15 8 16 11 17 12 18 14 19 10 20 20 22 21 23
REMARK SMILES IDX 22 24 23 25 24 26 85 27 25 28 84 29 26 30 27 31 28 32 78 33
REMARK SMILES IDX 29 34 83 35 77 36 79 37 30 38 82 39 76 40 75 41 31 43 63 44
REMARK SMILES IDX 43 45 62 46 44 47 47 48 61 49 80 50 45 51 46 52 60 54 81 55
REMARK SMILES IDX 48 56 32 57 33 58 41 59 34 60 40 61 42 62 39 63 35 64 36 65
REMARK SMILES IDX 37 66 38 67 64 68 65 69 73 70 66 71 72 72 74 73 71 74 67 75
REMARK SMILES IDX 68 76 69 77 70 78 49 79 50 80 58 81 51 82 57 83 59 84 56 85
REMARK SMILES IDX 52 86 53 87 54 88 55 89
REMARK H PARENT 10 21 79 42 47 53
REMARK Flexibility Score: inf
ROOT
ATOM      1  C   UNL A   1      35.846  21.275  25.606  1.00  0.00     0.275 C 
ENDROOT
BRANCH   1   2
ATOM      2  C   UNL A   1      34.652  21.676  24.740  1.00  0.00     0.274 C 
BRANCH   2   3
ATOM      3  O   UNL A   1      34.384  23.089  24.849  1.00  0.00    -0.459 OA
BRANCH   3   4
ATOM      4  C   UNL A   1      34.280  23.780  23.673  1.00  0.00     0.350 C 
ATOM      5  O   UNL A   1      35.091  23.688  22.758  1.00  0.00    -0.247 OA
BRANCH   4   6
ATOM      6  C   UNL A   1      33.067  24.740  23.671  1.00  0.00     0.203 C 
ATOM      7  C   UNL A   1      32.441  30.299  26.388  1.00  0.00     0.049 C 
ATOM      8  C   UNL A   1      32.192  29.208  25.373  1.00  0.00    -0.002 A 
ATOM      9  C   UNL A   1      32.919  27.992  25.409  1.00  0.00    -0.002 A 
ATOM     10  C   UNL A   1      31.190  29.362  24.397  1.00  0.00     0.122 A 
ATOM     11  C   UNL A   1      33.927  27.748  26.507  1.00  0.00     0.049 C 
ATOM     12  C   UNL A   1      32.684  27.008  24.422  1.00  0.00     0.127 A 
ATOM     13  C   UNL A   1      30.947  28.385  23.418  1.00  0.00    -0.002 A 
ATOM     14  C   UNL A   1      31.752  27.226  23.394  1.00  0.00     0.001 A 
ATOM     15  O   UNL A   1      33.416  25.849  24.521  1.00  0.00    -0.475 OA
ATOM     16  C   UNL A   1      29.867  28.587  22.386  1.00  0.00     0.049 C 
ATOM     17  C   UNL A   1      31.597  26.218  22.287  1.00  0.00     0.044 C 
ATOM     18  C   UNL A   1      32.755  25.236  22.259  1.00  0.00     0.065 C 
ATOM     19  C   UNL A   1      31.918  23.958  24.321  1.00  0.00     0.069 C 
BRANCH  10  20
ATOM     20  O   UNL A   1      30.389  30.477  24.365  1.00  0.00    -0.507 OA
ATOM     21  H   UNL A   1      29.551  30.438  23.950  1.00  0.00     0.293 HD
ENDBRANCH  10  20
ENDBRANCH   4   6
ENDBRANCH   3   4
ENDBRANCH   2   3
ENDBRANCH   1   2
BRANCH   1  22
ATOM     22  O   UNL A   1      37.065  21.714  24.985  1.00  0.00    -0.458 OA
BRANCH  22  23
ATOM     23  C   UNL A   1      38.211  21.282  25.560  1.00  0.00     0.338 C 
ATOM     24  O   UNL A   1      38.657  20.149  25.567  1.00  0.00    -0.246 OA
BRANCH  23  25
ATOM     25  C   UNL A   1      38.895  22.434  26.163  1.00  0.00     0.060 A 
ATOM     26  C   UNL A   1      38.426  23.713  25.872  1.00  0.00     0.016 A 
ATOM     27  C   UNL A   1      40.048  22.261  26.930  1.00  0.00     0.016 A 
ATOM     28  C   UNL A   1      39.127  24.827  26.317  1.00  0.00     0.010 A 
ATOM     29  C   UNL A   1      40.730  23.388  27.409  1.00  0.00     0.010 A 
ATOM     30  C   UNL A   1      40.286  24.681  27.086  1.00  0.00    -0.014 A 
BRANCH  30  31
ATOM     31  C   UNL A   1      41.073  25.891  27.442  1.00  0.00     0.031 A 
ATOM     32  C   UNL A   1      40.480  26.906  28.378  1.00  0.00     0.074 A 
ATOM     33  C   UNL A   1      42.342  26.037  27.013  1.00  0.00     0.049 A 
ATOM     34  N   UNL A   1      40.939  28.081  28.725  1.00  0.00    -0.248 NA
ATOM     35  C   UNL A   1      39.202  26.548  29.012  1.00  0.00     0.031 C 
ATOM     36  C   UNL A   1      43.075  25.071  26.193  1.00  0.00     0.029 A 
ATOM     37  N   UNL A   1      43.250  27.043  27.232  1.00  0.00    -0.354 N 
ATOM     38  C   UNL A   1      39.988  28.620  29.583  1.00  0.00     0.074 A 
ATOM     39  C   UNL A   1      38.928  27.643  29.706  1.00  0.00     0.031 C 
ATOM     40  C   UNL A   1      44.329  25.516  26.006  1.00  0.00     0.029 A 
ATOM     41  C   UNL A   1      44.467  26.831  26.626  1.00  0.00     0.049 A 
ATOM     42  H   UNL A   1      43.050  27.842  27.772  1.00  0.00     0.167 HD
ATOM     43  C   UNL A   1      39.999  29.824  30.206  1.00  0.00     0.034 A 
ATOM     44  C   UNL A   1      45.555  27.621  26.546  1.00  0.00     0.034 A 
ATOM     45  C   UNL A   1      41.076  30.775  30.102  1.00  0.00     0.049 A 
ATOM     46  C   UNL A   1      45.514  28.988  27.175  1.00  0.00     0.074 A 
ATOM     47  C   UNL A   1      41.172  32.036  30.664  1.00  0.00     0.029 A 
ATOM     48  N   UNL A   1      42.252  30.566  29.394  1.00  0.00    -0.354 N 
ATOM     49  N   UNL A   1      44.553  29.544  27.876  1.00  0.00    -0.248 NA
ATOM     50  C   UNL A   1      46.691  29.845  26.978  1.00  0.00     0.031 C 
ATOM     51  C   UNL A   1      42.385  32.606  30.258  1.00  0.00     0.029 A 
ATOM     52  C   UNL A   1      43.070  31.680  29.490  1.00  0.00     0.049 A 
ATOM     53  H   UNL A   1      42.472  29.745  28.896  1.00  0.00     0.167 HD
ATOM     54  C   UNL A   1      45.007  30.819  28.197  1.00  0.00     0.074 A 
ATOM     55  C   UNL A   1      46.336  30.943  27.633  1.00  0.00     0.031 C 
ATOM     56  C   UNL A   1      44.378  31.799  28.893  1.00  0.00     0.034 A 
BRANCH  43  57
ATOM     57  C   UNL A   1      38.772  30.203  30.992  1.00  0.00     0.023 A 
ATOM     58  C   UNL A   1      37.706  30.913  30.414  1.00  0.00     0.031 A 
ATOM     59  C   UNL A   1      38.684  29.862  32.353  1.00  0.00     0.131 A 
ATOM     60  C   UNL A   1      36.617  31.301  31.211  1.00  0.00     0.055 A 
ATOM     61  C   UNL A   1      37.571  30.198  33.124  1.00  0.00     0.041 A 
ATOM     62  F   UNL A   1      39.686  29.203  32.957  1.00  0.00    -0.206 F 
ATOM     63  C   UNL A   1      36.533  30.929  32.556  1.00  0.00     0.022 A 
BRANCH  60  64
ATOM     64  S   UNL A   1      35.344  32.374  30.491  1.00  0.00     0.124 S 
ATOM     65  O   UNL A   1      35.013  31.653  29.265  1.00  0.00    -0.237 OA
ATOM     66  O   UNL A   1      34.315  32.383  31.525  1.00  0.00    -0.237 OA
ATOM     67  O   UNL A   1      36.038  33.643  30.293  1.00  0.00    -0.744 OA
ENDBRANCH  60  64
ENDBRANCH  43  57
BRANCH  44  68
ATOM     68  C   UNL A   1      46.745  27.176  25.769  1.00  0.00     0.023 A 
ATOM     69  C   UNL A   1      46.980  27.640  24.466  1.00  0.00     0.031 A 
ATOM     70  C   UNL A   1      47.663  26.268  26.326  1.00  0.00     0.131 A 
ATOM     71  C   UNL A   1      48.101  27.181  23.755  1.00  0.00     0.055 A 
ATOM     72  C   UNL A   1      48.797  25.844  25.631  1.00  0.00     0.041 A 
ATOM     73  F   UNL A   1      47.480  25.795  27.569  1.00  0.00    -0.206 F 
ATOM     74  C   UNL A   1      49.018  26.299  24.335  1.00  0.00     0.022 A 
BRANCH  71  75
ATOM     75  S   UNL A   1      48.346  27.740  22.046  1.00  0.00     0.124 S 
ATOM     76  O   UNL A   1      47.146  28.538  21.821  1.00  0.00    -0.237 OA
ATOM     77  O   UNL A   1      49.600  28.479  22.140  1.00  0.00    -0.237 OA
ATOM     78  O   UNL A   1      48.419  26.492  21.289  1.00  0.00    -0.744 OA
ENDBRANCH  71  75
ENDBRANCH  44  68
BRANCH  56  79
ATOM     79  C   UNL A   1      45.128  33.090  29.085  1.00  0.00     0.023 A 
ATOM     80  C   UNL A   1      44.978  34.162  28.189  1.00  0.00     0.031 A 
ATOM     81  C   UNL A   1      45.988  33.253  30.185  1.00  0.00     0.131 A 
ATOM     82  C   UNL A   1      45.706  35.344  28.391  1.00  0.00     0.055 A 
ATOM     83  C   UNL A   1      46.676  34.447  30.404  1.00  0.00     0.041 A 
ATOM     84  F   UNL A   1      46.162  32.258  31.068  1.00  0.00    -0.206 F 
ATOM     85  C   UNL A   1      46.542  35.499  29.501  1.00  0.00     0.022 A 
BRANCH  82  86
ATOM     86  S   UNL A   1      45.578  36.670  27.160  1.00  0.00     0.124 S 
ATOM     87  O   UNL A   1      46.437  36.172  26.090  1.00  0.00    -0.237 OA
ATOM     88  O   UNL A   1      44.149  36.695  26.870  1.00  0.00    -0.237 OA
ATOM     89  O   UNL A   1      46.086  37.844  27.866  1.00  0.00    -0.744 OA
ENDBRANCH  82  86
ENDBRANCH  56  79
ENDBRANCH  30  31
ENDBRANCH  23  25
ENDBRANCH  22  23
ENDBRANCH   1  22
TORSDOF 15
ENDMDL
MODEL 3
REMARK VINA RESULT:     -12.3      4.938     10.303
REMARK SMILES Cc1c(C)c2c(c(C)c1O)CC[C@@](C)(C(=O)OCCOC(=O)c1ccc(-c3c4nc(c(-c5cc(S(=O)(=O)[O-])ccc5F)c5ccc([nH]5)c(-c5cc(S(=O)(=O)[O-])ccc5F)c5nc(c(-c6cc(S(=O)(=O)[O-])ccc6F)c6ccc3[nH]6)C=C5)C=C4)cc1)O2
REMARK SMILES IDX 19 1 18 2 17 3 15 4 16 5 13 6 1 7 2 8 3 9 9 10 4 11 5 12
REMARK SMILES IDX 7 13 6 14 86 15 8 16 11 17 12 18 14 19 10 20 20 22 21 23
REMARK SMILES IDX 22 24 23 25 24 26 85 27 25 28 84 29 26 30 27 31 28 32 78 33
REMARK SMILES IDX 29 34 83 35 77 36 79 37 30 38 82 39 76 40 75 41 31 43 63 44
REMARK SMILES IDX 43 45 62 46 44 47 47 48 61 49 80 50 45 51 46 52 60 54 81 55
REMARK SMILES IDX 48 56 32 57 33 58 41 59 34 60 40 61 42 62 39 63 35 64 36 65
REMARK SMILES IDX 37 66 38 67 64 68 65 69 73 70 66 71 72 72 74 73 71 74 67 75
REMARK SMILES IDX 68 76 69 77 70 78 49 79 50 80 58 81 51 82 57 83 59 84 56 85
REMARK SMILES IDX 52 86 53 87 54 88 55 89
REMARK H PARENT 10 21 79 42 47 53
REMARK Flexibility Score: inf
ROOT
ATOM      1  C   UNL A   1      31.605  29.553  25.457  1.00  0.00     0.275 C 
ENDROOT
BRANCH   1   2
ATOM      2  C   UNL A   1      31.622  28.611  24.254  1.00  0.00     0.274 C 
BRANCH   2   3
ATOM      3  O   UNL A   1      31.911  27.257  24.659  1.00  0.00    -0.459 OA
BRANCH   3   4
ATOM      4  C   UNL A   1      33.108  26.741  24.243  1.00  0.00     0.350 C 
ATOM      5  O   UNL A   1      34.109  27.422  24.048  1.00  0.00    -0.247 OA
BRANCH   4   6
ATOM      6  C   UNL A   1      33.022  25.220  23.977  1.00  0.00     0.203 C 
ATOM      7  C   UNL A   1      37.257  20.790  25.034  1.00  0.00     0.049 C 
ATOM      8  C   UNL A   1      35.881  21.389  24.854  1.00  0.00    -0.002 A 
ATOM      9  C   UNL A   1      35.707  22.781  24.653  1.00  0.00    -0.002 A 
ATOM     10  C   UNL A   1      34.745  20.560  24.831  1.00  0.00     0.122 A 
ATOM     11  C   UNL A   1      36.913  23.686  24.565  1.00  0.00     0.049 C 
ATOM     12  C   UNL A   1      34.403  23.310  24.523  1.00  0.00     0.127 A 
ATOM     13  C   UNL A   1      33.447  21.079  24.695  1.00  0.00    -0.002 A 
ATOM     14  C   UNL A   1      33.275  22.478  24.608  1.00  0.00     0.001 A 
ATOM     15  O   UNL A   1      34.306  24.666  24.322  1.00  0.00    -0.475 OA
ATOM     16  C   UNL A   1      32.251  20.160  24.679  1.00  0.00     0.049 C 
ATOM     17  C   UNL A   1      31.892  23.071  24.583  1.00  0.00     0.044 C 
ATOM     18  C   UNL A   1      31.924  24.571  24.819  1.00  0.00     0.065 C 
ATOM     19  C   UNL A   1      32.809  25.075  22.464  1.00  0.00     0.069 C 
BRANCH  10  20
ATOM     20  O   UNL A   1      34.853  19.194  24.927  1.00  0.00    -0.507 OA
ATOM     21  H   UNL A   1      35.643  18.810  25.250  1.00  0.00     0.293 HD
ENDBRANCH  10  20
ENDBRANCH   4   6
ENDBRANCH   3   4
ENDBRANCH   2   3
ENDBRANCH   1   2
BRANCH   1  22
ATOM     22  O   UNL A   1      32.928  30.056  25.698  1.00  0.00    -0.458 OA
BRANCH  22  23
ATOM     23  C   UNL A   1      33.058  30.904  26.744  1.00  0.00     0.338 C 
ATOM     24  O   UNL A   1      32.232  31.691  27.168  1.00  0.00    -0.246 OA
BRANCH  23  25
ATOM     25  C   UNL A   1      34.380  30.699  27.351  1.00  0.00     0.060 A 
ATOM     26  C   UNL A   1      34.794  29.397  27.623  1.00  0.00     0.016 A 
ATOM     27  C   UNL A   1      35.165  31.785  27.740  1.00  0.00     0.016 A 
ATOM     28  C   UNL A   1      35.977  29.175  28.315  1.00  0.00     0.010 A 
ATOM     29  C   UNL A   1      36.378  31.555  28.404  1.00  0.00     0.010 A 
ATOM     30  C   UNL A   1      36.781  30.246  28.718  1.00  0.00    -0.014 A 
BRANCH  30  31
ATOM     31  C   UNL A   1      37.976  29.975  29.558  1.00  0.00     0.031 A 
ATOM     32  C   UNL A   1      39.112  29.171  28.988  1.00  0.00     0.074 A 
ATOM     33  C   UNL A   1      38.093  30.522  30.784  1.00  0.00     0.049 A 
ATOM     34  N   UNL A   1      40.186  28.719  29.581  1.00  0.00    -0.248 NA
ATOM     35  C   UNL A   1      39.026  28.836  27.558  1.00  0.00     0.031 C 
ATOM     36  C   UNL A   1      37.115  31.413  31.411  1.00  0.00     0.029 A 
ATOM     37  N   UNL A   1      39.100  30.429  31.713  1.00  0.00    -0.354 N 
ATOM     38  C   UNL A   1      40.885  28.012  28.610  1.00  0.00     0.074 A 
ATOM     39  C   UNL A   1      40.113  28.096  27.389  1.00  0.00     0.031 C 
ATOM     40  C   UNL A   1      37.586  31.811  32.605  1.00  0.00     0.029 A 
ATOM     41  C   UNL A   1      38.860  31.146  32.863  1.00  0.00     0.049 A 
ATOM     42  H   UNL A   1      39.918  29.900  31.570  1.00  0.00     0.167 HD
ATOM     43  C   UNL A   1      42.061  27.349  28.730  1.00  0.00     0.034 A 
ATOM     44  C   UNL A   1      39.565  31.226  34.008  1.00  0.00     0.034 A 
ATOM     45  C   UNL A   1      42.837  27.299  29.943  1.00  0.00     0.049 A 
ATOM     46  C   UNL A   1      40.825  30.415  34.150  1.00  0.00     0.074 A 
ATOM     47  C   UNL A   1      44.024  26.628  30.182  1.00  0.00     0.029 A 
ATOM     48  N   UNL A   1      42.508  27.955  31.121  1.00  0.00    -0.354 N 
ATOM     49  N   UNL A   1      41.409  29.640  33.266  1.00  0.00    -0.248 NA
ATOM     50  C   UNL A   1      41.504  30.466  35.451  1.00  0.00     0.031 C 
ATOM     51  C   UNL A   1      44.387  26.842  31.517  1.00  0.00     0.029 A 
ATOM     52  C   UNL A   1      43.458  27.691  32.095  1.00  0.00     0.049 A 
ATOM     53  H   UNL A   1      41.715  28.526  31.247  1.00  0.00     0.167 HD
ATOM     54  C   UNL A   1      42.521  29.105  33.908  1.00  0.00     0.074 A 
ATOM     55  C   UNL A   1      42.539  29.662  35.245  1.00  0.00     0.031 C 
ATOM     56  C   UNL A   1      43.442  28.229  33.434  1.00  0.00     0.034 A 
BRANCH  43  57
ATOM     57  C   UNL A   1      42.532  26.562  27.536  1.00  0.00     0.023 A 
ATOM     58  C   UNL A   1      42.190  25.212  27.349  1.00  0.00     0.031 A 
ATOM     59  C   UNL A   1      43.360  27.177  26.580  1.00  0.00     0.131 A 
ATOM     60  C   UNL A   1      42.714  24.509  26.253  1.00  0.00     0.055 A 
ATOM     61  C   UNL A   1      43.829  26.488  25.462  1.00  0.00     0.041 A 
ATOM     62  F   UNL A   1      43.734  28.459  26.726  1.00  0.00    -0.206 F 
ATOM     63  C   UNL A   1      43.514  25.144  25.298  1.00  0.00     0.022 A 
BRANCH  60  64
ATOM     64  S   UNL A   1      42.411  22.725  26.132  1.00  0.00     0.124 S 
ATOM     65  O   UNL A   1      42.941  22.427  24.805  1.00  0.00    -0.237 OA
ATOM     66  O   UNL A   1      43.172  22.196  27.258  1.00  0.00    -0.237 OA
ATOM     67  O   UNL A   1      40.960  22.615  26.257  1.00  0.00    -0.744 OA
ENDBRANCH  60  64
ENDBRANCH  43  57
BRANCH  44  68
ATOM     68  C   UNL A   1      39.051  32.039  35.145  1.00  0.00     0.023 A 
ATOM     69  C   UNL A   1      38.427  31.438  36.248  1.00  0.00     0.031 A 
ATOM     70  C   UNL A   1      39.174  33.440  35.134  1.00  0.00     0.131 A 
ATOM     71  C   UNL A   1      37.935  32.239  37.292  1.00  0.00     0.055 A 
ATOM     72  C   UNL A   1      38.719  34.230  36.190  1.00  0.00     0.041 A 
ATOM     73  F   UNL A   1      39.762  34.061  34.099  1.00  0.00    -0.206 F 
ATOM     74  C   UNL A   1      38.090  33.628  37.277  1.00  0.00     0.022 A 
BRANCH  71  75
ATOM     75  S   UNL A   1      37.068  31.444  38.674  1.00  0.00     0.124 S 
ATOM     76  O   UNL A   1      36.918  30.079  38.184  1.00  0.00    -0.237 OA
ATOM     77  O   UNL A   1      38.008  31.632  39.775  1.00  0.00    -0.237 OA
ATOM     78  O   UNL A   1      35.828  32.210  38.782  1.00  0.00    -0.744 OA
ENDBRANCH  71  75
ENDBRANCH  44  68
BRANCH  56  79
ATOM     79  C   UNL A   1      44.549  27.825  34.371  1.00  0.00     0.023 A 
ATOM     80  C   UNL A   1      44.441  26.680  35.177  1.00  0.00     0.031 A 
ATOM     81  C   UNL A   1      45.728  28.586  34.444  1.00  0.00     0.131 A 
ATOM     82  C   UNL A   1      45.486  26.343  36.051  1.00  0.00     0.055 A 
ATOM     83  C   UNL A   1      46.781  28.223  35.284  1.00  0.00     0.041 A 
ATOM     84  F   UNL A   1      45.877  29.688  33.692  1.00  0.00    -0.206 F 
ATOM     85  C   UNL A   1      46.661  27.099  36.098  1.00  0.00     0.022 A 
BRANCH  82  86
ATOM     86  S   UNL A   1      45.275  24.923  37.159  1.00  0.00     0.124 S 
ATOM     87  O   UNL A   1      46.530  24.933  37.905  1.00  0.00    -0.237 OA
ATOM     88  O   UNL A   1      44.082  25.286  37.915  1.00  0.00    -0.237 OA
ATOM     89  O   UNL A   1      45.106  23.796  36.244  1.00  0.00    -0.744 OA
ENDBRANCH  82  86
ENDBRANCH  56  79
ENDBRANCH  30  31
ENDBRANCH  23  25
ENDBRANCH  22  23
ENDBRANCH   1  22
TORSDOF 15
ENDMDL
