MODEL 1
REMARK VINA RESULT:     -10.5      0.000      0.000
REMARK SMILES CC(C)[NH2+][C@@]1(C(=O)OCCOC(=O)c2ccc(-c3c4nc(c(-c5cc(S(=O)(=O)[O-])ccc5F)c5ccc([nH]5)c(-c5cc(S(=O)(=O)[O-])ccc5F)c5nc(c(-c6cc(S(=O)(=O)[O-])ccc6F)c6ccc3[nH]6)C=C5)C=C4)cc2)CC[C@@H](Sc2cccs2)C1
REMARK SMILES IDX 10 1 9 2 8 3 6 4 7 5 5 6 77 7 86 8 78 9 79 10 4 11 2 14 1 15
REMARK SMILES IDX 3 16 80 17 81 18 82 19 85 20 83 21 84 22 11 23 12 24 13 25
REMARK SMILES IDX 14 26 15 27 76 28 16 29 75 30 17 31 18 32 19 33 69 34 20 35
REMARK SMILES IDX 74 36 68 37 70 38 21 39 73 40 67 41 66 42 22 44 54 45 34 46
REMARK SMILES IDX 53 47 35 48 38 49 52 50 71 51 36 52 37 53 51 55 72 56 39 57
REMARK SMILES IDX 23 58 24 59 32 60 25 61 31 62 33 63 30 64 26 65 27 66 28 67
REMARK SMILES IDX 29 68 55 69 56 70 64 71 57 72 63 73 65 74 62 75 58 76 59 77
REMARK SMILES IDX 60 78 61 79 40 80 41 81 49 82 42 83 48 84 50 85 47 86 43 87
REMARK SMILES IDX 44 88 45 89 46 90
REMARK H PARENT 4 12 4 13 70 43 38 54
REMARK Flexibility Score: inf
ROOT
ATOM      1  C   UNL A   1      31.812  30.254  26.138  1.00  0.00     0.275 C 
ENDROOT
BRANCH   1   2
ATOM      2  C   UNL A   1      31.485  28.787  26.430  1.00  0.00     0.274 C 
BRANCH   2   3
ATOM      3  O   UNL A   1      32.096  27.908  25.471  1.00  0.00    -0.457 OA
BRANCH   3   4
ATOM      4  C   UNL A   1      31.343  26.825  25.118  1.00  0.00     0.368 C 
ATOM      5  O   UNL A   1      30.220  26.945  24.642  1.00  0.00    -0.245 OA
BRANCH   4   6
ATOM      6  C   UNL A   1      32.031  25.462  25.471  1.00  0.00     0.195 C 
ATOM      7  C   UNL A   1      33.550  25.633  25.622  1.00  0.00     0.082 C 
ATOM      8  C   UNL A   1      31.943  24.437  24.314  1.00  0.00     0.096 C 
ATOM      9  C   UNL A   1      34.108  25.600  24.203  1.00  0.00     0.022 C 
ATOM     10  C   UNL A   1      33.124  24.755  23.388  1.00  0.00     0.059 C 
BRANCH   6  11
ATOM     11  N   UNL A   1      31.481  24.788  26.671  1.00  0.00    -0.330 N 
ATOM     12  H   UNL A   1      32.129  24.986  27.432  1.00  0.00     0.347 HD
ATOM     13  H   UNL A   1      30.535  25.167  26.716  1.00  0.00     0.347 HD
BRANCH  11  14
ATOM     14  C   UNL A   1      31.237  23.349  26.703  1.00  0.00     0.176 C 
ATOM     15  C   UNL A   1      32.288  22.742  27.642  1.00  0.00     0.075 C 
ATOM     16  C   UNL A   1      29.857  22.892  27.184  1.00  0.00     0.075 C 
ENDBRANCH  11  14
ENDBRANCH   6  11
BRANCH  10  17
ATOM     17  S   UNL A   1      33.848  23.307  22.541  1.00  0.00    -0.112 SA
BRANCH  17  18
ATOM     18  C   UNL A   1      34.893  22.583  23.752  1.00  0.00     0.060 A 
ATOM     19  C   UNL A   1      34.513  21.706  24.747  1.00  0.00     0.027 A 
ATOM     20  S   UNL A   1      36.588  22.819  23.741  1.00  0.00    -0.137 S 
ATOM     21  C   UNL A   1      35.612  21.281  25.548  1.00  0.00     0.013 A 
ATOM     22  C   UNL A   1      36.804  21.808  25.105  1.00  0.00     0.066 A 
ENDBRANCH  17  18
ENDBRANCH  10  17
ENDBRANCH   4   6
ENDBRANCH   3   4
ENDBRANCH   2   3
ENDBRANCH   1   2
BRANCH   1  23
ATOM     23  O   UNL A   1      33.224  30.534  26.193  1.00  0.00    -0.458 OA
BRANCH  23  24
ATOM     24  C   UNL A   1      33.587  31.471  27.107  1.00  0.00     0.338 C 
ATOM     25  O   UNL A   1      32.936  32.457  27.423  1.00  0.00    -0.246 OA
BRANCH  24  26
ATOM     26  C   UNL A   1      34.866  31.106  27.755  1.00  0.00     0.060 A 
ATOM     27  C   UNL A   1      35.023  29.797  28.216  1.00  0.00     0.016 A 
ATOM     28  C   UNL A   1      35.890  32.039  27.957  1.00  0.00     0.016 A 
ATOM     29  C   UNL A   1      36.212  29.409  28.838  1.00  0.00     0.010 A 
ATOM     30  C   UNL A   1      37.074  31.653  28.605  1.00  0.00     0.010 A 
ATOM     31  C   UNL A   1      37.251  30.331  29.039  1.00  0.00    -0.014 A 
BRANCH  31  32
ATOM     32  C   UNL A   1      38.459  29.908  29.802  1.00  0.00     0.031 A 
ATOM     33  C   UNL A   1      39.416  28.945  29.160  1.00  0.00     0.074 A 
ATOM     34  C   UNL A   1      38.744  30.423  31.015  1.00  0.00     0.049 A 
ATOM     35  N   UNL A   1      40.544  28.467  29.616  1.00  0.00    -0.248 NA
ATOM     36  C   UNL A   1      39.041  28.449  27.828  1.00  0.00     0.031 C 
ATOM     37  C   UNL A   1      37.913  31.384  31.731  1.00  0.00     0.029 A 
ATOM     38  N   UNL A   1      39.821  30.235  31.849  1.00  0.00    -0.354 N 
ATOM     39  C   UNL A   1      41.022  27.619  28.625  1.00  0.00     0.074 A 
ATOM     40  C   UNL A   1      40.051  27.641  27.550  1.00  0.00     0.031 C 
ATOM     41  C   UNL A   1      38.541  31.763  32.856  1.00  0.00     0.029 A 
ATOM     42  C   UNL A   1      39.775  30.990  33.002  1.00  0.00     0.049 A 
ATOM     43  H   UNL A   1      40.560  29.618  31.642  1.00  0.00     0.167 HD
ATOM     44  C   UNL A   1      42.155  26.875  28.620  1.00  0.00     0.034 A 
ATOM     45  C   UNL A   1      40.602  31.025  34.070  1.00  0.00     0.034 A 
ATOM     46  C   UNL A   1      43.073  26.801  29.729  1.00  0.00     0.049 A 
ATOM     47  C   UNL A   1      41.792  30.089  34.089  1.00  0.00     0.074 A 
ATOM     48  C   UNL A   1      44.215  26.028  29.851  1.00  0.00     0.029 A 
ATOM     49  N   UNL A   1      42.941  27.502  30.922  1.00  0.00    -0.354 N 
ATOM     50  N   UNL A   1      42.219  29.271  33.154  1.00  0.00    -0.248 NA
ATOM     51  C   UNL A   1      42.596  30.062  35.319  1.00  0.00     0.031 C 
ATOM     52  C   UNL A   1      44.725  26.198  31.142  1.00  0.00     0.029 A 
ATOM     53  C   UNL A   1      43.959  27.151  31.796  1.00  0.00     0.049 A 
ATOM     54  H   UNL A   1      42.229  28.152  31.118  1.00  0.00     0.167 HD
ATOM     55  C   UNL A   1      43.351  28.650  33.677  1.00  0.00     0.074 A 
ATOM     56  C   UNL A   1      43.555  29.206  34.999  1.00  0.00     0.031 C 
ATOM     57  C   UNL A   1      44.150  27.706  33.117  1.00  0.00     0.034 A 
BRANCH  44  58
ATOM     58  C   UNL A   1      42.393  26.012  27.407  1.00  0.00     0.023 A 
ATOM     59  C   UNL A   1      41.920  24.690  27.340  1.00  0.00     0.031 A 
ATOM     60  C   UNL A   1      43.161  26.494  26.333  1.00  0.00     0.131 A 
ATOM     61  C   UNL A   1      42.289  23.871  26.261  1.00  0.00     0.055 A 
ATOM     62  C   UNL A   1      43.452  25.701  25.222  1.00  0.00     0.041 A 
ATOM     63  F   UNL A   1      43.664  27.739  26.357  1.00  0.00    -0.206 F 
ATOM     64  C   UNL A   1      43.030  24.375  25.190  1.00  0.00     0.022 A 
BRANCH  61  65
ATOM     65  S   UNL A   1      41.931  22.096  26.360  1.00  0.00     0.124 S 
ATOM     66  O   UNL A   1      42.810  21.560  25.323  1.00  0.00    -0.237 OA
ATOM     67  O   UNL A   1      42.296  21.776  27.735  1.00  0.00    -0.237 OA
ATOM     68  O   UNL A   1      40.503  22.017  26.058  1.00  0.00    -0.744 OA
ENDBRANCH  61  65
ENDBRANCH  44  58
BRANCH  45  69
ATOM     69  C   UNL A   1      40.309  31.891  35.256  1.00  0.00     0.023 A 
ATOM     70  C   UNL A   1      39.346  31.527  36.215  1.00  0.00     0.031 A 
ATOM     71  C   UNL A   1      40.922  33.151  35.399  1.00  0.00     0.131 A 
ATOM     72  C   UNL A   1      38.994  32.427  37.237  1.00  0.00     0.055 A 
ATOM     73  C   UNL A   1      40.620  34.011  36.457  1.00  0.00     0.041 A 
ATOM     74  F   UNL A   1      41.830  33.570  34.503  1.00  0.00    -0.206 F 
ATOM     75  C   UNL A   1      39.639  33.658  37.375  1.00  0.00     0.022 A 
BRANCH  72  76
ATOM     76  S   UNL A   1      37.594  32.021  38.321  1.00  0.00     0.124 S 
ATOM     77  O   UNL A   1      38.199  32.142  39.643  1.00  0.00    -0.237 OA
ATOM     78  O   UNL A   1      36.622  33.048  37.963  1.00  0.00    -0.237 OA
ATOM     79  O   UNL A   1      37.237  30.662  37.921  1.00  0.00    -0.744 OA
ENDBRANCH  72  76
ENDBRANCH  45  69
BRANCH  57  80
ATOM     80  C   UNL A   1      45.351  27.249  33.913  1.00  0.00     0.023 A 
ATOM     81  C   UNL A   1      45.304  26.129  34.763  1.00  0.00     0.031 A 
ATOM     82  C   UNL A   1      46.568  27.950  33.813  1.00  0.00     0.131 A 
ATOM     83  C   UNL A   1      46.435  25.776  35.517  1.00  0.00     0.055 A 
ATOM     84  C   UNL A   1      47.708  27.552  34.513  1.00  0.00     0.041 A 
ATOM     85  F   UNL A   1      46.671  29.029  33.021  1.00  0.00    -0.206 F 
ATOM     86  C   UNL A   1      47.642  26.467  35.381  1.00  0.00     0.022 A 
BRANCH  83  87
ATOM     87  S   UNL A   1      46.284  24.456  36.752  1.00  0.00     0.124 S 
ATOM     88  O   UNL A   1      44.910  24.008  36.552  1.00  0.00    -0.237 OA
ATOM     89  O   UNL A   1      47.326  23.520  36.340  1.00  0.00    -0.237 OA
ATOM     90  O   UNL A   1      46.535  25.141  38.020  1.00  0.00    -0.744 OA
ENDBRANCH  83  87
ENDBRANCH  57  80
ENDBRANCH  31  32
ENDBRANCH  24  26
ENDBRANCH  23  24
ENDBRANCH   1  23
TORSDOF 18
ENDMDL
MODEL 2
REMARK VINA RESULT:     -10.4      5.096      7.754
REMARK SMILES CC(C)[NH2+][C@@]1(C(=O)OCCOC(=O)c2ccc(-c3c4nc(c(-c5cc(S(=O)(=O)[O-])ccc5F)c5ccc([nH]5)c(-c5cc(S(=O)(=O)[O-])ccc5F)c5nc(c(-c6cc(S(=O)(=O)[O-])ccc6F)c6ccc3[nH]6)C=C5)C=C4)cc2)CC[C@@H](Sc2cccs2)C1
REMARK SMILES IDX 10 1 9 2 8 3 6 4 7 5 5 6 77 7 86 8 78 9 79 10 4 11 2 14 1 15
REMARK SMILES IDX 3 16 80 17 81 18 82 19 85 20 83 21 84 22 11 23 12 24 13 25
REMARK SMILES IDX 14 26 15 27 76 28 16 29 75 30 17 31 18 32 19 33 69 34 20 35
REMARK SMILES IDX 74 36 68 37 70 38 21 39 73 40 67 41 66 42 22 44 54 45 34 46
REMARK SMILES IDX 53 47 35 48 38 49 52 50 71 51 36 52 37 53 51 55 72 56 39 57
REMARK SMILES IDX 23 58 24 59 32 60 25 61 31 62 33 63 30 64 26 65 27 66 28 67
REMARK SMILES IDX 29 68 55 69 56 70 64 71 57 72 63 73 65 74 62 75 58 76 59 77
REMARK SMILES IDX 60 78 61 79 40 80 41 81 49 82 42 83 48 84 50 85 47 86 43 87
REMARK SMILES IDX 44 88 45 89 46 90
REMARK H PARENT 4 12 4 13 70 43 38 54
REMARK Flexibility Score: inf
ROOT
ATOM      1  C   UNL A   1      37.288  20.940  25.010  1.00  0.00     0.275 C 
ENDROOT
BRANCH   1   2
ATOM      2  C   UNL A   1      35.782  20.966  24.742  1.00  0.00     0.274 C 
BRANCH   2   3
ATOM      3  O   UNL A   1      35.343  22.268  24.318  1.00  0.00    -0.457 OA
BRANCH   3   4
ATOM      4  C   UNL A   1      34.004  22.375  24.074  1.00  0.00     0.368 C 
ATOM      5  O   UNL A   1      33.303  21.391  23.868  1.00  0.00    -0.245 OA
BRANCH   4   6
ATOM      6  C   UNL A   1      33.512  23.862  24.001  1.00  0.00     0.195 C 
ATOM      7  C   UNL A   1      34.004  24.664  25.214  1.00  0.00     0.082 C 
ATOM      8  C   UNL A   1      31.977  23.985  24.143  1.00  0.00     0.096 C 
ATOM      9  C   UNL A   1      33.023  24.348  26.339  1.00  0.00     0.022 C 
ATOM     10  C   UNL A   1      31.699  24.002  25.651  1.00  0.00     0.059 C 
BRANCH   6  11
ATOM     11  N   UNL A   1      33.877  24.569  22.751  1.00  0.00    -0.330 N 
ATOM     12  H   UNL A   1      34.753  25.055  22.942  1.00  0.00     0.347 HD
ATOM     13  H   UNL A   1      33.870  23.813  22.066  1.00  0.00     0.347 HD
BRANCH  11  14
ATOM     14  C   UNL A   1      32.990  25.551  22.134  1.00  0.00     0.176 C 
ATOM     15  C   UNL A   1      33.656  26.922  22.309  1.00  0.00     0.075 C 
ATOM     16  C   UNL A   1      32.680  25.365  20.646  1.00  0.00     0.075 C 
ENDBRANCH  11  14
ENDBRANCH   6  11
BRANCH  10  17
ATOM     17  S   UNL A   1      30.266  25.015  26.158  1.00  0.00    -0.112 SA
BRANCH  17  18
ATOM     18  C   UNL A   1      30.284  26.371  25.042  1.00  0.00     0.060 A 
ATOM     19  C   UNL A   1      29.420  26.577  23.987  1.00  0.00     0.027 A 
ATOM     20  S   UNL A   1      31.359  27.688  25.237  1.00  0.00    -0.137 S 
ATOM     21  C   UNL A   1      29.689  27.793  23.292  1.00  0.00     0.013 A 
ATOM     22  C   UNL A   1      30.718  28.499  23.874  1.00  0.00     0.066 A 
ENDBRANCH  17  18
ENDBRANCH  10  17
ENDBRANCH   4   6
ENDBRANCH   3   4
ENDBRANCH   2   3
ENDBRANCH   1   2
BRANCH   1  23
ATOM     23  O   UNL A   1      37.716  21.984  25.907  1.00  0.00    -0.458 OA
BRANCH  23  24
ATOM     24  C   UNL A   1      39.022  21.925  26.274  1.00  0.00     0.338 C 
ATOM     25  O   UNL A   1      39.770  20.969  26.118  1.00  0.00    -0.246 OA
BRANCH  24  26
ATOM     26  C   UNL A   1      39.473  23.221  26.827  1.00  0.00     0.060 A 
ATOM     27  C   UNL A   1      38.832  24.384  26.392  1.00  0.00     0.016 A 
ATOM     28  C   UNL A   1      40.541  23.313  27.727  1.00  0.00     0.016 A 
ATOM     29  C   UNL A   1      39.227  25.630  26.886  1.00  0.00     0.010 A 
ATOM     30  C   UNL A   1      40.952  24.569  28.202  1.00  0.00     0.010 A 
ATOM     31  C   UNL A   1      40.291  25.737  27.795  1.00  0.00    -0.014 A 
BRANCH  31  32
ATOM     32  C   UNL A   1      40.753  27.090  28.214  1.00  0.00     0.031 A 
ATOM     33  C   UNL A   1      42.183  27.473  27.960  1.00  0.00     0.074 A 
ATOM     34  C   UNL A   1      39.905  27.993  28.745  1.00  0.00     0.049 A 
ATOM     35  N   UNL A   1      42.796  28.602  28.205  1.00  0.00    -0.248 NA
ATOM     36  C   UNL A   1      43.035  26.437  27.358  1.00  0.00     0.031 C 
ATOM     37  C   UNL A   1      38.492  27.755  29.015  1.00  0.00     0.029 A 
ATOM     38  N   UNL A   1      40.096  29.300  29.127  1.00  0.00    -0.354 N 
ATOM     39  C   UNL A   1      44.106  28.418  27.780  1.00  0.00     0.074 A 
ATOM     40  C   UNL A   1      44.197  27.063  27.275  1.00  0.00     0.031 C 
ATOM     41  C   UNL A   1      37.923  28.894  29.443  1.00  0.00     0.029 A 
ATOM     42  C   UNL A   1      38.953  29.922  29.586  1.00  0.00     0.049 A 
ATOM     43  H   UNL A   1      40.969  29.753  29.078  1.00  0.00     0.167 HD
ATOM     44  C   UNL A   1      45.142  29.291  27.825  1.00  0.00     0.034 A 
ATOM     45  C   UNL A   1      38.765  31.157  30.101  1.00  0.00     0.034 A 
ATOM     46  C   UNL A   1      45.059  30.609  28.403  1.00  0.00     0.049 A 
ATOM     47  C   UNL A   1      39.967  32.064  30.255  1.00  0.00     0.074 A 
ATOM     48  C   UNL A   1      46.065  31.547  28.558  1.00  0.00     0.029 A 
ATOM     49  N   UNL A   1      43.910  31.168  28.951  1.00  0.00    -0.354 N 
ATOM     50  N   UNL A   1      41.208  31.868  29.871  1.00  0.00    -0.248 NA
ATOM     51  C   UNL A   1      39.749  33.348  30.935  1.00  0.00     0.031 C 
ATOM     52  C   UNL A   1      45.547  32.634  29.269  1.00  0.00     0.029 A 
ATOM     53  C   UNL A   1      44.192  32.421  29.475  1.00  0.00     0.049 A 
ATOM     54  H   UNL A   1      43.025  30.738  28.964  1.00  0.00     0.167 HD
ATOM     55  C   UNL A   1      41.910  33.012  30.246  1.00  0.00     0.074 A 
ATOM     56  C   UNL A   1      40.949  33.903  30.863  1.00  0.00     0.031 C 
ATOM     57  C   UNL A   1      43.228  33.300  30.096  1.00  0.00     0.034 A 
BRANCH  44  58
ATOM     58  C   UNL A   1      46.472  28.790  27.319  1.00  0.00     0.023 A 
ATOM     59  C   UNL A   1      46.713  28.595  25.949  1.00  0.00     0.031 A 
ATOM     60  C   UNL A   1      47.488  28.438  28.226  1.00  0.00     0.131 A 
ATOM     61  C   UNL A   1      47.907  27.988  25.530  1.00  0.00     0.055 A 
ATOM     62  C   UNL A   1      48.707  27.915  27.796  1.00  0.00     0.041 A 
ATOM     63  F   UNL A   1      47.301  28.575  29.548  1.00  0.00    -0.206 F 
ATOM     64  C   UNL A   1      48.916  27.670  26.441  1.00  0.00     0.022 A 
BRANCH  61  65
ATOM     65  S   UNL A   1      48.051  27.465  23.799  1.00  0.00     0.124 S 
ATOM     66  O   UNL A   1      49.436  27.820  23.498  1.00  0.00    -0.237 OA
ATOM     67  O   UNL A   1      47.759  26.039  23.875  1.00  0.00    -0.237 OA
ATOM     68  O   UNL A   1      47.045  28.273  23.112  1.00  0.00    -0.744 OA
ENDBRANCH  61  65
ENDBRANCH  44  58
BRANCH  45  69
ATOM     69  C   UNL A   1      37.424  31.597  30.603  1.00  0.00     0.023 A 
ATOM     70  C   UNL A   1      36.503  32.254  29.766  1.00  0.00     0.031 A 
ATOM     71  C   UNL A   1      37.078  31.451  31.960  1.00  0.00     0.131 A 
ATOM     72  C   UNL A   1      35.314  32.779  30.303  1.00  0.00     0.055 A 
ATOM     73  C   UNL A   1      35.863  31.911  32.472  1.00  0.00     0.041 A 
ATOM     74  F   UNL A   1      37.923  30.856  32.817  1.00  0.00    -0.206 F 
ATOM     75  C   UNL A   1      34.979  32.594  31.646  1.00  0.00     0.022 A 
BRANCH  72  76
ATOM     76  S   UNL A   1      34.256  33.813  29.249  1.00  0.00     0.124 S 
ATOM     77  O   UNL A   1      35.231  34.718  28.650  1.00  0.00    -0.237 OA
ATOM     78  O   UNL A   1      33.659  32.828  28.354  1.00  0.00    -0.237 OA
ATOM     79  O   UNL A   1      33.332  34.432  30.197  1.00  0.00    -0.744 OA
ENDBRANCH  72  76
ENDBRANCH  45  69
BRANCH  57  80
ATOM     80  C   UNL A   1      43.701  34.659  30.561  1.00  0.00     0.023 A 
ATOM     81  C   UNL A   1      43.594  35.805  29.752  1.00  0.00     0.031 A 
ATOM     82  C   UNL A   1      44.266  34.806  31.841  1.00  0.00     0.131 A 
ATOM     83  C   UNL A   1      44.092  37.034  30.212  1.00  0.00     0.055 A 
ATOM     84  C   UNL A   1      44.697  36.044  32.319  1.00  0.00     0.041 A 
ATOM     85  F   UNL A   1      44.399  33.747  32.655  1.00  0.00    -0.206 F 
ATOM     86  C   UNL A   1      44.624  37.165  31.498  1.00  0.00     0.022 A 
BRANCH  83  87
ATOM     87  S   UNL A   1      44.125  38.446  29.073  1.00  0.00     0.124 S 
ATOM     88  O   UNL A   1      43.563  39.513  29.894  1.00  0.00    -0.237 OA
ATOM     89  O   UNL A   1      45.545  38.562  28.759  1.00  0.00    -0.237 OA
ATOM     90  O   UNL A   1      43.281  38.010  27.961  1.00  0.00    -0.744 OA
ENDBRANCH  83  87
ENDBRANCH  57  80
ENDBRANCH  31  32
ENDBRANCH  24  26
ENDBRANCH  23  24
ENDBRANCH   1  23
TORSDOF 18
ENDMDL
MODEL 3
REMARK VINA RESULT:     -10.4      1.097      7.722
REMARK SMILES CC(C)[NH2+][C@@]1(C(=O)OCCOC(=O)c2ccc(-c3c4nc(c(-c5cc(S(=O)(=O)[O-])ccc5F)c5ccc([nH]5)c(-c5cc(S(=O)(=O)[O-])ccc5F)c5nc(c(-c6cc(S(=O)(=O)[O-])ccc6F)c6ccc3[nH]6)C=C5)C=C4)cc2)CC[C@@H](Sc2cccs2)C1
REMARK SMILES IDX 10 1 9 2 8 3 6 4 7 5 5 6 77 7 86 8 78 9 79 10 4 11 2 14 1 15
REMARK SMILES IDX 3 16 80 17 81 18 82 19 85 20 83 21 84 22 11 23 12 24 13 25
REMARK SMILES IDX 14 26 15 27 76 28 16 29 75 30 17 31 18 32 19 33 69 34 20 35
REMARK SMILES IDX 74 36 68 37 70 38 21 39 73 40 67 41 66 42 22 44 54 45 34 46
REMARK SMILES IDX 53 47 35 48 38 49 52 50 71 51 36 52 37 53 51 55 72 56 39 57
REMARK SMILES IDX 23 58 24 59 32 60 25 61 31 62 33 63 30 64 26 65 27 66 28 67
REMARK SMILES IDX 29 68 55 69 56 70 64 71 57 72 63 73 65 74 62 75 58 76 59 77
REMARK SMILES IDX 60 78 61 79 40 80 41 81 49 82 42 83 48 84 50 85 47 86 43 87
REMARK SMILES IDX 44 88 45 89 46 90
REMARK H PARENT 4 12 4 13 70 43 38 54
REMARK Flexibility Score: inf
ROOT
ATOM      1  C   UNL A   1      32.164  30.479  26.731  1.00  0.00     0.275 C 
ENDROOT
BRANCH   1   2
ATOM      2  C   UNL A   1      31.706  29.493  25.653  1.00  0.00     0.274 C 
BRANCH   2   3
ATOM      3  O   UNL A   1      31.489  28.179  26.196  1.00  0.00    -0.457 OA
BRANCH   3   4
ATOM      4  C   UNL A   1      31.049  27.249  25.299  1.00  0.00     0.368 C 
ATOM      5  O   UNL A   1      30.121  27.479  24.532  1.00  0.00    -0.245 OA
BRANCH   4   6
ATOM      6  C   UNL A   1      31.788  25.874  25.432  1.00  0.00     0.195 C 
ATOM      7  C   UNL A   1      33.312  26.065  25.431  1.00  0.00     0.082 C 
ATOM      8  C   UNL A   1      31.583  24.969  24.193  1.00  0.00     0.096 C 
ATOM      9  C   UNL A   1      33.707  26.187  23.963  1.00  0.00     0.022 C 
ATOM     10  C   UNL A   1      32.648  25.406  23.180  1.00  0.00     0.059 C 
BRANCH   6  11
ATOM     11  N   UNL A   1      31.384  25.070  26.610  1.00  0.00    -0.330 N 
ATOM     12  H   UNL A   1      32.081  25.251  27.332  1.00  0.00     0.347 HD
ATOM     13  H   UNL A   1      30.424  25.378  26.762  1.00  0.00     0.347 HD
BRANCH  11  14
ATOM     14  C   UNL A   1      31.235  23.620  26.539  1.00  0.00     0.176 C 
ATOM     15  C   UNL A   1      32.366  23.016  27.383  1.00  0.00     0.075 C 
ATOM     16  C   UNL A   1      29.911  23.036  27.040  1.00  0.00     0.075 C 
ENDBRANCH  11  14
ENDBRANCH   6  11
BRANCH  10  17
ATOM     17  S   UNL A   1      33.290  24.068  22.114  1.00  0.00    -0.112 SA
BRANCH  17  18
ATOM     18  C   UNL A   1      33.264  22.649  23.148  1.00  0.00     0.060 A 
ATOM     19  C   UNL A   1      32.332  21.632  23.123  1.00  0.00     0.027 A 
ATOM     20  S   UNL A   1      34.519  22.319  24.263  1.00  0.00    -0.137 S 
ATOM     21  C   UNL A   1      32.615  20.610  24.076  1.00  0.00     0.013 A 
ATOM     22  C   UNL A   1      33.783  20.857  24.760  1.00  0.00     0.066 A 
ENDBRANCH  17  18
ENDBRANCH  10  17
ENDBRANCH   4   6
ENDBRANCH   3   4
ENDBRANCH   2   3
ENDBRANCH   1   2
BRANCH   1  23
ATOM     23  O   UNL A   1      33.533  30.895  26.564  1.00  0.00    -0.458 OA
BRANCH  23  24
ATOM     24  C   UNL A   1      34.028  31.654  27.576  1.00  0.00     0.338 C 
ATOM     25  O   UNL A   1      33.467  32.606  28.102  1.00  0.00    -0.246 OA
BRANCH  24  26
ATOM     26  C   UNL A   1      35.332  31.130  28.038  1.00  0.00     0.060 A 
ATOM     27  C   UNL A   1      35.433  29.766  28.321  1.00  0.00     0.016 A 
ATOM     28  C   UNL A   1      36.438  31.963  28.240  1.00  0.00     0.016 A 
ATOM     29  C   UNL A   1      36.644  29.228  28.763  1.00  0.00     0.010 A 
ATOM     30  C   UNL A   1      37.647  31.424  28.709  1.00  0.00     0.010 A 
ATOM     31  C   UNL A   1      37.764  30.050  28.962  1.00  0.00    -0.014 A 
BRANCH  31  32
ATOM     32  C   UNL A   1      39.005  29.458  29.538  1.00  0.00     0.031 A 
ATOM     33  C   UNL A   1      39.452  29.909  30.899  1.00  0.00     0.074 A 
ATOM     34  C   UNL A   1      39.686  28.486  28.900  1.00  0.00     0.049 A 
ATOM     35  N   UNL A   1      40.474  29.510  31.612  1.00  0.00    -0.248 NA
ATOM     36  C   UNL A   1      38.641  30.957  31.535  1.00  0.00     0.031 C 
ATOM     37  C   UNL A   1      39.339  27.944  27.591  1.00  0.00     0.029 A 
ATOM     38  N   UNL A   1      40.792  27.760  29.273  1.00  0.00    -0.354 N 
ATOM     39  C   UNL A   1      40.427  30.251  32.785  1.00  0.00     0.074 A 
ATOM     40  C   UNL A   1      39.282  31.132  32.680  1.00  0.00     0.031 C 
ATOM     41  C   UNL A   1      40.161  26.922  27.302  1.00  0.00     0.029 A 
ATOM     42  C   UNL A   1      41.168  26.801  28.355  1.00  0.00     0.049 A 
ATOM     43  H   UNL A   1      41.274  27.909  30.119  1.00  0.00     0.167 HD
ATOM     44  C   UNL A   1      41.271  30.216  33.845  1.00  0.00     0.034 A 
ATOM     45  C   UNL A   1      42.224  25.957  28.341  1.00  0.00     0.034 A 
ATOM     46  C   UNL A   1      42.453  29.391  33.904  1.00  0.00     0.049 A 
ATOM     47  C   UNL A   1      43.219  26.029  29.479  1.00  0.00     0.074 A 
ATOM     48  C   UNL A   1      43.410  29.328  34.902  1.00  0.00     0.029 A 
ATOM     49  N   UNL A   1      42.859  28.507  32.911  1.00  0.00    -0.354 N 
ATOM     50  N   UNL A   1      43.176  26.755  30.573  1.00  0.00    -0.248 NA
ATOM     51  C   UNL A   1      44.419  25.188  29.368  1.00  0.00     0.031 C 
ATOM     52  C   UNL A   1      44.432  28.472  34.478  1.00  0.00     0.029 A 
ATOM     53  C   UNL A   1      44.068  27.923  33.258  1.00  0.00     0.049 A 
ATOM     54  H   UNL A   1      42.360  28.321  32.084  1.00  0.00     0.167 HD
ATOM     55  C   UNL A   1      44.331  26.440  31.286  1.00  0.00     0.074 A 
ATOM     56  C   UNL A   1      45.037  25.442  30.511  1.00  0.00     0.031 C 
ATOM     57  C   UNL A   1      44.770  26.933  32.473  1.00  0.00     0.034 A 
BRANCH  44  58
ATOM     58  C   UNL A   1      40.985  31.175  34.972  1.00  0.00     0.023 A 
ATOM     59  C   UNL A   1      39.827  31.061  35.760  1.00  0.00     0.031 A 
ATOM     60  C   UNL A   1      41.846  32.259  35.217  1.00  0.00     0.131 A 
ATOM     61  C   UNL A   1      39.521  32.058  36.699  1.00  0.00     0.055 A 
ATOM     62  C   UNL A   1      41.579  33.201  36.211  1.00  0.00     0.041 A 
ATOM     63  F   UNL A   1      42.951  32.435  34.474  1.00  0.00    -0.206 F 
ATOM     64  C   UNL A   1      40.402  33.113  36.948  1.00  0.00     0.022 A 
BRANCH  61  65
ATOM     65  S   UNL A   1      37.878  32.049  37.468  1.00  0.00     0.124 S 
ATOM     66  O   UNL A   1      37.552  30.625  37.449  1.00  0.00    -0.237 OA
ATOM     67  O   UNL A   1      38.140  32.627  38.780  1.00  0.00    -0.237 OA
ATOM     68  O   UNL A   1      37.075  32.876  36.570  1.00  0.00    -0.744 OA
ENDBRANCH  61  65
ENDBRANCH  44  58
BRANCH  45  69
ATOM     69  C   UNL A   1      42.468  25.034  27.187  1.00  0.00     0.023 A 
ATOM     70  C   UNL A   1      42.037  23.695  27.209  1.00  0.00     0.031 A 
ATOM     71  C   UNL A   1      43.226  25.453  26.076  1.00  0.00     0.131 A 
ATOM     72  C   UNL A   1      42.406  22.819  26.172  1.00  0.00     0.055 A 
ATOM     73  C   UNL A   1      43.529  24.597  25.015  1.00  0.00     0.041 A 
ATOM     74  F   UNL A   1      43.691  26.711  26.005  1.00  0.00    -0.206 F 
ATOM     75  C   UNL A   1      43.132  23.266  25.067  1.00  0.00     0.022 A 
BRANCH  72  76
ATOM     76  S   UNL A   1      42.027  21.050  26.341  1.00  0.00     0.124 S 
ATOM     77  O   UNL A   1      42.885  20.466  25.317  1.00  0.00    -0.237 OA
ATOM     78  O   UNL A   1      42.405  20.787  27.724  1.00  0.00    -0.237 OA
ATOM     79  O   UNL A   1      40.593  20.983  26.065  1.00  0.00    -0.744 OA
ENDBRANCH  72  76
ENDBRANCH  45  69
BRANCH  57  80
ATOM     80  C   UNL A   1      46.051  26.359  33.034  1.00  0.00     0.023 A 
ATOM     81  C   UNL A   1      46.065  25.206  33.840  1.00  0.00     0.031 A 
ATOM     82  C   UNL A   1      47.282  26.979  32.750  1.00  0.00     0.131 A 
ATOM     83  C   UNL A   1      47.277  24.742  34.375  1.00  0.00     0.055 A 
ATOM     84  C   UNL A   1      48.491  26.473  33.229  1.00  0.00     0.041 A 
ATOM     85  F   UNL A   1      47.330  28.085  31.990  1.00  0.00    -0.206 F 
ATOM     86  C   UNL A   1      48.492  25.356  34.058  1.00  0.00     0.022 A 
BRANCH  83  87
ATOM     87  S   UNL A   1      47.239  23.379  35.572  1.00  0.00     0.124 S 
ATOM     88  O   UNL A   1      47.742  24.022  36.782  1.00  0.00    -0.237 OA
ATOM     89  O   UNL A   1      45.827  23.012  35.584  1.00  0.00    -0.237 OA
ATOM     90  O   UNL A   1      48.132  22.380  34.984  1.00  0.00    -0.744 OA
ENDBRANCH  83  87
ENDBRANCH  57  80
ENDBRANCH  31  32
ENDBRANCH  24  26
ENDBRANCH  23  24
ENDBRANCH   1  23
TORSDOF 18
ENDMDL
