MODEL 1
REMARK VINA RESULT:     -10.7      0.000      0.000
REMARK SMILES O=C(CC[C@H]1CCC[N@@H+](Cc2cccc(C3CC3)c2)C1)OCCOC(=O)c1ccc(-c2c3nc(c(-c4cc(S(=O)(=O)[O-])ccc4F)c4ccc([nH]4)c(-c4cc(S(=O)(=O)[O-])ccc4F)c4nc(c(-c5cc(S(=O)(=O)[O-])ccc5F)c5ccc2[nH]5)C=C4)C=C3)cc1
REMARK SMILES IDX 22 1 21 2 2 3 1 4 3 5 4 6 5 7 6 8 20 9 7 10 9 11 8 12 10 14
REMARK SMILES IDX 11 15 12 16 19 17 13 18 15 19 14 20 16 21 17 22 18 23 23 24
REMARK SMILES IDX 24 25 25 26 26 27 27 28 28 29 89 30 29 31 88 32 30 33 31 34
REMARK SMILES IDX 32 35 82 36 33 37 87 38 81 39 83 40 34 41 86 42 80 43 79 44
REMARK SMILES IDX 35 46 67 47 47 48 66 49 48 50 51 51 65 52 84 53 49 54 50 55
REMARK SMILES IDX 64 57 85 58 52 59 36 60 37 61 45 62 38 63 44 64 46 65 43 66
REMARK SMILES IDX 39 67 40 68 41 69 42 70 68 71 69 72 77 73 70 74 76 75 78 76
REMARK SMILES IDX 75 77 71 78 72 79 73 80 74 81 53 82 54 83 62 84 55 85 61 86
REMARK SMILES IDX 63 87 60 88 56 89 57 90 58 91 59 92
REMARK H PARENT 9 13 83 45 51 56
REMARK Flexibility Score: inf
ROOT
ATOM      1  C   UNL A   1      36.181  21.176  24.622  1.00  0.00     0.274 C 
ENDROOT
BRANCH   1   2
ATOM      2  O   UNL A   1      35.124  22.130  24.420  1.00  0.00    -0.462 OA
BRANCH   2   3
ATOM      3  C   UNL A   1      35.218  22.971  23.360  1.00  0.00     0.305 C 
ATOM      4  O   UNL A   1      36.295  23.214  22.830  1.00  0.00    -0.252 OA
BRANCH   3   5
ATOM      5  C   UNL A   1      33.936  23.730  23.059  1.00  0.00     0.123 C 
BRANCH   5   6
ATOM      6  C   UNL A   1      33.522  24.677  24.196  1.00  0.00     0.021 C 
BRANCH   6   7
ATOM      7  C   UNL A   1      33.874  26.176  23.999  1.00  0.00     0.045 C 
ATOM      8  C   UNL A   1      33.618  26.661  22.571  1.00  0.00     0.015 C 
ATOM      9  C   UNL A   1      33.118  27.067  25.005  1.00  0.00     0.265 C 
ATOM     10  C   UNL A   1      33.821  28.159  22.410  1.00  0.00     0.062 C 
ATOM     11  N   UNL A   1      33.396  28.495  24.785  1.00  0.00    -0.331 N 
ATOM     12  C   UNL A   1      32.996  28.922  23.445  1.00  0.00     0.262 C 
ATOM     13  H   UNL A   1      34.410  28.591  24.843  1.00  0.00     0.348 HD
BRANCH  11  14
ATOM     14  C   UNL A   1      32.887  29.380  25.845  1.00  0.00     0.299 C 
BRANCH  14  15
ATOM     15  C   UNL A   1      33.889  29.895  26.855  1.00  0.00     0.006 A 
ATOM     16  C   UNL A   1      34.999  29.144  27.246  1.00  0.00     0.009 A 
ATOM     17  C   UNL A   1      33.697  31.157  27.438  1.00  0.00     0.013 A 
ATOM     18  C   UNL A   1      35.893  29.659  28.186  1.00  0.00     0.001 A 
ATOM     19  C   UNL A   1      34.599  31.731  28.347  1.00  0.00    -0.044 A 
ATOM     20  C   UNL A   1      35.698  30.940  28.716  1.00  0.00     0.004 A 
BRANCH  19  21
ATOM     21  C   UNL A   1      34.404  33.126  28.914  1.00  0.00     0.019 C 
ATOM     22  C   UNL A   1      34.813  34.363  28.142  1.00  0.00     0.009 C 
ATOM     23  C   UNL A   1      33.361  34.034  28.303  1.00  0.00     0.009 C 
ENDBRANCH  19  21
ENDBRANCH  14  15
ENDBRANCH  11  14
ENDBRANCH   6   7
ENDBRANCH   5   6
ENDBRANCH   3   5
ENDBRANCH   2   3
ENDBRANCH   1   2
BRANCH   1  24
ATOM     24  C   UNL A   1      37.092  21.507  25.819  1.00  0.00     0.275 C 
BRANCH  24  25
ATOM     25  O   UNL A   1      38.429  21.840  25.439  1.00  0.00    -0.458 OA
BRANCH  25  26
ATOM     26  C   UNL A   1      39.347  21.670  26.426  1.00  0.00     0.338 C 
ATOM     27  O   UNL A   1      39.815  20.613  26.811  1.00  0.00    -0.246 OA
BRANCH  26  28
ATOM     28  C   UNL A   1      39.819  23.004  26.836  1.00  0.00     0.060 A 
ATOM     29  C   UNL A   1      39.334  24.136  26.170  1.00  0.00     0.016 A 
ATOM     30  C   UNL A   1      40.749  23.130  27.867  1.00  0.00     0.016 A 
ATOM     31  C   UNL A   1      39.810  25.405  26.512  1.00  0.00     0.010 A 
ATOM     32  C   UNL A   1      41.233  24.395  28.194  1.00  0.00     0.010 A 
ATOM     33  C   UNL A   1      40.785  25.541  27.509  1.00  0.00    -0.014 A 
BRANCH  33  34
ATOM     34  C   UNL A   1      41.484  26.836  27.729  1.00  0.00     0.031 A 
ATOM     35  C   UNL A   1      42.894  26.975  27.221  1.00  0.00     0.074 A 
ATOM     36  C   UNL A   1      40.908  27.852  28.398  1.00  0.00     0.049 A 
ATOM     37  N   UNL A   1      43.745  27.955  27.376  1.00  0.00    -0.248 NA
ATOM     38  C   UNL A   1      43.422  25.832  26.460  1.00  0.00     0.031 C 
ATOM     39  C   UNL A   1      39.553  27.848  28.945  1.00  0.00     0.029 A 
ATOM     40  N   UNL A   1      41.408  29.083  28.753  1.00  0.00    -0.354 N 
ATOM     41  C   UNL A   1      44.913  27.541  26.745  1.00  0.00     0.074 A 
ATOM     42  C   UNL A   1      44.677  26.196  26.266  1.00  0.00     0.031 C 
ATOM     43  C   UNL A   1      39.334  29.015  29.577  1.00  0.00     0.029 A 
ATOM     44  C   UNL A   1      40.542  29.838  29.510  1.00  0.00     0.049 A 
ATOM     45  H   UNL A   1      42.304  29.396  28.488  1.00  0.00     0.167 HD
ATOM     46  C   UNL A   1      46.071  28.224  26.562  1.00  0.00     0.034 A 
ATOM     47  C   UNL A   1      40.712  31.040  30.101  1.00  0.00     0.034 A 
ATOM     48  C   UNL A   1      46.293  29.565  27.041  1.00  0.00     0.049 A 
ATOM     49  C   UNL A   1      42.028  31.768  29.934  1.00  0.00     0.074 A 
ATOM     50  C   UNL A   1      47.407  30.367  26.866  1.00  0.00     0.029 A 
ATOM     51  N   UNL A   1      45.392  30.295  27.804  1.00  0.00    -0.354 N 
ATOM     52  N   UNL A   1      43.108  31.387  29.292  1.00  0.00    -0.248 NA
ATOM     53  C   UNL A   1      42.145  33.090  30.566  1.00  0.00     0.031 C 
ATOM     54  C   UNL A   1      47.211  31.549  27.588  1.00  0.00     0.029 A 
ATOM     55  C   UNL A   1      45.941  31.522  28.142  1.00  0.00     0.049 A 
ATOM     56  H   UNL A   1      44.495  29.987  28.065  1.00  0.00     0.167 HD
ATOM     57  C   UNL A   1      44.017  32.437  29.414  1.00  0.00     0.074 A 
ATOM     58  C   UNL A   1      43.360  33.468  30.189  1.00  0.00     0.031 C 
ATOM     59  C   UNL A   1      45.277  32.543  28.920  1.00  0.00     0.034 A 
BRANCH  46  60
ATOM     60  C   UNL A   1      47.188  27.500  25.850  1.00  0.00     0.023 A 
ATOM     61  C   UNL A   1      48.149  26.752  26.553  1.00  0.00     0.031 A 
ATOM     62  C   UNL A   1      47.337  27.619  24.457  1.00  0.00     0.131 A 
ATOM     63  C   UNL A   1      49.268  26.242  25.880  1.00  0.00     0.055 A 
ATOM     64  C   UNL A   1      48.402  27.025  23.779  1.00  0.00     0.041 A 
ATOM     65  F   UNL A   1      46.464  28.339  23.734  1.00  0.00    -0.206 F 
ATOM     66  C   UNL A   1      49.388  26.350  24.492  1.00  0.00     0.022 A 
BRANCH  63  67
ATOM     67  S   UNL A   1      50.652  25.608  26.866  1.00  0.00     0.124 S 
ATOM     68  O   UNL A   1      50.067  24.406  27.454  1.00  0.00    -0.237 OA
ATOM     69  O   UNL A   1      51.684  25.391  25.858  1.00  0.00    -0.237 OA
ATOM     70  O   UNL A   1      50.921  26.689  27.813  1.00  0.00    -0.744 OA
ENDBRANCH  63  67
ENDBRANCH  46  60
BRANCH  47  71
ATOM     71  C   UNL A   1      39.629  31.625  30.946  1.00  0.00     0.023 A 
ATOM     72  C   UNL A   1      39.579  31.402  32.331  1.00  0.00     0.031 A 
ATOM     73  C   UNL A   1      38.593  32.377  30.362  1.00  0.00     0.131 A 
ATOM     74  C   UNL A   1      38.494  31.890  33.080  1.00  0.00     0.055 A 
ATOM     75  C   UNL A   1      37.544  32.902  31.117  1.00  0.00     0.041 A 
ATOM     76  F   UNL A   1      38.592  32.618  29.041  1.00  0.00    -0.206 F 
ATOM     77  C   UNL A   1      37.484  32.649  32.485  1.00  0.00     0.022 A 
BRANCH  74  78
ATOM     78  S   UNL A   1      38.379  31.451  34.837  1.00  0.00     0.124 S 
ATOM     79  O   UNL A   1      39.629  31.989  35.359  1.00  0.00    -0.237 OA
ATOM     80  O   UNL A   1      37.161  32.144  35.244  1.00  0.00    -0.237 OA
ATOM     81  O   UNL A   1      38.286  29.993  34.818  1.00  0.00    -0.744 OA
ENDBRANCH  74  78
ENDBRANCH  47  71
BRANCH  59  82
ATOM     82  C   UNL A   1      46.016  33.841  29.148  1.00  0.00     0.023 A 
ATOM     83  C   UNL A   1      45.906  34.930  28.266  1.00  0.00     0.031 A 
ATOM     84  C   UNL A   1      46.810  34.000  30.300  1.00  0.00     0.131 A 
ATOM     85  C   UNL A   1      46.602  36.119  28.536  1.00  0.00     0.055 A 
ATOM     86  C   UNL A   1      47.457  35.201  30.589  1.00  0.00     0.041 A 
ATOM     87  F   UNL A   1      46.950  32.992  31.176  1.00  0.00    -0.206 F 
ATOM     88  C   UNL A   1      47.360  36.268  29.701  1.00  0.00     0.022 A 
BRANCH  85  89
ATOM     89  S   UNL A   1      46.547  37.463  27.318  1.00  0.00     0.124 S 
ATOM     90  O   UNL A   1      47.369  38.485  27.957  1.00  0.00    -0.237 OA
ATOM     91  O   UNL A   1      47.118  36.834  26.131  1.00  0.00    -0.237 OA
ATOM     92  O   UNL A   1      45.124  37.784  27.223  1.00  0.00    -0.744 OA
ENDBRANCH  85  89
ENDBRANCH  59  82
ENDBRANCH  33  34
ENDBRANCH  26  28
ENDBRANCH  25  26
ENDBRANCH  24  25
ENDBRANCH   1  24
TORSDOF 19
ENDMDL
MODEL 2
REMARK VINA RESULT:     -10.6      5.164     10.422
REMARK SMILES O=C(CC[C@H]1CCC[N@@H+](Cc2cccc(C3CC3)c2)C1)OCCOC(=O)c1ccc(-c2c3nc(c(-c4cc(S(=O)(=O)[O-])ccc4F)c4ccc([nH]4)c(-c4cc(S(=O)(=O)[O-])ccc4F)c4nc(c(-c5cc(S(=O)(=O)[O-])ccc5F)c5ccc2[nH]5)C=C4)C=C3)cc1
REMARK SMILES IDX 22 1 21 2 2 3 1 4 3 5 4 6 5 7 6 8 20 9 7 10 9 11 8 12 10 14
REMARK SMILES IDX 11 15 12 16 19 17 13 18 15 19 14 20 16 21 17 22 18 23 23 24
REMARK SMILES IDX 24 25 25 26 26 27 27 28 28 29 89 30 29 31 88 32 30 33 31 34
REMARK SMILES IDX 32 35 82 36 33 37 87 38 81 39 83 40 34 41 86 42 80 43 79 44
REMARK SMILES IDX 35 46 67 47 47 48 66 49 48 50 51 51 65 52 84 53 49 54 50 55
REMARK SMILES IDX 64 57 85 58 52 59 36 60 37 61 45 62 38 63 44 64 46 65 43 66
REMARK SMILES IDX 39 67 40 68 41 69 42 70 68 71 69 72 77 73 70 74 76 75 78 76
REMARK SMILES IDX 75 77 71 78 72 79 73 80 74 81 53 82 54 83 62 84 55 85 61 86
REMARK SMILES IDX 63 87 60 88 56 89 57 90 58 91 59 92
REMARK H PARENT 9 13 83 45 51 56
REMARK Flexibility Score: inf
ROOT
ATOM      1  C   UNL A   1      31.529  29.868  25.528  1.00  0.00     0.274 C 
ENDROOT
BRANCH   1   2
ATOM      2  O   UNL A   1      31.334  29.697  24.114  1.00  0.00    -0.462 OA
BRANCH   2   3
ATOM      3  C   UNL A   1      30.064  29.704  23.639  1.00  0.00     0.305 C 
ATOM      4  O   UNL A   1      29.374  30.715  23.672  1.00  0.00    -0.252 OA
BRANCH   3   5
ATOM      5  C   UNL A   1      29.528  28.324  23.292  1.00  0.00     0.123 C 
BRANCH   5   6
ATOM      6  C   UNL A   1      30.613  27.382  22.748  1.00  0.00     0.021 C 
BRANCH   6   7
ATOM      7  C   UNL A   1      31.150  26.314  23.738  1.00  0.00     0.045 C 
ATOM      8  C   UNL A   1      30.303  26.204  25.006  1.00  0.00     0.015 C 
ATOM      9  C   UNL A   1      31.276  24.934  23.063  1.00  0.00     0.265 C 
ATOM     10  C   UNL A   1      30.738  25.063  25.912  1.00  0.00     0.062 C 
ATOM     11  N   UNL A   1      31.725  23.903  24.011  1.00  0.00    -0.331 N 
ATOM     12  C   UNL A   1      30.793  23.753  25.127  1.00  0.00     0.262 C 
ATOM     13  H   UNL A   1      32.605  24.245  24.395  1.00  0.00     0.348 HD
BRANCH  11  14
ATOM     14  C   UNL A   1      32.079  22.619  23.383  1.00  0.00     0.299 C 
BRANCH  14  15
ATOM     15  C   UNL A   1      33.288  21.893  23.930  1.00  0.00     0.006 A 
ATOM     16  C   UNL A   1      33.235  20.553  24.319  1.00  0.00     0.009 A 
ATOM     17  C   UNL A   1      34.501  22.583  24.076  1.00  0.00     0.013 A 
ATOM     18  C   UNL A   1      34.376  19.928  24.824  1.00  0.00     0.001 A 
ATOM     19  C   UNL A   1      35.683  21.978  24.532  1.00  0.00    -0.044 A 
ATOM     20  C   UNL A   1      35.583  20.632  24.915  1.00  0.00     0.004 A 
BRANCH  19  21
ATOM     21  C   UNL A   1      37.000  22.729  24.618  1.00  0.00     0.019 C 
ATOM     22  C   UNL A   1      37.276  23.727  25.723  1.00  0.00     0.009 C 
ATOM     23  C   UNL A   1      37.968  22.398  25.732  1.00  0.00     0.009 C 
ENDBRANCH  19  21
ENDBRANCH  14  15
ENDBRANCH  11  14
ENDBRANCH   6   7
ENDBRANCH   5   6
ENDBRANCH   3   5
ENDBRANCH   2   3
ENDBRANCH   1   2
BRANCH   1  24
ATOM     24  C   UNL A   1      32.943  30.350  25.904  1.00  0.00     0.275 C 
BRANCH  24  25
ATOM     25  O   UNL A   1      33.118  30.558  27.308  1.00  0.00    -0.458 OA
BRANCH  25  26
ATOM     26  C   UNL A   1      34.020  31.523  27.619  1.00  0.00     0.338 C 
ATOM     27  O   UNL A   1      33.800  32.716  27.735  1.00  0.00    -0.246 OA
BRANCH  26  28
ATOM     28  C   UNL A   1      35.287  30.859  27.972  1.00  0.00     0.060 A 
ATOM     29  C   UNL A   1      35.299  29.473  28.172  1.00  0.00     0.016 A 
ATOM     30  C   UNL A   1      36.453  31.609  28.118  1.00  0.00     0.016 A 
ATOM     31  C   UNL A   1      36.482  28.834  28.557  1.00  0.00     0.010 A 
ATOM     32  C   UNL A   1      37.625  30.971  28.517  1.00  0.00     0.010 A 
ATOM     33  C   UNL A   1      37.648  29.583  28.761  1.00  0.00    -0.014 A 
BRANCH  33  34
ATOM     34  C   UNL A   1      38.849  28.979  29.399  1.00  0.00     0.031 A 
ATOM     35  C   UNL A   1      39.301  29.533  30.723  1.00  0.00     0.074 A 
ATOM     36  C   UNL A   1      39.551  27.995  28.807  1.00  0.00     0.049 A 
ATOM     37  N   UNL A   1      40.367  29.251  31.426  1.00  0.00    -0.248 NA
ATOM     38  C   UNL A   1      38.445  30.572  31.316  1.00  0.00     0.031 C 
ATOM     39  C   UNL A   1      39.225  27.373  27.526  1.00  0.00     0.029 A 
ATOM     40  N   UNL A   1      40.707  27.363  29.201  1.00  0.00    -0.354 N 
ATOM     41  C   UNL A   1      40.316  30.088  32.536  1.00  0.00     0.074 A 
ATOM     42  C   UNL A   1      39.150  30.930  32.374  1.00  0.00     0.031 C 
ATOM     43  C   UNL A   1      40.166  26.456  27.234  1.00  0.00     0.029 A 
ATOM     44  C   UNL A   1      41.180  26.448  28.289  1.00  0.00     0.049 A 
ATOM     45  H   UNL A   1      41.154  27.548  30.060  1.00  0.00     0.167 HD
ATOM     46  C   UNL A   1      41.151  30.138  33.604  1.00  0.00     0.034 A 
ATOM     47  C   UNL A   1      42.310  25.709  28.292  1.00  0.00     0.034 A 
ATOM     48  C   UNL A   1      42.307  29.292  33.756  1.00  0.00     0.049 A 
ATOM     49  C   UNL A   1      43.261  25.815  29.465  1.00  0.00     0.074 A 
ATOM     50  C   UNL A   1      43.189  29.224  34.820  1.00  0.00     0.029 A 
ATOM     51  N   UNL A   1      42.753  28.378  32.810  1.00  0.00    -0.354 N 
ATOM     52  N   UNL A   1      43.175  26.574  30.533  1.00  0.00    -0.248 NA
ATOM     53  C   UNL A   1      44.456  24.959  29.435  1.00  0.00     0.031 C 
ATOM     54  C   UNL A   1      44.210  28.328  34.484  1.00  0.00     0.029 A 
ATOM     55  C   UNL A   1      43.920  27.773  33.249  1.00  0.00     0.049 A 
ATOM     56  H   UNL A   1      42.305  28.188  31.955  1.00  0.00     0.167 HD
ATOM     57  C   UNL A   1      44.286  26.260  31.316  1.00  0.00     0.074 A 
ATOM     58  C   UNL A   1      45.025  25.242  30.599  1.00  0.00     0.031 C 
ATOM     59  C   UNL A   1      44.653  26.760  32.523  1.00  0.00     0.034 A 
BRANCH  46  60
ATOM     60  C   UNL A   1      40.853  31.178  34.658  1.00  0.00     0.023 A 
ATOM     61  C   UNL A   1      39.827  30.999  35.602  1.00  0.00     0.031 A 
ATOM     62  C   UNL A   1      41.556  32.395  34.672  1.00  0.00     0.131 A 
ATOM     63  C   UNL A   1      39.464  32.056  36.448  1.00  0.00     0.055 A 
ATOM     64  C   UNL A   1      41.254  33.407  35.584  1.00  0.00     0.041 A 
ATOM     65  F   UNL A   1      42.532  32.633  33.781  1.00  0.00    -0.206 F 
ATOM     66  C   UNL A   1      40.187  33.250  36.465  1.00  0.00     0.022 A 
BRANCH  63  67
ATOM     67  S   UNL A   1      37.917  31.916  37.385  1.00  0.00     0.124 S 
ATOM     68  O   UNL A   1      37.021  32.764  36.602  1.00  0.00    -0.237 OA
ATOM     69  O   UNL A   1      37.647  30.484  37.337  1.00  0.00    -0.237 OA
ATOM     70  O   UNL A   1      38.266  32.443  38.704  1.00  0.00    -0.744 OA
ENDBRANCH  63  67
ENDBRANCH  46  60
BRANCH  47  71
ATOM     71  C   UNL A   1      42.640  24.831  27.132  1.00  0.00     0.023 A 
ATOM     72  C   UNL A   1      42.271  23.476  27.108  1.00  0.00     0.031 A 
ATOM     73  C   UNL A   1      43.382  25.330  26.044  1.00  0.00     0.131 A 
ATOM     74  C   UNL A   1      42.680  22.657  26.042  1.00  0.00     0.055 A 
ATOM     75  C   UNL A   1      43.742  24.524  24.964  1.00  0.00     0.041 A 
ATOM     76  F   UNL A   1      43.761  26.617  26.017  1.00  0.00    -0.206 F 
ATOM     77  C   UNL A   1      43.401  23.175  24.964  1.00  0.00     0.022 A 
BRANCH  74  78
ATOM     78  S   UNL A   1      42.322  20.880  26.121  1.00  0.00     0.124 S 
ATOM     79  O   UNL A   1      40.987  20.820  25.537  1.00  0.00    -0.237 OA
ATOM     80  O   UNL A   1      43.401  20.317  25.315  1.00  0.00    -0.237 OA
ATOM     81  O   UNL A   1      42.394  20.581  27.549  1.00  0.00    -0.744 OA
ENDBRANCH  74  78
ENDBRANCH  47  71
BRANCH  59  82
ATOM     82  C   UNL A   1      45.881  26.177  33.182  1.00  0.00     0.023 A 
ATOM     83  C   UNL A   1      45.825  25.025  33.985  1.00  0.00     0.031 A 
ATOM     84  C   UNL A   1      47.140  26.768  32.960  1.00  0.00     0.131 A 
ATOM     85  C   UNL A   1      47.000  24.516  34.559  1.00  0.00     0.055 A 
ATOM     86  C   UNL A   1      48.311  26.228  33.492  1.00  0.00     0.041 A 
ATOM     87  F   UNL A   1      47.251  27.871  32.203  1.00  0.00    -0.206 F 
ATOM     88  C   UNL A   1      48.244  25.099  34.302  1.00  0.00     0.022 A 
BRANCH  85  89
ATOM     89  S   UNL A   1      46.883  23.106  35.694  1.00  0.00     0.124 S 
ATOM     90  O   UNL A   1      46.948  21.972  34.777  1.00  0.00    -0.237 OA
ATOM     91  O   UNL A   1      48.046  23.298  36.555  1.00  0.00    -0.237 OA
ATOM     92  O   UNL A   1      45.590  23.298  36.350  1.00  0.00    -0.744 OA
ENDBRANCH  85  89
ENDBRANCH  59  82
ENDBRANCH  33  34
ENDBRANCH  26  28
ENDBRANCH  25  26
ENDBRANCH  24  25
ENDBRANCH   1  24
TORSDOF 19
ENDMDL
MODEL 3
REMARK VINA RESULT:     -10.6      5.431      9.021
REMARK SMILES O=C(CC[C@H]1CCC[N@@H+](Cc2cccc(C3CC3)c2)C1)OCCOC(=O)c1ccc(-c2c3nc(c(-c4cc(S(=O)(=O)[O-])ccc4F)c4ccc([nH]4)c(-c4cc(S(=O)(=O)[O-])ccc4F)c4nc(c(-c5cc(S(=O)(=O)[O-])ccc5F)c5ccc2[nH]5)C=C4)C=C3)cc1
REMARK SMILES IDX 22 1 21 2 2 3 1 4 3 5 4 6 5 7 6 8 20 9 7 10 9 11 8 12 10 14
REMARK SMILES IDX 11 15 12 16 19 17 13 18 15 19 14 20 16 21 17 22 18 23 23 24
REMARK SMILES IDX 24 25 25 26 26 27 27 28 28 29 89 30 29 31 88 32 30 33 31 34
REMARK SMILES IDX 32 35 82 36 33 37 87 38 81 39 83 40 34 41 86 42 80 43 79 44
REMARK SMILES IDX 35 46 67 47 47 48 66 49 48 50 51 51 65 52 84 53 49 54 50 55
REMARK SMILES IDX 64 57 85 58 52 59 36 60 37 61 45 62 38 63 44 64 46 65 43 66
REMARK SMILES IDX 39 67 40 68 41 69 42 70 68 71 69 72 77 73 70 74 76 75 78 76
REMARK SMILES IDX 75 77 71 78 72 79 73 80 74 81 53 82 54 83 62 84 55 85 61 86
REMARK SMILES IDX 63 87 60 88 56 89 57 90 58 91 59 92
REMARK H PARENT 9 13 83 45 51 56
REMARK Flexibility Score: inf
ROOT
ATOM      1  C   UNL A   1      31.386  31.503  26.496  1.00  0.00     0.274 C 
ENDROOT
BRANCH   1   2
ATOM      2  O   UNL A   1      32.350  30.603  27.070  1.00  0.00    -0.462 OA
BRANCH   2   3
ATOM      3  C   UNL A   1      32.732  29.527  26.338  1.00  0.00     0.305 C 
ATOM      4  O   UNL A   1      32.864  29.594  25.122  1.00  0.00    -0.252 OA
BRANCH   3   5
ATOM      5  C   UNL A   1      32.754  28.224  27.121  1.00  0.00     0.123 C 
BRANCH   5   6
ATOM      6  C   UNL A   1      31.837  27.150  26.516  1.00  0.00     0.021 C 
BRANCH   6   7
ATOM      7  C   UNL A   1      32.543  26.017  25.722  1.00  0.00     0.045 C 
ATOM      8  C   UNL A   1      34.067  26.088  25.821  1.00  0.00     0.015 C 
ATOM      9  C   UNL A   1      32.046  24.627  26.165  1.00  0.00     0.265 C 
ATOM     10  C   UNL A   1      34.758  24.900  25.168  1.00  0.00     0.062 C 
ATOM     11  N   UNL A   1      32.755  23.546  25.463  1.00  0.00    -0.331 N 
ATOM     12  C   UNL A   1      34.194  23.591  25.716  1.00  0.00     0.262 C 
ATOM     13  H   UNL A   1      32.617  23.726  24.468  1.00  0.00     0.348 HD
BRANCH  11  14
ATOM     14  C   UNL A   1      32.177  22.208  25.673  1.00  0.00     0.299 C 
BRANCH  14  15
ATOM     15  C   UNL A   1      32.206  21.252  24.502  1.00  0.00     0.006 A 
ATOM     16  C   UNL A   1      31.928  21.668  23.198  1.00  0.00     0.009 A 
ATOM     17  C   UNL A   1      32.500  19.897  24.721  1.00  0.00     0.013 A 
ATOM     18  C   UNL A   1      31.961  20.747  22.150  1.00  0.00     0.001 A 
ATOM     19  C   UNL A   1      32.593  18.951  23.689  1.00  0.00    -0.044 A 
ATOM     20  C   UNL A   1      32.302  19.412  22.396  1.00  0.00     0.004 A 
BRANCH  19  21
ATOM     21  C   UNL A   1      32.979  17.505  23.944  1.00  0.00     0.019 C 
ATOM     22  C   UNL A   1      34.270  17.137  24.646  1.00  0.00     0.009 C 
ATOM     23  C   UNL A   1      32.964  16.974  25.360  1.00  0.00     0.009 C 
ENDBRANCH  19  21
ENDBRANCH  14  15
ENDBRANCH  11  14
ENDBRANCH   6   7
ENDBRANCH   5   6
ENDBRANCH   3   5
ENDBRANCH   2   3
ENDBRANCH   1   2
BRANCH   1  24
ATOM     24  C   UNL A   1      31.634  32.982  26.850  1.00  0.00     0.275 C 
BRANCH  24  25
ATOM     25  O   UNL A   1      33.021  33.328  26.901  1.00  0.00    -0.458 OA
BRANCH  25  26
ATOM     26  C   UNL A   1      33.396  33.951  28.047  1.00  0.00     0.338 C 
ATOM     27  O   UNL A   1      32.781  34.822  28.637  1.00  0.00    -0.246 OA
BRANCH  26  28
ATOM     28  C   UNL A   1      34.596  33.267  28.561  1.00  0.00     0.060 A 
ATOM     29  C   UNL A   1      34.453  32.039  29.217  1.00  0.00     0.016 A 
ATOM     30  C   UNL A   1      35.853  33.848  28.403  1.00  0.00     0.016 A 
ATOM     31  C   UNL A   1      35.575  31.400  29.755  1.00  0.00     0.010 A 
ATOM     32  C   UNL A   1      36.966  33.216  28.955  1.00  0.00     0.010 A 
ATOM     33  C   UNL A   1      36.837  32.000  29.653  1.00  0.00    -0.014 A 
BRANCH  33  34
ATOM     34  C   UNL A   1      38.002  31.475  30.416  1.00  0.00     0.031 A 
ATOM     35  C   UNL A   1      38.843  30.404  29.775  1.00  0.00     0.074 A 
ATOM     36  C   UNL A   1      38.288  31.899  31.661  1.00  0.00     0.049 A 
ATOM     37  N   UNL A   1      39.840  29.718  30.270  1.00  0.00    -0.248 NA
ATOM     38  C   UNL A   1      38.485  30.040  28.396  1.00  0.00     0.031 C 
ATOM     39  C   UNL A   1      37.553  32.925  32.397  1.00  0.00     0.029 A 
ATOM     40  N   UNL A   1      39.267  31.495  32.538  1.00  0.00    -0.354 N 
ATOM     41  C   UNL A   1      40.218  28.830  29.268  1.00  0.00     0.074 A 
ATOM     42  C   UNL A   1      39.299  29.024  28.167  1.00  0.00     0.031 C 
ATOM     43  C   UNL A   1      38.100  33.061  33.619  1.00  0.00     0.029 A 
ATOM     44  C   UNL A   1      39.202  32.110  33.767  1.00  0.00     0.049 A 
ATOM     45  H   UNL A   1      39.953  30.826  32.306  1.00  0.00     0.167 HD
ATOM     46  C   UNL A   1      41.248  27.948  29.255  1.00  0.00     0.034 A 
ATOM     47  C   UNL A   1      39.929  31.912  34.887  1.00  0.00     0.034 A 
ATOM     48  C   UNL A   1      42.160  27.767  30.356  1.00  0.00     0.049 A 
ATOM     49  C   UNL A   1      41.041  30.886  34.876  1.00  0.00     0.074 A 
ATOM     50  C   UNL A   1      43.267  26.940  30.430  1.00  0.00     0.029 A 
ATOM     51  N   UNL A   1      42.061  28.409  31.584  1.00  0.00    -0.354 N 
ATOM     52  N   UNL A   1      41.421  30.088  33.905  1.00  0.00    -0.248 NA
ATOM     53  C   UNL A   1      41.827  30.740  36.111  1.00  0.00     0.031 C 
ATOM     54  C   UNL A   1      43.789  27.023  31.724  1.00  0.00     0.029 A 
ATOM     55  C   UNL A   1      43.062  27.965  32.433  1.00  0.00     0.049 A 
ATOM     56  H   UNL A   1      41.380  29.080  31.816  1.00  0.00     0.167 HD
ATOM     57  C   UNL A   1      42.511  29.373  34.401  1.00  0.00     0.074 A 
ATOM     58  C   UNL A   1      42.728  29.834  35.756  1.00  0.00     0.031 C 
ATOM     59  C   UNL A   1      43.268  28.429  33.786  1.00  0.00     0.034 A 
BRANCH  46  60
ATOM     60  C   UNL A   1      41.401  27.091  28.022  1.00  0.00     0.023 A 
ATOM     61  C   UNL A   1      40.997  25.745  28.003  1.00  0.00     0.031 A 
ATOM     62  C   UNL A   1      42.025  27.607  26.872  1.00  0.00     0.131 A 
ATOM     63  C   UNL A   1      41.314  24.934  26.904  1.00  0.00     0.055 A 
ATOM     64  C   UNL A   1      42.250  26.818  25.742  1.00  0.00     0.041 A 
ATOM     65  F   UNL A   1      42.453  28.878  26.837  1.00  0.00    -0.206 F 
ATOM     66  C   UNL A   1      41.915  25.468  25.762  1.00  0.00     0.022 A 
BRANCH  63  67
ATOM     67  S   UNL A   1      41.107  23.140  27.069  1.00  0.00     0.124 S 
ATOM     68  O   UNL A   1      41.746  22.656  25.847  1.00  0.00    -0.237 OA
ATOM     69  O   UNL A   1      41.811  22.854  28.315  1.00  0.00    -0.237 OA
ATOM     70  O   UNL A   1      39.656  22.965  27.116  1.00  0.00    -0.744 OA
ENDBRANCH  63  67
ENDBRANCH  46  60
BRANCH  47  71
ATOM     71  C   UNL A   1      39.611  32.666  36.135  1.00  0.00     0.023 A 
ATOM     72  C   UNL A   1      38.700  32.169  37.080  1.00  0.00     0.031 A 
ATOM     73  C   UNL A   1      40.182  33.930  36.373  1.00  0.00     0.131 A 
ATOM     74  C   UNL A   1      38.354  32.948  38.197  1.00  0.00     0.055 A 
ATOM     75  C   UNL A   1      39.874  34.679  37.510  1.00  0.00     0.041 A 
ATOM     76  F   UNL A   1      41.058  34.453  35.501  1.00  0.00    -0.206 F 
ATOM     77  C   UNL A   1      38.944  34.193  38.425  1.00  0.00     0.022 A 
BRANCH  74  78
ATOM     78  S   UNL A   1      37.057  32.345  39.314  1.00  0.00     0.124 S 
ATOM     79  O   UNL A   1      37.326  33.116  40.523  1.00  0.00    -0.237 OA
ATOM     80  O   UNL A   1      35.841  32.696  38.586  1.00  0.00    -0.237 OA
ATOM     81  O   UNL A   1      37.330  30.914  39.412  1.00  0.00    -0.744 OA
ENDBRANCH  74  78
ENDBRANCH  47  71
BRANCH  59  82
ATOM     82  C   UNL A   1      44.444  27.865  34.548  1.00  0.00     0.023 A 
ATOM     83  C   UNL A   1      44.342  26.702  35.330  1.00  0.00     0.031 A 
ATOM     84  C   UNL A   1      45.704  28.486  34.449  1.00  0.00     0.131 A 
ATOM     85  C   UNL A   1      45.471  26.211  36.004  1.00  0.00     0.055 A 
ATOM     86  C   UNL A   1      46.834  27.965  35.079  1.00  0.00     0.041 A 
ATOM     87  F   UNL A   1      45.859  29.601  33.717  1.00  0.00    -0.206 F 
ATOM     88  C   UNL A   1      46.720  26.824  35.867  1.00  0.00     0.022 A 
BRANCH  85  89
ATOM     89  S   UNL A   1      45.283  24.784  37.108  1.00  0.00     0.124 S 
ATOM     90  O   UNL A   1      45.345  23.666  36.172  1.00  0.00    -0.237 OA
ATOM     91  O   UNL A   1      46.425  24.930  38.006  1.00  0.00    -0.237 OA
ATOM     92  O   UNL A   1      43.978  24.999  37.730  1.00  0.00    -0.744 OA
ENDBRANCH  85  89
ENDBRANCH  59  82
ENDBRANCH  33  34
ENDBRANCH  26  28
ENDBRANCH  25  26
ENDBRANCH  24  25
ENDBRANCH   1  24
TORSDOF 19
ENDMDL
