MODEL 1
REMARK VINA RESULT:     -11.1      0.000      0.000
REMARK SMILES COC(=O)c1cncc(N2CC[C@H](C(=O)OCCOC(=O)c3ccc(-c4c5nc(c(-c6cc(S(=O)(=O)[O-])ccc6F)c6ccc([nH]6)c(-c6cc(S(=O)(=O)[O-])ccc6F)c6nc(c(-c7cc(S(=O)(=O)[O-])ccc7F)c7ccc4[nH]7)C=C6)C=C5)cc3)C2)n1
REMARK SMILES IDX 17 1 16 2 14 3 15 4 13 5 10 6 11 7 85 8 12 9 9 10 5 11 6 12
REMARK SMILES IDX 86 13 7 14 8 15 3 16 4 17 2 18 1 19 18 20 19 21 20 22 21 23
REMARK SMILES IDX 22 24 23 25 84 26 24 27 83 28 25 29 26 30 27 31 77 32 28 33
REMARK SMILES IDX 82 34 76 35 78 36 29 37 81 38 75 39 74 40 30 42 62 43 42 44
REMARK SMILES IDX 61 45 43 46 46 47 60 48 79 49 44 50 45 51 59 53 80 54 47 55
REMARK SMILES IDX 31 56 32 57 40 58 33 59 39 60 41 61 38 62 34 63 35 64 36 65
REMARK SMILES IDX 37 66 63 67 64 68 72 69 65 70 71 71 73 72 70 73 66 74 67 75
REMARK SMILES IDX 68 76 69 77 48 78 49 79 57 80 50 81 56 82 58 83 55 84 51 85
REMARK SMILES IDX 52 86 53 87 54 88
REMARK H PARENT 78 41 46 52
REMARK Flexibility Score: inf
ROOT
ATOM      1  C   UNL A   1      35.246  20.489  25.384  1.00  0.00     0.274 C 
ENDROOT
BRANCH   1   2
ATOM      2  O   UNL A   1      34.385  20.603  24.236  1.00  0.00    -0.462 OA
BRANCH   2   3
ATOM      3  C   UNL A   1      33.124  20.124  24.360  1.00  0.00     0.310 C 
ATOM      4  O   UNL A   1      32.838  18.945  24.534  1.00  0.00    -0.252 OA
BRANCH   3   5
ATOM      5  C   UNL A   1      32.072  21.198  24.259  1.00  0.00     0.120 C 
ATOM      6  N   UNL A   1      31.703  23.411  23.559  1.00  0.00    -0.354 N 
ATOM      7  C   UNL A   1      31.146  23.289  24.906  1.00  0.00     0.119 C 
ATOM      8  C   UNL A   1      32.460  22.210  23.192  1.00  0.00     0.133 C 
ATOM      9  C   UNL A   1      31.837  22.064  25.490  1.00  0.00     0.038 C 
BRANCH   6  10
ATOM     10  C   UNL A   1      32.273  24.606  23.166  1.00  0.00     0.148 A 
ATOM     11  C   UNL A   1      32.921  26.769  23.624  1.00  0.00     0.169 A 
ATOM     12  C   UNL A   1      33.501  26.880  22.369  1.00  0.00     0.147 A 
ATOM     13  N   UNL A   1      32.300  25.635  24.037  1.00  0.00    -0.221 NA
ATOM     14  N   UNL A   1      33.495  25.864  21.476  1.00  0.00    -0.258 NA
ATOM     15  C   UNL A   1      32.874  24.736  21.909  1.00  0.00     0.157 A 
BRANCH  11  16
ATOM     16  C   UNL A   1      33.009  27.868  24.620  1.00  0.00     0.358 C 
ATOM     17  O   UNL A   1      33.369  29.008  24.373  1.00  0.00    -0.244 OA
BRANCH  16  18
ATOM     18  O   UNL A   1      32.642  27.408  25.847  1.00  0.00    -0.464 OA
ATOM     19  C   UNL A   1      33.131  28.204  26.927  1.00  0.00     0.282 C 
ENDBRANCH  16  18
ENDBRANCH  11  16
ENDBRANCH   6  10
ENDBRANCH   3   5
ENDBRANCH   2   3
ENDBRANCH   1   2
BRANCH   1  20
ATOM     20  C   UNL A   1      36.715  20.557  24.962  1.00  0.00     0.275 C 
BRANCH  20  21
ATOM     21  O   UNL A   1      37.418  21.606  25.652  1.00  0.00    -0.458 OA
BRANCH  21  22
ATOM     22  C   UNL A   1      38.691  21.306  26.004  1.00  0.00     0.338 C 
ATOM     23  O   UNL A   1      39.282  20.258  25.811  1.00  0.00    -0.246 OA
BRANCH  22  24
ATOM     24  C   UNL A   1      39.344  22.501  26.559  1.00  0.00     0.060 A 
ATOM     25  C   UNL A   1      38.910  23.752  26.115  1.00  0.00     0.016 A 
ATOM     26  C   UNL A   1      40.423  22.394  27.436  1.00  0.00     0.016 A 
ATOM     27  C   UNL A   1      39.559  24.909  26.535  1.00  0.00     0.010 A 
ATOM     28  C   UNL A   1      41.070  23.557  27.863  1.00  0.00     0.010 A 
ATOM     29  C   UNL A   1      40.649  24.819  27.407  1.00  0.00    -0.014 A 
BRANCH  29  30
ATOM     30  C   UNL A   1      41.384  26.046  27.796  1.00  0.00     0.031 A 
ATOM     31  C   UNL A   1      40.685  27.103  28.600  1.00  0.00     0.074 A 
ATOM     32  C   UNL A   1      42.672  26.197  27.440  1.00  0.00     0.049 A 
ATOM     33  N   UNL A   1      41.095  28.299  28.931  1.00  0.00    -0.248 NA
ATOM     34  C   UNL A   1      39.341  26.766  29.090  1.00  0.00     0.031 C 
ATOM     35  C   UNL A   1      43.469  25.204  26.717  1.00  0.00     0.029 A 
ATOM     36  N   UNL A   1      43.536  27.245  27.631  1.00  0.00    -0.354 N 
ATOM     37  C   UNL A   1      40.053  28.870  29.653  1.00  0.00     0.074 A 
ATOM     38  C   UNL A   1      38.983  27.893  29.688  1.00  0.00     0.031 C 
ATOM     39  C   UNL A   1      44.704  25.694  26.521  1.00  0.00     0.029 A 
ATOM     40  C   UNL A   1      44.767  27.055  27.049  1.00  0.00     0.049 A 
ATOM     41  H   UNL A   1      43.297  28.055  28.137  1.00  0.00     0.167 HD
ATOM     42  C   UNL A   1      39.997  30.096  30.230  1.00  0.00     0.034 A 
ATOM     43  C   UNL A   1      45.810  27.897  26.920  1.00  0.00     0.034 A 
ATOM     44  C   UNL A   1      41.076  31.054  30.177  1.00  0.00     0.049 A 
ATOM     45  C   UNL A   1      45.694  29.286  27.493  1.00  0.00     0.074 A 
ATOM     46  C   UNL A   1      41.129  32.329  30.716  1.00  0.00     0.029 A 
ATOM     47  N   UNL A   1      42.295  30.843  29.542  1.00  0.00    -0.354 N 
ATOM     48  N   UNL A   1      44.688  29.834  28.135  1.00  0.00    -0.248 NA
ATOM     49  C   UNL A   1      46.853  30.171  27.319  1.00  0.00     0.031 C 
ATOM     50  C   UNL A   1      42.353  32.907  30.356  1.00  0.00     0.029 A 
ATOM     51  C   UNL A   1      43.094  31.971  29.652  1.00  0.00     0.049 A 
ATOM     52  H   UNL A   1      42.553  30.013  29.079  1.00  0.00     0.167 HD
ATOM     53  C   UNL A   1      45.104  31.120  28.465  1.00  0.00     0.074 A 
ATOM     54  C   UNL A   1      46.455  31.261  27.959  1.00  0.00     0.031 C 
ATOM     55  C   UNL A   1      44.435  32.096  29.129  1.00  0.00     0.034 A 
BRANCH  42  56
ATOM     56  C   UNL A   1      38.703  30.483  30.904  1.00  0.00     0.023 A 
ATOM     57  C   UNL A   1      37.639  31.065  30.192  1.00  0.00     0.031 A 
ATOM     58  C   UNL A   1      38.549  30.308  32.290  1.00  0.00     0.131 A 
ATOM     59  C   UNL A   1      36.502  31.519  30.880  1.00  0.00     0.055 A 
ATOM     60  C   UNL A   1      37.384  30.689  32.957  1.00  0.00     0.041 A 
ATOM     61  F   UNL A   1      39.539  29.778  33.027  1.00  0.00    -0.206 F 
ATOM     62  C   UNL A   1      36.358  31.314  32.255  1.00  0.00     0.022 A 
BRANCH  59  63
ATOM     63  S   UNL A   1      35.281  32.512  29.978  1.00  0.00     0.124 S 
ATOM     64  O   UNL A   1      34.285  32.769  31.016  1.00  0.00    -0.237 OA
ATOM     65  O   UNL A   1      36.066  33.661  29.545  1.00  0.00    -0.237 OA
ATOM     66  O   UNL A   1      34.838  31.619  28.908  1.00  0.00    -0.744 OA
ENDBRANCH  59  63
ENDBRANCH  42  56
BRANCH  43  67
ATOM     67  C   UNL A   1      47.027  27.478  26.170  1.00  0.00     0.023 A 
ATOM     68  C   UNL A   1      47.190  27.795  24.813  1.00  0.00     0.031 A 
ATOM     69  C   UNL A   1      48.033  26.719  26.797  1.00  0.00     0.131 A 
ATOM     70  C   UNL A   1      48.315  27.325  24.117  1.00  0.00     0.055 A 
ATOM     71  C   UNL A   1      49.174  26.297  26.114  1.00  0.00     0.041 A 
ATOM     72  F   UNL A   1      47.926  26.389  28.095  1.00  0.00    -0.206 F 
ATOM     73  C   UNL A   1      49.314  26.591  24.761  1.00  0.00     0.022 A 
BRANCH  70  74
ATOM     74  S   UNL A   1      48.421  27.629  22.332  1.00  0.00     0.124 S 
ATOM     75  O   UNL A   1      48.463  26.271  21.801  1.00  0.00    -0.237 OA
ATOM     76  O   UNL A   1      47.197  28.380  22.079  1.00  0.00    -0.237 OA
ATOM     77  O   UNL A   1      49.659  28.393  22.190  1.00  0.00    -0.744 OA
ENDBRANCH  70  74
ENDBRANCH  43  67
BRANCH  55  78
ATOM     78  C   UNL A   1      45.182  33.380  29.384  1.00  0.00     0.023 A 
ATOM     79  C   UNL A   1      45.174  34.439  28.460  1.00  0.00     0.031 A 
ATOM     80  C   UNL A   1      45.928  33.536  30.566  1.00  0.00     0.131 A 
ATOM     81  C   UNL A   1      45.940  35.588  28.708  1.00  0.00     0.055 A 
ATOM     82  C   UNL A   1      46.646  34.703  30.832  1.00  0.00     0.041 A 
ATOM     83  F   UNL A   1      45.972  32.555  31.481  1.00  0.00    -0.206 F 
ATOM     84  C   UNL A   1      46.665  35.732  29.895  1.00  0.00     0.022 A 
BRANCH  81  85
ATOM     85  S   UNL A   1      46.045  36.861  27.421  1.00  0.00     0.124 S 
ATOM     86  O   UNL A   1      46.127  36.058  26.205  1.00  0.00    -0.237 OA
ATOM     87  O   UNL A   1      44.803  37.602  27.612  1.00  0.00    -0.237 OA
ATOM     88  O   UNL A   1      47.263  37.595  27.762  1.00  0.00    -0.744 OA
ENDBRANCH  81  85
ENDBRANCH  55  78
ENDBRANCH  29  30
ENDBRANCH  22  24
ENDBRANCH  21  22
ENDBRANCH  20  21
ENDBRANCH   1  20
TORSDOF 17
ENDMDL
MODEL 2
REMARK VINA RESULT:     -11.0      1.466      1.703
REMARK SMILES COC(=O)c1cncc(N2CC[C@H](C(=O)OCCOC(=O)c3ccc(-c4c5nc(c(-c6cc(S(=O)(=O)[O-])ccc6F)c6ccc([nH]6)c(-c6cc(S(=O)(=O)[O-])ccc6F)c6nc(c(-c7cc(S(=O)(=O)[O-])ccc7F)c7ccc4[nH]7)C=C6)C=C5)cc3)C2)n1
REMARK SMILES IDX 17 1 16 2 14 3 15 4 13 5 10 6 11 7 85 8 12 9 9 10 5 11 6 12
REMARK SMILES IDX 86 13 7 14 8 15 3 16 4 17 2 18 1 19 18 20 19 21 20 22 21 23
REMARK SMILES IDX 22 24 23 25 84 26 24 27 83 28 25 29 26 30 27 31 77 32 28 33
REMARK SMILES IDX 82 34 76 35 78 36 29 37 81 38 75 39 74 40 30 42 62 43 42 44
REMARK SMILES IDX 61 45 43 46 46 47 60 48 79 49 44 50 45 51 59 53 80 54 47 55
REMARK SMILES IDX 31 56 32 57 40 58 33 59 39 60 41 61 38 62 34 63 35 64 36 65
REMARK SMILES IDX 37 66 63 67 64 68 72 69 65 70 71 71 73 72 70 73 66 74 67 75
REMARK SMILES IDX 68 76 69 77 48 78 49 79 57 80 50 81 56 82 58 83 55 84 51 85
REMARK SMILES IDX 52 86 53 87 54 88
REMARK H PARENT 78 41 46 52
REMARK Flexibility Score: inf
ROOT
ATOM      1  C   UNL A   1      35.095  20.219  24.997  1.00  0.00     0.274 C 
ENDROOT
BRANCH   1   2
ATOM      2  O   UNL A   1      33.997  20.966  25.553  1.00  0.00    -0.462 OA
BRANCH   2   3
ATOM      3  C   UNL A   1      32.746  20.552  25.235  1.00  0.00     0.310 C 
ATOM      4  O   UNL A   1      32.408  19.380  25.111  1.00  0.00    -0.252 OA
BRANCH   3   5
ATOM      5  C   UNL A   1      31.780  21.691  25.037  1.00  0.00     0.120 C 
ATOM      6  N   UNL A   1      31.547  23.812  24.053  1.00  0.00    -0.354 N 
ATOM      7  C   UNL A   1      31.067  23.923  25.431  1.00  0.00     0.119 C 
ATOM      8  C   UNL A   1      32.181  22.511  23.821  1.00  0.00     0.133 C 
ATOM      9  C   UNL A   1      31.691  22.732  26.145  1.00  0.00     0.038 C 
BRANCH   6  10
ATOM     10  C   UNL A   1      32.186  24.888  23.469  1.00  0.00     0.148 A 
ATOM     11  C   UNL A   1      32.906  27.076  23.536  1.00  0.00     0.169 A 
ATOM     12  C   UNL A   1      33.548  26.921  22.316  1.00  0.00     0.147 A 
ATOM     13  N   UNL A   1      32.218  26.066  24.125  1.00  0.00    -0.221 NA
ATOM     14  N   UNL A   1      33.539  25.751  21.636  1.00  0.00    -0.258 NA
ATOM     15  C   UNL A   1      32.850  24.750  22.244  1.00  0.00     0.157 A 
BRANCH  11  16
ATOM     16  C   UNL A   1      32.996  28.344  24.305  1.00  0.00     0.358 C 
ATOM     17  O   UNL A   1      32.227  29.285  24.194  1.00  0.00    -0.244 OA
BRANCH  16  18
ATOM     18  O   UNL A   1      34.070  28.301  25.139  1.00  0.00    -0.464 OA
ATOM     19  C   UNL A   1      33.728  28.412  26.521  1.00  0.00     0.282 C 
ENDBRANCH  16  18
ENDBRANCH  11  16
ENDBRANCH   6  10
ENDBRANCH   3   5
ENDBRANCH   2   3
ENDBRANCH   1   2
BRANCH   1  20
ATOM     20  C   UNL A   1      36.254  21.154  24.644  1.00  0.00     0.275 C 
BRANCH  20  21
ATOM     21  O   UNL A   1      36.945  21.611  25.821  1.00  0.00    -0.458 OA
BRANCH  21  22
ATOM     22  C   UNL A   1      38.273  21.345  25.844  1.00  0.00     0.338 C 
ATOM     23  O   UNL A   1      38.840  20.379  25.365  1.00  0.00    -0.246 OA
BRANCH  22  24
ATOM     24  C   UNL A   1      38.993  22.484  26.433  1.00  0.00     0.060 A 
ATOM     25  C   UNL A   1      38.542  23.772  26.136  1.00  0.00     0.016 A 
ATOM     26  C   UNL A   1      40.145  22.294  27.195  1.00  0.00     0.016 A 
ATOM     27  C   UNL A   1      39.246  24.883  26.588  1.00  0.00     0.010 A 
ATOM     28  C   UNL A   1      40.848  23.411  27.656  1.00  0.00     0.010 A 
ATOM     29  C   UNL A   1      40.409  24.710  27.345  1.00  0.00    -0.014 A 
BRANCH  29  30
ATOM     30  C   UNL A   1      41.196  25.893  27.765  1.00  0.00     0.031 A 
ATOM     31  C   UNL A   1      40.536  26.974  28.572  1.00  0.00     0.074 A 
ATOM     32  C   UNL A   1      42.497  25.985  27.434  1.00  0.00     0.049 A 
ATOM     33  N   UNL A   1      40.999  28.142  28.928  1.00  0.00    -0.248 NA
ATOM     34  C   UNL A   1      39.169  26.697  29.034  1.00  0.00     0.031 C 
ATOM     35  C   UNL A   1      43.256  24.964  26.710  1.00  0.00     0.029 A 
ATOM     36  N   UNL A   1      43.408  26.986  27.655  1.00  0.00    -0.354 N 
ATOM     37  C   UNL A   1      39.973  28.755  29.640  1.00  0.00     0.074 A 
ATOM     38  C   UNL A   1      38.857  27.832  29.642  1.00  0.00     0.031 C 
ATOM     39  C   UNL A   1      44.518  25.395  26.543  1.00  0.00     0.029 A 
ATOM     40  C   UNL A   1      44.638  26.743  27.092  1.00  0.00     0.049 A 
ATOM     41  H   UNL A   1      43.200  27.800  28.168  1.00  0.00     0.167 HD
ATOM     42  C   UNL A   1      39.968  29.975  30.233  1.00  0.00     0.034 A 
ATOM     43  C   UNL A   1      45.724  27.534  26.993  1.00  0.00     0.034 A 
ATOM     44  C   UNL A   1      41.094  30.878  30.213  1.00  0.00     0.049 A 
ATOM     45  C   UNL A   1      45.667  28.919  27.584  1.00  0.00     0.074 A 
ATOM     46  C   UNL A   1      41.201  32.141  30.772  1.00  0.00     0.029 A 
ATOM     47  N   UNL A   1      42.312  30.616  29.596  1.00  0.00    -0.354 N 
ATOM     48  N   UNL A   1      44.678  29.507  28.217  1.00  0.00    -0.248 NA
ATOM     49  C   UNL A   1      46.871  29.747  27.443  1.00  0.00     0.031 C 
ATOM     50  C   UNL A   1      42.458  32.663  30.441  1.00  0.00     0.029 A 
ATOM     51  C   UNL A   1      43.164  31.701  29.737  1.00  0.00     0.049 A 
ATOM     52  H   UNL A   1      42.537  29.780  29.126  1.00  0.00     0.167 HD
ATOM     53  C   UNL A   1      45.151  30.767  28.572  1.00  0.00     0.074 A 
ATOM     54  C   UNL A   1      46.516  30.847  28.092  1.00  0.00     0.031 C 
ATOM     55  C   UNL A   1      44.519  31.766  29.239  1.00  0.00     0.034 A 
BRANCH  42  56
ATOM     56  C   UNL A   1      38.683  30.416  30.890  1.00  0.00     0.023 A 
ATOM     57  C   UNL A   1      37.648  31.030  30.162  1.00  0.00     0.031 A 
ATOM     58  C   UNL A   1      38.509  30.260  32.277  1.00  0.00     0.131 A 
ATOM     59  C   UNL A   1      36.523  31.533  30.834  1.00  0.00     0.055 A 
ATOM     60  C   UNL A   1      37.352  30.692  32.928  1.00  0.00     0.041 A 
ATOM     61  F   UNL A   1      39.471  29.702  33.029  1.00  0.00    -0.206 F 
ATOM     62  C   UNL A   1      36.357  31.347  32.209  1.00  0.00     0.022 A 
BRANCH  59  63
ATOM     63  S   UNL A   1      35.348  32.561  29.910  1.00  0.00     0.124 S 
ATOM     64  O   UNL A   1      34.883  31.629  28.885  1.00  0.00    -0.237 OA
ATOM     65  O   UNL A   1      34.375  32.925  30.932  1.00  0.00    -0.237 OA
ATOM     66  O   UNL A   1      36.173  33.661  29.413  1.00  0.00    -0.744 OA
ENDBRANCH  59  63
ENDBRANCH  42  56
BRANCH  43  67
ATOM     67  C   UNL A   1      46.932  27.065  26.259  1.00  0.00     0.023 A 
ATOM     68  C   UNL A   1      47.986  26.424  26.928  1.00  0.00     0.031 A 
ATOM     69  C   UNL A   1      47.064  27.283  24.875  1.00  0.00     0.131 A 
ATOM     70  C   UNL A   1      49.141  26.057  26.221  1.00  0.00     0.055 A 
ATOM     71  C   UNL A   1      48.193  26.872  24.167  1.00  0.00     0.041 A 
ATOM     72  F   UNL A   1      46.084  27.892  24.187  1.00  0.00    -0.206 F 
ATOM     73  C   UNL A   1      49.247  26.264  24.843  1.00  0.00     0.022 A 
BRANCH  70  74
ATOM     74  S   UNL A   1      50.541  25.365  27.143  1.00  0.00     0.124 S 
ATOM     75  O   UNL A   1      50.937  26.496  27.975  1.00  0.00    -0.237 OA
ATOM     76  O   UNL A   1      49.922  24.242  27.837  1.00  0.00    -0.237 OA
ATOM     77  O   UNL A   1      51.491  24.999  26.094  1.00  0.00    -0.744 OA
ENDBRANCH  70  74
ENDBRANCH  43  67
BRANCH  55  78
ATOM     78  C   UNL A   1      45.324  33.007  29.526  1.00  0.00     0.023 A 
ATOM     79  C   UNL A   1      45.332  34.105  28.649  1.00  0.00     0.031 A 
ATOM     80  C   UNL A   1      46.110  33.082  30.690  1.00  0.00     0.131 A 
ATOM     81  C   UNL A   1      46.151  35.211  28.922  1.00  0.00     0.055 A 
ATOM     82  C   UNL A   1      46.881  34.207  30.984  1.00  0.00     0.041 A 
ATOM     83  F   UNL A   1      46.140  32.061  31.561  1.00  0.00    -0.206 F 
ATOM     84  C   UNL A   1      46.914  35.275  30.091  1.00  0.00     0.022 A 
BRANCH  81  85
ATOM     85  S   UNL A   1      46.269  36.535  27.687  1.00  0.00     0.124 S 
ATOM     86  O   UNL A   1      46.899  35.847  26.564  1.00  0.00    -0.237 OA
ATOM     87  O   UNL A   1      44.873  36.915  27.501  1.00  0.00    -0.237 OA
ATOM     88  O   UNL A   1      47.103  37.542  28.343  1.00  0.00    -0.744 OA
ENDBRANCH  81  85
ENDBRANCH  55  78
ENDBRANCH  29  30
ENDBRANCH  22  24
ENDBRANCH  21  22
ENDBRANCH  20  21
ENDBRANCH   1  20
TORSDOF 17
ENDMDL
MODEL 3
REMARK VINA RESULT:     -11.0      1.523      1.838
REMARK SMILES COC(=O)c1cncc(N2CC[C@H](C(=O)OCCOC(=O)c3ccc(-c4c5nc(c(-c6cc(S(=O)(=O)[O-])ccc6F)c6ccc([nH]6)c(-c6cc(S(=O)(=O)[O-])ccc6F)c6nc(c(-c7cc(S(=O)(=O)[O-])ccc7F)c7ccc4[nH]7)C=C6)C=C5)cc3)C2)n1
REMARK SMILES IDX 17 1 16 2 14 3 15 4 13 5 10 6 11 7 85 8 12 9 9 10 5 11 6 12
REMARK SMILES IDX 86 13 7 14 8 15 3 16 4 17 2 18 1 19 18 20 19 21 20 22 21 23
REMARK SMILES IDX 22 24 23 25 84 26 24 27 83 28 25 29 26 30 27 31 77 32 28 33
REMARK SMILES IDX 82 34 76 35 78 36 29 37 81 38 75 39 74 40 30 42 62 43 42 44
REMARK SMILES IDX 61 45 43 46 46 47 60 48 79 49 44 50 45 51 59 53 80 54 47 55
REMARK SMILES IDX 31 56 32 57 40 58 33 59 39 60 41 61 38 62 34 63 35 64 36 65
REMARK SMILES IDX 37 66 63 67 64 68 72 69 65 70 71 71 73 72 70 73 66 74 67 75
REMARK SMILES IDX 68 76 69 77 48 78 49 79 57 80 50 81 56 82 58 83 55 84 51 85
REMARK SMILES IDX 52 86 53 87 54 88
REMARK H PARENT 78 41 46 52
REMARK Flexibility Score: inf
ROOT
ATOM      1  C   UNL A   1      35.358  20.280  25.001  1.00  0.00     0.274 C 
ENDROOT
BRANCH   1   2
ATOM      2  O   UNL A   1      34.218  21.012  25.490  1.00  0.00    -0.462 OA
BRANCH   2   3
ATOM      3  C   UNL A   1      32.999  20.449  25.305  1.00  0.00     0.310 C 
ATOM      4  O   UNL A   1      32.774  19.244  25.330  1.00  0.00    -0.252 OA
BRANCH   3   5
ATOM      5  C   UNL A   1      31.914  21.463  25.053  1.00  0.00     0.120 C 
ATOM      6  N   UNL A   1      31.428  23.456  23.907  1.00  0.00    -0.354 N 
ATOM      7  C   UNL A   1      30.984  23.637  25.289  1.00  0.00     0.119 C 
ATOM      8  C   UNL A   1      32.187  22.211  23.758  1.00  0.00     0.133 C 
ATOM      9  C   UNL A   1      31.753  22.582  26.073  1.00  0.00     0.038 C 
BRANCH   6  10
ATOM     10  C   UNL A   1      31.933  24.537  23.210  1.00  0.00     0.148 A 
ATOM     11  C   UNL A   1      31.914  26.783  22.698  1.00  0.00     0.169 A 
ATOM     12  C   UNL A   1      33.039  26.629  21.901  1.00  0.00     0.147 A 
ATOM     13  N   UNL A   1      31.348  25.743  23.359  1.00  0.00    -0.221 NA
ATOM     14  N   UNL A   1      33.651  25.434  21.735  1.00  0.00    -0.258 NA
ATOM     15  C   UNL A   1      33.073  24.406  22.409  1.00  0.00     0.157 A 
BRANCH  11  16
ATOM     16  C   UNL A   1      31.305  28.118  22.931  1.00  0.00     0.358 C 
ATOM     17  O   UNL A   1      31.629  28.889  23.820  1.00  0.00    -0.244 OA
BRANCH  16  18
ATOM     18  O   UNL A   1      30.326  28.344  22.013  1.00  0.00    -0.464 OA
ATOM     19  C   UNL A   1      29.847  29.689  22.005  1.00  0.00     0.282 C 
ENDBRANCH  16  18
ENDBRANCH  11  16
ENDBRANCH   6  10
ENDBRANCH   3   5
ENDBRANCH   2   3
ENDBRANCH   1   2
BRANCH   1  20
ATOM     20  C   UNL A   1      36.496  21.238  24.642  1.00  0.00     0.275 C 
BRANCH  20  21
ATOM     21  O   UNL A   1      37.098  21.811  25.817  1.00  0.00    -0.458 OA
BRANCH  21  22
ATOM     22  C   UNL A   1      38.404  21.498  26.000  1.00  0.00     0.338 C 
ATOM     23  O   UNL A   1      38.960  20.453  25.709  1.00  0.00    -0.246 OA
BRANCH  22  24
ATOM     24  C   UNL A   1      39.128  22.676  26.499  1.00  0.00     0.060 A 
ATOM     25  C   UNL A   1      38.664  23.940  26.124  1.00  0.00     0.016 A 
ATOM     26  C   UNL A   1      40.295  22.543  27.250  1.00  0.00     0.016 A 
ATOM     27  C   UNL A   1      39.369  25.082  26.489  1.00  0.00     0.010 A 
ATOM     28  C   UNL A   1      40.999  23.692  27.623  1.00  0.00     0.010 A 
ATOM     29  C   UNL A   1      40.546  24.966  27.234  1.00  0.00    -0.014 A 
BRANCH  29  30
ATOM     30  C   UNL A   1      41.334  26.178  27.560  1.00  0.00     0.031 A 
ATOM     31  C   UNL A   1      40.719  27.256  28.404  1.00  0.00     0.074 A 
ATOM     32  C   UNL A   1      42.597  26.298  27.110  1.00  0.00     0.049 A 
ATOM     33  N   UNL A   1      41.179  28.444  28.696  1.00  0.00    -0.248 NA
ATOM     34  C   UNL A   1      39.408  26.951  28.993  1.00  0.00     0.031 C 
ATOM     35  C   UNL A   1      43.317  25.283  26.339  1.00  0.00     0.029 A 
ATOM     36  N   UNL A   1      43.495  27.327  27.230  1.00  0.00    -0.354 N 
ATOM     37  C   UNL A   1      40.205  29.043  29.487  1.00  0.00     0.074 A 
ATOM     38  C   UNL A   1      39.120  28.090  29.607  1.00  0.00     0.031 C 
ATOM     39  C   UNL A   1      44.545  25.744  26.050  1.00  0.00     0.029 A 
ATOM     40  C   UNL A   1      44.676  27.106  26.562  1.00  0.00     0.049 A 
ATOM     41  H   UNL A   1      43.311  28.146  27.745  1.00  0.00     0.167 HD
ATOM     42  C   UNL A   1      40.218  30.273  30.057  1.00  0.00     0.034 A 
ATOM     43  C   UNL A   1      45.725  27.924  26.350  1.00  0.00     0.034 A 
ATOM     44  C   UNL A   1      41.311  31.206  29.918  1.00  0.00     0.049 A 
ATOM     45  C   UNL A   1      45.682  29.319  26.920  1.00  0.00     0.074 A 
ATOM     46  C   UNL A   1      41.432  32.482  30.443  1.00  0.00     0.029 A 
ATOM     47  N   UNL A   1      42.475  30.964  29.198  1.00  0.00    -0.354 N 
ATOM     48  N   UNL A   1      44.738  29.893  27.629  1.00  0.00    -0.248 NA
ATOM     49  C   UNL A   1      46.844  30.176  26.655  1.00  0.00     0.031 C 
ATOM     50  C   UNL A   1      42.638  33.031  29.990  1.00  0.00     0.029 A 
ATOM     51  C   UNL A   1      43.305  32.075  29.242  1.00  0.00     0.049 A 
ATOM     52  H   UNL A   1      42.681  30.126  28.725  1.00  0.00     0.167 HD
ATOM     53  C   UNL A   1      45.205  31.172  27.918  1.00  0.00     0.074 A 
ATOM     54  C   UNL A   1      46.518  31.279  27.314  1.00  0.00     0.031 C 
ATOM     55  C   UNL A   1      44.607  32.166  28.622  1.00  0.00     0.034 A 
BRANCH  42  56
ATOM     56  C   UNL A   1      38.985  30.693  30.820  1.00  0.00     0.023 A 
ATOM     57  C   UNL A   1      37.844  31.195  30.171  1.00  0.00     0.031 A 
ATOM     58  C   UNL A   1      38.970  30.632  32.225  1.00  0.00     0.131 A 
ATOM     59  C   UNL A   1      36.767  31.685  30.927  1.00  0.00     0.055 A 
ATOM     60  C   UNL A   1      37.864  31.049  32.969  1.00  0.00     0.041 A 
ATOM     61  F   UNL A   1      40.039  30.184  32.902  1.00  0.00    -0.206 F 
ATOM     62  C   UNL A   1      36.760  31.595  32.321  1.00  0.00     0.022 A 
BRANCH  59  63
ATOM     63  S   UNL A   1      35.440  32.578  30.070  1.00  0.00     0.124 S 
ATOM     64  O   UNL A   1      36.107  33.827  29.712  1.00  0.00    -0.237 OA
ATOM     65  O   UNL A   1      35.121  31.683  28.965  1.00  0.00    -0.237 OA
ATOM     66  O   UNL A   1      34.400  32.706  31.090  1.00  0.00    -0.744 OA
ENDBRANCH  59  63
ENDBRANCH  42  56
BRANCH  43  67
ATOM     67  C   UNL A   1      46.874  27.473  25.518  1.00  0.00     0.023 A 
ATOM     68  C   UNL A   1      47.013  27.886  24.184  1.00  0.00     0.031 A 
ATOM     69  C   UNL A   1      47.838  26.588  26.038  1.00  0.00     0.131 A 
ATOM     70  C   UNL A   1      48.068  27.388  23.405  1.00  0.00     0.055 A 
ATOM     71  C   UNL A   1      48.913  26.135  25.275  1.00  0.00     0.041 A 
ATOM     72  F   UNL A   1      47.752  26.162  27.309  1.00  0.00    -0.206 F 
ATOM     73  C   UNL A   1      49.027  26.527  23.944  1.00  0.00     0.022 A 
BRANCH  70  74
ATOM     74  S   UNL A   1      48.132  27.829  21.646  1.00  0.00     0.124 S 
ATOM     75  O   UNL A   1      48.329  26.527  21.020  1.00  0.00    -0.237 OA
ATOM     76  O   UNL A   1      46.829  28.451  21.442  1.00  0.00    -0.237 OA
ATOM     77  O   UNL A   1      49.274  28.739  21.565  1.00  0.00    -0.744 OA
ENDBRANCH  70  74
ENDBRANCH  43  67
BRANCH  55  78
ATOM     78  C   UNL A   1      45.399  33.434  28.812  1.00  0.00     0.023 A 
ATOM     79  C   UNL A   1      46.260  33.612  29.909  1.00  0.00     0.031 A 
ATOM     80  C   UNL A   1      45.274  34.487  27.889  1.00  0.00     0.131 A 
ATOM     81  C   UNL A   1      46.925  34.836  30.083  1.00  0.00     0.055 A 
ATOM     82  C   UNL A   1      45.978  35.683  28.039  1.00  0.00     0.041 A 
ATOM     83  F   UNL A   1      44.463  34.371  26.825  1.00  0.00    -0.206 F 
ATOM     84  C   UNL A   1      46.800  35.867  29.148  1.00  0.00     0.022 A 
BRANCH  81  85
ATOM     85  S   UNL A   1      47.893  35.095  31.595  1.00  0.00     0.124 S 
ATOM     86  O   UNL A   1      46.906  35.691  32.490  1.00  0.00    -0.237 OA
ATOM     87  O   UNL A   1      48.320  33.740  31.929  1.00  0.00    -0.237 OA
ATOM     88  O   UNL A   1      48.964  35.993  31.167  1.00  0.00    -0.744 OA
ENDBRANCH  81  85
ENDBRANCH  55  78
ENDBRANCH  29  30
ENDBRANCH  22  24
ENDBRANCH  21  22
ENDBRANCH  20  21
ENDBRANCH   1  20
TORSDOF 17
ENDMDL
