MODEL 1
REMARK VINA RESULT:     -12.0      0.000      0.000
REMARK SMILES N#C/C(=C/c1cc2c(cc1Br)OCO2)C(=O)OCCOC(=O)c1ccc(-c2c3nc(c(-c4cc(S(=O)(=O)[O-])ccc4F)c4ccc([nH]4)c(-c4cc(S(=O)(=O)[O-])ccc4F)c4nc(c(-c5cc(S(=O)(=O)[O-])ccc5F)c5ccc2[nH]5)C=C4)C=C3)cc1
REMARK SMILES IDX 19 1 18 2 17 3 15 4 16 5 3 6 4 7 2 8 1 9 5 10 6 11 10 12
REMARK SMILES IDX 7 13 9 14 11 15 8 16 14 17 12 18 13 19 20 20 21 21 22 22
REMARK SMILES IDX 23 23 24 24 85 25 25 26 84 27 26 28 27 29 28 30 78 31 29 32
REMARK SMILES IDX 83 33 77 34 79 35 30 36 82 37 76 38 75 39 31 41 63 42 43 43
REMARK SMILES IDX 62 44 44 45 47 46 61 47 80 48 45 49 46 50 60 52 81 53 48 54
REMARK SMILES IDX 32 55 33 56 41 57 34 58 40 59 42 60 39 61 35 62 36 63 37 64
REMARK SMILES IDX 38 65 64 66 65 67 73 68 66 69 72 70 74 71 71 72 67 73 68 74
REMARK SMILES IDX 69 75 70 76 49 77 50 78 58 79 51 80 57 81 59 82 56 83 52 84
REMARK SMILES IDX 53 85 54 86 55 87
REMARK H PARENT 79 40 47 51
REMARK Flexibility Score: inf
ROOT
ATOM      1  C   UNL A   1      31.794  29.619  26.945  1.00  0.00     0.275 C 
ENDROOT
BRANCH   1   2
ATOM      2  C   UNL A   1      32.011  28.310  27.699  1.00  0.00     0.275 C 
BRANCH   2   3
ATOM      3  O   UNL A   1      31.350  27.218  27.029  1.00  0.00    -0.458 OA
BRANCH   3   4
ATOM      4  C   UNL A   1      32.158  26.303  26.442  1.00  0.00     0.349 C 
ATOM      5  O   UNL A   1      33.351  26.440  26.224  1.00  0.00    -0.245 OA
BRANCH   4   6
ATOM      6  C   UNL A   1      31.410  25.076  26.076  1.00  0.00     0.138 C 
ATOM      7  C   UNL A   1      30.718  24.983  24.920  1.00  0.00     0.036 C 
BRANCH   6   8
ATOM      8  C   UNL A   1      31.678  23.819  26.888  1.00  0.00     0.107 C 
ATOM      9  N   UNL A   1      31.901  22.776  27.561  1.00  0.00    -0.192 NA
ENDBRANCH   6   8
BRANCH   7  10
ATOM     10  C   UNL A   1      30.509  26.076  23.948  1.00  0.00    -0.006 A 
ATOM     11  C   UNL A   1      29.270  26.737  24.007  1.00  0.00     0.060 A 
ATOM     12  C   UNL A   1      31.480  26.520  23.009  1.00  0.00     0.029 A 
ATOM     13  C   UNL A   1      29.070  27.833  23.193  1.00  0.00     0.166 A 
ATOM     14  C   UNL A   1      31.260  27.658  22.221  1.00  0.00     0.067 A 
ATOM     15  Br  UNL A   1      33.113  25.591  22.711  1.00  0.00    -0.050 Br
ATOM     16  C   UNL A   1      30.046  28.293  22.342  1.00  0.00     0.166 A 
ATOM     17  O   UNL A   1      27.937  28.582  23.134  1.00  0.00    -0.454 OA
ATOM     18  O   UNL A   1      29.658  29.402  21.657  1.00  0.00    -0.454 OA
ATOM     19  C   UNL A   1      28.316  29.573  22.157  1.00  0.00     0.468 C 
ENDBRANCH   7  10
ENDBRANCH   4   6
ENDBRANCH   3   4
ENDBRANCH   2   3
ENDBRANCH   1   2
BRANCH   1  20
ATOM     20  O   UNL A   1      33.052  30.157  26.501  1.00  0.00    -0.458 OA
BRANCH  20  21
ATOM     21  C   UNL A   1      33.514  31.202  27.224  1.00  0.00     0.338 C 
ATOM     22  O   UNL A   1      32.875  32.170  27.613  1.00  0.00    -0.246 OA
BRANCH  21  23
ATOM     23  C   UNL A   1      34.903  30.956  27.625  1.00  0.00     0.060 A 
ATOM     24  C   UNL A   1      35.278  29.644  27.883  1.00  0.00     0.016 A 
ATOM     25  C   UNL A   1      35.774  31.996  27.930  1.00  0.00     0.016 A 
ATOM     26  C   UNL A   1      36.451  29.362  28.563  1.00  0.00     0.010 A 
ATOM     27  C   UNL A   1      37.021  31.699  28.498  1.00  0.00     0.010 A 
ATOM     28  C   UNL A   1      37.355  30.379  28.860  1.00  0.00    -0.014 A 
BRANCH  28  29
ATOM     29  C   UNL A   1      38.597  30.054  29.615  1.00  0.00     0.031 A 
ATOM     30  C   UNL A   1      39.625  29.151  28.990  1.00  0.00     0.074 A 
ATOM     31  C   UNL A   1      38.839  30.608  30.822  1.00  0.00     0.049 A 
ATOM     32  N   UNL A   1      40.639  28.539  29.542  1.00  0.00    -0.248 NA
ATOM     33  C   UNL A   1      39.473  28.885  27.552  1.00  0.00     0.031 C 
ATOM     34  C   UNL A   1      37.987  31.594  31.493  1.00  0.00     0.029 A 
ATOM     35  N   UNL A   1      39.884  30.435  31.695  1.00  0.00    -0.354 N 
ATOM     36  C   UNL A   1      41.196  27.749  28.541  1.00  0.00     0.074 A 
ATOM     37  C   UNL A   1      40.406  27.966  27.347  1.00  0.00     0.031 C 
ATOM     38  C   UNL A   1      38.570  31.977  32.638  1.00  0.00     0.029 A 
ATOM     39  C   UNL A   1      39.764  31.172  32.852  1.00  0.00     0.049 A 
ATOM     40  H   UNL A   1      40.647  29.841  31.512  1.00  0.00     0.167 HD
ATOM     41  C   UNL A   1      42.259  26.911  28.628  1.00  0.00     0.034 A 
ATOM     42  C   UNL A   1      40.491  31.153  33.987  1.00  0.00     0.034 A 
ATOM     43  C   UNL A   1      43.064  26.774  29.819  1.00  0.00     0.049 A 
ATOM     44  C   UNL A   1      41.626  30.170  34.086  1.00  0.00     0.074 A 
ATOM     45  C   UNL A   1      44.163  25.961  30.032  1.00  0.00     0.029 A 
ATOM     46  N   UNL A   1      42.864  27.484  30.998  1.00  0.00    -0.354 N 
ATOM     47  N   UNL A   1      42.070  29.328  33.181  1.00  0.00    -0.248 NA
ATOM     48  C   UNL A   1      42.338  30.112  35.366  1.00  0.00     0.031 C 
ATOM     49  C   UNL A   1      44.589  26.135  31.353  1.00  0.00     0.029 A 
ATOM     50  C   UNL A   1      43.803  27.109  31.947  1.00  0.00     0.049 A 
ATOM     51  H   UNL A   1      42.159  28.156  31.138  1.00  0.00     0.167 HD
ATOM     52  C   UNL A   1      43.125  28.649  33.781  1.00  0.00     0.074 A 
ATOM     53  C   UNL A   1      43.262  29.196  35.116  1.00  0.00     0.031 C 
ATOM     54  C   UNL A   1      43.909  27.660  33.279  1.00  0.00     0.034 A 
BRANCH  41  55
ATOM     55  C   UNL A   1      42.541  26.019  27.440  1.00  0.00     0.023 A 
ATOM     56  C   UNL A   1      42.057  24.703  27.344  1.00  0.00     0.031 A 
ATOM     57  C   UNL A   1      43.366  26.493  26.402  1.00  0.00     0.131 A 
ATOM     58  C   UNL A   1      42.463  23.885  26.277  1.00  0.00     0.055 A 
ATOM     59  C   UNL A   1      43.698  25.701  25.301  1.00  0.00     0.041 A 
ATOM     60  F   UNL A   1      43.881  27.732  26.448  1.00  0.00    -0.206 F 
ATOM     61  C   UNL A   1      43.260  24.383  25.243  1.00  0.00     0.022 A 
BRANCH  58  62
ATOM     62  S   UNL A   1      42.064  22.115  26.334  1.00  0.00     0.124 S 
ATOM     63  O   UNL A   1      42.841  21.600  25.209  1.00  0.00    -0.237 OA
ATOM     64  O   UNL A   1      42.527  21.729  27.661  1.00  0.00    -0.237 OA
ATOM     65  O   UNL A   1      40.615  22.083  26.145  1.00  0.00    -0.744 OA
ENDBRANCH  58  62
ENDBRANCH  41  55
BRANCH  42  66
ATOM     66  C   UNL A   1      40.113  32.014  35.146  1.00  0.00     0.023 A 
ATOM     67  C   UNL A   1      39.207  31.565  36.120  1.00  0.00     0.031 A 
ATOM     68  C   UNL A   1      40.627  33.318  35.280  1.00  0.00     0.131 A 
ATOM     69  C   UNL A   1      38.822  32.422  37.165  1.00  0.00     0.055 A 
ATOM     70  C   UNL A   1      40.288  34.143  36.353  1.00  0.00     0.041 A 
ATOM     71  F   UNL A   1      41.489  33.807  34.372  1.00  0.00    -0.206 F 
ATOM     72  C   UNL A   1      39.370  33.699  37.297  1.00  0.00     0.022 A 
BRANCH  69  73
ATOM     73  S   UNL A   1      37.523  31.875  38.306  1.00  0.00     0.124 S 
ATOM     74  O   UNL A   1      36.472  32.854  38.053  1.00  0.00    -0.237 OA
ATOM     75  O   UNL A   1      37.260  30.517  37.842  1.00  0.00    -0.237 OA
ATOM     76  O   UNL A   1      38.159  31.969  39.619  1.00  0.00    -0.744 OA
ENDBRANCH  69  73
ENDBRANCH  42  66
BRANCH  54  77
ATOM     77  C   UNL A   1      45.006  27.150  34.176  1.00  0.00     0.023 A 
ATOM     78  C   UNL A   1      44.785  26.107  35.092  1.00  0.00     0.031 A 
ATOM     79  C   UNL A   1      46.282  27.740  34.134  1.00  0.00     0.131 A 
ATOM     80  C   UNL A   1      45.809  25.723  35.970  1.00  0.00     0.055 A 
ATOM     81  C   UNL A   1      47.314  27.314  34.969  1.00  0.00     0.041 A 
ATOM     82  F   UNL A   1      46.542  28.743  33.280  1.00  0.00    -0.206 F 
ATOM     83  C   UNL A   1      47.077  26.309  35.904  1.00  0.00     0.022 A 
BRANCH  80  84
ATOM     84  S   UNL A   1      45.436  24.510  37.265  1.00  0.00     0.124 S 
ATOM     85  O   UNL A   1      44.096  24.911  37.681  1.00  0.00    -0.237 OA
ATOM     86  O   UNL A   1      45.530  23.244  36.547  1.00  0.00    -0.237 OA
ATOM     87  O   UNL A   1      46.486  24.736  38.259  1.00  0.00    -0.744 OA
ENDBRANCH  80  84
ENDBRANCH  54  77
ENDBRANCH  28  29
ENDBRANCH  21  23
ENDBRANCH  20  21
ENDBRANCH   1  20
TORSDOF 16
ENDMDL
MODEL 2
REMARK VINA RESULT:     -11.7      5.670     10.348
REMARK SMILES N#C/C(=C/c1cc2c(cc1Br)OCO2)C(=O)OCCOC(=O)c1ccc(-c2c3nc(c(-c4cc(S(=O)(=O)[O-])ccc4F)c4ccc([nH]4)c(-c4cc(S(=O)(=O)[O-])ccc4F)c4nc(c(-c5cc(S(=O)(=O)[O-])ccc5F)c5ccc2[nH]5)C=C4)C=C3)cc1
REMARK SMILES IDX 19 1 18 2 17 3 15 4 16 5 3 6 4 7 2 8 1 9 5 10 6 11 10 12
REMARK SMILES IDX 7 13 9 14 11 15 8 16 14 17 12 18 13 19 20 20 21 21 22 22
REMARK SMILES IDX 23 23 24 24 85 25 25 26 84 27 26 28 27 29 28 30 78 31 29 32
REMARK SMILES IDX 83 33 77 34 79 35 30 36 82 37 76 38 75 39 31 41 63 42 43 43
REMARK SMILES IDX 62 44 44 45 47 46 61 47 80 48 45 49 46 50 60 52 81 53 48 54
REMARK SMILES IDX 32 55 33 56 41 57 34 58 40 59 42 60 39 61 35 62 36 63 37 64
REMARK SMILES IDX 38 65 64 66 65 67 73 68 66 69 72 70 74 71 71 72 67 73 68 74
REMARK SMILES IDX 69 75 70 76 49 77 50 78 58 79 51 80 57 81 59 82 56 83 52 84
REMARK SMILES IDX 53 85 54 86 55 87
REMARK H PARENT 79 40 47 51
REMARK Flexibility Score: inf
ROOT
ATOM      1  C   UNL A   1      36.284  20.949  24.976  1.00  0.00     0.275 C 
ENDROOT
BRANCH   1   2
ATOM      2  C   UNL A   1      35.450  21.449  26.153  1.00  0.00     0.275 C 
BRANCH   2   3
ATOM      3  O   UNL A   1      34.836  22.716  25.842  1.00  0.00    -0.458 OA
BRANCH   3   4
ATOM      4  C   UNL A   1      33.950  22.712  24.817  1.00  0.00     0.349 C 
ATOM      5  O   UNL A   1      34.230  22.778  23.631  1.00  0.00    -0.245 OA
BRANCH   4   6
ATOM      6  C   UNL A   1      32.554  22.622  25.310  1.00  0.00     0.138 C 
ATOM      7  C   UNL A   1      31.859  21.465  25.270  1.00  0.00     0.036 C 
BRANCH   6   8
ATOM      8  C   UNL A   1      32.021  23.785  26.131  1.00  0.00     0.107 C 
ATOM      9  N   UNL A   1      31.579  24.750  26.812  1.00  0.00    -0.192 NA
ENDBRANCH   6   8
BRANCH   7  10
ATOM     10  C   UNL A   1      32.314  20.203  24.650  1.00  0.00    -0.006 A 
ATOM     11  C   UNL A   1      32.795  19.215  25.526  1.00  0.00     0.060 A 
ATOM     12  C   UNL A   1      32.253  19.919  23.259  1.00  0.00     0.029 A 
ATOM     13  C   UNL A   1      33.129  17.982  25.004  1.00  0.00     0.166 A 
ATOM     14  C   UNL A   1      32.567  18.646  22.765  1.00  0.00     0.067 A 
ATOM     15  Br  UNL A   1      31.797  21.237  21.964  1.00  0.00    -0.050 Br
ATOM     16  C   UNL A   1      32.997  17.700  23.665  1.00  0.00     0.166 A 
ATOM     17  O   UNL A   1      33.601  16.922  25.712  1.00  0.00    -0.454 OA
ATOM     18  O   UNL A   1      33.347  16.420  23.367  1.00  0.00    -0.454 OA
ATOM     19  C   UNL A   1      33.739  15.936  24.669  1.00  0.00     0.468 C 
ENDBRANCH   7  10
ENDBRANCH   4   6
ENDBRANCH   3   4
ENDBRANCH   2   3
ENDBRANCH   1   2
BRANCH   1  20
ATOM     20  O   UNL A   1      37.505  21.701  24.871  1.00  0.00    -0.458 OA
BRANCH  20  21
ATOM     21  C   UNL A   1      38.527  21.238  25.625  1.00  0.00     0.338 C 
ATOM     22  O   UNL A   1      38.988  20.105  25.627  1.00  0.00    -0.246 OA
BRANCH  21  23
ATOM     23  C   UNL A   1      39.137  22.343  26.374  1.00  0.00     0.060 A 
ATOM     24  C   UNL A   1      38.685  23.629  26.108  1.00  0.00     0.016 A 
ATOM     25  C   UNL A   1      40.256  22.155  27.178  1.00  0.00     0.016 A 
ATOM     26  C   UNL A   1      39.409  24.735  26.521  1.00  0.00     0.010 A 
ATOM     27  C   UNL A   1      40.912  23.276  27.706  1.00  0.00     0.010 A 
ATOM     28  C   UNL A   1      40.520  24.581  27.347  1.00  0.00    -0.014 A 
BRANCH  28  29
ATOM     29  C   UNL A   1      41.297  25.784  27.756  1.00  0.00     0.031 A 
ATOM     30  C   UNL A   1      40.645  26.822  28.628  1.00  0.00     0.074 A 
ATOM     31  C   UNL A   1      42.594  25.922  27.407  1.00  0.00     0.049 A 
ATOM     32  N   UNL A   1      41.029  28.042  28.895  1.00  0.00    -0.248 NA
ATOM     33  C   UNL A   1      39.377  26.438  29.265  1.00  0.00     0.031 C 
ATOM     34  C   UNL A   1      43.387  24.936  26.667  1.00  0.00     0.029 A 
ATOM     35  N   UNL A   1      43.483  26.940  27.643  1.00  0.00    -0.354 N 
ATOM     36  C   UNL A   1      40.010  28.601  29.660  1.00  0.00     0.074 A 
ATOM     37  C   UNL A   1      38.995  27.581  29.816  1.00  0.00     0.031 C 
ATOM     38  C   UNL A   1      44.650  25.371  26.562  1.00  0.00     0.029 A 
ATOM     39  C   UNL A   1      44.730  26.721  27.103  1.00  0.00     0.049 A 
ATOM     40  H   UNL A   1      43.251  27.752  28.151  1.00  0.00     0.167 HD
ATOM     41  C   UNL A   1      39.933  29.857  30.166  1.00  0.00     0.034 A 
ATOM     42  C   UNL A   1      45.797  27.537  26.993  1.00  0.00     0.034 A 
ATOM     43  C   UNL A   1      40.998  30.825  30.047  1.00  0.00     0.049 A 
ATOM     44  C   UNL A   1      45.668  28.947  27.503  1.00  0.00     0.074 A 
ATOM     45  C   UNL A   1      41.042  32.126  30.515  1.00  0.00     0.029 A 
ATOM     46  N   UNL A   1      42.220  30.588  29.426  1.00  0.00    -0.354 N 
ATOM     47  N   UNL A   1      44.652  29.514  28.112  1.00  0.00    -0.248 NA
ATOM     48  C   UNL A   1      46.816  29.833  27.286  1.00  0.00     0.031 C 
ATOM     49  C   UNL A   1      42.261  32.693  30.126  1.00  0.00     0.029 A 
ATOM     50  C   UNL A   1      43.012  31.726  29.477  1.00  0.00     0.049 A 
ATOM     51  H   UNL A   1      42.485  29.736  29.011  1.00  0.00     0.167 HD
ATOM     52  C   UNL A   1      45.046  30.824  28.362  1.00  0.00     0.074 A 
ATOM     53  C   UNL A   1      46.398  30.953  27.858  1.00  0.00     0.031 C 
ATOM     54  C   UNL A   1      44.354  31.833  28.952  1.00  0.00     0.034 A 
BRANCH  41  55
ATOM     55  C   UNL A   1      38.626  30.273  30.800  1.00  0.00     0.023 A 
ATOM     56  C   UNL A   1      37.598  30.907  30.081  1.00  0.00     0.031 A 
ATOM     57  C   UNL A   1      38.434  30.074  32.181  1.00  0.00     0.131 A 
ATOM     58  C   UNL A   1      36.463  31.385  30.757  1.00  0.00     0.055 A 
ATOM     59  C   UNL A   1      37.266  30.477  32.831  1.00  0.00     0.041 A 
ATOM     60  F   UNL A   1      39.389  29.498  32.928  1.00  0.00    -0.206 F 
ATOM     61  C   UNL A   1      36.280  31.152  32.122  1.00  0.00     0.022 A 
BRANCH  58  62
ATOM     62  S   UNL A   1      35.299  32.450  29.861  1.00  0.00     0.124 S 
ATOM     63  O   UNL A   1      36.185  33.493  29.349  1.00  0.00    -0.237 OA
ATOM     64  O   UNL A   1      34.739  31.543  28.867  1.00  0.00    -0.237 OA
ATOM     65  O   UNL A   1      34.368  32.891  30.898  1.00  0.00    -0.744 OA
ENDBRANCH  58  62
ENDBRANCH  41  55
BRANCH  42  66
ATOM     66  C   UNL A   1      47.034  27.080  26.293  1.00  0.00     0.023 A 
ATOM     67  C   UNL A   1      48.054  26.407  26.985  1.00  0.00     0.031 A 
ATOM     68  C   UNL A   1      47.233  27.343  24.924  1.00  0.00     0.131 A 
ATOM     69  C   UNL A   1      49.234  26.046  26.313  1.00  0.00     0.055 A 
ATOM     70  C   UNL A   1      48.381  26.928  24.248  1.00  0.00     0.041 A 
ATOM     71  F   UNL A   1      46.298  27.994  24.213  1.00  0.00    -0.206 F 
ATOM     72  C   UNL A   1      49.396  26.286  24.947  1.00  0.00     0.022 A 
BRANCH  69  73
ATOM     73  S   UNL A   1      50.599  25.333  27.272  1.00  0.00     0.124 S 
ATOM     74  O   UNL A   1      50.985  26.455  28.120  1.00  0.00    -0.237 OA
ATOM     75  O   UNL A   1      49.948  24.214  27.945  1.00  0.00    -0.237 OA
ATOM     76  O   UNL A   1      51.575  24.960  26.250  1.00  0.00    -0.744 OA
ENDBRANCH  69  73
ENDBRANCH  42  66
BRANCH  54  77
ATOM     77  C   UNL A   1      45.080  33.143  29.113  1.00  0.00     0.023 A 
ATOM     78  C   UNL A   1      45.282  34.013  28.028  1.00  0.00     0.031 A 
ATOM     79  C   UNL A   1      45.603  33.509  30.366  1.00  0.00     0.131 A 
ATOM     80  C   UNL A   1      46.039  35.180  28.203  1.00  0.00     0.055 A 
ATOM     81  C   UNL A   1      46.305  34.700  30.547  1.00  0.00     0.041 A 
ATOM     82  F   UNL A   1      45.441  32.710  31.433  1.00  0.00    -0.206 F 
ATOM     83  C   UNL A   1      46.539  35.537  29.459  1.00  0.00     0.022 A 
BRANCH  80  84
ATOM     84  S   UNL A   1      46.445  36.182  26.747  1.00  0.00     0.124 S 
ATOM     85  O   UNL A   1      47.878  35.947  26.605  1.00  0.00    -0.237 OA
ATOM     86  O   UNL A   1      45.597  35.594  25.715  1.00  0.00    -0.237 OA
ATOM     87  O   UNL A   1      46.076  37.538  27.150  1.00  0.00    -0.744 OA
ENDBRANCH  80  84
ENDBRANCH  54  77
ENDBRANCH  28  29
ENDBRANCH  21  23
ENDBRANCH  20  21
ENDBRANCH   1  20
TORSDOF 16
ENDMDL
MODEL 3
REMARK VINA RESULT:     -11.6      1.840      2.177
REMARK SMILES N#C/C(=C/c1cc2c(cc1Br)OCO2)C(=O)OCCOC(=O)c1ccc(-c2c3nc(c(-c4cc(S(=O)(=O)[O-])ccc4F)c4ccc([nH]4)c(-c4cc(S(=O)(=O)[O-])ccc4F)c4nc(c(-c5cc(S(=O)(=O)[O-])ccc5F)c5ccc2[nH]5)C=C4)C=C3)cc1
REMARK SMILES IDX 19 1 18 2 17 3 15 4 16 5 3 6 4 7 2 8 1 9 5 10 6 11 10 12
REMARK SMILES IDX 7 13 9 14 11 15 8 16 14 17 12 18 13 19 20 20 21 21 22 22
REMARK SMILES IDX 23 23 24 24 85 25 25 26 84 27 26 28 27 29 28 30 78 31 29 32
REMARK SMILES IDX 83 33 77 34 79 35 30 36 82 37 76 38 75 39 31 41 63 42 43 43
REMARK SMILES IDX 62 44 44 45 47 46 61 47 80 48 45 49 46 50 60 52 81 53 48 54
REMARK SMILES IDX 32 55 33 56 41 57 34 58 40 59 42 60 39 61 35 62 36 63 37 64
REMARK SMILES IDX 38 65 64 66 65 67 73 68 66 69 72 70 74 71 71 72 67 73 68 74
REMARK SMILES IDX 69 75 70 76 49 77 50 78 58 79 51 80 57 81 59 82 56 83 52 84
REMARK SMILES IDX 53 85 54 86 55 87
REMARK H PARENT 79 40 47 51
REMARK Flexibility Score: inf
ROOT
ATOM      1  C   UNL A   1      31.583  29.609  27.239  1.00  0.00     0.275 C 
ENDROOT
BRANCH   1   2
ATOM      2  C   UNL A   1      31.766  28.201  27.802  1.00  0.00     0.275 C 
BRANCH   2   3
ATOM      3  O   UNL A   1      31.110  27.227  26.966  1.00  0.00    -0.458 OA
BRANCH   3   4
ATOM      4  C   UNL A   1      31.918  26.334  26.347  1.00  0.00     0.349 C 
ATOM      5  O   UNL A   1      33.115  26.470  26.152  1.00  0.00    -0.245 OA
BRANCH   4   6
ATOM      6  C   UNL A   1      31.164  25.134  25.909  1.00  0.00     0.138 C 
ATOM      7  C   UNL A   1      30.497  25.103  24.735  1.00  0.00     0.036 C 
BRANCH   6   8
ATOM      8  C   UNL A   1      31.400  23.839  26.668  1.00  0.00     0.107 C 
ATOM      9  N   UNL A   1      31.596  22.764  27.297  1.00  0.00    -0.192 NA
ENDBRANCH   6   8
BRANCH   7  10
ATOM     10  C   UNL A   1      30.322  26.241  23.809  1.00  0.00    -0.006 A 
ATOM     11  C   UNL A   1      29.095  26.922  23.881  1.00  0.00     0.060 A 
ATOM     12  C   UNL A   1      31.315  26.708  22.904  1.00  0.00     0.029 A 
ATOM     13  C   UNL A   1      28.927  28.057  23.113  1.00  0.00     0.166 A 
ATOM     14  C   UNL A   1      31.127  27.882  22.164  1.00  0.00     0.067 A 
ATOM     15  Br  UNL A   1      32.935  25.761  22.588  1.00  0.00    -0.050 Br
ATOM     16  C   UNL A   1      29.923  28.534  22.296  1.00  0.00     0.166 A 
ATOM     17  O   UNL A   1      27.809  28.829  23.072  1.00  0.00    -0.454 OA
ATOM     18  O   UNL A   1      29.566  29.680  21.656  1.00  0.00    -0.454 OA
ATOM     19  C   UNL A   1      28.220  29.855  22.145  1.00  0.00     0.468 C 
ENDBRANCH   7  10
ENDBRANCH   4   6
ENDBRANCH   3   4
ENDBRANCH   2   3
ENDBRANCH   1   2
BRANCH   1  20
ATOM     20  O   UNL A   1      32.798  30.061  26.615  1.00  0.00    -0.458 OA
BRANCH  20  21
ATOM     21  C   UNL A   1      33.295  31.218  27.107  1.00  0.00     0.338 C 
ATOM     22  O   UNL A   1      32.694  32.272  27.265  1.00  0.00    -0.246 OA
BRANCH  21  23
ATOM     23  C   UNL A   1      34.668  31.010  27.581  1.00  0.00     0.060 A 
ATOM     24  C   UNL A   1      35.061  29.710  27.869  1.00  0.00     0.016 A 
ATOM     25  C   UNL A   1      35.496  32.074  27.919  1.00  0.00     0.016 A 
ATOM     26  C   UNL A   1      36.205  29.462  28.610  1.00  0.00     0.010 A 
ATOM     27  C   UNL A   1      36.719  31.813  28.553  1.00  0.00     0.010 A 
ATOM     28  C   UNL A   1      37.067  30.504  28.944  1.00  0.00    -0.014 A 
BRANCH  28  29
ATOM     29  C   UNL A   1      38.277  30.216  29.764  1.00  0.00     0.031 A 
ATOM     30  C   UNL A   1      39.387  29.389  29.176  1.00  0.00     0.074 A 
ATOM     31  C   UNL A   1      38.415  30.738  31.001  1.00  0.00     0.049 A 
ATOM     32  N   UNL A   1      40.396  28.810  29.770  1.00  0.00    -0.248 NA
ATOM     33  C   UNL A   1      39.337  29.167  27.723  1.00  0.00     0.031 C 
ATOM     34  C   UNL A   1      37.473  31.655  31.649  1.00  0.00     0.029 A 
ATOM     35  N   UNL A   1      39.413  30.588  31.932  1.00  0.00    -0.354 N 
ATOM     36  C   UNL A   1      41.054  28.086  28.780  1.00  0.00     0.074 A 
ATOM     37  C   UNL A   1      40.327  28.305  27.547  1.00  0.00     0.031 C 
ATOM     38  C   UNL A   1      37.964  32.027  32.840  1.00  0.00     0.029 A 
ATOM     39  C   UNL A   1      39.184  31.276  33.102  1.00  0.00     0.049 A 
ATOM     40  H   UNL A   1      40.216  30.041  31.778  1.00  0.00     0.167 HD
ATOM     41  C   UNL A   1      42.152  27.300  28.906  1.00  0.00     0.034 A 
ATOM     42  C   UNL A   1      39.841  31.254  34.279  1.00  0.00     0.034 A 
ATOM     43  C   UNL A   1      42.890  27.162  30.140  1.00  0.00     0.049 A 
ATOM     44  C   UNL A   1      41.018  30.327  34.416  1.00  0.00     0.074 A 
ATOM     45  C   UNL A   1      44.016  26.399  30.395  1.00  0.00     0.029 A 
ATOM     46  N   UNL A   1      42.582  27.819  31.327  1.00  0.00    -0.354 N 
ATOM     47  N   UNL A   1      41.560  29.541  33.514  1.00  0.00    -0.248 NA
ATOM     48  C   UNL A   1      41.653  30.260  35.737  1.00  0.00     0.031 C 
ATOM     49  C   UNL A   1      44.351  26.548  31.745  1.00  0.00     0.029 A 
ATOM     50  C   UNL A   1      43.479  27.459  32.320  1.00  0.00     0.049 A 
ATOM     51  H   UNL A   1      41.834  28.449  31.444  1.00  0.00     0.167 HD
ATOM     52  C   UNL A   1      42.611  28.896  34.157  1.00  0.00     0.074 A 
ATOM     53  C   UNL A   1      42.638  29.402  35.515  1.00  0.00     0.031 C 
ATOM     54  C   UNL A   1      43.475  27.967  33.673  1.00  0.00     0.034 A 
BRANCH  41  55
ATOM     55  C   UNL A   1      42.553  26.467  27.710  1.00  0.00     0.023 A 
ATOM     56  C   UNL A   1      42.078  25.161  27.499  1.00  0.00     0.031 A 
ATOM     57  C   UNL A   1      43.481  26.985  26.787  1.00  0.00     0.131 A 
ATOM     58  C   UNL A   1      42.589  24.394  26.439  1.00  0.00     0.055 A 
ATOM     59  C   UNL A   1      43.923  26.247  25.688  1.00  0.00     0.041 A 
ATOM     60  F   UNL A   1      43.992  28.217  26.949  1.00  0.00    -0.206 F 
ATOM     61  C   UNL A   1      43.490  24.937  25.518  1.00  0.00     0.022 A 
BRANCH  58  62
ATOM     62  S   UNL A   1      42.182  22.627  26.365  1.00  0.00     0.124 S 
ATOM     63  O   UNL A   1      40.750  22.641  26.653  1.00  0.00    -0.237 OA
ATOM     64  O   UNL A   1      42.557  22.273  25.002  1.00  0.00    -0.237 OA
ATOM     65  O   UNL A   1      43.013  22.038  27.413  1.00  0.00    -0.744 OA
ENDBRANCH  58  62
ENDBRANCH  41  55
BRANCH  42  66
ATOM     66  C   UNL A   1      39.348  32.053  35.439  1.00  0.00     0.023 A 
ATOM     67  C   UNL A   1      39.761  33.380  35.636  1.00  0.00     0.031 A 
ATOM     68  C   UNL A   1      38.482  31.487  36.395  1.00  0.00     0.131 A 
ATOM     69  C   UNL A   1      39.331  34.086  36.772  1.00  0.00     0.055 A 
ATOM     70  C   UNL A   1      38.010  32.212  37.490  1.00  0.00     0.041 A 
ATOM     71  F   UNL A   1      38.063  30.217  36.267  1.00  0.00    -0.206 F 
ATOM     72  C   UNL A   1      38.445  33.517  37.689  1.00  0.00     0.022 A 
BRANCH  69  73
ATOM     73  S   UNL A   1      40.017  35.736  37.084  1.00  0.00     0.124 S 
ATOM     74  O   UNL A   1      39.315  36.125  38.302  1.00  0.00    -0.237 OA
ATOM     75  O   UNL A   1      41.441  35.453  37.227  1.00  0.00    -0.237 OA
ATOM     76  O   UNL A   1      39.651  36.490  35.887  1.00  0.00    -0.744 OA
ENDBRANCH  69  73
ENDBRANCH  42  66
BRANCH  54  77
ATOM     77  C   UNL A   1      44.542  27.482  34.621  1.00  0.00     0.023 A 
ATOM     78  C   UNL A   1      45.783  28.133  34.729  1.00  0.00     0.031 A 
ATOM     79  C   UNL A   1      44.321  26.334  35.401  1.00  0.00     0.131 A 
ATOM     80  C   UNL A   1      46.779  27.596  35.558  1.00  0.00     0.055 A 
ATOM     81  C   UNL A   1      45.295  25.838  36.268  1.00  0.00     0.041 A 
ATOM     82  F   UNL A   1      43.153  25.674  35.330  1.00  0.00    -0.206 F 
ATOM     83  C   UNL A   1      46.537  26.463  36.340  1.00  0.00     0.022 A 
BRANCH  80  84
ATOM     84  S   UNL A   1      48.430  28.346  35.532  1.00  0.00     0.124 S 
ATOM     85  O   UNL A   1      49.040  27.697  34.376  1.00  0.00    -0.237 OA
ATOM     86  O   UNL A   1      48.129  29.765  35.381  1.00  0.00    -0.237 OA
ATOM     87  O   UNL A   1      48.999  27.968  36.825  1.00  0.00    -0.744 OA
ENDBRANCH  80  84
ENDBRANCH  54  77
ENDBRANCH  28  29
ENDBRANCH  21  23
ENDBRANCH  20  21
ENDBRANCH   1  20
TORSDOF 16
ENDMDL
