MODEL 1
REMARK VINA RESULT:     -13.4      0.000      0.000
REMARK SMILES Cc1ccccc1C(=O)Nc1ccc(OCC(=O)OCCOC(=O)c2ccc(-c3c4nc(c(-c5cc(S(=O)(=O)[O-])ccc5F)c5ccc([nH]5)c(-c5cc(S(=O)(=O)[O-])ccc5F)c5nc(c(-c6cc(S(=O)(=O)[O-])ccc6F)c6ccc3[nH]6)C=C5)C=C4)cc2)c(-c2nc3ccccc3s2)c1
REMARK SMILES IDX 20 1 19 2 17 3 18 4 16 5 15 6 14 7 11 8 12 9 98 10 13 11
REMARK SMILES IDX 88 12 10 13 8 14 9 15 7 17 1 18 2 19 3 20 4 21 6 22 5 23
REMARK SMILES IDX 89 24 90 25 97 26 91 27 96 28 92 29 95 30 93 31 94 32 21 33
REMARK SMILES IDX 22 34 23 35 24 36 25 37 26 38 87 39 27 40 86 41 28 42 29 43
REMARK SMILES IDX 30 44 80 45 31 46 85 47 79 48 81 49 32 50 84 51 78 52 77 53
REMARK SMILES IDX 33 55 65 56 45 57 64 58 46 59 49 60 63 61 82 62 47 63 48 64
REMARK SMILES IDX 62 66 83 67 50 68 34 69 35 70 43 71 36 72 42 73 44 74 41 75
REMARK SMILES IDX 37 76 38 77 39 78 40 79 66 80 67 81 75 82 68 83 74 84 76 85
REMARK SMILES IDX 73 86 69 87 70 88 71 89 72 90 51 91 52 92 60 93 53 94 59 95
REMARK SMILES IDX 61 96 58 97 54 98 55 99 56 100 57 101
REMARK H PARENT 10 16 81 54 49 65
REMARK Flexibility Score: inf
ROOT
ATOM      1  C   UNL A   1      36.983  20.601  24.983  1.00  0.00     0.274 C 
ENDROOT
BRANCH   1   2
ATOM      2  O   UNL A   1      36.958  21.806  25.769  1.00  0.00    -0.460 OA
BRANCH   2   3
ATOM      3  C   UNL A   1      36.999  22.940  25.021  1.00  0.00     0.344 C 
ATOM      4  O   UNL A   1      37.220  24.053  25.495  1.00  0.00    -0.248 OA
BRANCH   3   5
ATOM      5  C   UNL A   1      36.691  22.735  23.524  1.00  0.00     0.352 C 
BRANCH   5   6
ATOM      6  O   UNL A   1      35.492  23.138  22.870  1.00  0.00    -0.481 OA
BRANCH   6   7
ATOM      7  C   UNL A   1      34.515  23.806  23.559  1.00  0.00     0.130 A 
ATOM      8  C   UNL A   1      32.865  25.103  25.426  1.00  0.00     0.042 A 
ATOM      9  C   UNL A   1      33.648  25.852  24.554  1.00  0.00     0.030 A 
ATOM     10  C   UNL A   1      32.759  23.734  25.225  1.00  0.00     0.041 A 
ATOM     11  C   UNL A   1      34.516  25.204  23.672  1.00  0.00     0.049 A 
ATOM     12  C   UNL A   1      33.501  23.067  24.215  1.00  0.00     0.055 A 
BRANCH   8  13
ATOM     13  N   UNL A   1      32.208  25.777  26.460  1.00  0.00    -0.322 N 
ATOM     14  C   UNL A   1      31.488  26.957  26.477  1.00  0.00     0.255 C 
ATOM     15  O   UNL A   1      31.280  27.474  27.580  1.00  0.00    -0.269 OA
ATOM     16  H   UNL A   1      32.269  25.331  27.335  1.00  0.00     0.170 HD
BRANCH  14  17
ATOM     17  C   UNL A   1      30.793  27.551  25.292  1.00  0.00     0.043 A 
ATOM     18  C   UNL A   1      32.274  29.636  25.127  1.00  0.00     0.045 C 
ATOM     19  C   UNL A   1      31.197  28.722  24.627  1.00  0.00    -0.038 A 
ATOM     20  C   UNL A   1      30.539  29.082  23.427  1.00  0.00     0.004 A 
ATOM     21  C   UNL A   1      29.520  28.314  22.878  1.00  0.00     0.000 A 
ATOM     22  C   UNL A   1      29.823  26.735  24.670  1.00  0.00     0.014 A 
ATOM     23  C   UNL A   1      29.184  27.118  23.484  1.00  0.00     0.001 A 
ENDBRANCH  14  17
ENDBRANCH   8  13
BRANCH  12  24
ATOM     24  C   UNL A   1      33.170  21.625  24.037  1.00  0.00     0.128 A 
ATOM     25  N   UNL A   1      33.543  20.714  24.916  1.00  0.00    -0.236 NA
ATOM     26  S   UNL A   1      32.162  20.977  22.793  1.00  0.00    -0.114 S 
ATOM     27  C   UNL A   1      33.384  19.445  24.410  1.00  0.00     0.082 A 
ATOM     28  C   UNL A   1      32.630  19.369  23.240  1.00  0.00     0.055 A 
ATOM     29  C   UNL A   1      33.955  18.274  24.943  1.00  0.00     0.030 A 
ATOM     30  C   UNL A   1      32.407  18.138  22.592  1.00  0.00     0.021 A 
ATOM     31  C   UNL A   1      33.809  17.060  24.266  1.00  0.00     0.002 A 
ATOM     32  C   UNL A   1      33.042  16.995  23.107  1.00  0.00     0.002 A 
ENDBRANCH  12  24
ENDBRANCH   6   7
ENDBRANCH   5   6
ENDBRANCH   3   5
ENDBRANCH   2   3
ENDBRANCH   1   2
BRANCH   1  33
ATOM     33  C   UNL A   1      38.266  19.799  25.198  1.00  0.00     0.275 C 
BRANCH  33  34
ATOM     34  O   UNL A   1      39.464  20.576  25.486  1.00  0.00    -0.458 OA
BRANCH  34  35
ATOM     35  C   UNL A   1      40.262  20.589  26.576  1.00  0.00     0.338 C 
ATOM     36  O   UNL A   1      40.457  19.622  27.294  1.00  0.00    -0.246 OA
BRANCH  35  37
ATOM     37  C   UNL A   1      40.912  21.853  26.810  1.00  0.00     0.060 A 
ATOM     38  C   UNL A   1      40.562  23.005  26.091  1.00  0.00     0.016 A 
ATOM     39  C   UNL A   1      41.771  21.865  27.889  1.00  0.00     0.016 A 
ATOM     40  C   UNL A   1      41.089  24.215  26.477  1.00  0.00     0.010 A 
ATOM     41  C   UNL A   1      42.033  23.063  28.441  1.00  0.00     0.010 A 
ATOM     42  C   UNL A   1      41.843  24.196  27.638  1.00  0.00    -0.014 A 
BRANCH  42  43
ATOM     43  C   UNL A   1      42.676  25.282  28.082  1.00  0.00     0.031 A 
ATOM     44  C   UNL A   1      41.950  26.488  28.497  1.00  0.00     0.074 A 
ATOM     45  C   UNL A   1      43.944  24.830  28.265  1.00  0.00     0.049 A 
ATOM     46  N   UNL A   1      42.334  27.706  28.336  1.00  0.00    -0.248 NA
ATOM     47  C   UNL A   1      40.564  26.419  29.006  1.00  0.00     0.031 C 
ATOM     48  C   UNL A   1      45.008  25.215  29.167  1.00  0.00     0.029 A 
ATOM     49  N   UNL A   1      44.528  23.728  27.643  1.00  0.00    -0.354 N 
ATOM     50  C   UNL A   1      41.600  28.391  29.288  1.00  0.00     0.074 A 
ATOM     51  C   UNL A   1      40.349  27.687  29.369  1.00  0.00     0.031 C 
ATOM     52  C   UNL A   1      46.160  24.622  28.771  1.00  0.00     0.029 A 
ATOM     53  C   UNL A   1      45.897  23.886  27.540  1.00  0.00     0.049 A 
ATOM     54  H   UNL A   1      44.032  22.941  27.320  1.00  0.00     0.167 HD
ATOM     55  C   UNL A   1      42.280  29.074  30.260  1.00  0.00     0.034 A 
ATOM     56  C   UNL A   1      46.417  24.162  26.301  1.00  0.00     0.034 A 
ATOM     57  C   UNL A   1      43.729  28.893  30.076  1.00  0.00     0.049 A 
ATOM     58  C   UNL A   1      46.671  25.659  26.205  1.00  0.00     0.074 A 
ATOM     59  C   UNL A   1      44.703  28.219  30.794  1.00  0.00     0.029 A 
ATOM     60  N   UNL A   1      44.293  29.175  28.841  1.00  0.00    -0.354 N 
ATOM     61  N   UNL A   1      46.066  26.562  26.932  1.00  0.00    -0.248 NA
ATOM     62  C   UNL A   1      47.702  26.229  25.354  1.00  0.00     0.031 C 
ATOM     63  C   UNL A   1      45.856  28.099  29.962  1.00  0.00     0.029 A 
ATOM     64  C   UNL A   1      45.560  28.648  28.727  1.00  0.00     0.049 A 
ATOM     65  H   UNL A   1      43.844  29.689  28.132  1.00  0.00     0.167 HD
ATOM     66  C   UNL A   1      46.671  27.778  26.770  1.00  0.00     0.074 A 
ATOM     67  C   UNL A   1      47.681  27.513  25.753  1.00  0.00     0.031 C 
ATOM     68  C   UNL A   1      46.316  28.882  27.506  1.00  0.00     0.034 A 
BRANCH  55  69
ATOM     69  C   UNL A   1      41.702  29.610  31.555  1.00  0.00     0.023 A 
ATOM     70  C   UNL A   1      41.888  28.848  32.727  1.00  0.00     0.031 A 
ATOM     71  C   UNL A   1      41.028  30.832  31.742  1.00  0.00     0.131 A 
ATOM     72  C   UNL A   1      41.385  29.253  33.973  1.00  0.00     0.055 A 
ATOM     73  C   UNL A   1      40.506  31.234  32.983  1.00  0.00     0.041 A 
ATOM     74  F   UNL A   1      40.887  31.727  30.756  1.00  0.00    -0.206 F 
ATOM     75  C   UNL A   1      40.682  30.443  34.109  1.00  0.00     0.022 A 
BRANCH  72  76
ATOM     76  S   UNL A   1      41.704  28.201  35.412  1.00  0.00     0.124 S 
ATOM     77  O   UNL A   1      40.888  28.839  36.440  1.00  0.00    -0.237 OA
ATOM     78  O   UNL A   1      41.255  26.893  34.948  1.00  0.00    -0.237 OA
ATOM     79  O   UNL A   1      43.149  28.324  35.605  1.00  0.00    -0.744 OA
ENDBRANCH  72  76
ENDBRANCH  55  69
BRANCH  56  80
ATOM     80  C   UNL A   1      45.762  23.320  25.232  1.00  0.00     0.023 A 
ATOM     81  C   UNL A   1      46.155  21.961  25.123  1.00  0.00     0.031 A 
ATOM     82  C   UNL A   1      44.469  23.656  24.814  1.00  0.00     0.131 A 
ATOM     83  C   UNL A   1      45.198  20.965  24.851  1.00  0.00     0.055 A 
ATOM     84  C   UNL A   1      43.525  22.657  24.591  1.00  0.00     0.041 A 
ATOM     85  F   UNL A   1      44.048  24.928  24.804  1.00  0.00    -0.206 F 
ATOM     86  C   UNL A   1      43.865  21.307  24.666  1.00  0.00     0.022 A 
BRANCH  83  87
ATOM     87  S   UNL A   1      45.679  19.214  24.877  1.00  0.00     0.124 S 
ATOM     88  O   UNL A   1      44.583  18.606  25.627  1.00  0.00    -0.237 OA
ATOM     89  O   UNL A   1      45.735  18.896  23.454  1.00  0.00    -0.237 OA
ATOM     90  O   UNL A   1      46.967  19.205  25.562  1.00  0.00    -0.744 OA
ENDBRANCH  83  87
ENDBRANCH  56  80
BRANCH  68  91
ATOM     91  C   UNL A   1      46.704  30.315  27.206  1.00  0.00     0.023 A 
ATOM     92  C   UNL A   1      45.767  31.280  26.855  1.00  0.00     0.031 A 
ATOM     93  C   UNL A   1      48.040  30.787  27.314  1.00  0.00     0.131 A 
ATOM     94  C   UNL A   1      46.151  32.576  26.492  1.00  0.00     0.055 A 
ATOM     95  C   UNL A   1      48.409  32.111  27.073  1.00  0.00     0.041 A 
ATOM     96  F   UNL A   1      49.065  30.000  27.671  1.00  0.00    -0.206 F 
ATOM     97  C   UNL A   1      47.464  33.011  26.621  1.00  0.00     0.022 A 
BRANCH  94  98
ATOM     98  S   UNL A   1      44.886  33.617  25.736  1.00  0.00     0.124 S 
ATOM     99  O   UNL A   1      44.435  34.412  26.876  1.00  0.00    -0.237 OA
ATOM    100  O   UNL A   1      45.647  34.343  24.724  1.00  0.00    -0.237 OA
ATOM    101  O   UNL A   1      43.915  32.655  25.222  1.00  0.00    -0.744 OA
ENDBRANCH  94  98
ENDBRANCH  68  91
ENDBRANCH  42  43
ENDBRANCH  35  37
ENDBRANCH  34  35
ENDBRANCH  33  34
ENDBRANCH   1  33
TORSDOF 19
ENDMDL
MODEL 2
REMARK VINA RESULT:     -13.2      4.484     10.969
REMARK SMILES Cc1ccccc1C(=O)Nc1ccc(OCC(=O)OCCOC(=O)c2ccc(-c3c4nc(c(-c5cc(S(=O)(=O)[O-])ccc5F)c5ccc([nH]5)c(-c5cc(S(=O)(=O)[O-])ccc5F)c5nc(c(-c6cc(S(=O)(=O)[O-])ccc6F)c6ccc3[nH]6)C=C5)C=C4)cc2)c(-c2nc3ccccc3s2)c1
REMARK SMILES IDX 20 1 19 2 17 3 18 4 16 5 15 6 14 7 11 8 12 9 98 10 13 11
REMARK SMILES IDX 88 12 10 13 8 14 9 15 7 17 1 18 2 19 3 20 4 21 6 22 5 23
REMARK SMILES IDX 89 24 90 25 97 26 91 27 96 28 92 29 95 30 93 31 94 32 21 33
REMARK SMILES IDX 22 34 23 35 24 36 25 37 26 38 87 39 27 40 86 41 28 42 29 43
REMARK SMILES IDX 30 44 80 45 31 46 85 47 79 48 81 49 32 50 84 51 78 52 77 53
REMARK SMILES IDX 33 55 65 56 45 57 64 58 46 59 49 60 63 61 82 62 47 63 48 64
REMARK SMILES IDX 62 66 83 67 50 68 34 69 35 70 43 71 36 72 42 73 44 74 41 75
REMARK SMILES IDX 37 76 38 77 39 78 40 79 66 80 67 81 75 82 68 83 74 84 76 85
REMARK SMILES IDX 73 86 69 87 70 88 71 89 72 90 51 91 52 92 60 93 53 94 59 95
REMARK SMILES IDX 61 96 58 97 54 98 55 99 56 100 57 101
REMARK H PARENT 10 16 81 54 49 65
REMARK Flexibility Score: inf
ROOT
ATOM      1  C   UNL A   1      33.237  32.993  27.753  1.00  0.00     0.274 C 
ENDROOT
BRANCH   1   2
ATOM      2  O   UNL A   1      33.919  31.726  27.717  1.00  0.00    -0.460 OA
BRANCH   2   3
ATOM      3  C   UNL A   1      33.185  30.734  27.147  1.00  0.00     0.344 C 
ATOM      4  O   UNL A   1      31.958  30.684  27.207  1.00  0.00    -0.248 OA
BRANCH   3   5
ATOM      5  C   UNL A   1      34.016  29.632  26.458  1.00  0.00     0.352 C 
BRANCH   5   6
ATOM      6  O   UNL A   1      33.631  28.931  25.280  1.00  0.00    -0.481 OA
BRANCH   6   7
ATOM      7  C   UNL A   1      33.056  27.691  25.365  1.00  0.00     0.130 A 
ATOM      8  C   UNL A   1      32.218  25.025  25.088  1.00  0.00     0.042 A 
ATOM      9  C   UNL A   1      33.136  25.364  26.077  1.00  0.00     0.030 A 
ATOM     10  C   UNL A   1      31.580  26.039  24.387  1.00  0.00     0.041 A 
ATOM     11  C   UNL A   1      33.599  26.679  26.169  1.00  0.00     0.049 A 
ATOM     12  C   UNL A   1      31.908  27.406  24.587  1.00  0.00     0.055 A 
BRANCH   8  13
ATOM     13  N   UNL A   1      31.973  23.667  24.860  1.00  0.00    -0.322 N 
ATOM     14  C   UNL A   1      32.789  22.649  24.405  1.00  0.00     0.255 C 
ATOM     15  O   UNL A   1      32.236  21.618  24.007  1.00  0.00    -0.269 OA
ATOM     16  H   UNL A   1      31.052  23.385  25.060  1.00  0.00     0.170 HD
BRANCH  14  17
ATOM     17  C   UNL A   1      34.281  22.630  24.527  1.00  0.00     0.043 A 
ATOM     18  C   UNL A   1      34.346  21.610  26.878  1.00  0.00     0.045 C 
ATOM     19  C   UNL A   1      34.992  22.084  25.611  1.00  0.00    -0.038 A 
ATOM     20  C   UNL A   1      36.401  21.994  25.522  1.00  0.00     0.004 A 
ATOM     21  C   UNL A   1      37.103  22.413  24.400  1.00  0.00     0.000 A 
ATOM     22  C   UNL A   1      35.002  22.960  23.360  1.00  0.00     0.014 A 
ATOM     23  C   UNL A   1      36.398  22.867  23.300  1.00  0.00     0.001 A 
ENDBRANCH  14  17
ENDBRANCH   8  13
BRANCH  12  24
ATOM     24  C   UNL A   1      31.037  28.376  23.865  1.00  0.00     0.128 A 
ATOM     25  N   UNL A   1      30.824  29.594  24.327  1.00  0.00    -0.236 NA
ATOM     26  S   UNL A   1      30.333  28.121  22.308  1.00  0.00    -0.114 S 
ATOM     27  C   UNL A   1      29.781  30.197  23.663  1.00  0.00     0.082 A 
ATOM     28  C   UNL A   1      29.367  29.546  22.503  1.00  0.00     0.055 A 
ATOM     29  C   UNL A   1      29.096  31.350  24.092  1.00  0.00     0.030 A 
ATOM     30  C   UNL A   1      28.291  30.034  21.735  1.00  0.00     0.021 A 
ATOM     31  C   UNL A   1      27.977  31.797  23.384  1.00  0.00     0.002 A 
ATOM     32  C   UNL A   1      27.584  31.147  22.219  1.00  0.00     0.002 A 
ENDBRANCH  12  24
ENDBRANCH   6   7
ENDBRANCH   5   6
ENDBRANCH   3   5
ENDBRANCH   2   3
ENDBRANCH   1   2
BRANCH   1  33
ATOM     33  C   UNL A   1      33.904  33.979  28.712  1.00  0.00     0.275 C 
BRANCH  33  34
ATOM     34  O   UNL A   1      33.852  33.630  30.124  1.00  0.00    -0.458 OA
BRANCH  34  35
ATOM     35  C   UNL A   1      34.702  33.920  31.134  1.00  0.00     0.338 C 
ATOM     36  O   UNL A   1      34.436  34.673  32.057  1.00  0.00    -0.246 OA
BRANCH  35  37
ATOM     37  C   UNL A   1      35.962  33.227  31.055  1.00  0.00     0.060 A 
ATOM     38  C   UNL A   1      37.031  33.727  30.298  1.00  0.00     0.016 A 
ATOM     39  C   UNL A   1      36.073  32.143  31.901  1.00  0.00     0.016 A 
ATOM     40  C   UNL A   1      38.260  33.119  30.401  1.00  0.00     0.010 A 
ATOM     41  C   UNL A   1      37.319  31.754  32.226  1.00  0.00     0.010 A 
ATOM     42  C   UNL A   1      38.354  32.118  31.354  1.00  0.00    -0.014 A 
BRANCH  42  43
ATOM     43  C   UNL A   1      39.456  31.199  31.458  1.00  0.00     0.031 A 
ATOM     44  C   UNL A   1      39.253  29.911  30.785  1.00  0.00     0.074 A 
ATOM     45  C   UNL A   1      40.545  31.856  31.936  1.00  0.00     0.049 A 
ATOM     46  N   UNL A   1      39.686  28.764  31.178  1.00  0.00    -0.248 NA
ATOM     47  C   UNL A   1      38.342  29.778  29.629  1.00  0.00     0.031 C 
ATOM     48  C   UNL A   1      41.967  31.686  31.735  1.00  0.00     0.029 A 
ATOM     49  N   UNL A   1      40.537  33.010  32.718  1.00  0.00    -0.354 N 
ATOM     50  C   UNL A   1      39.672  28.012  30.018  1.00  0.00     0.074 A 
ATOM     51  C   UNL A   1      38.551  28.509  29.268  1.00  0.00     0.031 C 
ATOM     52  C   UNL A   1      42.636  32.439  32.643  1.00  0.00     0.029 A 
ATOM     53  C   UNL A   1      41.659  33.070  33.522  1.00  0.00     0.049 A 
ATOM     54  H   UNL A   1      39.828  33.693  32.699  1.00  0.00     0.167 HD
ATOM     55  C   UNL A   1      40.856  27.488  29.573  1.00  0.00     0.034 A 
ATOM     56  C   UNL A   1      41.498  32.829  34.864  1.00  0.00     0.034 A 
ATOM     57  C   UNL A   1      41.949  27.892  30.472  1.00  0.00     0.049 A 
ATOM     58  C   UNL A   1      41.900  31.389  35.148  1.00  0.00     0.074 A 
ATOM     59  C   UNL A   1      43.032  28.744  30.331  1.00  0.00     0.029 A 
ATOM     60  N   UNL A   1      41.828  27.652  31.832  1.00  0.00    -0.354 N 
ATOM     61  N   UNL A   1      41.912  30.433  34.256  1.00  0.00    -0.248 NA
ATOM     62  C   UNL A   1      42.416  30.956  36.436  1.00  0.00     0.031 C 
ATOM     63  C   UNL A   1      43.551  29.012  31.633  1.00  0.00     0.029 A 
ATOM     64  C   UNL A   1      42.749  28.371  32.561  1.00  0.00     0.049 A 
ATOM     65  H   UNL A   1      41.165  27.043  32.229  1.00  0.00     0.167 HD
ATOM     66  C   UNL A   1      42.531  29.324  34.766  1.00  0.00     0.074 A 
ATOM     67  C   UNL A   1      42.810  29.704  36.145  1.00  0.00     0.031 C 
ATOM     68  C   UNL A   1      42.790  28.209  34.006  1.00  0.00     0.034 A 
BRANCH  55  69
ATOM     69  C   UNL A   1      41.127  26.922  28.193  1.00  0.00     0.023 A 
ATOM     70  C   UNL A   1      41.158  25.519  28.048  1.00  0.00     0.031 A 
ATOM     71  C   UNL A   1      41.307  27.647  26.999  1.00  0.00     0.131 A 
ATOM     72  C   UNL A   1      41.409  24.899  26.815  1.00  0.00     0.055 A 
ATOM     73  C   UNL A   1      41.578  27.031  25.765  1.00  0.00     0.041 A 
ATOM     74  F   UNL A   1      41.176  28.978  26.945  1.00  0.00    -0.206 F 
ATOM     75  C   UNL A   1      41.631  25.648  25.668  1.00  0.00     0.022 A 
BRANCH  72  76
ATOM     76  S   UNL A   1      41.404  23.088  26.748  1.00  0.00     0.124 S 
ATOM     77  O   UNL A   1      42.322  22.825  25.644  1.00  0.00    -0.237 OA
ATOM     78  O   UNL A   1      41.874  22.726  28.080  1.00  0.00    -0.237 OA
ATOM     79  O   UNL A   1      40.004  22.766  26.479  1.00  0.00    -0.744 OA
ENDBRANCH  72  76
ENDBRANCH  55  69
BRANCH  56  80
ATOM     80  C   UNL A   1      40.260  33.508  35.397  1.00  0.00     0.023 A 
ATOM     81  C   UNL A   1      39.301  32.708  36.072  1.00  0.00     0.031 A 
ATOM     82  C   UNL A   1      40.336  34.861  35.747  1.00  0.00     0.131 A 
ATOM     83  C   UNL A   1      38.646  33.201  37.216  1.00  0.00     0.055 A 
ATOM     84  C   UNL A   1      39.715  35.320  36.906  1.00  0.00     0.041 A 
ATOM     85  F   UNL A   1      41.154  35.704  35.101  1.00  0.00    -0.206 F 
ATOM     86  C   UNL A   1      38.916  34.481  37.681  1.00  0.00     0.022 A 
BRANCH  83  87
ATOM     87  S   UNL A   1      37.546  32.114  38.169  1.00  0.00     0.124 S 
ATOM     88  O   UNL A   1      37.574  30.884  37.381  1.00  0.00    -0.237 OA
ATOM     89  O   UNL A   1      38.221  32.062  39.462  1.00  0.00    -0.237 OA
ATOM     90  O   UNL A   1      36.264  32.810  38.170  1.00  0.00    -0.744 OA
ENDBRANCH  83  87
ENDBRANCH  56  80
BRANCH  68  91
ATOM     91  C   UNL A   1      43.188  26.846  34.532  1.00  0.00     0.023 A 
ATOM     92  C   UNL A   1      44.517  26.450  34.639  1.00  0.00     0.031 A 
ATOM     93  C   UNL A   1      42.240  25.898  35.002  1.00  0.00     0.131 A 
ATOM     94  C   UNL A   1      44.865  25.156  35.041  1.00  0.00     0.055 A 
ATOM     95  C   UNL A   1      42.592  24.650  35.520  1.00  0.00     0.041 A 
ATOM     96  F   UNL A   1      40.919  26.125  35.000  1.00  0.00    -0.206 F 
ATOM     97  C   UNL A   1      43.916  24.256  35.508  1.00  0.00     0.022 A 
BRANCH  94  98
ATOM     98  S   UNL A   1      46.587  24.670  34.812  1.00  0.00     0.124 S 
ATOM     99  O   UNL A   1      46.501  23.215  34.914  1.00  0.00    -0.237 OA
ATOM    100  O   UNL A   1      46.881  25.191  33.481  1.00  0.00    -0.237 OA
ATOM    101  O   UNL A   1      47.279  25.333  35.913  1.00  0.00    -0.744 OA
ENDBRANCH  94  98
ENDBRANCH  68  91
ENDBRANCH  42  43
ENDBRANCH  35  37
ENDBRANCH  34  35
ENDBRANCH  33  34
ENDBRANCH   1  33
TORSDOF 19
ENDMDL
MODEL 3
REMARK VINA RESULT:     -12.9      3.624      5.418
REMARK SMILES Cc1ccccc1C(=O)Nc1ccc(OCC(=O)OCCOC(=O)c2ccc(-c3c4nc(c(-c5cc(S(=O)(=O)[O-])ccc5F)c5ccc([nH]5)c(-c5cc(S(=O)(=O)[O-])ccc5F)c5nc(c(-c6cc(S(=O)(=O)[O-])ccc6F)c6ccc3[nH]6)C=C5)C=C4)cc2)c(-c2nc3ccccc3s2)c1
REMARK SMILES IDX 20 1 19 2 17 3 18 4 16 5 15 6 14 7 11 8 12 9 98 10 13 11
REMARK SMILES IDX 88 12 10 13 8 14 9 15 7 17 1 18 2 19 3 20 4 21 6 22 5 23
REMARK SMILES IDX 89 24 90 25 97 26 91 27 96 28 92 29 95 30 93 31 94 32 21 33
REMARK SMILES IDX 22 34 23 35 24 36 25 37 26 38 87 39 27 40 86 41 28 42 29 43
REMARK SMILES IDX 30 44 80 45 31 46 85 47 79 48 81 49 32 50 84 51 78 52 77 53
REMARK SMILES IDX 33 55 65 56 45 57 64 58 46 59 49 60 63 61 82 62 47 63 48 64
REMARK SMILES IDX 62 66 83 67 50 68 34 69 35 70 43 71 36 72 42 73 44 74 41 75
REMARK SMILES IDX 37 76 38 77 39 78 40 79 66 80 67 81 75 82 68 83 74 84 76 85
REMARK SMILES IDX 73 86 69 87 70 88 71 89 72 90 51 91 52 92 60 93 53 94 59 95
REMARK SMILES IDX 61 96 58 97 54 98 55 99 56 100 57 101
REMARK H PARENT 10 16 81 54 49 65
REMARK Flexibility Score: inf
ROOT
ATOM      1  C   UNL A   1      36.271  21.903  25.732  1.00  0.00     0.274 C 
ENDROOT
BRANCH   1   2
ATOM      2  O   UNL A   1      35.678  23.109  26.249  1.00  0.00    -0.460 OA
BRANCH   2   3
ATOM      3  C   UNL A   1      35.231  23.949  25.279  1.00  0.00     0.344 C 
ATOM      4  O   UNL A   1      34.574  24.962  25.515  1.00  0.00    -0.248 OA
BRANCH   3   5
ATOM      5  C   UNL A   1      35.565  23.509  23.840  1.00  0.00     0.352 C 
BRANCH   5   6
ATOM      6  O   UNL A   1      34.649  22.905  22.933  1.00  0.00    -0.481 OA
BRANCH   6   7
ATOM      7  C   UNL A   1      33.379  23.399  22.795  1.00  0.00     0.130 A 
ATOM      8  C   UNL A   1      30.840  24.567  23.069  1.00  0.00     0.042 A 
ATOM      9  C   UNL A   1      31.862  25.270  22.440  1.00  0.00     0.030 A 
ATOM     10  C   UNL A   1      31.033  23.227  23.372  1.00  0.00     0.041 A 
ATOM     11  C   UNL A   1      33.140  24.712  22.363  1.00  0.00     0.049 A 
ATOM     12  C   UNL A   1      32.277  22.581  23.142  1.00  0.00     0.055 A 
BRANCH   8  13
ATOM     13  N   UNL A   1      29.654  25.252  23.354  1.00  0.00    -0.322 N 
ATOM     14  C   UNL A   1      29.362  26.246  24.268  1.00  0.00     0.255 C 
ATOM     15  O   UNL A   1      28.169  26.452  24.517  1.00  0.00    -0.269 OA
ATOM     16  H   UNL A   1      28.887  24.975  22.803  1.00  0.00     0.170 HD
BRANCH  14  17
ATOM     17  C   UNL A   1      30.362  27.206  24.835  1.00  0.00     0.043 A 
ATOM     18  C   UNL A   1      30.133  28.961  22.981  1.00  0.00     0.045 C 
ATOM     19  C   UNL A   1      30.654  28.473  24.300  1.00  0.00    -0.038 A 
ATOM     20  C   UNL A   1      31.505  29.338  25.027  1.00  0.00     0.004 A 
ATOM     21  C   UNL A   1      32.052  28.984  26.254  1.00  0.00     0.000 A 
ATOM     22  C   UNL A   1      30.848  26.903  26.125  1.00  0.00     0.014 A 
ATOM     23  C   UNL A   1      31.695  27.774  26.822  1.00  0.00     0.001 A 
ENDBRANCH  14  17
ENDBRANCH   8  13
BRANCH  12  24
ATOM     24  C   UNL A   1      32.279  21.111  23.387  1.00  0.00     0.128 A 
ATOM     25  N   UNL A   1      32.202  20.611  24.607  1.00  0.00    -0.236 NA
ATOM     26  S   UNL A   1      32.227  19.893  22.164  1.00  0.00    -0.114 S 
ATOM     27  C   UNL A   1      32.508  19.271  24.610  1.00  0.00     0.082 A 
ATOM     28  C   UNL A   1      32.555  18.675  23.352  1.00  0.00     0.055 A 
ATOM     29  C   UNL A   1      32.820  18.506  25.751  1.00  0.00     0.030 A 
ATOM     30  C   UNL A   1      32.884  17.313  23.199  1.00  0.00     0.021 A 
ATOM     31  C   UNL A   1      33.226  17.177  25.606  1.00  0.00     0.002 A 
ATOM     32  C   UNL A   1      33.254  16.589  24.345  1.00  0.00     0.002 A 
ENDBRANCH  12  24
ENDBRANCH   6   7
ENDBRANCH   5   6
ENDBRANCH   3   5
ENDBRANCH   2   3
ENDBRANCH   1   2
BRANCH   1  33
ATOM     33  C   UNL A   1      37.795  21.991  25.671  1.00  0.00     0.275 C 
BRANCH  33  34
ATOM     34  O   UNL A   1      38.397  23.131  26.348  1.00  0.00    -0.458 OA
BRANCH  34  35
ATOM     35  C   UNL A   1      39.576  23.245  26.999  1.00  0.00     0.338 C 
ATOM     36  O   UNL A   1      40.352  22.319  27.177  1.00  0.00    -0.246 OA
BRANCH  35  37
ATOM     37  C   UNL A   1      39.872  24.582  27.443  1.00  0.00     0.060 A 
ATOM     38  C   UNL A   1      40.417  25.542  26.576  1.00  0.00     0.016 A 
ATOM     39  C   UNL A   1      39.431  24.874  28.717  1.00  0.00     0.016 A 
ATOM     40  C   UNL A   1      40.514  26.845  27.005  1.00  0.00     0.010 A 
ATOM     41  C   UNL A   1      39.247  26.174  29.010  1.00  0.00     0.010 A 
ATOM     42  C   UNL A   1      39.945  27.113  28.239  1.00  0.00    -0.014 A 
BRANCH  42  43
ATOM     43  C   UNL A   1      40.143  28.332  28.975  1.00  0.00     0.031 A 
ATOM     44  C   UNL A   1      39.179  29.398  28.678  1.00  0.00     0.074 A 
ATOM     45  C   UNL A   1      41.029  28.111  29.981  1.00  0.00     0.049 A 
ATOM     46  N   UNL A   1      39.418  30.663  28.653  1.00  0.00    -0.248 NA
ATOM     47  C   UNL A   1      37.818  29.094  28.186  1.00  0.00     0.031 C 
ATOM     48  C   UNL A   1      41.190  28.686  31.299  1.00  0.00     0.029 A 
ATOM     49  N   UNL A   1      42.010  27.120  30.017  1.00  0.00    -0.354 N 
ATOM     50  C   UNL A   1      38.164  31.220  28.822  1.00  0.00     0.074 A 
ATOM     51  C   UNL A   1      37.263  30.309  28.169  1.00  0.00     0.031 C 
ATOM     52  C   UNL A   1      42.385  28.298  31.808  1.00  0.00     0.029 A 
ATOM     53  C   UNL A   1      43.082  27.513  30.796  1.00  0.00     0.049 A 
ATOM     54  H   UNL A   1      41.947  26.256  29.551  1.00  0.00     0.167 HD
ATOM     55  C   UNL A   1      37.954  32.023  29.911  1.00  0.00     0.034 A 
ATOM     56  C   UNL A   1      44.244  27.862  30.154  1.00  0.00     0.034 A 
ATOM     57  C   UNL A   1      39.182  32.094  30.720  1.00  0.00     0.049 A 
ATOM     58  C   UNL A   1      44.309  29.379  30.061  1.00  0.00     0.074 A 
ATOM     59  C   UNL A   1      39.528  31.609  31.971  1.00  0.00     0.029 A 
ATOM     60  N   UNL A   1      40.373  32.456  30.110  1.00  0.00    -0.354 N 
ATOM     61  N   UNL A   1      43.269  30.171  30.115  1.00  0.00    -0.248 NA
ATOM     62  C   UNL A   1      45.564  30.111  30.005  1.00  0.00     0.031 C 
ATOM     63  C   UNL A   1      40.947  31.683  32.092  1.00  0.00     0.029 A 
ATOM     64  C   UNL A   1      41.461  32.157  30.898  1.00  0.00     0.049 A 
ATOM     65  H   UNL A   1      40.434  32.876  29.222  1.00  0.00     0.167 HD
ATOM     66  C   UNL A   1      43.676  31.472  30.231  1.00  0.00     0.074 A 
ATOM     67  C   UNL A   1      45.127  31.375  30.138  1.00  0.00     0.031 C 
ATOM     68  C   UNL A   1      42.793  32.506  30.428  1.00  0.00     0.034 A 
BRANCH  55  69
ATOM     69  C   UNL A   1      36.612  32.464  30.458  1.00  0.00     0.023 A 
ATOM     70  C   UNL A   1      35.882  33.424  29.726  1.00  0.00     0.031 A 
ATOM     71  C   UNL A   1      35.966  31.982  31.613  1.00  0.00     0.131 A 
ATOM     72  C   UNL A   1      34.635  33.903  30.153  1.00  0.00     0.055 A 
ATOM     73  C   UNL A   1      34.726  32.472  32.056  1.00  0.00     0.041 A 
ATOM     74  F   UNL A   1      36.466  30.978  32.344  1.00  0.00    -0.206 F 
ATOM     75  C   UNL A   1      34.052  33.440  31.324  1.00  0.00     0.022 A 
BRANCH  72  76
ATOM     76  S   UNL A   1      33.782  35.122  29.118  1.00  0.00     0.124 S 
ATOM     77  O   UNL A   1      32.664  34.343  28.595  1.00  0.00    -0.237 OA
ATOM     78  O   UNL A   1      33.449  36.167  30.079  1.00  0.00    -0.237 OA
ATOM     79  O   UNL A   1      34.795  35.492  28.131  1.00  0.00    -0.744 OA
ENDBRANCH  72  76
ENDBRANCH  55  69
BRANCH  56  80
ATOM     80  C   UNL A   1      44.554  26.906  29.027  1.00  0.00     0.023 A 
ATOM     81  C   UNL A   1      44.523  27.411  27.701  1.00  0.00     0.031 A 
ATOM     82  C   UNL A   1      45.391  25.815  29.286  1.00  0.00     0.131 A 
ATOM     83  C   UNL A   1      45.485  26.993  26.761  1.00  0.00     0.055 A 
ATOM     84  C   UNL A   1      46.365  25.445  28.361  1.00  0.00     0.041 A 
ATOM     85  F   UNL A   1      45.417  25.225  30.489  1.00  0.00    -0.206 F 
ATOM     86  C   UNL A   1      46.457  26.069  27.118  1.00  0.00     0.022 A 
BRANCH  83  87
ATOM     87  S   UNL A   1      45.540  27.766  25.118  1.00  0.00     0.124 S 
ATOM     88  O   UNL A   1      46.352  26.817  24.361  1.00  0.00    -0.237 OA
ATOM     89  O   UNL A   1      44.125  27.822  24.764  1.00  0.00    -0.237 OA
ATOM     90  O   UNL A   1      46.169  29.061  25.350  1.00  0.00    -0.744 OA
ENDBRANCH  83  87
ENDBRANCH  56  80
BRANCH  68  91
ATOM     91  C   UNL A   1      43.100  33.981  30.272  1.00  0.00     0.023 A 
ATOM     92  C   UNL A   1      43.124  34.608  29.031  1.00  0.00     0.031 A 
ATOM     93  C   UNL A   1      43.330  34.837  31.382  1.00  0.00     0.131 A 
ATOM     94  C   UNL A   1      43.498  35.950  28.897  1.00  0.00     0.055 A 
ATOM     95  C   UNL A   1      43.582  36.205  31.259  1.00  0.00     0.041 A 
ATOM     96  F   UNL A   1      43.313  34.407  32.652  1.00  0.00    -0.206 F 
ATOM     97  C   UNL A   1      43.704  36.765  30.002  1.00  0.00     0.022 A 
BRANCH  94  98
ATOM     98  S   UNL A   1      43.817  36.540  27.222  1.00  0.00     0.124 S 
ATOM     99  O   UNL A   1      42.479  36.509  26.636  1.00  0.00    -0.237 OA
ATOM    100  O   UNL A   1      44.369  37.869  27.462  1.00  0.00    -0.237 OA
ATOM    101  O   UNL A   1      44.756  35.557  26.687  1.00  0.00    -0.744 OA
ENDBRANCH  94  98
ENDBRANCH  68  91
ENDBRANCH  42  43
ENDBRANCH  35  37
ENDBRANCH  34  35
ENDBRANCH  33  34
ENDBRANCH   1  33
TORSDOF 19
ENDMDL
