MODEL 1
REMARK VINA RESULT:     -11.5      0.000      0.000
REMARK SMILES COc1cc(/C=C2/SC(=O)N(c3ccc(O)cc3C)C2=O)ccc1OCC(=O)OCCOC(=O)c1ccc(-c2c3nc(c(-c4cc(S(=O)(=O)[O-])ccc4F)c4ccc([nH]4)c(-c4cc(S(=O)(=O)[O-])ccc4F)c4nc(c(-c5cc(S(=O)(=O)[O-])ccc5F)c5ccc2[nH]5)C=C4)C=C3)cc1
REMARK SMILES IDX 30 1 29 2 27 3 28 4 26 5 25 6 24 7 3 8 4 9 5 10 23 11 22 12
REMARK SMILES IDX 2 13 1 14 6 15 7 16 8 17 20 18 9 19 11 20 21 21 10 22 12 23
REMARK SMILES IDX 13 24 18 25 14 26 17 27 19 28 15 29 16 30 31 32 32 33 33 34
REMARK SMILES IDX 34 35 35 36 36 37 97 38 37 39 96 40 38 41 39 42 40 43 90 44
REMARK SMILES IDX 41 45 95 46 89 47 91 48 42 49 94 50 88 51 87 52 43 54 75 55
REMARK SMILES IDX 55 56 74 57 56 58 59 59 73 60 92 61 57 62 58 63 72 65 93 66
REMARK SMILES IDX 60 67 44 68 45 69 53 70 46 71 52 72 54 73 51 74 47 75 48 76
REMARK SMILES IDX 49 77 50 78 76 79 77 80 85 81 78 82 84 83 86 84 83 85 79 86
REMARK SMILES IDX 80 87 81 88 82 89 61 90 62 91 70 92 63 93 69 94 71 95 68 96
REMARK SMILES IDX 64 97 65 98 66 99 67 100
REMARK H PARENT 16 31 91 53 59 64
REMARK Flexibility Score: inf
ROOT
ATOM      1  C   UNL A   1      45.141  39.261  26.438  1.00  0.00     0.274 C 
ENDROOT
BRANCH   1   2
ATOM      2  O   UNL A   1      45.187  40.573  25.835  1.00  0.00    -0.460 OA
BRANCH   2   3
ATOM      3  C   UNL A   1      44.189  41.432  26.181  1.00  0.00     0.344 C 
ATOM      4  O   UNL A   1      44.080  41.952  27.288  1.00  0.00    -0.248 OA
BRANCH   3   5
ATOM      5  C   UNL A   1      43.226  41.733  25.021  1.00  0.00     0.352 C 
BRANCH   5   6
ATOM      6  O   UNL A   1      43.335  42.868  24.201  1.00  0.00    -0.478 OA
BRANCH   6   7
ATOM      7  C   UNL A   1      43.258  42.826  22.843  1.00  0.00     0.162 A 
ATOM      8  C   UNL A   1      44.219  42.543  21.862  1.00  0.00     0.161 A 
ATOM      9  C   UNL A   1      43.858  42.634  20.490  1.00  0.00     0.058 A 
ATOM     10  C   UNL A   1      42.580  43.073  20.097  1.00  0.00    -0.020 A 
ATOM     11  C   UNL A   1      41.994  43.277  22.430  1.00  0.00     0.051 A 
ATOM     12  C   UNL A   1      41.657  43.411  21.086  1.00  0.00     0.012 A 
BRANCH   8  13
ATOM     13  O   UNL A   1      45.572  42.537  22.104  1.00  0.00    -0.493 OA
ATOM     14  C   UNL A   1      46.406  41.920  21.144  1.00  0.00     0.278 C 
ENDBRANCH   8  13
BRANCH  10  15
ATOM     15  C   UNL A   1      42.191  43.360  18.703  1.00  0.00     0.029 C 
ATOM     16  C   UNL A   1      42.540  44.473  18.033  1.00  0.00     0.083 C 
ATOM     17  S   UNL A   1      41.782  44.991  16.579  1.00  0.00    -0.022 SA
ATOM     18  C   UNL A   1      43.501  45.512  18.493  1.00  0.00     0.272 C 
ATOM     19  C   UNL A   1      42.514  46.607  16.677  1.00  0.00     0.298 C 
ATOM     20  N   UNL A   1      43.468  46.627  17.665  1.00  0.00    -0.236 N 
ATOM     21  O   UNL A   1      44.139  45.391  19.530  1.00  0.00    -0.268 OA
ATOM     22  O   UNL A   1      42.042  47.533  16.014  1.00  0.00    -0.260 OA
BRANCH  20  23
ATOM     23  C   UNL A   1      44.312  47.735  18.000  1.00  0.00     0.056 A 
ATOM     24  C   UNL A   1      43.698  48.820  18.670  1.00  0.00     0.031 A 
ATOM     25  C   UNL A   1      45.657  47.878  17.599  1.00  0.00    -0.023 A 
ATOM     26  C   UNL A   1      44.358  50.027  18.894  1.00  0.00     0.048 A 
ATOM     27  C   UNL A   1      46.323  49.097  17.866  1.00  0.00     0.051 A 
ATOM     28  C   UNL A   1      46.443  46.843  16.846  1.00  0.00     0.047 C 
ATOM     29  C   UNL A   1      45.667  50.160  18.480  1.00  0.00     0.115 A 
BRANCH  29  30
ATOM     30  O   UNL A   1      46.280  51.362  18.673  1.00  0.00    -0.508 OA
ATOM     31  H   UNL A   1      47.196  51.395  18.867  1.00  0.00     0.293 HD
ENDBRANCH  29  30
ENDBRANCH  20  23
ENDBRANCH  10  15
ENDBRANCH   6   7
ENDBRANCH   5   6
ENDBRANCH   3   5
ENDBRANCH   2   3
ENDBRANCH   1   2
BRANCH   1  32
ATOM     32  C   UNL A   1      46.264  39.143  27.477  1.00  0.00     0.275 C 
BRANCH  32  33
ATOM     33  O   UNL A   1      46.637  37.759  27.644  1.00  0.00    -0.458 OA
BRANCH  33  34
ATOM     34  C   UNL A   1      46.374  37.220  28.869  1.00  0.00     0.338 C 
ATOM     35  O   UNL A   1      46.365  37.834  29.923  1.00  0.00    -0.246 OA
BRANCH  34  36
ATOM     36  C   UNL A   1      46.007  35.776  28.741  1.00  0.00     0.060 A 
ATOM     37  C   UNL A   1      45.451  35.289  27.567  1.00  0.00     0.016 A 
ATOM     38  C   UNL A   1      46.128  34.896  29.820  1.00  0.00     0.016 A 
ATOM     39  C   UNL A   1      44.826  34.041  27.536  1.00  0.00     0.010 A 
ATOM     40  C   UNL A   1      45.666  33.565  29.715  1.00  0.00     0.010 A 
ATOM     41  C   UNL A   1      44.959  33.119  28.583  1.00  0.00    -0.014 A 
BRANCH  41  42
ATOM     42  C   UNL A   1      44.373  31.732  28.460  1.00  0.00     0.031 A 
ATOM     43  C   UNL A   1      45.119  30.620  27.749  1.00  0.00     0.074 A 
ATOM     44  C   UNL A   1      43.167  31.433  28.999  1.00  0.00     0.049 A 
ATOM     45  N   UNL A   1      44.686  29.447  27.353  1.00  0.00    -0.248 NA
ATOM     46  C   UNL A   1      46.525  30.876  27.412  1.00  0.00     0.031 C 
ATOM     47  C   UNL A   1      42.312  32.365  29.739  1.00  0.00     0.029 A 
ATOM     48  N   UNL A   1      42.447  30.256  29.028  1.00  0.00    -0.354 N 
ATOM     49  C   UNL A   1      45.736  28.861  26.649  1.00  0.00     0.074 A 
ATOM     50  C   UNL A   1      46.821  29.823  26.664  1.00  0.00     0.031 C 
ATOM     51  C   UNL A   1      41.250  31.713  30.227  1.00  0.00     0.029 A 
ATOM     52  C   UNL A   1      41.245  30.358  29.696  1.00  0.00     0.049 A 
ATOM     53  H   UNL A   1      42.763  29.423  28.612  1.00  0.00     0.167 HD
ATOM     54  C   UNL A   1      45.791  27.641  26.049  1.00  0.00     0.034 A 
ATOM     55  C   UNL A   1      40.204  29.507  29.816  1.00  0.00     0.034 A 
ATOM     56  C   UNL A   1      44.729  26.662  26.099  1.00  0.00     0.049 A 
ATOM     57  C   UNL A   1      40.274  28.174  29.129  1.00  0.00     0.074 A 
ATOM     58  C   UNL A   1      44.693  25.395  25.539  1.00  0.00     0.029 A 
ATOM     59  N   UNL A   1      43.522  26.828  26.766  1.00  0.00    -0.354 N 
ATOM     60  N   UNL A   1      41.237  27.680  28.389  1.00  0.00    -0.248 NA
ATOM     61  C   UNL A   1      39.110  27.293  29.277  1.00  0.00     0.031 C 
ATOM     62  C   UNL A   1      43.442  24.827  25.804  1.00  0.00     0.029 A 
ATOM     63  C   UNL A   1      42.727  25.700  26.608  1.00  0.00     0.049 A 
ATOM     64  H   UNL A   1      43.265  27.630  27.276  1.00  0.00     0.167 HD
ATOM     65  C   UNL A   1      40.801  26.421  27.993  1.00  0.00     0.074 A 
ATOM     66  C   UNL A   1      39.498  26.226  28.597  1.00  0.00     0.031 C 
ATOM     67  C   UNL A   1      41.423  25.512  27.200  1.00  0.00     0.034 A 
BRANCH  54  68
ATOM     68  C   UNL A   1      47.026  27.322  25.233  1.00  0.00     0.023 A 
ATOM     69  C   UNL A   1      47.256  27.913  23.983  1.00  0.00     0.031 A 
ATOM     70  C   UNL A   1      47.953  26.361  25.680  1.00  0.00     0.131 A 
ATOM     71  C   UNL A   1      48.297  27.444  23.169  1.00  0.00     0.055 A 
ATOM     72  C   UNL A   1      49.056  25.980  24.912  1.00  0.00     0.041 A 
ATOM     73  F   UNL A   1      47.789  25.753  26.866  1.00  0.00    -0.206 F 
ATOM     74  C   UNL A   1      49.216  26.500  23.632  1.00  0.00     0.022 A 
BRANCH  71  75
ATOM     75  S   UNL A   1      48.251  27.888  21.412  1.00  0.00     0.124 S 
ATOM     76  O   UNL A   1      48.580  26.606  20.789  1.00  0.00    -0.237 OA
ATOM     77  O   UNL A   1      46.877  28.346  21.246  1.00  0.00    -0.237 OA
ATOM     78  O   UNL A   1      49.284  28.917  21.300  1.00  0.00    -0.744 OA
ENDBRANCH  71  75
ENDBRANCH  54  68
BRANCH  55  79
ATOM     79  C   UNL A   1      38.969  29.943  30.540  1.00  0.00     0.023 A 
ATOM     80  C   UNL A   1      38.046  30.826  29.958  1.00  0.00     0.031 A 
ATOM     81  C   UNL A   1      38.690  29.458  31.833  1.00  0.00     0.131 A 
ATOM     82  C   UNL A   1      36.895  31.201  30.671  1.00  0.00     0.055 A 
ATOM     83  C   UNL A   1      37.515  29.785  32.510  1.00  0.00     0.041 A 
ATOM     84  F   UNL A   1      39.541  28.615  32.441  1.00  0.00    -0.206 F 
ATOM     85  C   UNL A   1      36.612  30.668  31.930  1.00  0.00     0.022 A 
BRANCH  82  86
ATOM     86  S   UNL A   1      35.785  32.445  29.951  1.00  0.00     0.124 S 
ATOM     87  O   UNL A   1      35.333  33.161  31.137  1.00  0.00    -0.237 OA
ATOM     88  O   UNL A   1      36.683  33.174  29.062  1.00  0.00    -0.237 OA
ATOM     89  O   UNL A   1      34.765  31.641  29.280  1.00  0.00    -0.744 OA
ENDBRANCH  82  86
ENDBRANCH  55  79
BRANCH  67  90
ATOM     90  C   UNL A   1      40.717  24.196  26.987  1.00  0.00     0.023 A 
ATOM     91  C   UNL A   1      39.521  24.106  26.255  1.00  0.00     0.031 A 
ATOM     92  C   UNL A   1      41.232  23.019  27.559  1.00  0.00     0.131 A 
ATOM     93  C   UNL A   1      38.842  22.880  26.175  1.00  0.00     0.055 A 
ATOM     94  C   UNL A   1      40.589  21.789  27.416  1.00  0.00     0.041 A 
ATOM     95  F   UNL A   1      42.368  23.046  28.275  1.00  0.00    -0.206 F 
ATOM     96  C   UNL A   1      39.377  21.717  26.735  1.00  0.00     0.022 A 
BRANCH  93  97
ATOM     97  S   UNL A   1      37.185  22.851  25.437  1.00  0.00     0.124 S 
ATOM     98  O   UNL A   1      36.414  23.637  26.395  1.00  0.00    -0.237 OA
ATOM     99  O   UNL A   1      37.412  23.473  24.137  1.00  0.00    -0.237 OA
ATOM    100  O   UNL A   1      36.854  21.428  25.394  1.00  0.00    -0.744 OA
ENDBRANCH  93  97
ENDBRANCH  67  90
ENDBRANCH  41  42
ENDBRANCH  34  36
ENDBRANCH  33  34
ENDBRANCH  32  33
ENDBRANCH   1  32
TORSDOF 20
ENDMDL
MODEL 2
REMARK VINA RESULT:     -11.4      8.043     15.216
REMARK SMILES COc1cc(/C=C2/SC(=O)N(c3ccc(O)cc3C)C2=O)ccc1OCC(=O)OCCOC(=O)c1ccc(-c2c3nc(c(-c4cc(S(=O)(=O)[O-])ccc4F)c4ccc([nH]4)c(-c4cc(S(=O)(=O)[O-])ccc4F)c4nc(c(-c5cc(S(=O)(=O)[O-])ccc5F)c5ccc2[nH]5)C=C4)C=C3)cc1
REMARK SMILES IDX 30 1 29 2 27 3 28 4 26 5 25 6 24 7 3 8 4 9 5 10 23 11 22 12
REMARK SMILES IDX 2 13 1 14 6 15 7 16 8 17 20 18 9 19 11 20 21 21 10 22 12 23
REMARK SMILES IDX 13 24 18 25 14 26 17 27 19 28 15 29 16 30 31 32 32 33 33 34
REMARK SMILES IDX 34 35 35 36 36 37 97 38 37 39 96 40 38 41 39 42 40 43 90 44
REMARK SMILES IDX 41 45 95 46 89 47 91 48 42 49 94 50 88 51 87 52 43 54 75 55
REMARK SMILES IDX 55 56 74 57 56 58 59 59 73 60 92 61 57 62 58 63 72 65 93 66
REMARK SMILES IDX 60 67 44 68 45 69 53 70 46 71 52 72 54 73 51 74 47 75 48 76
REMARK SMILES IDX 49 77 50 78 76 79 77 80 85 81 78 82 84 83 86 84 83 85 79 86
REMARK SMILES IDX 80 87 81 88 82 89 61 90 62 91 70 92 63 93 69 94 71 95 68 96
REMARK SMILES IDX 64 97 65 98 66 99 67 100
REMARK H PARENT 16 31 91 53 59 64
REMARK Flexibility Score: inf
ROOT
ATOM      1  C   UNL A   1      43.847  34.593  25.043  1.00  0.00     0.274 C 
ENDROOT
BRANCH   1   2
ATOM      2  O   UNL A   1      43.849  33.182  25.353  1.00  0.00    -0.460 OA
BRANCH   2   3
ATOM      3  C   UNL A   1      44.976  32.693  25.939  1.00  0.00     0.344 C 
ATOM      4  O   UNL A   1      46.104  33.132  25.737  1.00  0.00    -0.248 OA
BRANCH   3   5
ATOM      5  C   UNL A   1      44.692  31.553  26.931  1.00  0.00     0.352 C 
BRANCH   5   6
ATOM      6  O   UNL A   1      44.531  30.214  26.543  1.00  0.00    -0.478 OA
BRANCH   6   7
ATOM      7  C   UNL A   1      43.686  29.345  27.164  1.00  0.00     0.162 A 
ATOM      8  C   UNL A   1      43.113  28.138  26.742  1.00  0.00     0.161 A 
ATOM      9  C   UNL A   1      42.204  27.464  27.602  1.00  0.00     0.058 A 
ATOM     10  C   UNL A   1      41.812  28.019  28.834  1.00  0.00    -0.020 A 
ATOM     11  C   UNL A   1      43.271  29.890  28.390  1.00  0.00     0.051 A 
ATOM     12  C   UNL A   1      42.345  29.251  29.210  1.00  0.00     0.012 A 
BRANCH   8  13
ATOM     13  O   UNL A   1      43.072  27.735  25.428  1.00  0.00    -0.493 OA
ATOM     14  C   UNL A   1      42.293  26.597  25.116  1.00  0.00     0.278 C 
ENDBRANCH   8  13
BRANCH  10  15
ATOM     15  C   UNL A   1      40.748  27.468  29.695  1.00  0.00     0.029 C 
ATOM     16  C   UNL A   1      39.519  28.002  29.814  1.00  0.00     0.083 C 
ATOM     17  S   UNL A   1      38.426  27.611  31.083  1.00  0.00    -0.022 SA
ATOM     18  C   UNL A   1      38.957  29.109  28.994  1.00  0.00     0.272 C 
ATOM     19  C   UNL A   1      37.371  28.992  30.709  1.00  0.00     0.298 C 
ATOM     20  N   UNL A   1      37.751  29.559  29.517  1.00  0.00    -0.236 N 
ATOM     21  O   UNL A   1      39.569  29.591  28.050  1.00  0.00    -0.268 OA
ATOM     22  O   UNL A   1      36.556  29.383  31.547  1.00  0.00    -0.260 OA
BRANCH  20  23
ATOM     23  C   UNL A   1      37.102  30.654  28.859  1.00  0.00     0.056 A 
ATOM     24  C   UNL A   1      37.639  31.942  29.093  1.00  0.00     0.031 A 
ATOM     25  C   UNL A   1      35.907  30.557  28.116  1.00  0.00    -0.023 A 
ATOM     26  C   UNL A   1      37.002  33.104  28.661  1.00  0.00     0.048 A 
ATOM     27  C   UNL A   1      35.292  31.744  27.654  1.00  0.00     0.051 A 
ATOM     28  C   UNL A   1      35.185  29.274  27.813  1.00  0.00     0.047 C 
ATOM     29  C   UNL A   1      35.824  32.996  27.952  1.00  0.00     0.115 A 
BRANCH  29  30
ATOM     30  O   UNL A   1      35.196  34.146  27.575  1.00  0.00    -0.508 OA
ATOM     31  H   UNL A   1      35.661  34.793  27.084  1.00  0.00     0.293 HD
ENDBRANCH  29  30
ENDBRANCH  20  23
ENDBRANCH  10  15
ENDBRANCH   6   7
ENDBRANCH   5   6
ENDBRANCH   3   5
ENDBRANCH   2   3
ENDBRANCH   1   2
BRANCH   1  32
ATOM     32  C   UNL A   1      43.077  35.349  26.134  1.00  0.00     0.275 C 
BRANCH  32  33
ATOM     33  O   UNL A   1      43.886  36.428  26.648  1.00  0.00    -0.458 OA
BRANCH  33  34
ATOM     34  C   UNL A   1      44.876  36.063  27.513  1.00  0.00     0.338 C 
ATOM     35  O   UNL A   1      46.071  36.097  27.271  1.00  0.00    -0.246 OA
BRANCH  34  36
ATOM     36  C   UNL A   1      44.303  35.693  28.844  1.00  0.00     0.060 A 
ATOM     37  C   UNL A   1      44.156  34.361  29.204  1.00  0.00     0.016 A 
ATOM     38  C   UNL A   1      43.821  36.664  29.725  1.00  0.00     0.016 A 
ATOM     39  C   UNL A   1      43.353  33.999  30.287  1.00  0.00     0.010 A 
ATOM     40  C   UNL A   1      43.176  36.288  30.924  1.00  0.00     0.010 A 
ATOM     41  C   UNL A   1      42.885  34.942  31.211  1.00  0.00    -0.014 A 
BRANCH  41  42
ATOM     42  C   UNL A   1      42.125  34.498  32.439  1.00  0.00     0.031 A 
ATOM     43  C   UNL A   1      40.614  34.377  32.430  1.00  0.00     0.074 A 
ATOM     44  C   UNL A   1      42.772  34.176  33.585  1.00  0.00     0.049 A 
ATOM     45  N   UNL A   1      39.783  34.234  33.435  1.00  0.00    -0.248 NA
ATOM     46  C   UNL A   1      39.951  34.462  31.123  1.00  0.00     0.031 C 
ATOM     47  C   UNL A   1      44.224  34.210  33.779  1.00  0.00     0.029 A 
ATOM     48  N   UNL A   1      42.303  33.740  34.806  1.00  0.00    -0.354 N 
ATOM     49  C   UNL A   1      38.500  34.294  32.893  1.00  0.00     0.074 A 
ATOM     50  C   UNL A   1      38.672  34.505  31.468  1.00  0.00     0.031 C 
ATOM     51  C   UNL A   1      44.529  33.725  34.987  1.00  0.00     0.029 A 
ATOM     52  C   UNL A   1      43.298  33.507  35.732  1.00  0.00     0.049 A 
ATOM     53  H   UNL A   1      41.347  33.607  34.998  1.00  0.00     0.167 HD
ATOM     54  C   UNL A   1      37.297  34.187  33.521  1.00  0.00     0.034 A 
ATOM     55  C   UNL A   1      43.256  33.227  37.051  1.00  0.00     0.034 A 
ATOM     56  C   UNL A   1      37.139  33.908  34.930  1.00  0.00     0.049 A 
ATOM     57  C   UNL A   1      41.921  33.134  37.731  1.00  0.00     0.074 A 
ATOM     58  C   UNL A   1      35.968  33.765  35.657  1.00  0.00     0.029 A 
ATOM     59  N   UNL A   1      38.182  33.709  35.826  1.00  0.00    -0.354 N 
ATOM     60  N   UNL A   1      40.724  33.290  37.218  1.00  0.00    -0.248 NA
ATOM     61  C   UNL A   1      41.931  32.845  39.170  1.00  0.00     0.031 C 
ATOM     62  C   UNL A   1      36.301  33.552  36.999  1.00  0.00     0.029 A 
ATOM     63  C   UNL A   1      37.680  33.470  37.099  1.00  0.00     0.049 A 
ATOM     64  H   UNL A   1      39.137  33.733  35.593  1.00  0.00     0.167 HD
ATOM     65  C   UNL A   1      39.835  33.105  38.270  1.00  0.00     0.074 A 
ATOM     66  C   UNL A   1      40.636  32.803  39.440  1.00  0.00     0.031 C 
ATOM     67  C   UNL A   1      38.480  33.181  38.267  1.00  0.00     0.034 A 
BRANCH  54  68
ATOM     68  C   UNL A   1      36.055  34.430  32.691  1.00  0.00     0.023 A 
ATOM     69  C   UNL A   1      35.416  35.678  32.670  1.00  0.00     0.031 A 
ATOM     70  C   UNL A   1      35.461  33.382  31.963  1.00  0.00     0.131 A 
ATOM     71  C   UNL A   1      34.162  35.810  32.058  1.00  0.00     0.055 A 
ATOM     72  C   UNL A   1      34.267  33.551  31.258  1.00  0.00     0.041 A 
ATOM     73  F   UNL A   1      36.018  32.160  31.945  1.00  0.00    -0.206 F 
ATOM     74  C   UNL A   1      33.592  34.765  31.329  1.00  0.00     0.022 A 
BRANCH  71  75
ATOM     75  S   UNL A   1      33.179  37.277  32.471  1.00  0.00     0.124 S 
ATOM     76  O   UNL A   1      33.004  37.879  31.149  1.00  0.00    -0.237 OA
ATOM     77  O   UNL A   1      31.987  36.690  33.070  1.00  0.00    -0.237 OA
ATOM     78  O   UNL A   1      34.050  38.018  33.382  1.00  0.00    -0.744 OA
ENDBRANCH  71  75
ENDBRANCH  54  68
BRANCH  55  79
ATOM     79  C   UNL A   1      44.531  33.118  37.828  1.00  0.00     0.023 A 
ATOM     80  C   UNL A   1      45.106  31.874  38.130  1.00  0.00     0.031 A 
ATOM     81  C   UNL A   1      45.202  34.277  38.266  1.00  0.00     0.131 A 
ATOM     82  C   UNL A   1      46.309  31.819  38.855  1.00  0.00     0.055 A 
ATOM     83  C   UNL A   1      46.427  34.218  38.930  1.00  0.00     0.041 A 
ATOM     84  F   UNL A   1      44.694  35.494  38.010  1.00  0.00    -0.206 F 
ATOM     85  C   UNL A   1      46.984  32.981  39.234  1.00  0.00     0.022 A 
BRANCH  82  86
ATOM     86  S   UNL A   1      46.962  30.199  39.347  1.00  0.00     0.124 S 
ATOM     87  O   UNL A   1      46.300  29.311  38.399  1.00  0.00    -0.237 OA
ATOM     88  O   UNL A   1      48.398  30.381  39.162  1.00  0.00    -0.237 OA
ATOM     89  O   UNL A   1      46.528  30.065  40.736  1.00  0.00    -0.744 OA
ENDBRANCH  82  86
ENDBRANCH  55  79
BRANCH  67  90
ATOM     90  C   UNL A   1      37.776  32.876  39.566  1.00  0.00     0.023 A 
ATOM     91  C   UNL A   1      37.762  33.789  40.634  1.00  0.00     0.031 A 
ATOM     92  C   UNL A   1      37.142  31.634  39.750  1.00  0.00     0.131 A 
ATOM     93  C   UNL A   1      37.189  33.420  41.861  1.00  0.00     0.055 A 
ATOM     94  C   UNL A   1      36.512  31.300  40.949  1.00  0.00     0.041 A 
ATOM     95  F   UNL A   1      37.130  30.720  38.766  1.00  0.00    -0.206 F 
ATOM     96  C   UNL A   1      36.548  32.189  42.020  1.00  0.00     0.022 A 
BRANCH  93  97
ATOM     97  S   UNL A   1      37.404  34.520  43.287  1.00  0.00     0.124 S 
ATOM     98  O   UNL A   1      37.967  35.715  42.665  1.00  0.00    -0.237 OA
ATOM     99  O   UNL A   1      36.041  34.646  43.792  1.00  0.00    -0.237 OA
ATOM    100  O   UNL A   1      38.321  33.783  44.154  1.00  0.00    -0.744 OA
ENDBRANCH  93  97
ENDBRANCH  67  90
ENDBRANCH  41  42
ENDBRANCH  34  36
ENDBRANCH  33  34
ENDBRANCH  32  33
ENDBRANCH   1  32
TORSDOF 20
ENDMDL
MODEL 3
REMARK VINA RESULT:     -11.4      7.495     16.533
REMARK SMILES COc1cc(/C=C2/SC(=O)N(c3ccc(O)cc3C)C2=O)ccc1OCC(=O)OCCOC(=O)c1ccc(-c2c3nc(c(-c4cc(S(=O)(=O)[O-])ccc4F)c4ccc([nH]4)c(-c4cc(S(=O)(=O)[O-])ccc4F)c4nc(c(-c5cc(S(=O)(=O)[O-])ccc5F)c5ccc2[nH]5)C=C4)C=C3)cc1
REMARK SMILES IDX 30 1 29 2 27 3 28 4 26 5 25 6 24 7 3 8 4 9 5 10 23 11 22 12
REMARK SMILES IDX 2 13 1 14 6 15 7 16 8 17 20 18 9 19 11 20 21 21 10 22 12 23
REMARK SMILES IDX 13 24 18 25 14 26 17 27 19 28 15 29 16 30 31 32 32 33 33 34
REMARK SMILES IDX 34 35 35 36 36 37 97 38 37 39 96 40 38 41 39 42 40 43 90 44
REMARK SMILES IDX 41 45 95 46 89 47 91 48 42 49 94 50 88 51 87 52 43 54 75 55
REMARK SMILES IDX 55 56 74 57 56 58 59 59 73 60 92 61 57 62 58 63 72 65 93 66
REMARK SMILES IDX 60 67 44 68 45 69 53 70 46 71 52 72 54 73 51 74 47 75 48 76
REMARK SMILES IDX 49 77 50 78 76 79 77 80 85 81 78 82 84 83 86 84 83 85 79 86
REMARK SMILES IDX 80 87 81 88 82 89 61 90 62 91 70 92 63 93 69 94 71 95 68 96
REMARK SMILES IDX 64 97 65 98 66 99 67 100
REMARK H PARENT 16 31 91 53 59 64
REMARK Flexibility Score: inf
ROOT
ATOM      1  C   UNL A   1      42.395  21.810  26.304  1.00  0.00     0.274 C 
ENDROOT
BRANCH   1   2
ATOM      2  O   UNL A   1      41.165  21.622  25.570  1.00  0.00    -0.460 OA
BRANCH   2   3
ATOM      3  C   UNL A   1      40.122  21.091  26.264  1.00  0.00     0.344 C 
ATOM      4  O   UNL A   1      40.234  20.205  27.107  1.00  0.00    -0.248 OA
BRANCH   3   5
ATOM      5  C   UNL A   1      38.775  21.749  25.923  1.00  0.00     0.352 C 
BRANCH   5   6
ATOM      6  O   UNL A   1      37.659  21.032  25.464  1.00  0.00    -0.478 OA
BRANCH   6   7
ATOM      7  C   UNL A   1      36.589  21.613  24.855  1.00  0.00     0.162 A 
ATOM      8  C   UNL A   1      35.213  21.361  24.946  1.00  0.00     0.161 A 
ATOM      9  C   UNL A   1      34.316  22.103  24.130  1.00  0.00     0.058 A 
ATOM     10  C   UNL A   1      34.785  23.033  23.184  1.00  0.00    -0.020 A 
ATOM     11  C   UNL A   1      37.038  22.534  23.894  1.00  0.00     0.051 A 
ATOM     12  C   UNL A   1      36.161  23.226  23.064  1.00  0.00     0.012 A 
BRANCH   8  13
ATOM     13  O   UNL A   1      34.686  20.212  25.486  1.00  0.00    -0.493 OA
ATOM     14  C   UNL A   1      33.649  19.568  24.772  1.00  0.00     0.278 C 
ENDBRANCH   8  13
BRANCH  10  15
ATOM     15  C   UNL A   1      33.933  23.709  22.188  1.00  0.00     0.029 C 
ATOM     16  C   UNL A   1      33.279  24.863  22.410  1.00  0.00     0.083 C 
ATOM     17  S   UNL A   1      31.999  25.443  21.418  1.00  0.00    -0.022 SA
ATOM     18  C   UNL A   1      33.425  25.742  23.602  1.00  0.00     0.272 C 
ATOM     19  C   UNL A   1      31.509  26.657  22.620  1.00  0.00     0.298 C 
ATOM     20  N   UNL A   1      32.453  26.735  23.615  1.00  0.00    -0.236 N 
ATOM     21  O   UNL A   1      34.248  25.514  24.478  1.00  0.00    -0.268 OA
ATOM     22  O   UNL A   1      30.392  27.173  22.547  1.00  0.00    -0.260 OA
BRANCH  20  23
ATOM     23  C   UNL A   1      32.436  27.641  24.724  1.00  0.00     0.056 A 
ATOM     24  C   UNL A   1      33.273  28.779  24.627  1.00  0.00     0.031 A 
ATOM     25  C   UNL A   1      31.759  27.418  25.941  1.00  0.00    -0.023 A 
ATOM     26  C   UNL A   1      33.485  29.641  25.700  1.00  0.00     0.048 A 
ATOM     27  C   UNL A   1      31.957  28.323  27.010  1.00  0.00     0.051 A 
ATOM     28  C   UNL A   1      30.866  26.242  26.224  1.00  0.00     0.047 C 
ATOM     29  C   UNL A   1      32.831  29.400  26.891  1.00  0.00     0.115 A 
BRANCH  29  30
ATOM     30  O   UNL A   1      33.084  30.233  27.940  1.00  0.00    -0.508 OA
ATOM     31  H   UNL A   1      33.770  30.867  27.879  1.00  0.00     0.293 HD
ENDBRANCH  29  30
ENDBRANCH  20  23
ENDBRANCH  10  15
ENDBRANCH   6   7
ENDBRANCH   5   6
ENDBRANCH   3   5
ENDBRANCH   2   3
ENDBRANCH   1   2
BRANCH   1  32
ATOM     32  C   UNL A   1      43.544  21.129  25.548  1.00  0.00     0.275 C 
BRANCH  32  33
ATOM     33  O   UNL A   1      44.741  21.929  25.648  1.00  0.00    -0.458 OA
BRANCH  33  34
ATOM     34  C   UNL A   1      44.770  23.048  24.867  1.00  0.00     0.338 C 
ATOM     35  O   UNL A   1      44.865  23.057  23.651  1.00  0.00    -0.246 OA
BRANCH  34  36
ATOM     36  C   UNL A   1      44.581  24.277  25.699  1.00  0.00     0.060 A 
ATOM     37  C   UNL A   1      43.984  25.407  25.162  1.00  0.00     0.016 A 
ATOM     38  C   UNL A   1      45.076  24.357  27.003  1.00  0.00     0.016 A 
ATOM     39  C   UNL A   1      44.078  26.641  25.809  1.00  0.00     0.010 A 
ATOM     40  C   UNL A   1      44.993  25.566  27.728  1.00  0.00     0.010 A 
ATOM     41  C   UNL A   1      44.532  26.753  27.129  1.00  0.00    -0.014 A 
BRANCH  41  42
ATOM     42  C   UNL A   1      44.504  28.086  27.838  1.00  0.00     0.031 A 
ATOM     43  C   UNL A   1      43.243  28.598  28.505  1.00  0.00     0.074 A 
ATOM     44  C   UNL A   1      45.612  28.861  27.916  1.00  0.00     0.049 A 
ATOM     45  N   UNL A   1      42.967  29.798  28.958  1.00  0.00    -0.248 NA
ATOM     46  C   UNL A   1      42.137  27.644  28.652  1.00  0.00     0.031 C 
ATOM     47  C   UNL A   1      46.924  28.527  27.354  1.00  0.00     0.029 A 
ATOM     48  N   UNL A   1      45.829  30.086  28.511  1.00  0.00    -0.354 N 
ATOM     49  C   UNL A   1      41.635  29.766  29.365  1.00  0.00     0.074 A 
ATOM     50  C   UNL A   1      41.158  28.425  29.087  1.00  0.00     0.031 C 
ATOM     51  C   UNL A   1      47.817  29.457  27.710  1.00  0.00     0.029 A 
ATOM     52  C   UNL A   1      47.122  30.548  28.376  1.00  0.00     0.049 A 
ATOM     53  H   UNL A   1      45.127  30.583  28.988  1.00  0.00     0.167 HD
ATOM     54  C   UNL A   1      40.881  30.757  29.916  1.00  0.00     0.034 A 
ATOM     55  C   UNL A   1      47.692  31.735  28.669  1.00  0.00     0.034 A 
ATOM     56  C   UNL A   1      41.386  32.069  30.253  1.00  0.00     0.049 A 
ATOM     57  C   UNL A   1      46.841  32.823  29.256  1.00  0.00     0.074 A 
ATOM     58  C   UNL A   1      40.710  33.134  30.826  1.00  0.00     0.029 A 
ATOM     59  N   UNL A   1      42.696  32.491  30.068  1.00  0.00    -0.354 N 
ATOM     60  N   UNL A   1      45.560  32.802  29.543  1.00  0.00    -0.248 NA
ATOM     61  C   UNL A   1      47.505  34.100  29.541  1.00  0.00     0.031 C 
ATOM     62  C   UNL A   1      41.589  34.218  30.921  1.00  0.00     0.029 A 
ATOM     63  C   UNL A   1      42.840  33.806  30.492  1.00  0.00     0.049 A 
ATOM     64  H   UNL A   1      43.419  31.940  29.691  1.00  0.00     0.167 HD
ATOM     65  C   UNL A   1      45.268  34.060  30.057  1.00  0.00     0.074 A 
ATOM     66  C   UNL A   1      46.511  34.805  30.060  1.00  0.00     0.031 C 
ATOM     67  C   UNL A   1      44.077  34.552  30.484  1.00  0.00     0.034 A 
BRANCH  54  68
ATOM     68  C   UNL A   1      39.411  30.473  30.134  1.00  0.00     0.023 A 
ATOM     69  C   UNL A   1      38.422  31.042  29.318  1.00  0.00     0.031 A 
ATOM     70  C   UNL A   1      38.985  29.677  31.214  1.00  0.00     0.131 A 
ATOM     71  C   UNL A   1      37.071  30.923  29.673  1.00  0.00     0.055 A 
ATOM     72  C   UNL A   1      37.633  29.468  31.495  1.00  0.00     0.041 A 
ATOM     73  F   UNL A   1      39.880  29.108  32.038  1.00  0.00    -0.206 F 
ATOM     74  C   UNL A   1      36.664  30.120  30.739  1.00  0.00     0.022 A 
BRANCH  71  75
ATOM     75  S   UNL A   1      35.896  32.057  28.884  1.00  0.00     0.124 S 
ATOM     76  O   UNL A   1      34.770  31.988  29.816  1.00  0.00    -0.237 OA
ATOM     77  O   UNL A   1      36.640  33.310  28.871  1.00  0.00    -0.237 OA
ATOM     78  O   UNL A   1      35.661  31.441  27.579  1.00  0.00    -0.744 OA
ENDBRANCH  71  75
ENDBRANCH  54  68
BRANCH  55  79
ATOM     79  C   UNL A   1      49.125  31.979  28.314  1.00  0.00     0.023 A 
ATOM     80  C   UNL A   1      49.490  32.590  27.105  1.00  0.00     0.031 A 
ATOM     81  C   UNL A   1      50.154  31.610  29.202  1.00  0.00     0.131 A 
ATOM     82  C   UNL A   1      50.849  32.808  26.816  1.00  0.00     0.055 A 
ATOM     83  C   UNL A   1      51.496  31.885  28.938  1.00  0.00     0.041 A 
ATOM     84  F   UNL A   1      49.863  31.016  30.371  1.00  0.00    -0.206 F 
ATOM     85  C   UNL A   1      51.850  32.482  27.734  1.00  0.00     0.022 A 
BRANCH  82  86
ATOM     86  S   UNL A   1      51.302  33.479  25.192  1.00  0.00     0.124 S 
ATOM     87  O   UNL A   1      50.124  34.269  24.857  1.00  0.00    -0.237 OA
ATOM     88  O   UNL A   1      52.514  34.231  25.501  1.00  0.00    -0.237 OA
ATOM     89  O   UNL A   1      51.506  32.284  24.375  1.00  0.00    -0.744 OA
ENDBRANCH  82  86
ENDBRANCH  55  79
BRANCH  67  90
ATOM     90  C   UNL A   1      44.079  35.953  31.044  1.00  0.00     0.023 A 
ATOM     91  C   UNL A   1      43.852  37.076  30.232  1.00  0.00     0.031 A 
ATOM     92  C   UNL A   1      44.351  36.166  32.407  1.00  0.00     0.131 A 
ATOM     93  C   UNL A   1      43.972  38.365  30.774  1.00  0.00     0.055 A 
ATOM     94  C   UNL A   1      44.398  37.448  32.956  1.00  0.00     0.041 A 
ATOM     95  F   UNL A   1      44.582  35.129  33.229  1.00  0.00    -0.206 F 
ATOM     96  C   UNL A   1      44.225  38.558  32.135  1.00  0.00     0.022 A 
BRANCH  93  97
ATOM     97  S   UNL A   1      43.917  39.789  29.652  1.00  0.00     0.124 S 
ATOM     98  O   UNL A   1      44.303  40.886  30.536  1.00  0.00    -0.237 OA
ATOM     99  O   UNL A   1      44.893  39.420  28.631  1.00  0.00    -0.237 OA
ATOM    100  O   UNL A   1      42.527  39.818  29.201  1.00  0.00    -0.744 OA
ENDBRANCH  93  97
ENDBRANCH  67  90
ENDBRANCH  41  42
ENDBRANCH  34  36
ENDBRANCH  33  34
ENDBRANCH  32  33
ENDBRANCH   1  32
TORSDOF 20
ENDMDL
