MODEL 1
REMARK VINA RESULT:     -12.2      0.000      0.000
REMARK SMILES Nc1nc2ccccc2nc1N1CCC(C(=O)OCCOC(=O)c2ccc(-c3c4nc(c(-c5cc(S(=O)(=O)[O-])ccc5F)c5ccc([nH]5)c(-c5cc(S(=O)(=O)[O-])ccc5F)c5nc(c(-c6cc(S(=O)(=O)[O-])ccc6F)c6ccc3[nH]6)C=C5)C=C4)cc2)CC1
REMARK SMILES IDX 20 1 19 2 18 3 16 4 17 5 15 6 12 7 13 8 88 9 14 10 87 11
REMARK SMILES IDX 11 12 2 13 3 14 4 15 10 16 5 17 9 18 6 19 8 20 7 21 1 22
REMARK SMILES IDX 21 25 22 26 23 27 24 28 25 29 86 30 26 31 85 32 27 33 28 34
REMARK SMILES IDX 29 35 79 36 30 37 84 38 78 39 80 40 31 41 83 42 77 43 76 44
REMARK SMILES IDX 32 46 64 47 44 48 63 49 45 50 48 51 62 52 81 53 46 54 47 55
REMARK SMILES IDX 61 57 82 58 49 59 33 60 34 61 42 62 35 63 41 64 43 65 40 66
REMARK SMILES IDX 36 67 37 68 38 69 39 70 65 71 66 72 74 73 67 74 73 75 75 76
REMARK SMILES IDX 72 77 68 78 69 79 70 80 71 81 50 82 51 83 59 84 52 85 58 86
REMARK SMILES IDX 60 87 57 88 53 89 54 90 55 91 56 92
REMARK H PARENT 1 23 1 24 80 45 48 56
REMARK Flexibility Score: inf
ROOT
ATOM      1  C   UNL A   1      37.405  20.974  24.699  1.00  0.00     0.275 C 
ENDROOT
BRANCH   1   2
ATOM      2  C   UNL A   1      36.098  20.252  25.036  1.00  0.00     0.274 C 
BRANCH   2   3
ATOM      3  O   UNL A   1      35.084  21.184  25.452  1.00  0.00    -0.462 OA
BRANCH   3   4
ATOM      4  C   UNL A   1      33.813  20.873  25.101  1.00  0.00     0.309 C 
ATOM      5  O   UNL A   1      33.214  19.866  25.463  1.00  0.00    -0.252 OA
BRANCH   4   6
ATOM      6  C   UNL A   1      33.176  21.898  24.191  1.00  0.00     0.103 C 
ATOM      7  N   UNL A   1      32.217  24.386  23.204  1.00  0.00    -0.353 N 
ATOM      8  C   UNL A   1      31.242  23.375  23.596  1.00  0.00     0.119 C 
ATOM      9  C   UNL A   1      33.567  23.960  22.848  1.00  0.00     0.119 C 
ATOM     10  C   UNL A   1      31.814  22.428  24.644  1.00  0.00     0.037 C 
ATOM     11  C   UNL A   1      34.138  23.054  23.936  1.00  0.00     0.037 C 
BRANCH   7  12
ATOM     12  C   UNL A   1      32.072  25.680  23.698  1.00  0.00     0.172 A 
ATOM     13  C   UNL A   1      31.827  26.764  22.813  1.00  0.00     0.167 A 
ATOM     14  N   UNL A   1      31.693  28.033  23.240  1.00  0.00    -0.226 NA
ATOM     15  C   UNL A   1      31.787  28.226  24.564  1.00  0.00     0.091 A 
ATOM     16  N   UNL A   1      32.140  25.884  25.034  1.00  0.00    -0.225 NA
ATOM     17  C   UNL A   1      31.662  29.515  25.063  1.00  0.00     0.031 A 
ATOM     18  C   UNL A   1      32.016  27.154  25.463  1.00  0.00     0.091 A 
ATOM     19  C   UNL A   1      31.772  29.780  26.428  1.00  0.00     0.002 A 
ATOM     20  C   UNL A   1      32.124  27.432  26.820  1.00  0.00     0.031 A 
ATOM     21  C   UNL A   1      32.009  28.735  27.310  1.00  0.00     0.002 A 
BRANCH  13  22
ATOM     22  N   UNL A   1      31.731  26.573  21.437  1.00  0.00    -0.381 N 
ATOM     23  H   UNL A   1      32.515  26.732  20.863  1.00  0.00     0.158 HD
ATOM     24  H   UNL A   1      30.880  26.279  21.040  1.00  0.00     0.158 HD
ENDBRANCH  13  22
ENDBRANCH   7  12
ENDBRANCH   4   6
ENDBRANCH   3   4
ENDBRANCH   2   3
ENDBRANCH   1   2
BRANCH   1  25
ATOM     25  O   UNL A   1      37.846  21.812  25.784  1.00  0.00    -0.458 OA
BRANCH  25  26
ATOM     26  C   UNL A   1      39.107  21.582  26.224  1.00  0.00     0.338 C 
ATOM     27  O   UNL A   1      39.737  20.544  26.150  1.00  0.00    -0.246 OA
BRANCH  26  28
ATOM     28  C   UNL A   1      39.676  22.845  26.720  1.00  0.00     0.060 A 
ATOM     29  C   UNL A   1      40.678  22.839  27.687  1.00  0.00     0.016 A 
ATOM     30  C   UNL A   1      39.226  24.047  26.170  1.00  0.00     0.016 A 
ATOM     31  C   UNL A   1      41.201  24.055  28.130  1.00  0.00     0.010 A 
ATOM     32  C   UNL A   1      39.758  25.260  26.601  1.00  0.00     0.010 A 
ATOM     33  C   UNL A   1      40.740  25.275  27.597  1.00  0.00    -0.014 A 
BRANCH  33  34
ATOM     34  C   UNL A   1      41.326  26.559  28.052  1.00  0.00     0.031 A 
ATOM     35  C   UNL A   1      42.758  26.899  27.760  1.00  0.00     0.074 A 
ATOM     36  C   UNL A   1      40.550  27.415  28.743  1.00  0.00     0.049 A 
ATOM     37  N   UNL A   1      43.395  28.019  27.980  1.00  0.00    -0.248 NA
ATOM     38  C   UNL A   1      43.590  25.846  27.154  1.00  0.00     0.031 C 
ATOM     39  C   UNL A   1      39.170  27.147  29.143  1.00  0.00     0.029 A 
ATOM     40  N   UNL A   1      40.799  28.679  29.218  1.00  0.00    -0.354 N 
ATOM     41  C   UNL A   1      44.692  27.817  27.526  1.00  0.00     0.074 A 
ATOM     42  C   UNL A   1      44.772  26.443  27.082  1.00  0.00     0.031 C 
ATOM     43  C   UNL A   1      38.677  28.229  29.762  1.00  0.00     0.029 A 
ATOM     44  C   UNL A   1      39.714  29.257  29.834  1.00  0.00     0.049 A 
ATOM     45  H   UNL A   1      41.671  29.127  29.127  1.00  0.00     0.167 HD
ATOM     46  C   UNL A   1      45.709  28.709  27.459  1.00  0.00     0.034 A 
ATOM     47  C   UNL A   1      39.563  30.482  30.380  1.00  0.00     0.034 A 
ATOM     48  C   UNL A   1      45.601  30.074  27.912  1.00  0.00     0.049 A 
ATOM     49  C   UNL A   1      40.707  31.460  30.291  1.00  0.00     0.074 A 
ATOM     50  C   UNL A   1      46.553  31.076  27.835  1.00  0.00     0.029 A 
ATOM     51  N   UNL A   1      44.487  30.630  28.527  1.00  0.00    -0.354 N 
ATOM     52  N   UNL A   1      41.890  31.296  29.743  1.00  0.00    -0.248 NA
ATOM     53  C   UNL A   1      40.497  32.793  30.869  1.00  0.00     0.031 C 
ATOM     54  C   UNL A   1      46.048  32.208  28.473  1.00  0.00     0.029 A 
ATOM     55  C   UNL A   1      44.743  31.949  28.865  1.00  0.00     0.049 A 
ATOM     56  H   UNL A   1      43.643  30.156  28.698  1.00  0.00     0.167 HD
ATOM     57  C   UNL A   1      42.553  32.511  29.888  1.00  0.00     0.074 A 
ATOM     58  C   UNL A   1      41.629  33.409  30.550  1.00  0.00     0.031 C 
ATOM     59  C   UNL A   1      43.813  32.848  29.510  1.00  0.00     0.034 A 
BRANCH  46  60
ATOM     60  C   UNL A   1      47.022  28.276  26.851  1.00  0.00     0.023 A 
ATOM     61  C   UNL A   1      47.178  28.243  25.451  1.00  0.00     0.031 A 
ATOM     62  C   UNL A   1      48.058  27.749  27.644  1.00  0.00     0.131 A 
ATOM     63  C   UNL A   1      48.318  27.655  24.890  1.00  0.00     0.055 A 
ATOM     64  C   UNL A   1      49.215  27.211  27.081  1.00  0.00     0.041 A 
ATOM     65  F   UNL A   1      47.957  27.746  28.984  1.00  0.00    -0.206 F 
ATOM     66  C   UNL A   1      49.342  27.148  25.696  1.00  0.00     0.022 A 
BRANCH  63  67
ATOM     67  S   UNL A   1      48.482  27.449  23.095  1.00  0.00     0.124 S 
ATOM     68  O   UNL A   1      47.345  28.222  22.599  1.00  0.00    -0.237 OA
ATOM     69  O   UNL A   1      49.794  28.038  22.840  1.00  0.00    -0.237 OA
ATOM     70  O   UNL A   1      48.386  26.007  22.897  1.00  0.00    -0.744 OA
ENDBRANCH  63  67
ENDBRANCH  46  60
BRANCH  47  71
ATOM     71  C   UNL A   1      38.242  30.852  30.968  1.00  0.00     0.023 A 
ATOM     72  C   UNL A   1      37.250  31.467  30.181  1.00  0.00     0.031 A 
ATOM     73  C   UNL A   1      38.000  30.716  32.345  1.00  0.00     0.131 A 
ATOM     74  C   UNL A   1      36.102  31.992  30.789  1.00  0.00     0.055 A 
ATOM     75  C   UNL A   1      36.819  31.170  32.934  1.00  0.00     0.041 A 
ATOM     76  F   UNL A   1      38.921  30.153  33.142  1.00  0.00    -0.206 F 
ATOM     77  C   UNL A   1      35.871  31.830  32.158  1.00  0.00     0.022 A 
BRANCH  74  78
ATOM     78  S   UNL A   1      34.948  33.030  29.851  1.00  0.00     0.124 S 
ATOM     79  O   UNL A   1      35.848  33.972  29.195  1.00  0.00    -0.237 OA
ATOM     80  O   UNL A   1      34.312  32.049  28.974  1.00  0.00    -0.237 OA
ATOM     81  O   UNL A   1      34.080  33.596  30.878  1.00  0.00    -0.744 OA
ENDBRANCH  74  78
ENDBRANCH  47  71
BRANCH  59  82
ATOM     82  C   UNL A   1      44.305  34.252  29.781  1.00  0.00     0.023 A 
ATOM     83  C   UNL A   1      44.094  35.265  28.825  1.00  0.00     0.031 A 
ATOM     84  C   UNL A   1      45.125  34.543  30.885  1.00  0.00     0.131 A 
ATOM     85  C   UNL A   1      44.738  36.501  28.961  1.00  0.00     0.055 A 
ATOM     86  C   UNL A   1      45.717  35.797  31.047  1.00  0.00     0.041 A 
ATOM     87  F   UNL A   1      45.372  33.610  31.817  1.00  0.00    -0.206 F 
ATOM     88  C   UNL A   1      45.539  36.776  30.073  1.00  0.00     0.022 A 
BRANCH  85  89
ATOM     89  S   UNL A   1      44.649  37.753  27.651  1.00  0.00     0.124 S 
ATOM     90  O   UNL A   1      45.957  37.616  27.014  1.00  0.00    -0.237 OA
ATOM     91  O   UNL A   1      43.518  37.283  26.856  1.00  0.00    -0.237 OA
ATOM     92  O   UNL A   1      44.436  39.003  28.371  1.00  0.00    -0.744 OA
ENDBRANCH  85  89
ENDBRANCH  59  82
ENDBRANCH  33  34
ENDBRANCH  26  28
ENDBRANCH  25  26
ENDBRANCH   1  25
TORSDOF 16
ENDMDL
MODEL 2
REMARK VINA RESULT:     -12.0      1.281      1.720
REMARK SMILES Nc1nc2ccccc2nc1N1CCC(C(=O)OCCOC(=O)c2ccc(-c3c4nc(c(-c5cc(S(=O)(=O)[O-])ccc5F)c5ccc([nH]5)c(-c5cc(S(=O)(=O)[O-])ccc5F)c5nc(c(-c6cc(S(=O)(=O)[O-])ccc6F)c6ccc3[nH]6)C=C5)C=C4)cc2)CC1
REMARK SMILES IDX 20 1 19 2 18 3 16 4 17 5 15 6 12 7 13 8 88 9 14 10 87 11
REMARK SMILES IDX 11 12 2 13 3 14 4 15 10 16 5 17 9 18 6 19 8 20 7 21 1 22
REMARK SMILES IDX 21 25 22 26 23 27 24 28 25 29 86 30 26 31 85 32 27 33 28 34
REMARK SMILES IDX 29 35 79 36 30 37 84 38 78 39 80 40 31 41 83 42 77 43 76 44
REMARK SMILES IDX 32 46 64 47 44 48 63 49 45 50 48 51 62 52 81 53 46 54 47 55
REMARK SMILES IDX 61 57 82 58 49 59 33 60 34 61 42 62 35 63 41 64 43 65 40 66
REMARK SMILES IDX 36 67 37 68 38 69 39 70 65 71 66 72 74 73 67 74 73 75 75 76
REMARK SMILES IDX 72 77 68 78 69 79 70 80 71 81 50 82 51 83 59 84 52 85 58 86
REMARK SMILES IDX 60 87 57 88 53 89 54 90 55 91 56 92
REMARK H PARENT 1 23 1 24 80 45 48 56
REMARK Flexibility Score: inf
ROOT
ATOM      1  C   UNL A   1      36.654  20.724  24.814  1.00  0.00     0.275 C 
ENDROOT
BRANCH   1   2
ATOM      2  C   UNL A   1      35.163  20.573  25.124  1.00  0.00     0.274 C 
BRANCH   2   3
ATOM      3  O   UNL A   1      34.722  21.582  26.049  1.00  0.00    -0.462 OA
BRANCH   3   4
ATOM      4  C   UNL A   1      33.646  22.311  25.663  1.00  0.00     0.309 C 
ATOM      5  O   UNL A   1      32.483  21.924  25.720  1.00  0.00    -0.252 OA
BRANCH   4   6
ATOM      6  C   UNL A   1      34.009  23.678  25.131  1.00  0.00     0.103 C 
ATOM      7  N   UNL A   1      33.750  26.321  24.116  1.00  0.00    -0.353 N 
ATOM      8  C   UNL A   1      34.232  25.279  23.217  1.00  0.00     0.119 C 
ATOM      9  C   UNL A   1      33.896  26.130  25.556  1.00  0.00     0.119 C 
ATOM     10  C   UNL A   1      33.733  23.903  23.643  1.00  0.00     0.037 C 
ATOM     11  C   UNL A   1      33.343  24.768  25.966  1.00  0.00     0.037 C 
BRANCH   7  12
ATOM     12  C   UNL A   1      32.708  27.141  23.690  1.00  0.00     0.172 A 
ATOM     13  C   UNL A   1      32.984  28.392  23.076  1.00  0.00     0.167 A 
ATOM     14  N   UNL A   1      32.012  29.225  22.659  1.00  0.00    -0.226 NA
ATOM     15  C   UNL A   1      30.752  28.803  22.838  1.00  0.00     0.091 A 
ATOM     16  N   UNL A   1      31.433  26.715  23.841  1.00  0.00    -0.225 NA
ATOM     17  C   UNL A   1      29.708  29.622  22.432  1.00  0.00     0.031 A 
ATOM     18  C   UNL A   1      30.459  27.550  23.434  1.00  0.00     0.091 A 
ATOM     19  C   UNL A   1      28.377  29.246  22.612  1.00  0.00     0.002 A 
ATOM     20  C   UNL A   1      29.129  27.188  23.608  1.00  0.00     0.031 A 
ATOM     21  C   UNL A   1      28.085  28.026  23.207  1.00  0.00     0.002 A 
BRANCH  13  22
ATOM     22  N   UNL A   1      34.289  28.840  22.889  1.00  0.00    -0.381 N 
ATOM     23  H   UNL A   1      34.810  29.171  23.656  1.00  0.00     0.158 HD
ATOM     24  H   UNL A   1      34.690  28.825  21.990  1.00  0.00     0.158 HD
ENDBRANCH  13  22
ENDBRANCH   7  12
ENDBRANCH   4   6
ENDBRANCH   3   4
ENDBRANCH   2   3
ENDBRANCH   1   2
BRANCH   1  25
ATOM     25  O   UNL A   1      37.320  21.551  25.786  1.00  0.00    -0.458 OA
BRANCH  25  26
ATOM     26  C   UNL A   1      38.633  21.280  25.982  1.00  0.00     0.338 C 
ATOM     27  O   UNL A   1      39.222  20.250  25.716  1.00  0.00    -0.246 OA
BRANCH  26  28
ATOM     28  C   UNL A   1      39.301  22.496  26.473  1.00  0.00     0.060 A 
ATOM     29  C   UNL A   1      40.430  22.404  27.284  1.00  0.00     0.016 A 
ATOM     30  C   UNL A   1      38.812  23.741  26.073  1.00  0.00     0.016 A 
ATOM     31  C   UNL A   1      41.045  23.577  27.727  1.00  0.00     0.010 A 
ATOM     32  C   UNL A   1      39.434  24.911  26.503  1.00  0.00     0.010 A 
ATOM     33  C   UNL A   1      40.547  24.839  27.347  1.00  0.00    -0.014 A 
BRANCH  33  34
ATOM     34  C   UNL A   1      41.227  26.078  27.796  1.00  0.00     0.031 A 
ATOM     35  C   UNL A   1      42.654  26.353  27.420  1.00  0.00     0.074 A 
ATOM     36  C   UNL A   1      40.543  26.951  28.559  1.00  0.00     0.049 A 
ATOM     37  N   UNL A   1      43.361  27.433  27.628  1.00  0.00    -0.248 NA
ATOM     38  C   UNL A   1      43.388  25.279  26.734  1.00  0.00     0.031 C 
ATOM     39  C   UNL A   1      39.179  26.741  29.041  1.00  0.00     0.029 A 
ATOM     40  N   UNL A   1      40.888  28.186  29.050  1.00  0.00    -0.354 N 
ATOM     41  C   UNL A   1      44.614  27.180  27.085  1.00  0.00     0.074 A 
ATOM     42  C   UNL A   1      44.594  25.818  26.600  1.00  0.00     0.031 C 
ATOM     43  C   UNL A   1      38.783  27.828  29.719  1.00  0.00     0.029 A 
ATOM     44  C   UNL A   1      39.876  28.800  29.751  1.00  0.00     0.049 A 
ATOM     45  H   UNL A   1      41.774  28.592  28.914  1.00  0.00     0.167 HD
ATOM     46  C   UNL A   1      45.670  28.020  26.976  1.00  0.00     0.034 A 
ATOM     47  C   UNL A   1      39.824  30.014  30.338  1.00  0.00     0.034 A 
ATOM     48  C   UNL A   1      45.662  29.376  27.471  1.00  0.00     0.049 A 
ATOM     49  C   UNL A   1      41.010  30.935  30.201  1.00  0.00     0.074 A 
ATOM     50  C   UNL A   1      46.658  30.329  27.358  1.00  0.00     0.029 A 
ATOM     51  N   UNL A   1      44.621  29.968  28.172  1.00  0.00    -0.354 N 
ATOM     52  N   UNL A   1      42.145  30.728  29.572  1.00  0.00    -0.248 NA
ATOM     53  C   UNL A   1      40.907  32.259  30.826  1.00  0.00     0.031 C 
ATOM     54  C   UNL A   1      46.255  31.466  28.057  1.00  0.00     0.029 A 
ATOM     55  C   UNL A   1      44.966  31.262  28.527  1.00  0.00     0.049 A 
ATOM     56  H   UNL A   1      43.765  29.532  28.385  1.00  0.00     0.167 HD
ATOM     57  C   UNL A   1      42.879  31.903  29.705  1.00  0.00     0.074 A 
ATOM     58  C   UNL A   1      42.047  32.826  30.450  1.00  0.00     0.031 C 
ATOM     59  C   UNL A   1      44.127  32.187  29.255  1.00  0.00     0.034 A 
BRANCH  46  60
ATOM     60  C   UNL A   1      46.917  27.540  26.271  1.00  0.00     0.023 A 
ATOM     61  C   UNL A   1      47.150  27.889  24.927  1.00  0.00     0.031 A 
ATOM     62  C   UNL A   1      47.788  26.614  26.875  1.00  0.00     0.131 A 
ATOM     63  C   UNL A   1      48.196  27.283  24.220  1.00  0.00     0.055 A 
ATOM     64  C   UNL A   1      48.860  26.053  26.182  1.00  0.00     0.041 A 
ATOM     65  F   UNL A   1      47.605  26.239  28.152  1.00  0.00    -0.206 F 
ATOM     66  C   UNL A   1      49.059  26.375  24.842  1.00  0.00     0.022 A 
BRANCH  63  67
ATOM     67  S   UNL A   1      48.431  27.584  22.446  1.00  0.00     0.124 S 
ATOM     68  O   UNL A   1      47.230  28.348  22.111  1.00  0.00    -0.237 OA
ATOM     69  O   UNL A   1      49.677  28.345  22.429  1.00  0.00    -0.237 OA
ATOM     70  O   UNL A   1      48.496  26.247  21.869  1.00  0.00    -0.744 OA
ENDBRANCH  63  67
ENDBRANCH  46  60
BRANCH  47  71
ATOM     71  C   UNL A   1      38.564  30.432  31.021  1.00  0.00     0.023 A 
ATOM     72  C   UNL A   1      37.526  31.050  30.299  1.00  0.00     0.031 A 
ATOM     73  C   UNL A   1      38.433  30.339  32.416  1.00  0.00     0.131 A 
ATOM     74  C   UNL A   1      36.444  31.620  30.983  1.00  0.00     0.055 A 
ATOM     75  C   UNL A   1      37.315  30.838  33.086  1.00  0.00     0.041 A 
ATOM     76  F   UNL A   1      39.403  29.774  33.151  1.00  0.00    -0.206 F 
ATOM     77  C   UNL A   1      36.322  31.500  32.371  1.00  0.00     0.022 A 
BRANCH  74  78
ATOM     78  S   UNL A   1      35.241  32.661  30.113  1.00  0.00     0.124 S 
ATOM     79  O   UNL A   1      34.252  32.922  31.154  1.00  0.00    -0.237 OA
ATOM     80  O   UNL A   1      36.064  33.804  29.723  1.00  0.00    -0.237 OA
ATOM     81  O   UNL A   1      34.788  31.820  29.010  1.00  0.00    -0.744 OA
ENDBRANCH  74  78
ENDBRANCH  47  71
BRANCH  59  82
ATOM     82  C   UNL A   1      44.709  33.555  29.531  1.00  0.00     0.023 A 
ATOM     83  C   UNL A   1      44.504  34.601  28.609  1.00  0.00     0.031 A 
ATOM     84  C   UNL A   1      45.599  33.775  30.595  1.00  0.00     0.131 A 
ATOM     85  C   UNL A   1      45.220  35.798  28.739  1.00  0.00     0.055 A 
ATOM     86  C   UNL A   1      46.266  34.992  30.754  1.00  0.00     0.041 A 
ATOM     87  F   UNL A   1      45.843  32.807  31.493  1.00  0.00    -0.206 F 
ATOM     88  C   UNL A   1      46.092  36.002  29.813  1.00  0.00     0.022 A 
BRANCH  85  89
ATOM     89  S   UNL A   1      45.132  37.085  27.463  1.00  0.00     0.124 S 
ATOM     90  O   UNL A   1      45.392  38.296  28.238  1.00  0.00    -0.237 OA
ATOM     91  O   UNL A   1      46.202  36.687  26.552  1.00  0.00    -0.237 OA
ATOM     92  O   UNL A   1      43.779  36.965  26.933  1.00  0.00    -0.744 OA
ENDBRANCH  85  89
ENDBRANCH  59  82
ENDBRANCH  33  34
ENDBRANCH  26  28
ENDBRANCH  25  26
ENDBRANCH   1  25
TORSDOF 16
ENDMDL
MODEL 3
REMARK VINA RESULT:     -12.0      5.059     10.275
REMARK SMILES Nc1nc2ccccc2nc1N1CCC(C(=O)OCCOC(=O)c2ccc(-c3c4nc(c(-c5cc(S(=O)(=O)[O-])ccc5F)c5ccc([nH]5)c(-c5cc(S(=O)(=O)[O-])ccc5F)c5nc(c(-c6cc(S(=O)(=O)[O-])ccc6F)c6ccc3[nH]6)C=C5)C=C4)cc2)CC1
REMARK SMILES IDX 20 1 19 2 18 3 16 4 17 5 15 6 12 7 13 8 88 9 14 10 87 11
REMARK SMILES IDX 11 12 2 13 3 14 4 15 10 16 5 17 9 18 6 19 8 20 7 21 1 22
REMARK SMILES IDX 21 25 22 26 23 27 24 28 25 29 86 30 26 31 85 32 27 33 28 34
REMARK SMILES IDX 29 35 79 36 30 37 84 38 78 39 80 40 31 41 83 42 77 43 76 44
REMARK SMILES IDX 32 46 64 47 44 48 63 49 45 50 48 51 62 52 81 53 46 54 47 55
REMARK SMILES IDX 61 57 82 58 49 59 33 60 34 61 42 62 35 63 41 64 43 65 40 66
REMARK SMILES IDX 36 67 37 68 38 69 39 70 65 71 66 72 74 73 67 74 73 75 75 76
REMARK SMILES IDX 72 77 68 78 69 79 70 80 71 81 50 82 51 83 59 84 52 85 58 86
REMARK SMILES IDX 60 87 57 88 53 89 54 90 55 91 56 92
REMARK H PARENT 1 23 1 24 80 45 48 56
REMARK Flexibility Score: inf
ROOT
ATOM      1  C   UNL A   1      31.843  30.152  26.326  1.00  0.00     0.275 C 
ENDROOT
BRANCH   1   2
ATOM      2  C   UNL A   1      31.387  29.712  24.932  1.00  0.00     0.274 C 
BRANCH   2   3
ATOM      3  O   UNL A   1      32.479  29.151  24.183  1.00  0.00    -0.462 OA
BRANCH   3   4
ATOM      4  C   UNL A   1      32.315  27.871  23.765  1.00  0.00     0.309 C 
ATOM      5  O   UNL A   1      31.865  27.546  22.672  1.00  0.00    -0.252 OA
BRANCH   4   6
ATOM      6  C   UNL A   1      32.739  26.848  24.793  1.00  0.00     0.103 C 
ATOM      7  N   UNL A   1      33.389  24.350  25.986  1.00  0.00    -0.353 N 
ATOM      8  C   UNL A   1      32.165  25.021  26.408  1.00  0.00     0.119 C 
ATOM      9  C   UNL A   1      34.459  25.148  25.392  1.00  0.00     0.119 C 
ATOM     10  C   UNL A   1      31.627  25.936  25.314  1.00  0.00     0.037 C 
ATOM     11  C   UNL A   1      33.905  26.016  24.266  1.00  0.00     0.037 C 
BRANCH   7  12
ATOM     12  C   UNL A   1      33.323  23.009  25.620  1.00  0.00     0.172 A 
ATOM     13  C   UNL A   1      33.828  22.002  26.486  1.00  0.00     0.167 A 
ATOM     14  N   UNL A   1      33.799  20.694  26.171  1.00  0.00    -0.226 NA
ATOM     15  C   UNL A   1      33.246  20.380  24.990  1.00  0.00     0.091 A 
ATOM     16  N   UNL A   1      32.745  22.677  24.443  1.00  0.00    -0.225 NA
ATOM     17  C   UNL A   1      33.192  19.046  24.610  1.00  0.00     0.031 A 
ATOM     18  C   UNL A   1      32.724  21.371  24.121  1.00  0.00     0.091 A 
ATOM     19  C   UNL A   1      32.649  18.661  23.384  1.00  0.00     0.002 A 
ATOM     20  C   UNL A   1      32.185  20.974  22.903  1.00  0.00     0.031 A 
ATOM     21  C   UNL A   1      32.148  19.629  22.524  1.00  0.00     0.002 A 
BRANCH  13  22
ATOM     22  N   UNL A   1      34.406  22.318  27.712  1.00  0.00    -0.381 N 
ATOM     23  H   UNL A   1      35.130  21.757  28.074  1.00  0.00     0.158 HD
ATOM     24  H   UNL A   1      34.092  23.103  28.216  1.00  0.00     0.158 HD
ENDBRANCH  13  22
ENDBRANCH   7  12
ENDBRANCH   4   6
ENDBRANCH   3   4
ENDBRANCH   2   3
ENDBRANCH   1   2
BRANCH   1  25
ATOM     25  O   UNL A   1      33.247  30.468  26.352  1.00  0.00    -0.458 OA
BRANCH  25  26
ATOM     26  C   UNL A   1      33.614  31.427  27.236  1.00  0.00     0.338 C 
ATOM     27  O   UNL A   1      32.979  32.412  27.562  1.00  0.00    -0.246 OA
BRANCH  26  28
ATOM     28  C   UNL A   1      34.888  31.037  27.860  1.00  0.00     0.060 A 
ATOM     29  C   UNL A   1      35.912  31.968  28.020  1.00  0.00     0.016 A 
ATOM     30  C   UNL A   1      35.034  29.731  28.331  1.00  0.00     0.016 A 
ATOM     31  C   UNL A   1      37.105  31.567  28.623  1.00  0.00     0.010 A 
ATOM     32  C   UNL A   1      36.219  29.335  28.947  1.00  0.00     0.010 A 
ATOM     33  C   UNL A   1      37.272  30.246  29.084  1.00  0.00    -0.014 A 
BRANCH  33  34
ATOM     34  C   UNL A   1      38.531  29.840  29.753  1.00  0.00     0.031 A 
ATOM     35  C   UNL A   1      38.895  30.380  31.105  1.00  0.00     0.074 A 
ATOM     36  C   UNL A   1      39.352  28.981  29.119  1.00  0.00     0.049 A 
ATOM     37  N   UNL A   1      39.893  30.043  31.879  1.00  0.00    -0.248 NA
ATOM     38  C   UNL A   1      38.039  31.441  31.658  1.00  0.00     0.031 C 
ATOM     39  C   UNL A   1      39.128  28.458  27.772  1.00  0.00     0.029 A 
ATOM     40  N   UNL A   1      40.525  28.390  29.519  1.00  0.00    -0.354 N 
ATOM     41  C   UNL A   1      39.778  30.834  33.016  1.00  0.00     0.074 A 
ATOM     42  C   UNL A   1      38.653  31.717  32.801  1.00  0.00     0.031 C 
ATOM     43  C   UNL A   1      40.103  27.588  27.474  1.00  0.00     0.029 A 
ATOM     44  C   UNL A   1      41.042  27.515  28.592  1.00  0.00     0.049 A 
ATOM     45  H   UNL A   1      40.954  28.575  30.385  1.00  0.00     0.167 HD
ATOM     46  C   UNL A   1      40.525  30.800  34.144  1.00  0.00     0.034 A 
ATOM     47  C   UNL A   1      42.137  26.729  28.642  1.00  0.00     0.034 A 
ATOM     48  C   UNL A   1      41.644  29.908  34.330  1.00  0.00     0.049 A 
ATOM     49  C   UNL A   1      42.953  26.703  29.909  1.00  0.00     0.074 A 
ATOM     50  C   UNL A   1      42.431  29.751  35.458  1.00  0.00     0.029 A 
ATOM     51  N   UNL A   1      42.140  29.031  33.375  1.00  0.00    -0.354 N 
ATOM     52  N   UNL A   1      42.758  27.364  31.027  1.00  0.00    -0.248 NA
ATOM     53  C   UNL A   1      44.121  25.814  29.938  1.00  0.00     0.031 C 
ATOM     54  C   UNL A   1      43.447  28.844  35.159  1.00  0.00     0.029 A 
ATOM     55  C   UNL A   1      43.241  28.358  33.877  1.00  0.00     0.049 A 
ATOM     56  H   UNL A   1      41.764  28.908  32.474  1.00  0.00     0.167 HD
ATOM     57  C   UNL A   1      43.761  26.951  31.900  1.00  0.00     0.074 A 
ATOM     58  C   UNL A   1      44.545  25.963  31.188  1.00  0.00     0.031 C 
ATOM     59  C   UNL A   1      44.011  27.359  33.170  1.00  0.00     0.034 A 
BRANCH  46  60
ATOM     60  C   UNL A   1      40.161  31.713  35.291  1.00  0.00     0.023 A 
ATOM     61  C   UNL A   1      39.217  31.302  36.252  1.00  0.00     0.031 A 
ATOM     62  C   UNL A   1      40.624  33.041  35.344  1.00  0.00     0.131 A 
ATOM     63  C   UNL A   1      38.735  32.220  37.193  1.00  0.00     0.055 A 
ATOM     64  C   UNL A   1      40.178  33.937  36.316  1.00  0.00     0.041 A 
ATOM     65  F   UNL A   1      41.516  33.488  34.445  1.00  0.00    -0.206 F 
ATOM     66  C   UNL A   1      39.217  33.532  37.238  1.00  0.00     0.022 A 
BRANCH  63  67
ATOM     67  S   UNL A   1      37.404  31.774  38.343  1.00  0.00     0.124 S 
ATOM     68  O   UNL A   1      38.058  31.946  39.639  1.00  0.00    -0.237 OA
ATOM     69  O   UNL A   1      36.383  32.769  38.026  1.00  0.00    -0.237 OA
ATOM     70  O   UNL A   1      37.080  30.398  37.989  1.00  0.00    -0.744 OA
ENDBRANCH  63  67
ENDBRANCH  46  60
BRANCH  47  71
ATOM     71  C   UNL A   1      42.447  25.848  27.476  1.00  0.00     0.023 A 
ATOM     72  C   UNL A   1      41.918  24.546  27.397  1.00  0.00     0.031 A 
ATOM     73  C   UNL A   1      43.373  26.244  26.497  1.00  0.00     0.131 A 
ATOM     74  C   UNL A   1      42.378  23.665  26.410  1.00  0.00     0.055 A 
ATOM     75  C   UNL A   1      43.769  25.388  25.468  1.00  0.00     0.041 A 
ATOM     76  F   UNL A   1      43.920  27.469  26.538  1.00  0.00    -0.206 F 
ATOM     77  C   UNL A   1      43.286  24.083  25.433  1.00  0.00     0.022 A 
BRANCH  74  78
ATOM     78  S   UNL A   1      41.929  21.908  26.453  1.00  0.00     0.124 S 
ATOM     79  O   UNL A   1      42.304  21.530  27.812  1.00  0.00    -0.237 OA
ATOM     80  O   UNL A   1      40.493  21.962  26.186  1.00  0.00    -0.237 OA
ATOM     81  O   UNL A   1      42.735  21.319  25.389  1.00  0.00    -0.744 OA
ENDBRANCH  74  78
ENDBRANCH  47  71
BRANCH  59  82
ATOM     82  C   UNL A   1      45.176  26.749  33.916  1.00  0.00     0.023 A 
ATOM     83  C   UNL A   1      44.966  25.630  34.747  1.00  0.00     0.031 A 
ATOM     84  C   UNL A   1      46.436  27.369  33.947  1.00  0.00     0.131 A 
ATOM     85  C   UNL A   1      45.981  25.201  35.612  1.00  0.00     0.055 A 
ATOM     86  C   UNL A   1      47.464  26.900  34.767  1.00  0.00     0.041 A 
ATOM     87  F   UNL A   1      46.685  28.447  33.187  1.00  0.00    -0.206 F 
ATOM     88  C   UNL A   1      47.233  25.824  35.617  1.00  0.00     0.022 A 
BRANCH  85  89
ATOM     89  S   UNL A   1      45.679  23.894  36.835  1.00  0.00     0.124 S 
ATOM     90  O   UNL A   1      47.016  23.681  37.384  1.00  0.00    -0.237 OA
ATOM     91  O   UNL A   1      44.729  24.536  37.739  1.00  0.00    -0.237 OA
ATOM     92  O   UNL A   1      45.149  22.788  36.046  1.00  0.00    -0.744 OA
ENDBRANCH  85  89
ENDBRANCH  59  82
ENDBRANCH  33  34
ENDBRANCH  26  28
ENDBRANCH  25  26
ENDBRANCH   1  25
TORSDOF 16
ENDMDL
