MODEL 1
REMARK VINA RESULT:     -11.8      0.000      0.000
REMARK SMILES CO[C@H]1C[C@@H](C(=O)OCCOC(=O)c2ccc(-c3c4nc(c(-c5cc(S(=O)(=O)[O-])ccc5F)c5ccc([nH]5)c(-c5cc(S(=O)(=O)[O-])ccc5F)c5nc(c(-c6cc(S(=O)(=O)[O-])ccc6F)c6ccc3[nH]6)C=C5)C=C4)cc2)N(C(=O)Nc2cc(C)cc(F)c2)C1
REMARK SMILES IDX 10 1 9 2 8 3 6 4 7 5 5 6 3 7 4 8 89 9 77 10 2 11 1 12 78 13
REMARK SMILES IDX 79 14 80 15 81 17 82 18 88 19 83 20 86 21 84 22 85 23 87 24
REMARK SMILES IDX 11 25 12 26 13 27 14 28 15 29 76 30 16 31 75 32 17 33 18 34
REMARK SMILES IDX 19 35 69 36 20 37 74 38 68 39 70 40 21 41 73 42 67 43 66 44
REMARK SMILES IDX 22 46 54 47 34 48 53 49 35 50 38 51 52 52 71 53 36 54 37 55
REMARK SMILES IDX 51 57 72 58 39 59 23 60 24 61 32 62 25 63 31 64 33 65 30 66
REMARK SMILES IDX 26 67 27 68 28 69 29 70 55 71 56 72 64 73 57 74 63 75 65 76
REMARK SMILES IDX 62 77 58 78 59 79 60 80 61 81 40 82 41 83 49 84 42 85 48 86
REMARK SMILES IDX 50 87 47 88 43 89 44 90 45 91 46 92
REMARK H PARENT 80 16 70 45 38 56
REMARK Flexibility Score: inf
ROOT
ATOM      1  C   UNL A   1      32.137  30.079  25.588  1.00  0.00     0.275 C 
ENDROOT
BRANCH   1   2
ATOM      2  C   UNL A   1      33.145  29.228  24.778  1.00  0.00     0.274 C 
BRANCH   2   3
ATOM      3  O   UNL A   1      32.782  29.115  23.388  1.00  0.00    -0.461 OA
BRANCH   3   4
ATOM      4  C   UNL A   1      32.263  27.924  22.985  1.00  0.00     0.329 C 
ATOM      5  O   UNL A   1      32.869  26.856  23.055  1.00  0.00    -0.250 OA
BRANCH   4   6
ATOM      6  C   UNL A   1      30.832  28.024  22.382  1.00  0.00     0.199 C 
ATOM      7  C   UNL A   1      29.051  29.632  22.166  1.00  0.00     0.140 C 
ATOM      8  C   UNL A   1      30.560  29.515  22.229  1.00  0.00     0.071 C 
ATOM      9  C   UNL A   1      28.602  28.527  23.128  1.00  0.00     0.154 C 
ATOM     10  N   UNL A   1      29.620  27.475  23.044  1.00  0.00    -0.308 N 
BRANCH   7  11
ATOM     11  O   UNL A   1      28.748  30.963  22.561  1.00  0.00    -0.380 OA
ATOM     12  C   UNL A   1      27.655  31.081  23.452  1.00  0.00     0.195 C 
ENDBRANCH   7  11
BRANCH  10  13
ATOM     13  C   UNL A   1      29.831  26.705  24.157  1.00  0.00     0.322 C 
ATOM     14  O   UNL A   1      30.272  27.228  25.163  1.00  0.00    -0.248 OA
ATOM     15  N   UNL A   1      29.605  25.358  24.076  1.00  0.00    -0.308 N 
ATOM     16  H   UNL A   1      28.695  25.031  23.893  1.00  0.00     0.171 HD
BRANCH  15  17
ATOM     17  C   UNL A   1      30.660  24.420  24.250  1.00  0.00     0.046 A 
ATOM     18  C   UNL A   1      31.158  24.054  25.505  1.00  0.00     0.029 A 
ATOM     19  C   UNL A   1      31.175  23.769  23.135  1.00  0.00     0.065 A 
ATOM     20  C   UNL A   1      32.130  23.025  25.612  1.00  0.00    -0.046 A 
ATOM     21  C   UNL A   1      32.111  22.759  23.231  1.00  0.00     0.125 A 
ATOM     22  C   UNL A   1      32.726  22.638  26.933  1.00  0.00     0.044 C 
ATOM     23  C   UNL A   1      32.581  22.365  24.462  1.00  0.00     0.042 A 
ATOM     24  F   UNL A   1      32.544  22.152  22.118  1.00  0.00    -0.207 F 
ENDBRANCH  15  17
ENDBRANCH  10  13
ENDBRANCH   4   6
ENDBRANCH   3   4
ENDBRANCH   2   3
ENDBRANCH   1   2
BRANCH   1  25
ATOM     25  O   UNL A   1      32.449  30.241  26.994  1.00  0.00    -0.458 OA
BRANCH  25  26
ATOM     26  C   UNL A   1      33.192  31.339  27.314  1.00  0.00     0.338 C 
ATOM     27  O   UNL A   1      32.823  32.508  27.231  1.00  0.00    -0.246 OA
BRANCH  26  28
ATOM     28  C   UNL A   1      34.569  31.006  27.769  1.00  0.00     0.060 A 
ATOM     29  C   UNL A   1      34.873  29.695  28.163  1.00  0.00     0.016 A 
ATOM     30  C   UNL A   1      35.510  32.012  28.001  1.00  0.00     0.016 A 
ATOM     31  C   UNL A   1      36.132  29.355  28.649  1.00  0.00     0.010 A 
ATOM     32  C   UNL A   1      36.751  31.691  28.584  1.00  0.00     0.010 A 
ATOM     33  C   UNL A   1      37.067  30.358  28.905  1.00  0.00    -0.014 A 
BRANCH  33  34
ATOM     34  C   UNL A   1      38.249  29.995  29.728  1.00  0.00     0.031 A 
ATOM     35  C   UNL A   1      39.250  29.041  29.139  1.00  0.00     0.074 A 
ATOM     36  C   UNL A   1      38.499  30.610  30.897  1.00  0.00     0.049 A 
ATOM     37  N   UNL A   1      40.355  28.565  29.650  1.00  0.00    -0.248 NA
ATOM     38  C   UNL A   1      38.974  28.588  27.768  1.00  0.00     0.031 C 
ATOM     39  C   UNL A   1      37.672  31.666  31.480  1.00  0.00     0.029 A 
ATOM     40  N   UNL A   1      39.526  30.455  31.794  1.00  0.00    -0.354 N 
ATOM     41  C   UNL A   1      40.902  27.747  28.666  1.00  0.00     0.074 A 
ATOM     42  C   UNL A   1      40.007  27.798  27.531  1.00  0.00     0.031 C 
ATOM     43  C   UNL A   1      38.219  32.053  32.644  1.00  0.00     0.029 A 
ATOM     44  C   UNL A   1      39.396  31.232  32.921  1.00  0.00     0.049 A 
ATOM     45  H   UNL A   1      40.284  29.844  31.644  1.00  0.00     0.167 HD
ATOM     46  C   UNL A   1      42.038  27.007  28.718  1.00  0.00     0.034 A 
ATOM     47  C   UNL A   1      40.115  31.236  34.064  1.00  0.00     0.034 A 
ATOM     48  C   UNL A   1      42.875  26.936  29.892  1.00  0.00     0.049 A 
ATOM     49  C   UNL A   1      41.289  30.293  34.170  1.00  0.00     0.074 A 
ATOM     50  C   UNL A   1      44.001  26.163  30.112  1.00  0.00     0.029 A 
ATOM     51  N   UNL A   1      42.654  27.654  31.064  1.00  0.00    -0.354 N 
ATOM     52  N   UNL A   1      41.763  29.461  33.268  1.00  0.00    -0.248 NA
ATOM     53  C   UNL A   1      42.021  30.279  35.442  1.00  0.00     0.031 C 
ATOM     54  C   UNL A   1      44.405  26.349  31.440  1.00  0.00     0.029 A 
ATOM     55  C   UNL A   1      43.593  27.311  32.024  1.00  0.00     0.049 A 
ATOM     56  H   UNL A   1      41.933  28.312  31.193  1.00  0.00     0.167 HD
ATOM     57  C   UNL A   1      42.855  28.831  33.860  1.00  0.00     0.074 A 
ATOM     58  C   UNL A   1      42.980  29.399  35.190  1.00  0.00     0.031 C 
ATOM     59  C   UNL A   1      43.680  27.876  33.355  1.00  0.00     0.034 A 
BRANCH  46  60
ATOM     60  C   UNL A   1      42.329  26.127  27.521  1.00  0.00     0.023 A 
ATOM     61  C   UNL A   1      41.828  24.816  27.417  1.00  0.00     0.031 A 
ATOM     62  C   UNL A   1      43.233  26.562  26.535  1.00  0.00     0.131 A 
ATOM     63  C   UNL A   1      42.323  23.955  26.423  1.00  0.00     0.055 A 
ATOM     64  C   UNL A   1      43.647  25.730  25.494  1.00  0.00     0.041 A 
ATOM     65  F   UNL A   1      43.769  27.791  26.593  1.00  0.00    -0.206 F 
ATOM     66  C   UNL A   1      43.212  24.410  25.447  1.00  0.00     0.022 A 
BRANCH  63  67
ATOM     67  S   UNL A   1      41.957  22.180  26.551  1.00  0.00     0.124 S 
ATOM     68  O   UNL A   1      42.654  21.651  25.381  1.00  0.00    -0.237 OA
ATOM     69  O   UNL A   1      42.531  21.833  27.847  1.00  0.00    -0.237 OA
ATOM     70  O   UNL A   1      40.499  22.123  26.477  1.00  0.00    -0.744 OA
ENDBRANCH  63  67
ENDBRANCH  46  60
BRANCH  47  71
ATOM     71  C   UNL A   1      39.676  32.075  35.222  1.00  0.00     0.023 A 
ATOM     72  C   UNL A   1      38.863  31.573  36.251  1.00  0.00     0.031 A 
ATOM     73  C   UNL A   1      40.072  33.426  35.303  1.00  0.00     0.131 A 
ATOM     74  C   UNL A   1      38.470  32.417  37.308  1.00  0.00     0.055 A 
ATOM     75  C   UNL A   1      39.721  34.243  36.377  1.00  0.00     0.041 A 
ATOM     76  F   UNL A   1      40.837  33.967  34.341  1.00  0.00    -0.206 F 
ATOM     77  C   UNL A   1      38.910  33.740  37.387  1.00  0.00     0.022 A 
BRANCH  74  78
ATOM     78  S   UNL A   1      37.332  31.777  38.572  1.00  0.00     0.124 S 
ATOM     79  O   UNL A   1      38.139  31.886  39.781  1.00  0.00    -0.237 OA
ATOM     80  O   UNL A   1      36.209  32.702  38.463  1.00  0.00    -0.237 OA
ATOM     81  O   UNL A   1      37.058  30.414  38.125  1.00  0.00    -0.744 OA
ENDBRANCH  74  78
ENDBRANCH  47  71
BRANCH  59  82
ATOM     82  C   UNL A   1      44.808  27.407  34.243  1.00  0.00     0.023 A 
ATOM     83  C   UNL A   1      44.643  26.351  35.156  1.00  0.00     0.031 A 
ATOM     84  C   UNL A   1      46.069  28.027  34.169  1.00  0.00     0.131 A 
ATOM     85  C   UNL A   1      45.703  25.985  35.998  1.00  0.00     0.055 A 
ATOM     86  C   UNL A   1      47.140  27.611  34.960  1.00  0.00     0.041 A 
ATOM     87  F   UNL A   1      46.281  29.044  33.318  1.00  0.00    -0.206 F 
ATOM     88  C   UNL A   1      46.956  26.593  35.892  1.00  0.00     0.022 A 
BRANCH  85  89
ATOM     89  S   UNL A   1      45.393  24.772  37.311  1.00  0.00     0.124 S 
ATOM     90  O   UNL A   1      43.941  24.833  37.438  1.00  0.00    -0.237 OA
ATOM     91  O   UNL A   1      45.933  23.544  36.737  1.00  0.00    -0.237 OA
ATOM     92  O   UNL A   1      46.138  25.303  38.450  1.00  0.00    -0.744 OA
ENDBRANCH  85  89
ENDBRANCH  59  82
ENDBRANCH  33  34
ENDBRANCH  26  28
ENDBRANCH  25  26
ENDBRANCH   1  25
TORSDOF 17
ENDMDL
MODEL 2
REMARK VINA RESULT:     -11.8      1.695      2.769
REMARK SMILES CO[C@H]1C[C@@H](C(=O)OCCOC(=O)c2ccc(-c3c4nc(c(-c5cc(S(=O)(=O)[O-])ccc5F)c5ccc([nH]5)c(-c5cc(S(=O)(=O)[O-])ccc5F)c5nc(c(-c6cc(S(=O)(=O)[O-])ccc6F)c6ccc3[nH]6)C=C5)C=C4)cc2)N(C(=O)Nc2cc(C)cc(F)c2)C1
REMARK SMILES IDX 10 1 9 2 8 3 6 4 7 5 5 6 3 7 4 8 89 9 77 10 2 11 1 12 78 13
REMARK SMILES IDX 79 14 80 15 81 17 82 18 88 19 83 20 86 21 84 22 85 23 87 24
REMARK SMILES IDX 11 25 12 26 13 27 14 28 15 29 76 30 16 31 75 32 17 33 18 34
REMARK SMILES IDX 19 35 69 36 20 37 74 38 68 39 70 40 21 41 73 42 67 43 66 44
REMARK SMILES IDX 22 46 54 47 34 48 53 49 35 50 38 51 52 52 71 53 36 54 37 55
REMARK SMILES IDX 51 57 72 58 39 59 23 60 24 61 32 62 25 63 31 64 33 65 30 66
REMARK SMILES IDX 26 67 27 68 28 69 29 70 55 71 56 72 64 73 57 74 63 75 65 76
REMARK SMILES IDX 62 77 58 78 59 79 60 80 61 81 40 82 41 83 49 84 42 85 48 86
REMARK SMILES IDX 50 87 47 88 43 89 44 90 45 91 46 92
REMARK H PARENT 80 16 70 45 38 56
REMARK Flexibility Score: inf
ROOT
ATOM      1  C   UNL A   1      31.936  29.884  25.434  1.00  0.00     0.275 C 
ENDROOT
BRANCH   1   2
ATOM      2  C   UNL A   1      32.864  28.912  24.666  1.00  0.00     0.274 C 
BRANCH   2   3
ATOM      3  O   UNL A   1      32.415  27.545  24.738  1.00  0.00    -0.461 OA
BRANCH   3   4
ATOM      4  C   UNL A   1      32.210  26.906  23.554  1.00  0.00     0.329 C 
ATOM      5  O   UNL A   1      32.421  27.417  22.456  1.00  0.00    -0.250 OA
BRANCH   4   6
ATOM      6  C   UNL A   1      31.638  25.466  23.699  1.00  0.00     0.199 C 
ATOM      7  C   UNL A   1      30.636  24.060  25.379  1.00  0.00     0.140 C 
ATOM      8  C   UNL A   1      30.750  25.505  24.935  1.00  0.00     0.071 C 
ATOM      9  C   UNL A   1      32.025  23.509  25.042  1.00  0.00     0.154 C 
ATOM     10  N   UNL A   1      32.487  24.257  23.868  1.00  0.00    -0.308 N 
BRANCH   7  11
ATOM     11  O   UNL A   1      30.301  24.104  26.760  1.00  0.00    -0.380 OA
ATOM     12  C   UNL A   1      29.636  22.952  27.243  1.00  0.00     0.195 C 
ENDBRANCH   7  11
BRANCH  10  13
ATOM     13  C   UNL A   1      33.836  24.436  23.720  1.00  0.00     0.322 C 
ATOM     14  O   UNL A   1      34.322  24.376  22.606  1.00  0.00    -0.248 OA
ATOM     15  N   UNL A   1      34.603  24.606  24.841  1.00  0.00    -0.308 N 
ATOM     16  H   UNL A   1      34.454  25.394  25.412  1.00  0.00     0.171 HD
BRANCH  15  17
ATOM     17  C   UNL A   1      35.611  23.668  25.196  1.00  0.00     0.046 A 
ATOM     18  C   UNL A   1      35.504  22.297  24.939  1.00  0.00     0.029 A 
ATOM     19  C   UNL A   1      36.797  24.132  25.753  1.00  0.00     0.065 A 
ATOM     20  C   UNL A   1      36.598  21.435  25.212  1.00  0.00    -0.046 A 
ATOM     21  C   UNL A   1      37.870  23.301  26.011  1.00  0.00     0.125 A 
ATOM     22  C   UNL A   1      36.506  19.953  24.999  1.00  0.00     0.044 C 
ATOM     23  C   UNL A   1      37.790  21.958  25.728  1.00  0.00     0.042 A 
ATOM     24  F   UNL A   1      38.995  23.818  26.522  1.00  0.00    -0.207 F 
ENDBRANCH  15  17
ENDBRANCH  10  13
ENDBRANCH   4   6
ENDBRANCH   3   4
ENDBRANCH   2   3
ENDBRANCH   1   2
BRANCH   1  25
ATOM     25  O   UNL A   1      32.234  30.048  26.842  1.00  0.00    -0.458 OA
BRANCH  25  26
ATOM     26  C   UNL A   1      32.908  31.186  27.176  1.00  0.00     0.338 C 
ATOM     27  O   UNL A   1      32.475  32.332  27.088  1.00  0.00    -0.246 OA
BRANCH  26  28
ATOM     28  C   UNL A   1      34.293  30.930  27.657  1.00  0.00     0.060 A 
ATOM     29  C   UNL A   1      34.700  29.618  27.940  1.00  0.00     0.016 A 
ATOM     30  C   UNL A   1      35.131  31.986  28.022  1.00  0.00     0.016 A 
ATOM     31  C   UNL A   1      35.967  29.343  28.446  1.00  0.00     0.010 A 
ATOM     32  C   UNL A   1      36.375  31.719  28.625  1.00  0.00     0.010 A 
ATOM     33  C   UNL A   1      36.799  30.394  28.834  1.00  0.00    -0.014 A 
BRANCH  33  34
ATOM     34  C   UNL A   1      37.979  30.056  29.669  1.00  0.00     0.031 A 
ATOM     35  C   UNL A   1      39.005  29.119  29.092  1.00  0.00     0.074 A 
ATOM     36  C   UNL A   1      38.206  30.679  30.838  1.00  0.00     0.049 A 
ATOM     37  N   UNL A   1      40.113  28.666  29.616  1.00  0.00    -0.248 NA
ATOM     38  C   UNL A   1      38.750  28.656  27.721  1.00  0.00     0.031 C 
ATOM     39  C   UNL A   1      37.354  31.721  31.409  1.00  0.00     0.029 A 
ATOM     40  N   UNL A   1      39.228  30.546  31.745  1.00  0.00    -0.354 N 
ATOM     41  C   UNL A   1      40.686  27.856  28.639  1.00  0.00     0.074 A 
ATOM     42  C   UNL A   1      39.801  27.886  27.495  1.00  0.00     0.031 C 
ATOM     43  C   UNL A   1      37.883  32.122  32.578  1.00  0.00     0.029 A 
ATOM     44  C   UNL A   1      39.073  31.324  32.869  1.00  0.00     0.049 A 
ATOM     45  H   UNL A   1      39.999  29.950  31.604  1.00  0.00     0.167 HD
ATOM     46  C   UNL A   1      41.835  27.138  28.705  1.00  0.00     0.034 A 
ATOM     47  C   UNL A   1      39.781  31.346  34.018  1.00  0.00     0.034 A 
ATOM     48  C   UNL A   1      42.662  27.087  29.886  1.00  0.00     0.049 A 
ATOM     49  C   UNL A   1      40.972  30.426  34.138  1.00  0.00     0.074 A 
ATOM     50  C   UNL A   1      43.800  26.336  30.119  1.00  0.00     0.029 A 
ATOM     51  N   UNL A   1      42.416  27.804  31.054  1.00  0.00    -0.354 N 
ATOM     52  N   UNL A   1      41.470  29.601  33.243  1.00  0.00    -0.248 NA
ATOM     53  C   UNL A   1      41.691  30.430  35.417  1.00  0.00     0.031 C 
ATOM     54  C   UNL A   1      44.188  26.535  31.450  1.00  0.00     0.029 A 
ATOM     55  C   UNL A   1      43.353  27.482  32.024  1.00  0.00     0.049 A 
ATOM     56  H   UNL A   1      41.681  28.448  31.174  1.00  0.00     0.167 HD
ATOM     57  C   UNL A   1      42.569  28.994  33.848  1.00  0.00     0.074 A 
ATOM     58  C   UNL A   1      42.670  29.568  35.177  1.00  0.00     0.031 C 
ATOM     59  C   UNL A   1      43.416  28.053  33.353  1.00  0.00     0.034 A 
BRANCH  46  60
ATOM     60  C   UNL A   1      42.154  26.260  27.513  1.00  0.00     0.023 A 
ATOM     61  C   UNL A   1      41.881  24.879  27.507  1.00  0.00     0.031 A 
ATOM     62  C   UNL A   1      42.866  26.791  26.422  1.00  0.00     0.131 A 
ATOM     63  C   UNL A   1      42.416  24.065  26.495  1.00  0.00     0.055 A 
ATOM     64  C   UNL A   1      43.313  25.989  25.371  1.00  0.00     0.041 A 
ATOM     65  F   UNL A   1      43.183  28.095  26.382  1.00  0.00    -0.206 F 
ATOM     66  C   UNL A   1      43.112  24.614  25.415  1.00  0.00     0.022 A 
BRANCH  63  67
ATOM     67  S   UNL A   1      42.379  22.263  26.720  1.00  0.00     0.124 S 
ATOM     68  O   UNL A   1      41.322  21.872  25.790  1.00  0.00    -0.237 OA
ATOM     69  O   UNL A   1      43.734  21.871  26.348  1.00  0.00    -0.237 OA
ATOM     70  O   UNL A   1      42.047  22.100  28.133  1.00  0.00    -0.744 OA
ENDBRANCH  63  67
ENDBRANCH  46  60
BRANCH  47  71
ATOM     71  C   UNL A   1      39.315  32.180  35.169  1.00  0.00     0.023 A 
ATOM     72  C   UNL A   1      38.624  31.635  36.264  1.00  0.00     0.031 A 
ATOM     73  C   UNL A   1      39.557  33.569  35.175  1.00  0.00     0.131 A 
ATOM     74  C   UNL A   1      38.198  32.474  37.311  1.00  0.00     0.055 A 
ATOM     75  C   UNL A   1      39.175  34.388  36.238  1.00  0.00     0.041 A 
ATOM     76  F   UNL A   1      40.199  34.150  34.149  1.00  0.00    -0.206 F 
ATOM     77  C   UNL A   1      38.487  33.841  37.314  1.00  0.00     0.022 A 
BRANCH  74  78
ATOM     78  S   UNL A   1      37.215  31.767  38.665  1.00  0.00     0.124 S 
ATOM     79  O   UNL A   1      38.096  31.970  39.810  1.00  0.00    -0.237 OA
ATOM     80  O   UNL A   1      36.010  32.590  38.627  1.00  0.00    -0.237 OA
ATOM     81  O   UNL A   1      37.028  30.376  38.260  1.00  0.00    -0.744 OA
ENDBRANCH  74  78
ENDBRANCH  47  71
BRANCH  59  82
ATOM     82  C   UNL A   1      44.544  27.609  34.253  1.00  0.00     0.023 A 
ATOM     83  C   UNL A   1      44.417  26.502  35.111  1.00  0.00     0.031 A 
ATOM     84  C   UNL A   1      45.767  28.304  34.248  1.00  0.00     0.131 A 
ATOM     85  C   UNL A   1      45.473  26.158  35.968  1.00  0.00     0.055 A 
ATOM     86  C   UNL A   1      46.838  27.915  35.052  1.00  0.00     0.041 A 
ATOM     87  F   UNL A   1      45.943  29.372  33.452  1.00  0.00    -0.206 F 
ATOM     88  C   UNL A   1      46.690  26.844  35.929  1.00  0.00     0.022 A 
BRANCH  85  89
ATOM     89  S   UNL A   1      45.199  24.868  37.212  1.00  0.00     0.124 S 
ATOM     90  O   UNL A   1      46.424  24.945  38.001  1.00  0.00    -0.237 OA
ATOM     91  O   UNL A   1      43.983  25.326  37.876  1.00  0.00    -0.237 OA
ATOM     92  O   UNL A   1      45.050  23.651  36.417  1.00  0.00    -0.744 OA
ENDBRANCH  85  89
ENDBRANCH  59  82
ENDBRANCH  33  34
ENDBRANCH  26  28
ENDBRANCH  25  26
ENDBRANCH   1  25
TORSDOF 17
ENDMDL
MODEL 3
REMARK VINA RESULT:     -11.8      5.314     10.418
REMARK SMILES CO[C@H]1C[C@@H](C(=O)OCCOC(=O)c2ccc(-c3c4nc(c(-c5cc(S(=O)(=O)[O-])ccc5F)c5ccc([nH]5)c(-c5cc(S(=O)(=O)[O-])ccc5F)c5nc(c(-c6cc(S(=O)(=O)[O-])ccc6F)c6ccc3[nH]6)C=C5)C=C4)cc2)N(C(=O)Nc2cc(C)cc(F)c2)C1
REMARK SMILES IDX 10 1 9 2 8 3 6 4 7 5 5 6 3 7 4 8 89 9 77 10 2 11 1 12 78 13
REMARK SMILES IDX 79 14 80 15 81 17 82 18 88 19 83 20 86 21 84 22 85 23 87 24
REMARK SMILES IDX 11 25 12 26 13 27 14 28 15 29 76 30 16 31 75 32 17 33 18 34
REMARK SMILES IDX 19 35 69 36 20 37 74 38 68 39 70 40 21 41 73 42 67 43 66 44
REMARK SMILES IDX 22 46 54 47 34 48 53 49 35 50 38 51 52 52 71 53 36 54 37 55
REMARK SMILES IDX 51 57 72 58 39 59 23 60 24 61 32 62 25 63 31 64 33 65 30 66
REMARK SMILES IDX 26 67 27 68 28 69 29 70 55 71 56 72 64 73 57 74 63 75 65 76
REMARK SMILES IDX 62 77 58 78 59 79 60 80 61 81 40 82 41 83 49 84 42 85 48 86
REMARK SMILES IDX 50 87 47 88 43 89 44 90 45 91 46 92
REMARK H PARENT 80 16 70 45 38 56
REMARK Flexibility Score: inf
ROOT
ATOM      1  C   UNL A   1      36.359  21.116  25.360  1.00  0.00     0.275 C 
ENDROOT
BRANCH   1   2
ATOM      2  C   UNL A   1      35.501  22.104  26.187  1.00  0.00     0.274 C 
BRANCH   2   3
ATOM      3  O   UNL A   1      34.278  21.509  26.666  1.00  0.00    -0.461 OA
BRANCH   3   4
ATOM      4  C   UNL A   1      33.120  21.967  26.117  1.00  0.00     0.329 C 
ATOM      5  O   UNL A   1      32.706  23.116  26.254  1.00  0.00    -0.250 OA
BRANCH   4   6
ATOM      6  C   UNL A   1      32.326  20.891  25.320  1.00  0.00     0.199 C 
ATOM      7  C   UNL A   1      32.603  18.636  24.522  1.00  0.00     0.140 C 
ATOM      8  C   UNL A   1      32.993  19.564  25.655  1.00  0.00     0.071 C 
ATOM      9  C   UNL A   1      32.587  19.584  23.319  1.00  0.00     0.154 C 
ATOM     10  N   UNL A   1      32.191  20.897  23.840  1.00  0.00    -0.308 N 
BRANCH   7  11
ATOM     11  O   UNL A   1      33.593  17.616  24.499  1.00  0.00    -0.380 OA
ATOM     12  C   UNL A   1      33.686  16.911  23.275  1.00  0.00     0.195 C 
ENDBRANCH   7  11
BRANCH  10  13
ATOM     13  C   UNL A   1      32.663  22.006  23.191  1.00  0.00     0.322 C 
ATOM     14  O   UNL A   1      33.860  22.224  23.187  1.00  0.00    -0.248 OA
ATOM     15  N   UNL A   1      31.763  22.871  22.629  1.00  0.00    -0.308 N 
ATOM     16  H   UNL A   1      31.186  22.557  21.896  1.00  0.00     0.171 HD
BRANCH  15  17
ATOM     17  C   UNL A   1      31.645  24.213  23.083  1.00  0.00     0.046 A 
ATOM     18  C   UNL A   1      32.560  25.217  22.749  1.00  0.00     0.029 A 
ATOM     19  C   UNL A   1      30.530  24.577  23.829  1.00  0.00     0.065 A 
ATOM     20  C   UNL A   1      32.317  26.560  23.138  1.00  0.00    -0.046 A 
ATOM     21  C   UNL A   1      30.280  25.882  24.203  1.00  0.00     0.125 A 
ATOM     22  C   UNL A   1      33.297  27.656  22.844  1.00  0.00     0.044 C 
ATOM     23  C   UNL A   1      31.154  26.884  23.848  1.00  0.00     0.042 A 
ATOM     24  F   UNL A   1      29.171  26.169  24.896  1.00  0.00    -0.207 F 
ENDBRANCH  15  17
ENDBRANCH  10  13
ENDBRANCH   4   6
ENDBRANCH   3   4
ENDBRANCH   2   3
ENDBRANCH   1   2
BRANCH   1  25
ATOM     25  O   UNL A   1      37.643  21.623  24.921  1.00  0.00    -0.458 OA
BRANCH  25  26
ATOM     26  C   UNL A   1      38.702  21.333  25.731  1.00  0.00     0.338 C 
ATOM     27  O   UNL A   1      39.159  20.213  25.946  1.00  0.00    -0.246 OA
BRANCH  26  28
ATOM     28  C   UNL A   1      39.283  22.532  26.393  1.00  0.00     0.060 A 
ATOM     29  C   UNL A   1      38.893  23.813  25.976  1.00  0.00     0.016 A 
ATOM     30  C   UNL A   1      40.352  22.412  27.283  1.00  0.00     0.016 A 
ATOM     31  C   UNL A   1      39.455  24.961  26.531  1.00  0.00     0.010 A 
ATOM     32  C   UNL A   1      40.991  23.567  27.774  1.00  0.00     0.010 A 
ATOM     33  C   UNL A   1      40.539  24.847  27.402  1.00  0.00    -0.014 A 
BRANCH  33  34
ATOM     34  C   UNL A   1      41.310  26.081  27.695  1.00  0.00     0.031 A 
ATOM     35  C   UNL A   1      40.650  27.141  28.534  1.00  0.00     0.074 A 
ATOM     36  C   UNL A   1      42.606  26.190  27.355  1.00  0.00     0.049 A 
ATOM     37  N   UNL A   1      41.104  28.303  28.924  1.00  0.00    -0.248 NA
ATOM     38  C   UNL A   1      39.300  26.824  29.020  1.00  0.00     0.031 C 
ATOM     39  C   UNL A   1      43.383  25.152  26.680  1.00  0.00     0.029 A 
ATOM     40  N   UNL A   1      43.504  27.211  27.546  1.00  0.00    -0.354 N 
ATOM     41  C   UNL A   1      40.089  28.861  29.696  1.00  0.00     0.074 A 
ATOM     42  C   UNL A   1      39.003  27.907  29.718  1.00  0.00     0.031 C 
ATOM     43  C   UNL A   1      44.639  25.596  26.501  1.00  0.00     0.029 A 
ATOM     44  C   UNL A   1      44.739  26.970  26.990  1.00  0.00     0.049 A 
ATOM     45  H   UNL A   1      43.284  28.037  28.034  1.00  0.00     0.167 HD
ATOM     46  C   UNL A   1      40.065  30.071  30.312  1.00  0.00     0.034 A 
ATOM     47  C   UNL A   1      45.804  27.786  26.847  1.00  0.00     0.034 A 
ATOM     48  C   UNL A   1      41.146  31.021  30.217  1.00  0.00     0.049 A 
ATOM     49  C   UNL A   1      45.707  29.187  27.402  1.00  0.00     0.074 A 
ATOM     50  C   UNL A   1      41.218  32.310  30.715  1.00  0.00     0.029 A 
ATOM     51  N   UNL A   1      42.346  30.788  29.550  1.00  0.00    -0.354 N 
ATOM     52  N   UNL A   1      44.717  29.745  28.066  1.00  0.00    -0.248 NA
ATOM     53  C   UNL A   1      46.858  30.071  27.186  1.00  0.00     0.031 C 
ATOM     54  C   UNL A   1      42.419  32.881  30.276  1.00  0.00     0.029 A 
ATOM     55  C   UNL A   1      43.145  31.921  29.585  1.00  0.00     0.049 A 
ATOM     56  H   UNL A   1      42.592  29.940  29.115  1.00  0.00     0.167 HD
ATOM     57  C   UNL A   1      45.131  31.043  28.356  1.00  0.00     0.074 A 
ATOM     58  C   UNL A   1      46.470  31.175  27.811  1.00  0.00     0.031 C 
ATOM     59  C   UNL A   1      44.469  32.034  29.011  1.00  0.00     0.034 A 
BRANCH  46  60
ATOM     60  C   UNL A   1      38.773  30.453  31.001  1.00  0.00     0.023 A 
ATOM     61  C   UNL A   1      37.794  31.246  30.371  1.00  0.00     0.031 A 
ATOM     62  C   UNL A   1      38.580  30.132  32.357  1.00  0.00     0.131 A 
ATOM     63  C   UNL A   1      36.737  31.782  31.125  1.00  0.00     0.055 A 
ATOM     64  C   UNL A   1      37.475  30.591  33.076  1.00  0.00     0.041 A 
ATOM     65  F   UNL A   1      39.490  29.404  33.023  1.00  0.00    -0.206 F 
ATOM     66  C   UNL A   1      36.559  31.443  32.468  1.00  0.00     0.022 A 
BRANCH  63  67
ATOM     67  S   UNL A   1      35.726  33.099  30.386  1.00  0.00     0.124 S 
ATOM     68  O   UNL A   1      34.521  32.365  30.006  1.00  0.00    -0.237 OA
ATOM     69  O   UNL A   1      35.578  34.039  31.491  1.00  0.00    -0.237 OA
ATOM     70  O   UNL A   1      36.538  33.570  29.268  1.00  0.00    -0.744 OA
ENDBRANCH  63  67
ENDBRANCH  46  60
BRANCH  47  71
ATOM     71  C   UNL A   1      46.992  27.336  26.058  1.00  0.00     0.023 A 
ATOM     72  C   UNL A   1      47.184  27.693  24.713  1.00  0.00     0.031 A 
ATOM     73  C   UNL A   1      47.967  26.515  26.661  1.00  0.00     0.131 A 
ATOM     74  C   UNL A   1      48.316  27.226  24.019  1.00  0.00     0.055 A 
ATOM     75  C   UNL A   1      49.112  26.095  25.982  1.00  0.00     0.041 A 
ATOM     76  F   UNL A   1      47.832  26.128  27.939  1.00  0.00    -0.206 F 
ATOM     77  C   UNL A   1      49.289  26.447  24.650  1.00  0.00     0.022 A 
BRANCH  74  78
ATOM     78  S   UNL A   1      48.490  27.612  22.252  1.00  0.00     0.124 S 
ATOM     79  O   UNL A   1      47.259  28.346  21.985  1.00  0.00    -0.237 OA
ATOM     80  O   UNL A   1      49.723  28.393  22.233  1.00  0.00    -0.237 OA
ATOM     81  O   UNL A   1      48.582  26.296  21.623  1.00  0.00    -0.744 OA
ENDBRANCH  74  78
ENDBRANCH  47  71
BRANCH  59  82
ATOM     82  C   UNL A   1      45.205  33.340  29.196  1.00  0.00     0.023 A 
ATOM     83  C   UNL A   1      45.022  34.423  28.319  1.00  0.00     0.031 A 
ATOM     84  C   UNL A   1      46.098  33.501  30.270  1.00  0.00     0.131 A 
ATOM     85  C   UNL A   1      45.766  35.600  28.498  1.00  0.00     0.055 A 
ATOM     86  C   UNL A   1      46.783  34.697  30.484  1.00  0.00     0.041 A 
ATOM     87  F   UNL A   1      46.315  32.497  31.135  1.00  0.00    -0.206 F 
ATOM     88  C   UNL A   1      46.629  35.751  29.587  1.00  0.00     0.022 A 
BRANCH  85  89
ATOM     89  S   UNL A   1      45.671  36.891  27.229  1.00  0.00     0.124 S 
ATOM     90  O   UNL A   1      44.242  36.922  26.938  1.00  0.00    -0.237 OA
ATOM     91  O   UNL A   1      46.205  38.056  27.928  1.00  0.00    -0.237 OA
ATOM     92  O   UNL A   1      46.513  36.375  26.152  1.00  0.00    -0.744 OA
ENDBRANCH  85  89
ENDBRANCH  59  82
ENDBRANCH  33  34
ENDBRANCH  26  28
ENDBRANCH  25  26
ENDBRANCH   1  25
TORSDOF 17
ENDMDL
