MODEL 1
REMARK VINA RESULT:     -11.4      0.000      0.000
REMARK SMILES CC[C@@H](C)[C@H](NC(=O)[C@H](C)N1C(=O)N2CCC3=c4cc(OC)ccc4=N[C@H]3[C@@]2(C)C1=O)C(=O)OCCOC(=O)c1ccc(-c2c3nc(c(-c4cc(S(=O)(=O)[O-])ccc4F)c4ccc([nH]4)c(-c4cc(S(=O)(=O)[O-])ccc4F)c4nc(c(-c5cc(S(=O)(=O)[O-])ccc5F)c5ccc2[nH]5)C=C4)C=C3)cc1
REMARK SMILES IDX 35 1 34 2 32 3 33 4 5 5 3 6 4 7 2 8 1 9 6 10 7 11 8 13 9 14
REMARK SMILES IDX 10 15 11 16 12 17 30 18 14 19 13 20 28 21 31 22 15 23 27 24
REMARK SMILES IDX 29 25 16 26 17 27 26 28 18 29 25 30 19 31 24 32 20 33 23 34
REMARK SMILES IDX 21 35 22 36 36 37 37 38 38 39 39 40 40 41 41 42 102 43 42 44
REMARK SMILES IDX 101 45 43 46 44 47 45 48 95 49 46 50 100 51 94 52 96 53
REMARK SMILES IDX 47 54 99 55 93 56 92 57 48 59 80 60 60 61 79 62 61 63 64 64
REMARK SMILES IDX 78 65 97 66 62 67 63 68 77 70 98 71 65 72 49 73 50 74 58 75
REMARK SMILES IDX 51 76 57 77 59 78 56 79 52 80 53 81 54 82 55 83 81 84 82 85
REMARK SMILES IDX 90 86 83 87 89 88 91 89 88 90 84 91 85 92 86 93 87 94 66 95
REMARK SMILES IDX 67 96 75 97 68 98 74 99 76 100 73 101 69 102 70 103 71 104
REMARK SMILES IDX 72 105
REMARK H PARENT 6 12 96 58 64 69
REMARK Flexibility Score: inf
ROOT
ATOM      1  C   UNL A   1      46.943  20.155  37.355  1.00  0.00     0.274 C 
ENDROOT
BRANCH   1   2
ATOM      2  O   UNL A   1      45.999  19.777  38.415  1.00  0.00    -0.461 OA
BRANCH   2   3
ATOM      3  C   UNL A   1      46.406  19.838  39.747  1.00  0.00     0.329 C 
ATOM      4  O   UNL A   1      45.893  20.574  40.584  1.00  0.00    -0.250 OA
BRANCH   3   5
ATOM      5  C   UNL A   1      47.396  18.638  40.066  1.00  0.00     0.195 C 
BRANCH   5   6
ATOM      6  C   UNL A   1      48.981  18.731  40.161  1.00  0.00     0.019 C 
ATOM      7  C   UNL A   1      49.516  19.188  41.518  1.00  0.00     0.010 C 
BRANCH   6   8
ATOM      8  C   UNL A   1      49.747  19.371  38.974  1.00  0.00     0.002 C 
ATOM      9  C   UNL A   1      51.042  18.622  38.607  1.00  0.00     0.004 C 
ENDBRANCH   6   8
ENDBRANCH   5   6
BRANCH   5  10
ATOM     10  N   UNL A   1      46.860  17.331  39.717  1.00  0.00    -0.341 N 
ATOM     11  C   UNL A   1      45.939  16.494  40.274  1.00  0.00     0.243 C 
ATOM     12  H   UNL A   1      47.252  16.967  38.890  1.00  0.00     0.164 HD
ATOM     13  O   UNL A   1      45.715  15.524  39.527  1.00  0.00    -0.273 OA
BRANCH  11  14
ATOM     14  C   UNL A   1      44.967  16.748  41.540  1.00  0.00     0.181 C 
ATOM     15  C   UNL A   1      43.658  17.226  40.904  1.00  0.00     0.042 C 
BRANCH  14  16
ATOM     16  N   UNL A   1      45.424  17.270  42.918  1.00  0.00    -0.250 N 
ATOM     17  C   UNL A   1      44.634  17.356  44.087  1.00  0.00     0.328 C 
ATOM     18  C   UNL A   1      46.611  16.988  43.465  1.00  0.00     0.259 C 
ATOM     19  N   UNL A   1      45.478  16.808  45.239  1.00  0.00    -0.307 N 
ATOM     20  O   UNL A   1      43.431  17.548  44.161  1.00  0.00    -0.248 OA
ATOM     21  C   UNL A   1      46.378  15.915  44.509  1.00  0.00     0.147 C 
ATOM     22  O   UNL A   1      47.634  17.662  43.418  1.00  0.00    -0.271 OA
ATOM     23  C   UNL A   1      44.871  16.143  46.473  1.00  0.00     0.127 C 
ATOM     24  C   UNL A   1      45.363  14.656  44.073  1.00  0.00     0.168 C 
ATOM     25  C   UNL A   1      47.663  15.570  45.257  1.00  0.00     0.048 C 
ATOM     26  C   UNL A   1      44.853  14.428  46.479  1.00  0.00     0.055 C 
ATOM     27  C   UNL A   1      44.750  13.646  45.035  1.00  0.00    -0.032 C 
ATOM     28  N   UNL A   1      44.193  14.975  43.159  1.00  0.00    -0.274 NA
ATOM     29  C   UNL A   1      43.548  13.210  44.499  1.00  0.00     0.005 A 
ATOM     30  C   UNL A   1      43.188  14.537  43.887  1.00  0.00     0.066 A 
ATOM     31  C   UNL A   1      43.246  12.401  43.220  1.00  0.00     0.056 A 
ATOM     32  C   UNL A   1      41.757  14.786  43.757  1.00  0.00     0.032 A 
ATOM     33  C   UNL A   1      42.190  12.837  42.441  1.00  0.00     0.119 A 
ATOM     34  C   UNL A   1      41.240  13.803  43.014  1.00  0.00     0.048 A 
BRANCH  33  35
ATOM     35  O   UNL A   1      42.225  12.809  41.045  1.00  0.00    -0.497 OA
ATOM     36  C   UNL A   1      41.185  13.604  40.404  1.00  0.00     0.278 C 
ENDBRANCH  33  35
ENDBRANCH  14  16
ENDBRANCH  11  14
ENDBRANCH   5  10
ENDBRANCH   3   5
ENDBRANCH   2   3
ENDBRANCH   1   2
BRANCH   1  37
ATOM     37  C   UNL A   1      46.590  21.449  36.489  1.00  0.00     0.275 C 
BRANCH  37  38
ATOM     38  O   UNL A   1      45.295  22.123  36.703  1.00  0.00    -0.458 OA
BRANCH  38  39
ATOM     39  C   UNL A   1      45.324  23.446  37.117  1.00  0.00     0.338 C 
ATOM     40  O   UNL A   1      45.847  23.815  38.162  1.00  0.00    -0.246 OA
BRANCH  39  41
ATOM     41  C   UNL A   1      44.732  24.451  36.137  1.00  0.00     0.060 A 
ATOM     42  C   UNL A   1      43.503  24.217  35.496  1.00  0.00     0.016 A 
ATOM     43  C   UNL A   1      45.351  25.654  35.821  1.00  0.00     0.016 A 
ATOM     44  C   UNL A   1      42.863  25.217  34.688  1.00  0.00     0.010 A 
ATOM     45  C   UNL A   1      44.695  26.642  35.015  1.00  0.00     0.010 A 
ATOM     46  C   UNL A   1      43.380  26.517  34.503  1.00  0.00    -0.014 A 
BRANCH  46  47
ATOM     47  C   UNL A   1      42.610  27.642  33.738  1.00  0.00     0.031 A 
ATOM     48  C   UNL A   1      42.584  27.732  32.212  1.00  0.00     0.074 A 
ATOM     49  C   UNL A   1      41.974  28.718  34.287  1.00  0.00     0.049 A 
ATOM     50  N   UNL A   1      41.600  28.068  31.407  1.00  0.00    -0.248 NA
ATOM     51  C   UNL A   1      43.843  27.483  31.497  1.00  0.00     0.031 C 
ATOM     52  C   UNL A   1      42.079  29.193  35.665  1.00  0.00     0.029 A 
ATOM     53  N   UNL A   1      41.079  29.628  33.719  1.00  0.00    -0.354 N 
ATOM     54  C   UNL A   1      42.075  27.875  30.111  1.00  0.00     0.074 A 
ATOM     55  C   UNL A   1      43.463  27.490  30.227  1.00  0.00     0.031 C 
ATOM     56  C   UNL A   1      41.218  30.209  35.863  1.00  0.00     0.029 A 
ATOM     57  C   UNL A   1      40.480  30.482  34.629  1.00  0.00     0.049 A 
ATOM     58  H   UNL A   1      40.891  29.659  32.754  1.00  0.00     0.167 HD
ATOM     59  C   UNL A   1      41.437  28.009  28.921  1.00  0.00     0.034 A 
ATOM     60  C   UNL A   1      39.431  31.338  34.528  1.00  0.00     0.034 A 
ATOM     61  C   UNL A   1      40.178  28.679  28.752  1.00  0.00     0.049 A 
ATOM     62  C   UNL A   1      38.646  31.466  33.232  1.00  0.00     0.074 A 
ATOM     63  C   UNL A   1      39.411  28.802  27.604  1.00  0.00     0.029 A 
ATOM     64  N   UNL A   1      39.556  29.435  29.729  1.00  0.00    -0.354 N 
ATOM     65  N   UNL A   1      38.842  30.867  32.082  1.00  0.00    -0.248 NA
ATOM     66  C   UNL A   1      37.471  32.360  33.230  1.00  0.00     0.031 C 
ATOM     67  C   UNL A   1      38.371  29.698  27.869  1.00  0.00     0.029 A 
ATOM     68  C   UNL A   1      38.442  30.063  29.202  1.00  0.00     0.049 A 
ATOM     69  H   UNL A   1      39.863  29.516  30.660  1.00  0.00     0.167 HD
ATOM     70  C   UNL A   1      37.798  31.274  31.245  1.00  0.00     0.074 A 
ATOM     71  C   UNL A   1      36.963  32.161  32.019  1.00  0.00     0.031 C 
ATOM     72  C   UNL A   1      37.565  30.931  29.951  1.00  0.00     0.034 A 
BRANCH  59  73
ATOM     73  C   UNL A   1      42.059  27.361  27.707  1.00  0.00     0.023 A 
ATOM     74  C   UNL A   1      42.059  25.968  27.514  1.00  0.00     0.031 A 
ATOM     75  C   UNL A   1      42.809  28.155  26.815  1.00  0.00     0.131 A 
ATOM     76  C   UNL A   1      42.811  25.413  26.467  1.00  0.00     0.055 A 
ATOM     77  C   UNL A   1      43.532  27.600  25.761  1.00  0.00     0.041 A 
ATOM     78  F   UNL A   1      42.858  29.489  26.968  1.00  0.00    -0.206 F 
ATOM     79  C   UNL A   1      43.542  26.222  25.589  1.00  0.00     0.022 A 
BRANCH  76  80
ATOM     80  S   UNL A   1      42.915  23.619  26.219  1.00  0.00     0.124 S 
ATOM     81  O   UNL A   1      44.058  23.267  27.059  1.00  0.00    -0.237 OA
ATOM     82  O   UNL A   1      41.617  23.166  26.712  1.00  0.00    -0.237 OA
ATOM     83  O   UNL A   1      43.134  23.475  24.784  1.00  0.00    -0.744 OA
ENDBRANCH  76  80
ENDBRANCH  59  73
BRANCH  60  84
ATOM     84  C   UNL A   1      38.933  32.040  35.760  1.00  0.00     0.023 A 
ATOM     85  C   UNL A   1      38.255  31.362  36.788  1.00  0.00     0.031 A 
ATOM     86  C   UNL A   1      39.091  33.435  35.889  1.00  0.00     0.131 A 
ATOM     87  C   UNL A   1      37.720  32.086  37.867  1.00  0.00     0.055 A 
ATOM     88  C   UNL A   1      38.615  34.140  36.995  1.00  0.00     0.041 A 
ATOM     89  F   UNL A   1      39.730  34.131  34.936  1.00  0.00    -0.206 F 
ATOM     90  C   UNL A   1      37.911  33.467  37.986  1.00  0.00     0.022 A 
BRANCH  87  91
ATOM     91  S   UNL A   1      36.662  31.282  39.105  1.00  0.00     0.124 S 
ATOM     92  O   UNL A   1      37.545  31.211  40.265  1.00  0.00    -0.237 OA
ATOM     93  O   UNL A   1      35.556  32.230  39.211  1.00  0.00    -0.237 OA
ATOM     94  O   UNL A   1      36.325  30.002  38.489  1.00  0.00    -0.744 OA
ENDBRANCH  87  91
ENDBRANCH  60  84
BRANCH  72  95
ATOM     95  C   UNL A   1      36.355  31.471  29.219  1.00  0.00     0.023 A 
ATOM     96  C   UNL A   1      35.380  30.575  28.733  1.00  0.00     0.031 A 
ATOM     97  C   UNL A   1      36.267  32.816  28.822  1.00  0.00     0.131 A 
ATOM     98  C   UNL A   1      34.398  31.019  27.837  1.00  0.00     0.055 A 
ATOM     99  C   UNL A   1      35.257  33.265  27.966  1.00  0.00     0.041 A 
ATOM    100  F   UNL A   1      37.177  33.712  29.237  1.00  0.00    -0.206 F 
ATOM    101  C   UNL A   1      34.328  32.362  27.455  1.00  0.00     0.022 A 
BRANCH  98 102
ATOM    102  S   UNL A   1      33.249  29.855  27.047  1.00  0.00     0.124 S 
ATOM    103  O   UNL A   1      33.779  29.783  25.688  1.00  0.00    -0.237 OA
ATOM    104  O   UNL A   1      33.430  28.650  27.851  1.00  0.00    -0.237 OA
ATOM    105  O   UNL A   1      31.949  30.505  27.173  1.00  0.00    -0.744 OA
ENDBRANCH  98 102
ENDBRANCH  72  95
ENDBRANCH  46  47
ENDBRANCH  39  41
ENDBRANCH  38  39
ENDBRANCH  37  38
ENDBRANCH   1  37
TORSDOF 20
ENDMDL
MODEL 2
REMARK VINA RESULT:     -10.1     11.569     23.124
REMARK SMILES CC[C@@H](C)[C@H](NC(=O)[C@H](C)N1C(=O)N2CCC3=c4cc(OC)ccc4=N[C@H]3[C@@]2(C)C1=O)C(=O)OCCOC(=O)c1ccc(-c2c3nc(c(-c4cc(S(=O)(=O)[O-])ccc4F)c4ccc([nH]4)c(-c4cc(S(=O)(=O)[O-])ccc4F)c4nc(c(-c5cc(S(=O)(=O)[O-])ccc5F)c5ccc2[nH]5)C=C4)C=C3)cc1
REMARK SMILES IDX 35 1 34 2 32 3 33 4 5 5 3 6 4 7 2 8 1 9 6 10 7 11 8 13 9 14
REMARK SMILES IDX 10 15 11 16 12 17 30 18 14 19 13 20 28 21 31 22 15 23 27 24
REMARK SMILES IDX 29 25 16 26 17 27 26 28 18 29 25 30 19 31 24 32 20 33 23 34
REMARK SMILES IDX 21 35 22 36 36 37 37 38 38 39 39 40 40 41 41 42 102 43 42 44
REMARK SMILES IDX 101 45 43 46 44 47 45 48 95 49 46 50 100 51 94 52 96 53
REMARK SMILES IDX 47 54 99 55 93 56 92 57 48 59 80 60 60 61 79 62 61 63 64 64
REMARK SMILES IDX 78 65 97 66 62 67 63 68 77 70 98 71 65 72 49 73 50 74 58 75
REMARK SMILES IDX 51 76 57 77 59 78 56 79 52 80 53 81 54 82 55 83 81 84 82 85
REMARK SMILES IDX 90 86 83 87 89 88 91 89 88 90 84 91 85 92 86 93 87 94 66 95
REMARK SMILES IDX 67 96 75 97 68 98 74 99 76 100 73 101 69 102 70 103 71 104
REMARK SMILES IDX 72 105
REMARK H PARENT 6 12 96 58 64 69
REMARK Flexibility Score: inf
ROOT
ATOM      1  C   UNL A   1      46.709  41.198  26.277  1.00  0.00     0.274 C 
ENDROOT
BRANCH   1   2
ATOM      2  O   UNL A   1      47.187  42.081  25.204  1.00  0.00    -0.461 OA
BRANCH   2   3
ATOM      3  C   UNL A   1      46.303  42.483  24.204  1.00  0.00     0.329 C 
ATOM      4  O   UNL A   1      45.906  41.745  23.308  1.00  0.00    -0.250 OA
BRANCH   3   5
ATOM      5  C   UNL A   1      45.683  43.899  24.568  1.00  0.00     0.195 C 
BRANCH   5   6
ATOM      6  C   UNL A   1      46.122  44.831  25.781  1.00  0.00     0.019 C 
ATOM      7  C   UNL A   1      47.616  45.150  25.834  1.00  0.00     0.010 C 
BRANCH   6   8
ATOM      8  C   UNL A   1      45.528  44.533  27.182  1.00  0.00     0.002 C 
ATOM      9  C   UNL A   1      45.906  45.586  28.240  1.00  0.00     0.004 C 
ENDBRANCH   6   8
ENDBRANCH   5   6
BRANCH   5  10
ATOM     10  N   UNL A   1      44.317  44.076  24.098  1.00  0.00    -0.341 N 
ATOM     11  C   UNL A   1      43.742  44.267  22.876  1.00  0.00     0.243 C 
ATOM     12  H   UNL A   1      43.657  44.055  24.829  1.00  0.00     0.164 HD
ATOM     13  O   UNL A   1      42.501  44.233  22.963  1.00  0.00    -0.273 OA
BRANCH  11  14
ATOM     14  C   UNL A   1      44.426  44.231  21.413  1.00  0.00     0.181 C 
ATOM     15  C   UNL A   1      43.816  42.989  20.756  1.00  0.00     0.042 C 
BRANCH  14  16
ATOM     16  N   UNL A   1      45.870  44.674  21.098  1.00  0.00    -0.250 N 
ATOM     17  C   UNL A   1      46.523  44.579  19.848  1.00  0.00     0.328 C 
ATOM     18  C   UNL A   1      46.419  45.804  21.557  1.00  0.00     0.259 C 
ATOM     19  N   UNL A   1      47.229  45.915  19.609  1.00  0.00    -0.307 N 
ATOM     20  O   UNL A   1      46.350  43.740  18.978  1.00  0.00    -0.248 OA
ATOM     21  C   UNL A   1      46.399  46.804  20.419  1.00  0.00     0.147 C 
ATOM     22  O   UNL A   1      47.117  45.943  22.555  1.00  0.00    -0.271 OA
ATOM     23  C   UNL A   1      47.498  46.477  18.214  1.00  0.00     0.127 C 
ATOM     24  C   UNL A   1      44.984  46.892  19.526  1.00  0.00     0.168 C 
ATOM     25  C   UNL A   1      47.078  48.114  20.811  1.00  0.00     0.048 C 
ATOM     26  C   UNL A   1      46.391  47.658  17.647  1.00  0.00     0.055 C 
ATOM     27  C   UNL A   1      44.836  47.586  18.179  1.00  0.00    -0.032 C 
ATOM     28  N   UNL A   1      44.204  45.607  19.311  1.00  0.00    -0.274 NA
ATOM     29  C   UNL A   1      43.827  46.950  17.471  1.00  0.00     0.005 A 
ATOM     30  C   UNL A   1      44.146  45.576  17.996  1.00  0.00     0.066 A 
ATOM     31  C   UNL A   1      42.313  46.838  17.750  1.00  0.00     0.056 A 
ATOM     32  C   UNL A   1      43.799  44.480  17.099  1.00  0.00     0.032 A 
ATOM     33  C   UNL A   1      41.737  45.593  17.575  1.00  0.00     0.119 A 
ATOM     34  C   UNL A   1      42.490  44.562  16.844  1.00  0.00     0.048 A 
BRANCH  33  35
ATOM     35  O   UNL A   1      40.742  45.101  18.422  1.00  0.00    -0.497 OA
ATOM     36  C   UNL A   1      40.898  43.695  18.775  1.00  0.00     0.278 C 
ENDBRANCH  33  35
ENDBRANCH  14  16
ENDBRANCH  11  14
ENDBRANCH   5  10
ENDBRANCH   3   5
ENDBRANCH   2   3
ENDBRANCH   1   2
BRANCH   1  37
ATOM     37  C   UNL A   1      45.261  40.551  26.100  1.00  0.00     0.275 C 
BRANCH  37  38
ATOM     38  O   UNL A   1      44.378  40.441  27.276  1.00  0.00    -0.458 OA
BRANCH  38  39
ATOM     39  C   UNL A   1      43.169  39.782  27.108  1.00  0.00     0.338 C 
ATOM     40  O   UNL A   1      42.230  40.247  26.473  1.00  0.00    -0.246 OA
BRANCH  39  41
ATOM     41  C   UNL A   1      43.101  38.378  27.696  1.00  0.00     0.060 A 
ATOM     42  C   UNL A   1      42.798  37.262  26.897  1.00  0.00     0.016 A 
ATOM     43  C   UNL A   1      43.339  38.107  29.037  1.00  0.00     0.016 A 
ATOM     44  C   UNL A   1      42.877  35.919  27.404  1.00  0.00     0.010 A 
ATOM     45  C   UNL A   1      43.417  36.760  29.524  1.00  0.00     0.010 A 
ATOM     46  C   UNL A   1      43.300  35.605  28.713  1.00  0.00    -0.014 A 
BRANCH  46  47
ATOM     47  C   UNL A   1      43.516  34.139  29.212  1.00  0.00     0.031 A 
ATOM     48  C   UNL A   1      42.367  33.257  29.702  1.00  0.00     0.074 A 
ATOM     49  C   UNL A   1      44.710  33.500  29.381  1.00  0.00     0.049 A 
ATOM     50  N   UNL A   1      42.161  31.971  29.523  1.00  0.00    -0.248 NA
ATOM     51  C   UNL A   1      41.355  33.881  30.565  1.00  0.00     0.031 C 
ATOM     52  C   UNL A   1      46.040  34.104  29.380  1.00  0.00     0.029 A 
ATOM     53  N   UNL A   1      44.991  32.148  29.592  1.00  0.00    -0.354 N 
ATOM     54  C   UNL A   1      40.912  31.697  30.080  1.00  0.00     0.074 A 
ATOM     55  C   UNL A   1      40.448  32.922  30.690  1.00  0.00     0.031 C 
ATOM     56  C   UNL A   1      46.979  33.143  29.462  1.00  0.00     0.029 A 
ATOM     57  C   UNL A   1      46.337  31.829  29.527  1.00  0.00     0.049 A 
ATOM     58  H   UNL A   1      44.292  31.479  29.771  1.00  0.00     0.167 HD
ATOM     59  C   UNL A   1      40.204  30.541  30.100  1.00  0.00     0.034 A 
ATOM     60  C   UNL A   1      46.995  30.643  29.462  1.00  0.00     0.034 A 
ATOM     61  C   UNL A   1      40.754  29.251  29.787  1.00  0.00     0.049 A 
ATOM     62  C   UNL A   1      46.234  29.327  29.413  1.00  0.00     0.074 A 
ATOM     63  C   UNL A   1      40.103  28.030  29.704  1.00  0.00     0.029 A 
ATOM     64  N   UNL A   1      42.103  28.996  29.620  1.00  0.00    -0.354 N 
ATOM     65  N   UNL A   1      44.941  29.114  29.460  1.00  0.00    -0.248 NA
ATOM     66  C   UNL A   1      47.023  28.087  29.262  1.00  0.00     0.031 C 
ATOM     67  C   UNL A   1      41.070  27.030  29.566  1.00  0.00     0.029 A 
ATOM     68  C   UNL A   1      42.312  27.636  29.478  1.00  0.00     0.049 A 
ATOM     69  H   UNL A   1      42.809  29.681  29.606  1.00  0.00     0.167 HD
ATOM     70  C   UNL A   1      44.764  27.736  29.301  1.00  0.00     0.074 A 
ATOM     71  C   UNL A   1      46.079  27.161  29.143  1.00  0.00     0.031 C 
ATOM     72  C   UNL A   1      43.606  27.026  29.287  1.00  0.00     0.034 A 
BRANCH  59  73
ATOM     73  C   UNL A   1      38.728  30.620  30.412  1.00  0.00     0.023 A 
ATOM     74  C   UNL A   1      37.795  31.158  29.508  1.00  0.00     0.031 A 
ATOM     75  C   UNL A   1      38.284  30.298  31.711  1.00  0.00     0.131 A 
ATOM     76  C   UNL A   1      36.472  31.376  29.924  1.00  0.00     0.055 A 
ATOM     77  C   UNL A   1      36.963  30.491  32.110  1.00  0.00     0.041 A 
ATOM     78  F   UNL A   1      39.140  29.799  32.619  1.00  0.00    -0.206 F 
ATOM     79  C   UNL A   1      36.052  31.041  31.217  1.00  0.00     0.022 A 
BRANCH  76  80
ATOM     80  S   UNL A   1      35.246  32.143  28.829  1.00  0.00     0.124 S 
ATOM     81  O   UNL A   1      34.579  30.972  28.262  1.00  0.00    -0.237 OA
ATOM     82  O   UNL A   1      34.444  32.924  29.765  1.00  0.00    -0.237 OA
ATOM     83  O   UNL A   1      36.051  32.912  27.886  1.00  0.00    -0.744 OA
ENDBRANCH  76  80
ENDBRANCH  59  73
BRANCH  60  84
ATOM     84  C   UNL A   1      48.485  30.637  29.264  1.00  0.00     0.023 A 
ATOM     85  C   UNL A   1      49.385  30.711  30.341  1.00  0.00     0.031 A 
ATOM     86  C   UNL A   1      49.023  30.612  27.961  1.00  0.00     0.131 A 
ATOM     87  C   UNL A   1      50.765  30.807  30.092  1.00  0.00     0.055 A 
ATOM     88  C   UNL A   1      50.398  30.641  27.721  1.00  0.00     0.041 A 
ATOM     89  F   UNL A   1      48.207  30.542  26.898  1.00  0.00    -0.206 F 
ATOM     90  C   UNL A   1      51.277  30.754  28.791  1.00  0.00     0.022 A 
BRANCH  87  91
ATOM     91  S   UNL A   1      51.943  31.112  31.439  1.00  0.00     0.124 S 
ATOM     92  O   UNL A   1      51.160  31.939  32.352  1.00  0.00    -0.237 OA
ATOM     93  O   UNL A   1      52.225  29.756  31.901  1.00  0.00    -0.237 OA
ATOM     94  O   UNL A   1      53.055  31.786  30.775  1.00  0.00    -0.744 OA
ENDBRANCH  87  91
ENDBRANCH  60  84
BRANCH  72  95
ATOM     95  C   UNL A   1      43.627  25.527  29.080  1.00  0.00     0.023 A 
ATOM     96  C   UNL A   1      43.141  24.985  27.872  1.00  0.00     0.031 A 
ATOM     97  C   UNL A   1      43.919  24.637  30.128  1.00  0.00     0.131 A 
ATOM     98  C   UNL A   1      42.908  23.607  27.759  1.00  0.00     0.055 A 
ATOM     99  C   UNL A   1      43.731  23.258  29.995  1.00  0.00     0.041 A 
ATOM    100  F   UNL A   1      44.366  25.095  31.308  1.00  0.00    -0.206 F 
ATOM    101  C   UNL A   1      43.206  22.740  28.814  1.00  0.00     0.022 A 
BRANCH  98 102
ATOM    102  S   UNL A   1      42.107  22.905  26.289  1.00  0.00     0.124 S 
ATOM    103  O   UNL A   1      42.939  23.432  25.210  1.00  0.00    -0.237 OA
ATOM    104  O   UNL A   1      42.232  21.470  26.526  1.00  0.00    -0.237 OA
ATOM    105  O   UNL A   1      40.749  23.434  26.341  1.00  0.00    -0.744 OA
ENDBRANCH  98 102
ENDBRANCH  72  95
ENDBRANCH  46  47
ENDBRANCH  39  41
ENDBRANCH  38  39
ENDBRANCH  37  38
ENDBRANCH   1  37
TORSDOF 20
ENDMDL
MODEL 3
REMARK VINA RESULT:     -10.1      7.383     10.746
REMARK SMILES CC[C@@H](C)[C@H](NC(=O)[C@H](C)N1C(=O)N2CCC3=c4cc(OC)ccc4=N[C@H]3[C@@]2(C)C1=O)C(=O)OCCOC(=O)c1ccc(-c2c3nc(c(-c4cc(S(=O)(=O)[O-])ccc4F)c4ccc([nH]4)c(-c4cc(S(=O)(=O)[O-])ccc4F)c4nc(c(-c5cc(S(=O)(=O)[O-])ccc5F)c5ccc2[nH]5)C=C4)C=C3)cc1
REMARK SMILES IDX 35 1 34 2 32 3 33 4 5 5 3 6 4 7 2 8 1 9 6 10 7 11 8 13 9 14
REMARK SMILES IDX 10 15 11 16 12 17 30 18 14 19 13 20 28 21 31 22 15 23 27 24
REMARK SMILES IDX 29 25 16 26 17 27 26 28 18 29 25 30 19 31 24 32 20 33 23 34
REMARK SMILES IDX 21 35 22 36 36 37 37 38 38 39 39 40 40 41 41 42 102 43 42 44
REMARK SMILES IDX 101 45 43 46 44 47 45 48 95 49 46 50 100 51 94 52 96 53
REMARK SMILES IDX 47 54 99 55 93 56 92 57 48 59 80 60 60 61 79 62 61 63 64 64
REMARK SMILES IDX 78 65 97 66 62 67 63 68 77 70 98 71 65 72 49 73 50 74 58 75
REMARK SMILES IDX 51 76 57 77 59 78 56 79 52 80 53 81 54 82 55 83 81 84 82 85
REMARK SMILES IDX 90 86 83 87 89 88 91 89 88 90 84 91 85 92 86 93 87 94 66 95
REMARK SMILES IDX 67 96 75 97 68 98 74 99 76 100 73 101 69 102 70 103 71 104
REMARK SMILES IDX 72 105
REMARK H PARENT 6 12 96 58 64 69
REMARK Flexibility Score: inf
ROOT
ATOM      1  C   UNL A   1      53.079  27.052  38.768  1.00  0.00     0.274 C 
ENDROOT
BRANCH   1   2
ATOM      2  O   UNL A   1      52.483  25.798  38.289  1.00  0.00    -0.461 OA
BRANCH   2   3
ATOM      3  C   UNL A   1      52.538  24.662  39.094  1.00  0.00     0.329 C 
ATOM      4  O   UNL A   1      53.488  24.386  39.820  1.00  0.00    -0.250 OA
BRANCH   3   5
ATOM      5  C   UNL A   1      51.111  23.968  39.151  1.00  0.00     0.195 C 
BRANCH   5   6
ATOM      6  C   UNL A   1      49.706  24.716  39.175  1.00  0.00     0.019 C 
ATOM      7  C   UNL A   1      49.401  25.462  40.474  1.00  0.00     0.010 C 
BRANCH   6   8
ATOM      8  C   UNL A   1      48.470  23.965  38.617  1.00  0.00     0.002 C 
ATOM      9  C   UNL A   1      47.710  23.161  39.688  1.00  0.00     0.004 C 
ENDBRANCH   6   8
ENDBRANCH   5   6
BRANCH   5  10
ATOM     10  N   UNL A   1      51.129  22.641  39.746  1.00  0.00    -0.341 N 
ATOM     11  C   UNL A   1      50.979  21.374  39.264  1.00  0.00     0.243 C 
ATOM     12  H   UNL A   1      51.284  22.661  40.718  1.00  0.00     0.164 HD
ATOM     13  O   UNL A   1      51.211  20.534  40.153  1.00  0.00    -0.273 OA
BRANCH  11  14
ATOM     14  C   UNL A   1      50.846  20.876  37.733  1.00  0.00     0.181 C 
ATOM     15  C   UNL A   1      50.099  19.544  37.847  1.00  0.00     0.042 C 
BRANCH  14  16
ATOM     16  N   UNL A   1      51.897  21.111  36.629  1.00  0.00    -0.250 N 
ATOM     17  C   UNL A   1      51.755  20.806  35.256  1.00  0.00     0.328 C 
ATOM     18  C   UNL A   1      52.651  22.212  36.541  1.00  0.00     0.259 C 
ATOM     19  N   UNL A   1      52.266  22.017  34.473  1.00  0.00    -0.307 N 
ATOM     20  O   UNL A   1      51.102  19.904  34.756  1.00  0.00    -0.248 OA
ATOM     21  C   UNL A   1      52.050  23.080  35.454  1.00  0.00     0.147 C 
ATOM     22  O   UNL A   1      53.787  22.376  36.974  1.00  0.00    -0.271 OA
ATOM     23  C   UNL A   1      51.749  22.390  33.085  1.00  0.00     0.127 C 
ATOM     24  C   UNL A   1      50.383  23.234  35.458  1.00  0.00     0.168 C 
ATOM     25  C   UNL A   1      52.884  24.336  35.213  1.00  0.00     0.048 C 
ATOM     26  C   UNL A   1      50.560  23.624  33.026  1.00  0.00     0.055 C 
ATOM     27  C   UNL A   1      49.548  23.792  34.313  1.00  0.00    -0.032 C 
ATOM     28  N   UNL A   1      49.562  22.034  35.895  1.00  0.00    -0.274 NA
ATOM     29  C   UNL A   1      48.293  23.205  34.364  1.00  0.00     0.005 A 
ATOM     30  C   UNL A   1      48.793  21.868  34.841  1.00  0.00     0.066 A 
ATOM     31  C   UNL A   1      47.175  23.301  35.424  1.00  0.00     0.056 A 
ATOM     32  C   UNL A   1      47.969  20.729  34.451  1.00  0.00     0.032 A 
ATOM     33  C   UNL A   1      46.549  22.120  35.780  1.00  0.00     0.119 A 
ATOM     34  C   UNL A   1      46.738  20.936  34.929  1.00  0.00     0.048 A 
BRANCH  33  35
ATOM     35  O   UNL A   1      46.162  21.842  37.092  1.00  0.00    -0.497 OA
ATOM     36  C   UNL A   1      46.097  20.420  37.408  1.00  0.00     0.278 C 
ENDBRANCH  33  35
ENDBRANCH  14  16
ENDBRANCH  11  14
ENDBRANCH   5  10
ENDBRANCH   3   5
ENDBRANCH   2   3
ENDBRANCH   1   2
BRANCH   1  37
ATOM     37  C   UNL A   1      54.455  27.509  38.101  1.00  0.00     0.275 C 
BRANCH  37  38
ATOM     38  O   UNL A   1      54.477  28.720  37.260  1.00  0.00    -0.458 OA
BRANCH  38  39
ATOM     39  C   UNL A   1      54.777  28.559  35.916  1.00  0.00     0.338 C 
ATOM     40  O   UNL A   1      55.902  28.705  35.453  1.00  0.00    -0.246 OA
BRANCH  39  41
ATOM     41  C   UNL A   1      53.621  28.095  35.038  1.00  0.00     0.060 A 
ATOM     42  C   UNL A   1      52.285  28.363  35.382  1.00  0.00     0.016 A 
ATOM     43  C   UNL A   1      53.805  27.393  33.853  1.00  0.00     0.016 A 
ATOM     44  C   UNL A   1      51.196  28.064  34.494  1.00  0.00     0.010 A 
ATOM     45  C   UNL A   1      52.706  27.106  32.978  1.00  0.00     0.010 A 
ATOM     46  C   UNL A   1      51.371  27.523  33.202  1.00  0.00    -0.014 A 
BRANCH  46  47
ATOM     47  C   UNL A   1      50.195  27.330  32.190  1.00  0.00     0.031 A 
ATOM     48  C   UNL A   1      50.358  27.541  30.685  1.00  0.00     0.074 A 
ATOM     49  C   UNL A   1      48.889  27.067  32.493  1.00  0.00     0.049 A 
ATOM     50  N   UNL A   1      49.844  26.865  29.682  1.00  0.00    -0.248 NA
ATOM     51  C   UNL A   1      51.143  28.702  30.245  1.00  0.00     0.031 C 
ATOM     52  C   UNL A   1      48.255  27.157  33.806  1.00  0.00     0.029 A 
ATOM     53  N   UNL A   1      47.836  26.654  31.674  1.00  0.00    -0.354 N 
ATOM     54  C   UNL A   1      50.403  27.403  28.523  1.00  0.00     0.074 A 
ATOM     55  C   UNL A   1      51.218  28.523  28.934  1.00  0.00     0.031 C 
ATOM     56  C   UNL A   1      46.987  26.712  33.732  1.00  0.00     0.029 A 
ATOM     57  C   UNL A   1      46.688  26.297  32.361  1.00  0.00     0.049 A 
ATOM     58  H   UNL A   1      47.904  26.620  30.693  1.00  0.00     0.167 HD
ATOM     59  C   UNL A   1      50.258  27.023  27.229  1.00  0.00     0.034 A 
ATOM     60  C   UNL A   1      45.552  25.660  31.976  1.00  0.00     0.034 A 
ATOM     61  C   UNL A   1      49.234  26.132  26.759  1.00  0.00     0.049 A 
ATOM     62  C   UNL A   1      45.381  25.156  30.551  1.00  0.00     0.074 A 
ATOM     63  C   UNL A   1      49.048  25.623  25.484  1.00  0.00     0.029 A 
ATOM     64  N   UNL A   1      48.157  25.709  27.517  1.00  0.00    -0.354 N 
ATOM     65  N   UNL A   1      46.194  25.268  29.529  1.00  0.00    -0.248 NA
ATOM     66  C   UNL A   1      44.150  24.403  30.237  1.00  0.00     0.031 C 
ATOM     67  C   UNL A   1      47.818  24.961  25.454  1.00  0.00     0.029 A 
ATOM     68  C   UNL A   1      47.281  24.984  26.730  1.00  0.00     0.049 A 
ATOM     69  H   UNL A   1      48.032  25.898  28.475  1.00  0.00     0.167 HD
ATOM     70  C   UNL A   1      45.598  24.567  28.475  1.00  0.00     0.074 A 
ATOM     71  C   UNL A   1      44.360  24.022  28.982  1.00  0.00     0.031 C 
ATOM     72  C   UNL A   1      46.051  24.398  27.206  1.00  0.00     0.034 A 
BRANCH  59  73
ATOM     73  C   UNL A   1      51.275  27.517  26.228  1.00  0.00     0.023 A 
ATOM     74  C   UNL A   1      51.255  28.828  25.718  1.00  0.00     0.031 A 
ATOM     75  C   UNL A   1      52.177  26.596  25.656  1.00  0.00     0.131 A 
ATOM     76  C   UNL A   1      52.106  29.172  24.657  1.00  0.00     0.055 A 
ATOM     77  C   UNL A   1      53.038  26.951  24.619  1.00  0.00     0.041 A 
ATOM     78  F   UNL A   1      52.222  25.326  26.092  1.00  0.00    -0.206 F 
ATOM     79  C   UNL A   1      52.998  28.243  24.109  1.00  0.00     0.022 A 
BRANCH  76  80
ATOM     80  S   UNL A   1      52.067  30.823  23.905  1.00  0.00     0.124 S 
ATOM     81  O   UNL A   1      53.483  31.186  23.909  1.00  0.00    -0.237 OA
ATOM     82  O   UNL A   1      51.498  30.547  22.589  1.00  0.00    -0.237 OA
ATOM     83  O   UNL A   1      51.227  31.600  24.810  1.00  0.00    -0.744 OA
ENDBRANCH  76  80
ENDBRANCH  59  73
BRANCH  60  84
ATOM     84  C   UNL A   1      44.525  25.297  33.012  1.00  0.00     0.023 A 
ATOM     85  C   UNL A   1      43.706  26.261  33.626  1.00  0.00     0.031 A 
ATOM     86  C   UNL A   1      44.394  23.959  33.437  1.00  0.00     0.131 A 
ATOM     87  C   UNL A   1      42.836  25.879  34.662  1.00  0.00     0.055 A 
ATOM     88  C   UNL A   1      43.481  23.575  34.420  1.00  0.00     0.041 A 
ATOM     89  F   UNL A   1      45.152  23.000  32.883  1.00  0.00    -0.206 F 
ATOM     90  C   UNL A   1      42.706  24.541  35.050  1.00  0.00     0.022 A 
BRANCH  87  91
ATOM     91  S   UNL A   1      41.917  27.117  35.621  1.00  0.00     0.124 S 
ATOM     92  O   UNL A   1      40.949  26.294  36.339  1.00  0.00    -0.237 OA
ATOM     93  O   UNL A   1      42.975  27.704  36.439  1.00  0.00    -0.237 OA
ATOM     94  O   UNL A   1      41.361  27.998  34.599  1.00  0.00    -0.744 OA
ENDBRANCH  87  91
ENDBRANCH  60  84
BRANCH  72  95
ATOM     95  C   UNL A   1      45.258  23.580  26.210  1.00  0.00     0.023 A 
ATOM     96  C   UNL A   1      45.571  22.216  26.023  1.00  0.00     0.031 A 
ATOM     97  C   UNL A   1      44.357  24.175  25.311  1.00  0.00     0.131 A 
ATOM     98  C   UNL A   1      45.037  21.512  24.937  1.00  0.00     0.055 A 
ATOM     99  C   UNL A   1      43.788  23.455  24.255  1.00  0.00     0.041 A 
ATOM    100  F   UNL A   1      44.035  25.473  25.425  1.00  0.00    -0.206 F 
ATOM    101  C   UNL A   1      44.142  22.123  24.054  1.00  0.00     0.022 A 
BRANCH  98 102
ATOM    102  S   UNL A   1      45.568  19.816  24.561  1.00  0.00     0.124 S 
ATOM    103  O   UNL A   1      44.893  19.563  23.291  1.00  0.00    -0.237 OA
ATOM    104  O   UNL A   1      47.018  19.959  24.478  1.00  0.00    -0.237 OA
ATOM    105  O   UNL A   1      45.077  19.035  25.691  1.00  0.00    -0.744 OA
ENDBRANCH  98 102
ENDBRANCH  72  95
ENDBRANCH  46  47
ENDBRANCH  39  41
ENDBRANCH  38  39
ENDBRANCH  37  38
ENDBRANCH   1  37
TORSDOF 20
ENDMDL
