MODEL 1
REMARK VINA RESULT:     -10.9      0.000      0.000
REMARK SMILES CCc1ccc(S(=O)(=O)CC(=O)OCCOC(=O)c2ccc(-c3c4nc(c(-c5cc(S(=O)(=O)[O-])ccc5F)c5ccc([nH]5)c(-c5cc(S(=O)(=O)[O-])ccc5F)c5nc(c(-c6cc(S(=O)(=O)[O-])ccc6F)c6ccc3[nH]6)C=C5)C=C4)cc2)cc1
REMARK SMILES IDX 14 1 13 2 11 3 12 4 10 5 7 6 8 7 9 8 6 9 3 10 4 11 83 12
REMARK SMILES IDX 5 13 82 14 2 15 1 16 15 17 16 18 17 19 18 20 19 21 20 22
REMARK SMILES IDX 81 23 21 24 80 25 22 26 23 27 24 28 74 29 25 30 79 31 73 32
REMARK SMILES IDX 75 33 26 34 78 35 72 36 71 37 27 39 59 40 39 41 58 42 40 43
REMARK SMILES IDX 43 44 57 45 76 46 41 47 42 48 56 50 77 51 44 52 28 53 29 54
REMARK SMILES IDX 37 55 30 56 36 57 38 58 35 59 31 60 32 61 33 62 34 63 60 64
REMARK SMILES IDX 61 65 69 66 62 67 68 68 70 69 67 70 63 71 64 72 65 73 66 74
REMARK SMILES IDX 45 75 46 76 54 77 47 78 53 79 55 80 52 81 48 82 49 83 50 84
REMARK SMILES IDX 51 85
REMARK H PARENT 75 38 43 49
REMARK Flexibility Score: inf
ROOT
ATOM      1  C   UNL A   1      31.425  29.357  24.260  1.00  0.00     0.274 C 
ENDROOT
BRANCH   1   2
ATOM      2  O   UNL A   1      31.026  28.010  23.925  1.00  0.00    -0.461 OA
BRANCH   2   3
ATOM      3  C   UNL A   1      30.822  27.773  22.611  1.00  0.00     0.321 C 
ATOM      4  O   UNL A   1      30.239  28.557  21.862  1.00  0.00    -0.251 OA
BRANCH   3   5
ATOM      5  C   UNL A   1      31.323  26.485  22.073  1.00  0.00     0.264 C 
BRANCH   5   6
ATOM      6  S   UNL A   1      33.045  26.304  21.838  1.00  0.00     0.189 S 
ATOM      7  O   UNL A   1      33.624  27.623  22.027  1.00  0.00    -0.223 OA
ATOM      8  O   UNL A   1      33.274  25.606  20.584  1.00  0.00    -0.223 OA
BRANCH   6   9
ATOM      9  C   UNL A   1      33.700  25.313  23.158  1.00  0.00     0.067 A 
ATOM     10  C   UNL A   1      34.843  23.725  25.168  1.00  0.00    -0.048 A 
ATOM     11  C   UNL A   1      34.532  23.174  23.917  1.00  0.00     0.005 A 
ATOM     12  C   UNL A   1      34.596  25.087  25.390  1.00  0.00     0.005 A 
ATOM     13  C   UNL A   1      33.958  23.962  22.916  1.00  0.00     0.020 A 
ATOM     14  C   UNL A   1      34.035  25.885  24.387  1.00  0.00     0.020 A 
BRANCH  10  15
ATOM     15  C   UNL A   1      35.448  22.866  26.253  1.00  0.00     0.032 C 
ATOM     16  C   UNL A   1      35.847  21.487  25.743  1.00  0.00     0.009 C 
ENDBRANCH  10  15
ENDBRANCH   6   9
ENDBRANCH   5   6
ENDBRANCH   3   5
ENDBRANCH   2   3
ENDBRANCH   1   2
BRANCH   1  17
ATOM     17  C   UNL A   1      31.810  29.472  25.730  1.00  0.00     0.275 C 
BRANCH  17  18
ATOM     18  O   UNL A   1      33.100  30.092  25.851  1.00  0.00    -0.458 OA
BRANCH  18  19
ATOM     19  C   UNL A   1      33.184  31.060  26.790  1.00  0.00     0.338 C 
ATOM     20  O   UNL A   1      32.411  31.994  26.955  1.00  0.00    -0.246 OA
BRANCH  19  21
ATOM     21  C   UNL A   1      34.396  30.874  27.604  1.00  0.00     0.060 A 
ATOM     22  C   UNL A   1      35.296  31.922  27.819  1.00  0.00     0.016 A 
ATOM     23  C   UNL A   1      34.680  29.593  28.079  1.00  0.00     0.016 A 
ATOM     24  C   UNL A   1      36.512  31.670  28.456  1.00  0.00     0.010 A 
ATOM     25  C   UNL A   1      35.861  29.362  28.785  1.00  0.00     0.010 A 
ATOM     26  C   UNL A   1      36.802  30.391  28.958  1.00  0.00    -0.014 A 
BRANCH  26  27
ATOM     27  C   UNL A   1      38.077  30.114  29.672  1.00  0.00     0.031 A 
ATOM     28  C   UNL A   1      39.087  29.164  29.086  1.00  0.00     0.074 A 
ATOM     29  C   UNL A   1      38.308  30.684  30.871  1.00  0.00     0.049 A 
ATOM     30  N   UNL A   1      40.171  28.669  29.625  1.00  0.00    -0.248 NA
ATOM     31  C   UNL A   1      38.835  28.699  27.713  1.00  0.00     0.031 C 
ATOM     32  C   UNL A   1      37.419  31.635  31.541  1.00  0.00     0.029 A 
ATOM     33  N   UNL A   1      39.355  30.534  31.747  1.00  0.00    -0.354 N 
ATOM     34  C   UNL A   1      40.717  27.814  28.673  1.00  0.00     0.074 A 
ATOM     35  C   UNL A   1      39.833  27.846  27.527  1.00  0.00     0.031 C 
ATOM     36  C   UNL A   1      37.959  31.988  32.717  1.00  0.00     0.029 A 
ATOM     37  C   UNL A   1      39.194  31.239  32.917  1.00  0.00     0.049 A 
ATOM     38  H   UNL A   1      40.144  29.978  31.556  1.00  0.00     0.167 HD
ATOM     39  C   UNL A   1      41.851  27.072  28.752  1.00  0.00     0.034 A 
ATOM     40  C   UNL A   1      39.930  31.246  34.046  1.00  0.00     0.034 A 
ATOM     41  C   UNL A   1      42.732  27.060  29.895  1.00  0.00     0.049 A 
ATOM     42  C   UNL A   1      41.153  30.376  34.128  1.00  0.00     0.074 A 
ATOM     43  C   UNL A   1      43.922  26.370  30.061  1.00  0.00     0.029 A 
ATOM     44  N   UNL A   1      42.519  27.765  31.072  1.00  0.00    -0.354 N 
ATOM     45  N   UNL A   1      41.643  29.554  33.230  1.00  0.00    -0.248 NA
ATOM     46  C   UNL A   1      41.918  30.429  35.381  1.00  0.00     0.031 C 
ATOM     47  C   UNL A   1      44.396  26.613  31.355  1.00  0.00     0.029 A 
ATOM     48  C   UNL A   1      43.537  27.504  31.976  1.00  0.00     0.049 A 
ATOM     49  H   UNL A   1      41.755  28.364  31.240  1.00  0.00     0.167 HD
ATOM     50  C   UNL A   1      42.780  28.999  33.806  1.00  0.00     0.074 A 
ATOM     51  C   UNL A   1      42.913  29.594  35.120  1.00  0.00     0.031 C 
ATOM     52  C   UNL A   1      43.639  28.081  33.295  1.00  0.00     0.034 A 
BRANCH  39  53
ATOM     53  C   UNL A   1      42.173  26.171  27.585  1.00  0.00     0.023 A 
ATOM     54  C   UNL A   1      41.731  24.838  27.530  1.00  0.00     0.031 A 
ATOM     55  C   UNL A   1      42.943  26.656  26.513  1.00  0.00     0.131 A 
ATOM     56  C   UNL A   1      42.111  24.020  26.453  1.00  0.00     0.055 A 
ATOM     57  C   UNL A   1      43.261  25.857  25.413  1.00  0.00     0.041 A 
ATOM     58  F   UNL A   1      43.409  27.916  26.522  1.00  0.00    -0.206 F 
ATOM     59  C   UNL A   1      42.854  24.527  25.384  1.00  0.00     0.022 A 
BRANCH  56  60
ATOM     60  S   UNL A   1      41.720  22.251  26.525  1.00  0.00     0.124 S 
ATOM     61  O   UNL A   1      42.457  21.740  25.372  1.00  0.00    -0.237 OA
ATOM     62  O   UNL A   1      42.236  21.868  27.835  1.00  0.00    -0.237 OA
ATOM     63  O   UNL A   1      40.265  22.215  26.392  1.00  0.00    -0.744 OA
ENDBRANCH  56  60
ENDBRANCH  39  53
BRANCH  40  64
ATOM     64  C   UNL A   1      39.492  32.058  35.215  1.00  0.00     0.023 A 
ATOM     65  C   UNL A   1      38.745  31.486  36.255  1.00  0.00     0.031 A 
ATOM     66  C   UNL A   1      39.801  33.428  35.293  1.00  0.00     0.131 A 
ATOM     67  C   UNL A   1      38.304  32.289  37.317  1.00  0.00     0.055 A 
ATOM     68  C   UNL A   1      39.399  34.212  36.375  1.00  0.00     0.041 A 
ATOM     69  F   UNL A   1      40.518  34.019  34.325  1.00  0.00    -0.206 F 
ATOM     70  C   UNL A   1      38.637  33.644  37.392  1.00  0.00     0.022 A 
BRANCH  67  71
ATOM     71  S   UNL A   1      37.234  31.546  38.580  1.00  0.00     0.124 S 
ATOM     72  O   UNL A   1      38.061  31.660  39.776  1.00  0.00    -0.237 OA
ATOM     73  O   UNL A   1      36.059  32.409  38.527  1.00  0.00    -0.237 OA
ATOM     74  O   UNL A   1      37.028  30.184  38.091  1.00  0.00    -0.744 OA
ENDBRANCH  67  71
ENDBRANCH  40  64
BRANCH  52  75
ATOM     75  C   UNL A   1      44.807  27.695  34.165  1.00  0.00     0.023 A 
ATOM     76  C   UNL A   1      44.734  26.606  35.051  1.00  0.00     0.031 A 
ATOM     77  C   UNL A   1      45.992  28.451  34.135  1.00  0.00     0.131 A 
ATOM     78  C   UNL A   1      45.807  26.336  35.913  1.00  0.00     0.055 A 
ATOM     79  C   UNL A   1      47.075  28.146  34.960  1.00  0.00     0.041 A 
ATOM     80  F   UNL A   1      46.111  29.503  33.309  1.00  0.00    -0.206 F 
ATOM     81  C   UNL A   1      46.982  27.092  35.865  1.00  0.00     0.022 A 
BRANCH  78  82
ATOM     82  S   UNL A   1      45.614  25.037  37.164  1.00  0.00     0.124 S 
ATOM     83  O   UNL A   1      45.056  25.779  38.289  1.00  0.00    -0.237 OA
ATOM     84  O   UNL A   1      44.709  24.101  36.505  1.00  0.00    -0.237 OA
ATOM     85  O   UNL A   1      46.976  24.545  37.362  1.00  0.00    -0.744 OA
ENDBRANCH  78  82
ENDBRANCH  52  75
ENDBRANCH  26  27
ENDBRANCH  19  21
ENDBRANCH  18  19
ENDBRANCH  17  18
ENDBRANCH   1  17
TORSDOF 17
ENDMDL
MODEL 2
REMARK VINA RESULT:     -10.8      5.580      9.235
REMARK SMILES CCc1ccc(S(=O)(=O)CC(=O)OCCOC(=O)c2ccc(-c3c4nc(c(-c5cc(S(=O)(=O)[O-])ccc5F)c5ccc([nH]5)c(-c5cc(S(=O)(=O)[O-])ccc5F)c5nc(c(-c6cc(S(=O)(=O)[O-])ccc6F)c6ccc3[nH]6)C=C5)C=C4)cc2)cc1
REMARK SMILES IDX 14 1 13 2 11 3 12 4 10 5 7 6 8 7 9 8 6 9 3 10 4 11 83 12
REMARK SMILES IDX 5 13 82 14 2 15 1 16 15 17 16 18 17 19 18 20 19 21 20 22
REMARK SMILES IDX 81 23 21 24 80 25 22 26 23 27 24 28 74 29 25 30 79 31 73 32
REMARK SMILES IDX 75 33 26 34 78 35 72 36 71 37 27 39 59 40 39 41 58 42 40 43
REMARK SMILES IDX 43 44 57 45 76 46 41 47 42 48 56 50 77 51 44 52 28 53 29 54
REMARK SMILES IDX 37 55 30 56 36 57 38 58 35 59 31 60 32 61 33 62 34 63 60 64
REMARK SMILES IDX 61 65 69 66 62 67 68 68 70 69 67 70 63 71 64 72 65 73 66 74
REMARK SMILES IDX 45 75 46 76 54 77 47 78 53 79 55 80 52 81 48 82 49 83 50 84
REMARK SMILES IDX 51 85
REMARK H PARENT 75 38 43 49
REMARK Flexibility Score: inf
ROOT
ATOM      1  C   UNL A   1      42.260  19.714  26.481  1.00  0.00     0.274 C 
ENDROOT
BRANCH   1   2
ATOM      2  O   UNL A   1      43.076  20.139  25.367  1.00  0.00    -0.461 OA
BRANCH   2   3
ATOM      3  C   UNL A   1      44.196  19.416  25.157  1.00  0.00     0.321 C 
ATOM      4  O   UNL A   1      44.191  18.207  24.924  1.00  0.00    -0.251 OA
BRANCH   3   5
ATOM      5  C   UNL A   1      45.489  20.140  25.232  1.00  0.00     0.264 C 
BRANCH   5   6
ATOM      6  S   UNL A   1      45.524  21.817  24.743  1.00  0.00     0.189 S 
ATOM      7  O   UNL A   1      44.243  22.086  24.112  1.00  0.00    -0.223 OA
ATOM      8  O   UNL A   1      46.744  22.058  23.992  1.00  0.00    -0.223 OA
BRANCH   6   9
ATOM      9  C   UNL A   1      45.551  22.834  26.198  1.00  0.00     0.067 A 
ATOM     10  C   UNL A   1      45.603  24.331  28.569  1.00  0.00    -0.048 A 
ATOM     11  C   UNL A   1      44.559  23.430  28.319  1.00  0.00     0.005 A 
ATOM     12  C   UNL A   1      46.634  24.453  27.627  1.00  0.00     0.005 A 
ATOM     13  C   UNL A   1      44.528  22.688  27.137  1.00  0.00     0.020 A 
ATOM     14  C   UNL A   1      46.617  23.701  26.448  1.00  0.00     0.020 A 
BRANCH  10  15
ATOM     15  C   UNL A   1      45.624  25.144  29.842  1.00  0.00     0.032 C 
ATOM     16  C   UNL A   1      44.276  25.786  30.140  1.00  0.00     0.009 C 
ENDBRANCH  10  15
ENDBRANCH   6   9
ENDBRANCH   5   6
ENDBRANCH   3   5
ENDBRANCH   2   3
ENDBRANCH   1   2
BRANCH   1  17
ATOM     17  C   UNL A   1      40.775  19.850  26.165  1.00  0.00     0.275 C 
BRANCH  17  18
ATOM     18  O   UNL A   1      40.157  20.751  27.097  1.00  0.00    -0.458 OA
BRANCH  18  19
ATOM     19  C   UNL A   1      39.332  21.668  26.546  1.00  0.00     0.338 C 
ATOM     20  O   UNL A   1      38.329  21.449  25.879  1.00  0.00    -0.246 OA
BRANCH  19  21
ATOM     21  C   UNL A   1      39.827  23.027  26.820  1.00  0.00     0.060 A 
ATOM     22  C   UNL A   1      39.399  24.123  26.065  1.00  0.00     0.016 A 
ATOM     23  C   UNL A   1      40.814  23.184  27.793  1.00  0.00     0.016 A 
ATOM     24  C   UNL A   1      40.009  25.366  26.243  1.00  0.00     0.010 A 
ATOM     25  C   UNL A   1      41.366  24.444  28.023  1.00  0.00     0.010 A 
ATOM     26  C   UNL A   1      40.989  25.544  27.233  1.00  0.00    -0.014 A 
BRANCH  26  27
ATOM     27  C   UNL A   1      41.622  26.870  27.461  1.00  0.00     0.031 A 
ATOM     28  C   UNL A   1      43.001  27.157  26.926  1.00  0.00     0.074 A 
ATOM     29  C   UNL A   1      40.976  27.803  28.187  1.00  0.00     0.049 A 
ATOM     30  N   UNL A   1      43.783  28.180  27.156  1.00  0.00    -0.248 NA
ATOM     31  C   UNL A   1      43.579  26.152  26.021  1.00  0.00     0.031 C 
ATOM     32  C   UNL A   1      39.631  27.656  28.746  1.00  0.00     0.029 A 
ATOM     33  N   UNL A   1      41.369  29.054  28.592  1.00  0.00    -0.354 N 
ATOM     34  C   UNL A   1      44.956  27.932  26.451  1.00  0.00     0.074 A 
ATOM     35  C   UNL A   1      44.787  26.651  25.798  1.00  0.00     0.031 C 
ATOM     36  C   UNL A   1      39.309  28.774  29.415  1.00  0.00     0.029 A 
ATOM     37  C   UNL A   1      40.446  29.686  29.393  1.00  0.00     0.049 A 
ATOM     38  H   UNL A   1      42.228  29.460  28.334  1.00  0.00     0.167 HD
ATOM     39  C   UNL A   1      46.069  28.703  26.361  1.00  0.00     0.034 A 
ATOM     40  C   UNL A   1      40.522  30.846  30.074  1.00  0.00     0.034 A 
ATOM     41  C   UNL A   1      46.220  29.985  27.007  1.00  0.00     0.049 A 
ATOM     42  C   UNL A   1      41.786  31.657  29.999  1.00  0.00     0.074 A 
ATOM     43  C   UNL A   1      47.293  30.859  26.950  1.00  0.00     0.029 A 
ATOM     44  N   UNL A   1      45.273  30.577  27.832  1.00  0.00    -0.354 N 
ATOM     45  N   UNL A   1      42.896  31.397  29.348  1.00  0.00    -0.248 NA
ATOM     46  C   UNL A   1      41.809  32.914  30.758  1.00  0.00     0.031 C 
ATOM     47  C   UNL A   1      47.019  31.949  27.785  1.00  0.00     0.029 A 
ATOM     48  C   UNL A   1      45.749  31.787  28.313  1.00  0.00     0.049 A 
ATOM     49  H   UNL A   1      44.392  30.192  28.045  1.00  0.00     0.167 HD
ATOM     50  C   UNL A   1      43.747  32.465  29.612  1.00  0.00     0.074 A 
ATOM     51  C   UNL A   1      43.014  33.380  30.465  1.00  0.00     0.031 C 
ATOM     52  C   UNL A   1      45.018  32.673  29.188  1.00  0.00     0.034 A 
BRANCH  39  53
ATOM     53  C   UNL A   1      47.233  28.152  25.574  1.00  0.00     0.023 A 
ATOM     54  C   UNL A   1      47.319  28.289  24.178  1.00  0.00     0.031 A 
ATOM     55  C   UNL A   1      48.270  27.469  26.236  1.00  0.00     0.131 A 
ATOM     56  C   UNL A   1      48.390  27.703  23.483  1.00  0.00     0.055 A 
ATOM     57  C   UNL A   1      49.365  26.946  25.546  1.00  0.00     0.041 A 
ATOM     58  F   UNL A   1      48.228  27.290  27.566  1.00  0.00    -0.206 F 
ATOM     59  C   UNL A   1      49.424  27.052  24.160  1.00  0.00     0.022 A 
BRANCH  56  60
ATOM     60  S   UNL A   1      48.352  27.701  21.670  1.00  0.00     0.124 S 
ATOM     61  O   UNL A   1      49.486  28.564  21.351  1.00  0.00    -0.237 OA
ATOM     62  O   UNL A   1      48.516  26.286  21.354  1.00  0.00    -0.237 OA
ATOM     63  O   UNL A   1      47.041  28.264  21.354  1.00  0.00    -0.744 OA
ENDBRANCH  56  60
ENDBRANCH  39  53
BRANCH  40  64
ATOM     64  C   UNL A   1      39.390  31.277  30.939  1.00  0.00     0.023 A 
ATOM     65  C   UNL A   1      39.476  31.202  32.336  1.00  0.00     0.031 A 
ATOM     66  C   UNL A   1      38.193  31.751  30.371  1.00  0.00     0.131 A 
ATOM     67  C   UNL A   1      38.373  31.568  33.122  1.00  0.00     0.055 A 
ATOM     68  C   UNL A   1      37.115  32.157  31.158  1.00  0.00     0.041 A 
ATOM     69  F   UNL A   1      38.065  31.846  29.038  1.00  0.00    -0.206 F 
ATOM     70  C   UNL A   1      37.199  32.058  32.544  1.00  0.00     0.022 A 
BRANCH  67  71
ATOM     71  S   UNL A   1      38.474  31.340  34.919  1.00  0.00     0.124 S 
ATOM     72  O   UNL A   1      38.428  29.887  35.038  1.00  0.00    -0.237 OA
ATOM     73  O   UNL A   1      39.753  31.970  35.232  1.00  0.00    -0.237 OA
ATOM     74  O   UNL A   1      37.296  32.046  35.417  1.00  0.00    -0.744 OA
ENDBRANCH  67  71
ENDBRANCH  40  64
BRANCH  52  75
ATOM     75  C   UNL A   1      45.674  33.957  29.628  1.00  0.00     0.023 A 
ATOM     76  C   UNL A   1      45.515  35.149  28.900  1.00  0.00     0.031 A 
ATOM     77  C   UNL A   1      46.500  33.976  30.765  1.00  0.00     0.131 A 
ATOM     78  C   UNL A   1      46.217  36.300  29.287  1.00  0.00     0.055 A 
ATOM     79  C   UNL A   1      47.157  35.137  31.173  1.00  0.00     0.041 A 
ATOM     80  F   UNL A   1      46.687  32.862  31.492  1.00  0.00    -0.206 F 
ATOM     81  C   UNL A   1      47.028  36.305  30.425  1.00  0.00     0.022 A 
BRANCH  78  82
ATOM     82  S   UNL A   1      46.129  37.770  28.229  1.00  0.00     0.124 S 
ATOM     83  O   UNL A   1      44.694  38.030  28.186  1.00  0.00    -0.237 OA
ATOM     84  O   UNL A   1      46.930  38.738  28.971  1.00  0.00    -0.237 OA
ATOM     85  O   UNL A   1      46.714  37.322  26.967  1.00  0.00    -0.744 OA
ENDBRANCH  78  82
ENDBRANCH  52  75
ENDBRANCH  26  27
ENDBRANCH  19  21
ENDBRANCH  18  19
ENDBRANCH  17  18
ENDBRANCH   1  17
TORSDOF 17
ENDMDL
MODEL 3
REMARK VINA RESULT:     -10.7      5.415     10.266
REMARK SMILES CCc1ccc(S(=O)(=O)CC(=O)OCCOC(=O)c2ccc(-c3c4nc(c(-c5cc(S(=O)(=O)[O-])ccc5F)c5ccc([nH]5)c(-c5cc(S(=O)(=O)[O-])ccc5F)c5nc(c(-c6cc(S(=O)(=O)[O-])ccc6F)c6ccc3[nH]6)C=C5)C=C4)cc2)cc1
REMARK SMILES IDX 14 1 13 2 11 3 12 4 10 5 7 6 8 7 9 8 6 9 3 10 4 11 83 12
REMARK SMILES IDX 5 13 82 14 2 15 1 16 15 17 16 18 17 19 18 20 19 21 20 22
REMARK SMILES IDX 81 23 21 24 80 25 22 26 23 27 24 28 74 29 25 30 79 31 73 32
REMARK SMILES IDX 75 33 26 34 78 35 72 36 71 37 27 39 59 40 39 41 58 42 40 43
REMARK SMILES IDX 43 44 57 45 76 46 41 47 42 48 56 50 77 51 44 52 28 53 29 54
REMARK SMILES IDX 37 55 30 56 36 57 38 58 35 59 31 60 32 61 33 62 34 63 60 64
REMARK SMILES IDX 61 65 69 66 62 67 68 68 70 69 67 70 63 71 64 72 65 73 66 74
REMARK SMILES IDX 45 75 46 76 54 77 47 78 53 79 55 80 52 81 48 82 49 83 50 84
REMARK SMILES IDX 51 85
REMARK H PARENT 75 38 43 49
REMARK Flexibility Score: inf
ROOT
ATOM      1  C   UNL A   1      34.415  21.006  25.770  1.00  0.00     0.274 C 
ENDROOT
BRANCH   1   2
ATOM      2  O   UNL A   1      33.709  22.223  26.098  1.00  0.00    -0.461 OA
BRANCH   2   3
ATOM      3  C   UNL A   1      32.564  22.435  25.415  1.00  0.00     0.321 C 
ATOM      4  O   UNL A   1      31.771  21.539  25.124  1.00  0.00    -0.251 OA
BRANCH   3   5
ATOM      5  C   UNL A   1      32.281  23.828  24.990  1.00  0.00     0.264 C 
BRANCH   5   6
ATOM      6  S   UNL A   1      31.228  24.797  25.992  1.00  0.00     0.189 S 
ATOM      7  O   UNL A   1      31.088  24.083  27.249  1.00  0.00    -0.223 OA
ATOM      8  O   UNL A   1      30.034  25.126  25.232  1.00  0.00    -0.223 OA
BRANCH   6   9
ATOM      9  C   UNL A   1      32.064  26.308  26.403  1.00  0.00     0.067 A 
ATOM     10  C   UNL A   1      33.394  28.722  26.922  1.00  0.00    -0.048 A 
ATOM     11  C   UNL A   1      34.028  27.702  26.200  1.00  0.00     0.005 A 
ATOM     12  C   UNL A   1      32.076  28.526  27.360  1.00  0.00     0.005 A 
ATOM     13  C   UNL A   1      33.370  26.497  25.944  1.00  0.00     0.020 A 
ATOM     14  C   UNL A   1      31.406  27.328  27.094  1.00  0.00     0.020 A 
BRANCH  10  15
ATOM     15  C   UNL A   1      34.115  30.018  27.210  1.00  0.00     0.032 C 
ATOM     16  C   UNL A   1      35.562  29.793  27.628  1.00  0.00     0.009 C 
ENDBRANCH  10  15
ENDBRANCH   6   9
ENDBRANCH   5   6
ENDBRANCH   3   5
ENDBRANCH   2   3
ENDBRANCH   1   2
BRANCH   1  17
ATOM     17  C   UNL A   1      35.733  21.302  25.066  1.00  0.00     0.275 C 
BRANCH  17  18
ATOM     18  O   UNL A   1      36.693  21.796  26.013  1.00  0.00    -0.458 OA
BRANCH  18  19
ATOM     19  C   UNL A   1      37.976  21.456  25.758  1.00  0.00     0.338 C 
ATOM     20  O   UNL A   1      38.381  20.387  25.321  1.00  0.00    -0.246 OA
BRANCH  19  21
ATOM     21  C   UNL A   1      38.876  22.562  26.122  1.00  0.00     0.060 A 
ATOM     22  C   UNL A   1      40.033  22.340  26.875  1.00  0.00     0.016 A 
ATOM     23  C   UNL A   1      38.497  23.861  25.781  1.00  0.00     0.016 A 
ATOM     24  C   UNL A   1      40.775  23.427  27.341  1.00  0.00     0.010 A 
ATOM     25  C   UNL A   1      39.284  24.940  26.180  1.00  0.00     0.010 A 
ATOM     26  C   UNL A   1      40.416  24.738  26.987  1.00  0.00    -0.014 A 
BRANCH  26  27
ATOM     27  C   UNL A   1      41.217  25.905  27.444  1.00  0.00     0.031 A 
ATOM     28  C   UNL A   1      40.590  26.968  28.308  1.00  0.00     0.074 A 
ATOM     29  C   UNL A   1      42.498  26.034  27.045  1.00  0.00     0.049 A 
ATOM     30  N   UNL A   1      41.067  28.131  28.669  1.00  0.00    -0.248 NA
ATOM     31  C   UNL A   1      39.241  26.685  28.823  1.00  0.00     0.031 C 
ATOM     32  C   UNL A   1      43.228  25.068  26.222  1.00  0.00     0.029 A 
ATOM     33  N   UNL A   1      43.408  27.037  27.265  1.00  0.00    -0.354 N 
ATOM     34  C   UNL A   1      40.070  28.734  29.428  1.00  0.00     0.074 A 
ATOM     35  C   UNL A   1      38.954  27.811  29.462  1.00  0.00     0.031 C 
ATOM     36  C   UNL A   1      44.473  25.521  26.013  1.00  0.00     0.029 A 
ATOM     37  C   UNL A   1      44.609  26.838  26.624  1.00  0.00     0.049 A 
ATOM     38  H   UNL A   1      43.220  27.823  27.828  1.00  0.00     0.167 HD
ATOM     39  C   UNL A   1      40.086  29.946  30.039  1.00  0.00     0.034 A 
ATOM     40  C   UNL A   1      45.682  27.643  26.500  1.00  0.00     0.034 A 
ATOM     41  C   UNL A   1      41.210  30.851  30.009  1.00  0.00     0.049 A 
ATOM     42  C   UNL A   1      45.656  29.002  27.142  1.00  0.00     0.074 A 
ATOM     43  C   UNL A   1      41.341  32.086  30.624  1.00  0.00     0.029 A 
ATOM     44  N   UNL A   1      42.397  30.625  29.325  1.00  0.00    -0.354 N 
ATOM     45  N   UNL A   1      44.697  29.568  27.836  1.00  0.00    -0.248 NA
ATOM     46  C   UNL A   1      46.855  29.833  26.976  1.00  0.00     0.031 C 
ATOM     47  C   UNL A   1      42.580  32.629  30.264  1.00  0.00     0.029 A 
ATOM     48  C   UNL A   1      43.250  31.707  29.478  1.00  0.00     0.049 A 
ATOM     49  H   UNL A   1      42.602  29.813  28.807  1.00  0.00     0.167 HD
ATOM     50  C   UNL A   1      45.182  30.821  28.198  1.00  0.00     0.074 A 
ATOM     51  C   UNL A   1      46.525  30.917  27.663  1.00  0.00     0.031 C 
ATOM     52  C   UNL A   1      44.574  31.801  28.911  1.00  0.00     0.034 A 
BRANCH  39  53
ATOM     53  C   UNL A   1      38.828  30.383  30.748  1.00  0.00     0.023 A 
ATOM     54  C   UNL A   1      37.906  31.262  30.153  1.00  0.00     0.031 A 
ATOM     55  C   UNL A   1      38.553  29.917  32.046  1.00  0.00     0.131 A 
ATOM     56  C   UNL A   1      36.782  31.690  30.879  1.00  0.00     0.055 A 
ATOM     57  C   UNL A   1      37.400  30.294  32.736  1.00  0.00     0.041 A 
ATOM     58  F   UNL A   1      39.409  29.092  32.670  1.00  0.00    -0.206 F 
ATOM     59  C   UNL A   1      36.511  31.195  32.157  1.00  0.00     0.022 A 
BRANCH  56  60
ATOM     60  S   UNL A   1      35.739  32.996  30.174  1.00  0.00     0.124 S 
ATOM     61  O   UNL A   1      35.710  33.969  31.263  1.00  0.00    -0.237 OA
ATOM     62  O   UNL A   1      36.487  33.388  28.985  1.00  0.00    -0.237 OA
ATOM     63  O   UNL A   1      34.469  32.320  29.918  1.00  0.00    -0.744 OA
ENDBRANCH  56  60
ENDBRANCH  39  53
BRANCH  40  64
ATOM     64  C   UNL A   1      46.846  27.210  25.679  1.00  0.00     0.023 A 
ATOM     65  C   UNL A   1      47.041  27.704  24.381  1.00  0.00     0.031 A 
ATOM     66  C   UNL A   1      47.769  26.274  26.180  1.00  0.00     0.131 A 
ATOM     67  C   UNL A   1      48.120  27.238  23.615  1.00  0.00     0.055 A 
ATOM     68  C   UNL A   1      48.866  25.848  25.430  1.00  0.00     0.041 A 
ATOM     69  F   UNL A   1      47.627  25.776  27.418  1.00  0.00    -0.206 F 
ATOM     70  C   UNL A   1      49.041  26.325  24.134  1.00  0.00     0.022 A 
BRANCH  67  71
ATOM     71  S   UNL A   1      48.272  27.803  21.897  1.00  0.00     0.124 S 
ATOM     72  O   UNL A   1      49.501  28.588  21.948  1.00  0.00    -0.237 OA
ATOM     73  O   UNL A   1      48.345  26.541  21.169  1.00  0.00    -0.237 OA
ATOM     74  O   UNL A   1      47.048  28.573  21.684  1.00  0.00    -0.744 OA
ENDBRANCH  67  71
ENDBRANCH  40  64
BRANCH  52  75
ATOM     75  C   UNL A   1      45.382  33.048  29.165  1.00  0.00     0.023 A 
ATOM     76  C   UNL A   1      45.272  34.176  28.332  1.00  0.00     0.031 A 
ATOM     77  C   UNL A   1      46.301  33.093  30.228  1.00  0.00     0.131 A 
ATOM     78  C   UNL A   1      46.108  35.282  28.543  1.00  0.00     0.055 A 
ATOM     79  C   UNL A   1      47.095  34.216  30.462  1.00  0.00     0.041 A 
ATOM     80  F   UNL A   1      46.445  32.041  31.050  1.00  0.00    -0.206 F 
ATOM     81  C   UNL A   1      47.011  35.313  29.610  1.00  0.00     0.022 A 
BRANCH  78  82
ATOM     82  S   UNL A   1      46.067  36.646  27.348  1.00  0.00     0.124 S 
ATOM     83  O   UNL A   1      44.928  36.282  26.510  1.00  0.00    -0.237 OA
ATOM     84  O   UNL A   1      45.879  37.809  28.208  1.00  0.00    -0.237 OA
ATOM     85  O   UNL A   1      47.369  36.566  26.690  1.00  0.00    -0.744 OA
ENDBRANCH  78  82
ENDBRANCH  52  75
ENDBRANCH  26  27
ENDBRANCH  19  21
ENDBRANCH  18  19
ENDBRANCH  17  18
ENDBRANCH   1  17
TORSDOF 17
ENDMDL
