MODEL 1
REMARK VINA RESULT:     -10.1      0.000      0.000
REMARK SMILES CC[N@H+](CC(C)(C)C(=O)OCCOC(=O)c1ccc(-c2c3nc(c(-c4cc(S(=O)(=O)[O-])ccc4F)c4ccc([nH]4)c(-c4cc(S(=O)(=O)[O-])ccc4F)c4nc(c(-c5cc(S(=O)(=O)[O-])ccc5F)c5ccc2[nH]5)C=C4)C=C3)cc1)[C@H]1CC[NH2+]C1
REMARK SMILES IDX 11 1 10 2 8 3 9 4 5 5 6 6 7 7 4 8 3 9 2 11 1 12 79 13 80 14
REMARK SMILES IDX 83 15 81 16 82 17 12 20 13 21 14 22 15 23 16 24 17 25 78 26
REMARK SMILES IDX 18 27 77 28 19 29 20 30 21 31 71 32 22 33 76 34 70 35 72 36
REMARK SMILES IDX 23 37 75 38 69 39 68 40 24 42 56 43 36 44 55 45 37 46 40 47
REMARK SMILES IDX 54 48 73 49 38 50 39 51 53 53 74 54 41 55 25 56 26 57 34 58
REMARK SMILES IDX 27 59 33 60 35 61 32 62 28 63 29 64 30 65 31 66 57 67 58 68
REMARK SMILES IDX 66 69 59 70 65 71 67 72 64 73 60 74 61 75 62 76 63 77 42 78
REMARK SMILES IDX 43 79 51 80 44 81 50 82 52 83 49 84 45 85 46 86 47 87 48 88
REMARK H PARENT 3 10 82 18 82 19 72 41 40 52
REMARK Flexibility Score: inf
ROOT
ATOM      1  C   UNL A   1      32.629  29.316  25.022  1.00  0.00     0.274 C 
ENDROOT
BRANCH   1   2
ATOM      2  O   UNL A   1      31.884  28.402  24.184  1.00  0.00    -0.461 OA
BRANCH   2   3
ATOM      3  C   UNL A   1      31.937  27.115  24.616  1.00  0.00     0.317 C 
ATOM      4  O   UNL A   1      32.400  26.829  25.713  1.00  0.00    -0.251 OA
BRANCH   3   5
ATOM      5  C   UNL A   1      31.388  26.088  23.629  1.00  0.00     0.111 C 
ATOM      6  C   UNL A   1      31.511  26.546  22.172  1.00  0.00     0.029 C 
ATOM      7  C   UNL A   1      29.886  25.899  23.959  1.00  0.00     0.029 C 
BRANCH   5   8
ATOM      8  C   UNL A   1      32.091  24.701  23.844  1.00  0.00     0.280 C 
BRANCH   8   9
ATOM      9  N   UNL A   1      32.278  24.044  25.169  1.00  0.00    -0.327 N 
ATOM     10  H   UNL A   1      32.141  24.765  25.878  1.00  0.00     0.348 HD
BRANCH   9  11
ATOM     11  C   UNL A   1      31.242  23.048  25.486  1.00  0.00     0.259 C 
ATOM     12  C   UNL A   1      30.420  23.198  26.762  1.00  0.00     0.071 C 
ENDBRANCH   9  11
BRANCH   9  13
ATOM     13  C   UNL A   1      33.684  23.552  25.347  1.00  0.00     0.245 C 
ATOM     14  C   UNL A   1      34.853  24.398  24.820  1.00  0.00     0.132 C 
ATOM     15  C   UNL A   1      34.194  23.260  26.782  1.00  0.00     0.326 C 
ATOM     16  C   UNL A   1      36.081  23.949  25.610  1.00  0.00     0.267 C 
ATOM     17  N   UNL A   1      35.618  22.999  26.616  1.00  0.00    -0.341 N 
ATOM     18  H   UNL A   1      36.111  23.148  27.497  1.00  0.00     0.346 HD
ATOM     19  H   UNL A   1      35.793  22.036  26.332  1.00  0.00     0.346 HD
ENDBRANCH   9  13
ENDBRANCH   8   9
ENDBRANCH   5   8
ENDBRANCH   3   5
ENDBRANCH   2   3
ENDBRANCH   1   2
BRANCH   1  20
ATOM     20  C   UNL A   1      31.774  30.283  25.872  1.00  0.00     0.275 C 
BRANCH  20  21
ATOM     21  O   UNL A   1      32.300  30.551  27.199  1.00  0.00    -0.458 OA
BRANCH  21  22
ATOM     22  C   UNL A   1      32.976  31.724  27.327  1.00  0.00     0.338 C 
ATOM     23  O   UNL A   1      32.472  32.836  27.245  1.00  0.00    -0.246 OA
BRANCH  22  24
ATOM     24  C   UNL A   1      34.392  31.544  27.763  1.00  0.00     0.060 A 
ATOM     25  C   UNL A   1      34.761  30.246  28.127  1.00  0.00     0.016 A 
ATOM     26  C   UNL A   1      35.331  32.573  27.901  1.00  0.00     0.016 A 
ATOM     27  C   UNL A   1      36.046  29.962  28.591  1.00  0.00     0.010 A 
ATOM     28  C   UNL A   1      36.623  32.293  28.417  1.00  0.00     0.010 A 
ATOM     29  C   UNL A   1      36.993  30.982  28.766  1.00  0.00    -0.014 A 
BRANCH  29  30
ATOM     30  C   UNL A   1      38.279  30.607  29.438  1.00  0.00     0.031 A 
ATOM     31  C   UNL A   1      38.443  30.921  30.905  1.00  0.00     0.074 A 
ATOM     32  C   UNL A   1      39.190  29.814  28.834  1.00  0.00     0.049 A 
ATOM     33  N   UNL A   1      39.361  30.524  31.749  1.00  0.00    -0.248 NA
ATOM     34  C   UNL A   1      37.420  31.798  31.494  1.00  0.00     0.031 C 
ATOM     35  C   UNL A   1      39.114  29.359  27.450  1.00  0.00     0.029 A 
ATOM     36  N   UNL A   1      40.294  29.154  29.339  1.00  0.00    -0.354 N 
ATOM     37  C   UNL A   1      39.051  31.131  32.962  1.00  0.00     0.074 A 
ATOM     38  C   UNL A   1      37.833  31.886  32.749  1.00  0.00     0.031 C 
ATOM     39  C   UNL A   1      40.035  28.398  27.255  1.00  0.00     0.029 A 
ATOM     40  C   UNL A   1      40.821  28.210  28.476  1.00  0.00     0.049 A 
ATOM     41  H   UNL A   1      40.669  29.337  30.229  1.00  0.00     0.167 HD
ATOM     42  C   UNL A   1      39.741  31.105  34.131  1.00  0.00     0.034 A 
ATOM     43  C   UNL A   1      41.798  27.289  28.658  1.00  0.00     0.034 A 
ATOM     44  C   UNL A   1      40.976  30.384  34.330  1.00  0.00     0.049 A 
ATOM     45  C   UNL A   1      42.558  27.282  29.972  1.00  0.00     0.074 A 
ATOM     46  C   UNL A   1      41.813  30.390  35.434  1.00  0.00     0.029 A 
ATOM     47  N   UNL A   1      41.558  29.530  33.403  1.00  0.00    -0.354 N 
ATOM     48  N   UNL A   1      42.311  27.944  31.081  1.00  0.00    -0.248 NA
ATOM     49  C   UNL A   1      43.755  26.429  30.043  1.00  0.00     0.031 C 
ATOM     50  C   UNL A   1      42.933  29.603  35.145  1.00  0.00     0.029 A 
ATOM     51  C   UNL A   1      42.756  29.030  33.897  1.00  0.00     0.049 A 
ATOM     52  H   UNL A   1      41.178  29.311  32.522  1.00  0.00     0.167 HD
ATOM     53  C   UNL A   1      43.336  27.600  31.965  1.00  0.00     0.074 A 
ATOM     54  C   UNL A   1      44.155  26.617  31.291  1.00  0.00     0.031 C 
ATOM     55  C   UNL A   1      43.597  28.079  33.209  1.00  0.00     0.034 A 
BRANCH  42  56
ATOM     56  C   UNL A   1      39.245  32.012  35.232  1.00  0.00     0.023 A 
ATOM     57  C   UNL A   1      39.659  33.349  35.352  1.00  0.00     0.031 A 
ATOM     58  C   UNL A   1      38.394  31.492  36.225  1.00  0.00     0.131 A 
ATOM     59  C   UNL A   1      39.282  34.095  36.481  1.00  0.00     0.055 A 
ATOM     60  C   UNL A   1      37.955  32.264  37.300  1.00  0.00     0.041 A 
ATOM     61  F   UNL A   1      37.992  30.211  36.178  1.00  0.00    -0.206 F 
ATOM     62  C   UNL A   1      38.413  33.569  37.442  1.00  0.00     0.022 A 
BRANCH  59  63
ATOM     63  S   UNL A   1      40.076  35.701  36.768  1.00  0.00     0.124 S 
ATOM     64  O   UNL A   1      39.645  36.456  35.595  1.00  0.00    -0.237 OA
ATOM     65  O   UNL A   1      39.502  36.114  38.043  1.00  0.00    -0.237 OA
ATOM     66  O   UNL A   1      41.501  35.377  36.801  1.00  0.00    -0.744 OA
ENDBRANCH  59  63
ENDBRANCH  42  56
BRANCH  43  67
ATOM     67  C   UNL A   1      42.185  26.311  27.580  1.00  0.00     0.023 A 
ATOM     68  C   UNL A   1      41.647  25.008  27.545  1.00  0.00     0.031 A 
ATOM     69  C   UNL A   1      43.184  26.619  26.638  1.00  0.00     0.131 A 
ATOM     70  C   UNL A   1      42.147  24.059  26.632  1.00  0.00     0.055 A 
ATOM     71  C   UNL A   1      43.611  25.700  25.677  1.00  0.00     0.041 A 
ATOM     72  F   UNL A   1      43.777  27.823  26.642  1.00  0.00    -0.206 F 
ATOM     73  C   UNL A   1      43.104  24.406  25.680  1.00  0.00     0.022 A 
BRANCH  70  74
ATOM     74  S   UNL A   1      41.646  22.318  26.801  1.00  0.00     0.124 S 
ATOM     75  O   UNL A   1      42.216  21.729  25.595  1.00  0.00    -0.237 OA
ATOM     76  O   UNL A   1      42.275  21.938  28.061  1.00  0.00    -0.237 OA
ATOM     77  O   UNL A   1      40.186  22.385  26.831  1.00  0.00    -0.744 OA
ENDBRANCH  70  74
ENDBRANCH  43  67
BRANCH  55  78
ATOM     78  C   UNL A   1      44.837  27.563  33.910  1.00  0.00     0.023 A 
ATOM     79  C   UNL A   1      46.084  28.199  33.762  1.00  0.00     0.031 A 
ATOM     80  C   UNL A   1      44.778  26.420  34.727  1.00  0.00     0.131 A 
ATOM     81  C   UNL A   1      47.230  27.656  34.366  1.00  0.00     0.055 A 
ATOM     82  C   UNL A   1      45.910  25.920  35.377  1.00  0.00     0.041 A 
ATOM     83  F   UNL A   1      43.620  25.768  34.911  1.00  0.00    -0.206 F 
ATOM     84  C   UNL A   1      47.148  26.528  35.185  1.00  0.00     0.022 A 
BRANCH  81  85
ATOM     85  S   UNL A   1      48.849  28.381  33.982  1.00  0.00     0.124 S 
ATOM     86  O   UNL A   1      48.633  29.792  34.284  1.00  0.00    -0.237 OA
ATOM     87  O   UNL A   1      49.735  27.663  34.893  1.00  0.00    -0.237 OA
ATOM     88  O   UNL A   1      49.037  28.072  32.566  1.00  0.00    -0.744 OA
ENDBRANCH  81  85
ENDBRANCH  55  78
ENDBRANCH  29  30
ENDBRANCH  22  24
ENDBRANCH  21  22
ENDBRANCH  20  21
ENDBRANCH   1  20
TORSDOF 18
ENDMDL
MODEL 2
REMARK VINA RESULT:     -10.0      1.411      1.741
REMARK SMILES CC[N@H+](CC(C)(C)C(=O)OCCOC(=O)c1ccc(-c2c3nc(c(-c4cc(S(=O)(=O)[O-])ccc4F)c4ccc([nH]4)c(-c4cc(S(=O)(=O)[O-])ccc4F)c4nc(c(-c5cc(S(=O)(=O)[O-])ccc5F)c5ccc2[nH]5)C=C4)C=C3)cc1)[C@H]1CC[NH2+]C1
REMARK SMILES IDX 11 1 10 2 8 3 9 4 5 5 6 6 7 7 4 8 3 9 2 11 1 12 79 13 80 14
REMARK SMILES IDX 83 15 81 16 82 17 12 20 13 21 14 22 15 23 16 24 17 25 78 26
REMARK SMILES IDX 18 27 77 28 19 29 20 30 21 31 71 32 22 33 76 34 70 35 72 36
REMARK SMILES IDX 23 37 75 38 69 39 68 40 24 42 56 43 36 44 55 45 37 46 40 47
REMARK SMILES IDX 54 48 73 49 38 50 39 51 53 53 74 54 41 55 25 56 26 57 34 58
REMARK SMILES IDX 27 59 33 60 35 61 32 62 28 63 29 64 30 65 31 66 57 67 58 68
REMARK SMILES IDX 66 69 59 70 65 71 67 72 64 73 60 74 61 75 62 76 63 77 42 78
REMARK SMILES IDX 43 79 51 80 44 81 50 82 52 83 49 84 45 85 46 86 47 87 48 88
REMARK H PARENT 3 10 82 18 82 19 72 41 40 52
REMARK Flexibility Score: inf
ROOT
ATOM      1  C   UNL A   1      33.149  29.212  24.699  1.00  0.00     0.274 C 
ENDROOT
BRANCH   1   2
ATOM      2  O   UNL A   1      33.064  27.775  24.837  1.00  0.00    -0.461 OA
BRANCH   2   3
ATOM      3  C   UNL A   1      32.043  27.228  24.127  1.00  0.00     0.317 C 
ATOM      4  O   UNL A   1      31.721  27.669  23.031  1.00  0.00    -0.251 OA
BRANCH   3   5
ATOM      5  C   UNL A   1      31.351  26.049  24.809  1.00  0.00     0.111 C 
ATOM      6  C   UNL A   1      29.909  25.854  24.329  1.00  0.00     0.029 C 
ATOM      7  C   UNL A   1      31.328  26.354  26.327  1.00  0.00     0.029 C 
BRANCH   5   8
ATOM      8  C   UNL A   1      32.194  24.740  24.608  1.00  0.00     0.280 C 
BRANCH   8   9
ATOM      9  N   UNL A   1      32.513  23.765  25.689  1.00  0.00    -0.327 N 
ATOM     10  H   UNL A   1      32.409  24.262  26.574  1.00  0.00     0.348 HD
BRANCH   9  11
ATOM     11  C   UNL A   1      31.542  22.663  25.797  1.00  0.00     0.259 C 
ATOM     12  C   UNL A   1      30.392  22.769  26.792  1.00  0.00     0.071 C 
ENDBRANCH   9  11
BRANCH   9  13
ATOM     13  C   UNL A   1      33.945  23.323  25.628  1.00  0.00     0.245 C 
ATOM     14  C   UNL A   1      35.046  24.363  25.370  1.00  0.00     0.132 C 
ATOM     15  C   UNL A   1      34.551  22.595  26.855  1.00  0.00     0.326 C 
ATOM     16  C   UNL A   1      36.336  23.746  25.907  1.00  0.00     0.267 C 
ATOM     17  N   UNL A   1      35.972  22.488  26.549  1.00  0.00    -0.341 N 
ATOM     18  H   UNL A   1      36.511  22.359  27.406  1.00  0.00     0.346 HD
ATOM     19  H   UNL A   1      36.167  21.688  25.948  1.00  0.00     0.346 HD
ENDBRANCH   9  13
ENDBRANCH   8   9
ENDBRANCH   5   8
ENDBRANCH   3   5
ENDBRANCH   2   3
ENDBRANCH   1   2
BRANCH   1  20
ATOM     20  C   UNL A   1      32.170  30.023  25.579  1.00  0.00     0.275 C 
BRANCH  20  21
ATOM     21  O   UNL A   1      32.566  30.146  26.971  1.00  0.00    -0.458 OA
BRANCH  21  22
ATOM     22  C   UNL A   1      33.123  31.340  27.309  1.00  0.00     0.338 C 
ATOM     23  O   UNL A   1      32.515  32.400  27.389  1.00  0.00    -0.246 OA
BRANCH  22  24
ATOM     24  C   UNL A   1      34.541  31.222  27.760  1.00  0.00     0.060 A 
ATOM     25  C   UNL A   1      34.963  29.941  28.122  1.00  0.00     0.016 A 
ATOM     26  C   UNL A   1      35.430  32.292  27.914  1.00  0.00     0.016 A 
ATOM     27  C   UNL A   1      36.255  29.713  28.599  1.00  0.00     0.010 A 
ATOM     28  C   UNL A   1      36.727  32.068  28.444  1.00  0.00     0.010 A 
ATOM     29  C   UNL A   1      37.153  30.774  28.790  1.00  0.00    -0.014 A 
BRANCH  29  30
ATOM     30  C   UNL A   1      38.447  30.454  29.476  1.00  0.00     0.031 A 
ATOM     31  C   UNL A   1      38.590  30.794  30.939  1.00  0.00     0.074 A 
ATOM     32  C   UNL A   1      39.389  29.686  28.888  1.00  0.00     0.049 A 
ATOM     33  N   UNL A   1      39.516  30.441  31.794  1.00  0.00    -0.248 NA
ATOM     34  C   UNL A   1      37.532  31.641  31.509  1.00  0.00     0.031 C 
ATOM     35  C   UNL A   1      39.338  29.210  27.510  1.00  0.00     0.029 A 
ATOM     36  N   UNL A   1      40.512  29.072  29.409  1.00  0.00    -0.354 N 
ATOM     37  C   UNL A   1      39.177  31.053  32.996  1.00  0.00     0.074 A 
ATOM     38  C   UNL A   1      37.934  31.762  32.766  1.00  0.00     0.031 C 
ATOM     39  C   UNL A   1      40.294  28.280  27.333  1.00  0.00     0.029 A 
ATOM     40  C   UNL A   1      41.078  28.136  28.562  1.00  0.00     0.049 A 
ATOM     41  H   UNL A   1      40.876  29.281  30.299  1.00  0.00     0.167 HD
ATOM     42  C   UNL A   1      39.859  31.067  34.170  1.00  0.00     0.034 A 
ATOM     43  C   UNL A   1      42.086  27.253  28.762  1.00  0.00     0.034 A 
ATOM     44  C   UNL A   1      41.118  30.394  34.386  1.00  0.00     0.049 A 
ATOM     45  C   UNL A   1      42.838  27.291  30.082  1.00  0.00     0.074 A 
ATOM     46  C   UNL A   1      41.947  30.445  35.495  1.00  0.00     0.029 A 
ATOM     47  N   UNL A   1      41.736  29.549  33.475  1.00  0.00    -0.354 N 
ATOM     48  N   UNL A   1      42.561  27.960  31.179  1.00  0.00    -0.248 NA
ATOM     49  C   UNL A   1      44.064  26.483  30.171  1.00  0.00     0.031 C 
ATOM     50  C   UNL A   1      43.097  29.694  35.224  1.00  0.00     0.029 A 
ATOM     51  C   UNL A   1      42.947  29.099  33.983  1.00  0.00     0.049 A 
ATOM     52  H   UNL A   1      41.370  29.304  32.595  1.00  0.00     0.167 HD
ATOM     53  C   UNL A   1      43.591  27.664  32.074  1.00  0.00     0.074 A 
ATOM     54  C   UNL A   1      44.448  26.702  31.419  1.00  0.00     0.031 C 
ATOM     55  C   UNL A   1      43.826  28.169  33.314  1.00  0.00     0.034 A 
BRANCH  42  56
ATOM     56  C   UNL A   1      39.324  31.971  35.255  1.00  0.00     0.023 A 
ATOM     57  C   UNL A   1      39.714  33.316  35.378  1.00  0.00     0.031 A 
ATOM     58  C   UNL A   1      38.460  31.442  36.231  1.00  0.00     0.131 A 
ATOM     59  C   UNL A   1      39.299  34.060  36.495  1.00  0.00     0.055 A 
ATOM     60  C   UNL A   1      37.985  32.212  37.292  1.00  0.00     0.041 A 
ATOM     61  F   UNL A   1      38.080  30.154  36.181  1.00  0.00    -0.206 F 
ATOM     62  C   UNL A   1      38.418  33.524  37.438  1.00  0.00     0.022 A 
BRANCH  59  63
ATOM     63  S   UNL A   1      40.061  35.680  36.791  1.00  0.00     0.124 S 
ATOM     64  O   UNL A   1      39.589  36.443  35.639  1.00  0.00    -0.237 OA
ATOM     65  O   UNL A   1      39.502  36.060  38.083  1.00  0.00    -0.237 OA
ATOM     66  O   UNL A   1      41.494  35.391  36.792  1.00  0.00    -0.744 OA
ENDBRANCH  59  63
ENDBRANCH  42  56
BRANCH  43  67
ATOM     67  C   UNL A   1      42.515  26.275  27.701  1.00  0.00     0.023 A 
ATOM     68  C   UNL A   1      41.966  24.979  27.634  1.00  0.00     0.031 A 
ATOM     69  C   UNL A   1      43.562  26.576  26.809  1.00  0.00     0.131 A 
ATOM     70  C   UNL A   1      42.499  24.027  26.743  1.00  0.00     0.055 A 
ATOM     71  C   UNL A   1      44.025  25.655  25.866  1.00  0.00     0.041 A 
ATOM     72  F   UNL A   1      44.167  27.773  26.848  1.00  0.00    -0.206 F 
ATOM     73  C   UNL A   1      43.505  24.368  25.840  1.00  0.00     0.022 A 
BRANCH  70  74
ATOM     74  S   UNL A   1      41.972  22.291  26.879  1.00  0.00     0.124 S 
ATOM     75  O   UNL A   1      41.886  22.122  28.325  1.00  0.00    -0.237 OA
ATOM     76  O   UNL A   1      40.706  22.296  26.155  1.00  0.00    -0.237 OA
ATOM     77  O   UNL A   1      43.055  21.555  26.230  1.00  0.00    -0.744 OA
ENDBRANCH  70  74
ENDBRANCH  43  67
BRANCH  55  78
ATOM     78  C   UNL A   1      45.079  27.707  34.028  1.00  0.00     0.023 A 
ATOM     79  C   UNL A   1      45.073  26.575  34.867  1.00  0.00     0.031 A 
ATOM     80  C   UNL A   1      46.291  28.404  33.880  1.00  0.00     0.131 A 
ATOM     81  C   UNL A   1      46.232  26.212  35.572  1.00  0.00     0.055 A 
ATOM     82  C   UNL A   1      47.458  28.001  34.535  1.00  0.00     0.041 A 
ATOM     83  F   UNL A   1      46.365  29.489  33.094  1.00  0.00    -0.206 F 
ATOM     84  C   UNL A   1      47.429  26.910  35.400  1.00  0.00     0.022 A 
BRANCH  81  85
ATOM     85  S   UNL A   1      46.129  24.879  36.800  1.00  0.00     0.124 S 
ATOM     86  O   UNL A   1      46.145  23.687  35.960  1.00  0.00    -0.237 OA
ATOM     87  O   UNL A   1      47.323  25.107  37.607  1.00  0.00    -0.237 OA
ATOM     88  O   UNL A   1      44.863  25.139  37.483  1.00  0.00    -0.744 OA
ENDBRANCH  81  85
ENDBRANCH  55  78
ENDBRANCH  29  30
ENDBRANCH  22  24
ENDBRANCH  21  22
ENDBRANCH  20  21
ENDBRANCH   1  20
TORSDOF 18
ENDMDL
MODEL 3
REMARK VINA RESULT:     -10.0      4.738      9.700
REMARK SMILES CC[N@H+](CC(C)(C)C(=O)OCCOC(=O)c1ccc(-c2c3nc(c(-c4cc(S(=O)(=O)[O-])ccc4F)c4ccc([nH]4)c(-c4cc(S(=O)(=O)[O-])ccc4F)c4nc(c(-c5cc(S(=O)(=O)[O-])ccc5F)c5ccc2[nH]5)C=C4)C=C3)cc1)[C@H]1CC[NH2+]C1
REMARK SMILES IDX 11 1 10 2 8 3 9 4 5 5 6 6 7 7 4 8 3 9 2 11 1 12 79 13 80 14
REMARK SMILES IDX 83 15 81 16 82 17 12 20 13 21 14 22 15 23 16 24 17 25 78 26
REMARK SMILES IDX 18 27 77 28 19 29 20 30 21 31 71 32 22 33 76 34 70 35 72 36
REMARK SMILES IDX 23 37 75 38 69 39 68 40 24 42 56 43 36 44 55 45 37 46 40 47
REMARK SMILES IDX 54 48 73 49 38 50 39 51 53 53 74 54 41 55 25 56 26 57 34 58
REMARK SMILES IDX 27 59 33 60 35 61 32 62 28 63 29 64 30 65 31 66 57 67 58 68
REMARK SMILES IDX 66 69 59 70 65 71 67 72 64 73 60 74 61 75 62 76 63 77 42 78
REMARK SMILES IDX 43 79 51 80 44 81 50 82 52 83 49 84 45 85 46 86 47 87 48 88
REMARK H PARENT 3 10 82 18 82 19 72 41 40 52
REMARK Flexibility Score: inf
ROOT
ATOM      1  C   UNL A   1      35.862  21.036  25.140  1.00  0.00     0.274 C 
ENDROOT
BRANCH   1   2
ATOM      2  O   UNL A   1      35.396  22.318  24.659  1.00  0.00    -0.461 OA
BRANCH   2   3
ATOM      3  C   UNL A   1      34.143  22.628  25.088  1.00  0.00     0.317 C 
ATOM      4  O   UNL A   1      33.881  22.712  26.280  1.00  0.00    -0.251 OA
BRANCH   3   5
ATOM      5  C   UNL A   1      33.124  22.850  23.972  1.00  0.00     0.111 C 
ATOM      6  C   UNL A   1      32.180  21.657  23.791  1.00  0.00     0.029 C 
ATOM      7  C   UNL A   1      33.923  23.048  22.660  1.00  0.00     0.029 C 
BRANCH   5   8
ATOM      8  C   UNL A   1      32.318  24.172  24.232  1.00  0.00     0.280 C 
BRANCH   8   9
ATOM      9  N   UNL A   1      32.925  25.530  24.319  1.00  0.00    -0.327 N 
ATOM     10  H   UNL A   1      33.935  25.407  24.233  1.00  0.00     0.348 HD
BRANCH   9  11
ATOM     11  C   UNL A   1      32.586  26.402  23.183  1.00  0.00     0.259 C 
ATOM     12  C   UNL A   1      31.870  25.816  21.972  1.00  0.00     0.071 C 
ENDBRANCH   9  11
BRANCH   9  13
ATOM     13  C   UNL A   1      32.697  26.151  25.665  1.00  0.00     0.245 C 
ATOM     14  C   UNL A   1      33.322  27.518  25.982  1.00  0.00     0.132 C 
ATOM     15  C   UNL A   1      31.240  26.412  26.126  1.00  0.00     0.326 C 
ATOM     16  C   UNL A   1      32.490  28.101  27.123  1.00  0.00     0.267 C 
ATOM     17  N   UNL A   1      31.380  27.184  27.355  1.00  0.00    -0.341 N 
ATOM     18  H   UNL A   1      30.524  27.705  27.546  1.00  0.00     0.346 HD
ATOM     19  H   UNL A   1      31.551  26.581  28.159  1.00  0.00     0.346 HD
ENDBRANCH   9  13
ENDBRANCH   8   9
ENDBRANCH   5   8
ENDBRANCH   3   5
ENDBRANCH   2   3
ENDBRANCH   1   2
BRANCH   1  20
ATOM     20  C   UNL A   1      37.375  20.773  24.966  1.00  0.00     0.275 C 
BRANCH  20  21
ATOM     21  O   UNL A   1      38.229  21.899  25.302  1.00  0.00    -0.458 OA
BRANCH  21  22
ATOM     22  C   UNL A   1      39.315  21.594  26.063  1.00  0.00     0.338 C 
ATOM     23  O   UNL A   1      39.921  20.531  26.023  1.00  0.00    -0.246 OA
BRANCH  22  24
ATOM     24  C   UNL A   1      39.831  22.754  26.846  1.00  0.00     0.060 A 
ATOM     25  C   UNL A   1      39.242  23.991  26.568  1.00  0.00     0.016 A 
ATOM     26  C   UNL A   1      40.890  22.704  27.760  1.00  0.00     0.016 A 
ATOM     27  C   UNL A   1      39.670  25.156  27.207  1.00  0.00     0.010 A 
ATOM     28  C   UNL A   1      41.357  23.895  28.374  1.00  0.00     0.010 A 
ATOM     29  C   UNL A   1      40.749  25.134  28.103  1.00  0.00    -0.014 A 
BRANCH  29  30
ATOM     30  C   UNL A   1      41.250  26.458  28.597  1.00  0.00     0.031 A 
ATOM     31  C   UNL A   1      42.594  26.944  28.114  1.00  0.00     0.074 A 
ATOM     32  C   UNL A   1      40.452  27.310  29.273  1.00  0.00     0.049 A 
ATOM     33  N   UNL A   1      43.150  28.123  28.230  1.00  0.00    -0.248 NA
ATOM     34  C   UNL A   1      43.414  25.959  27.392  1.00  0.00     0.031 C 
ATOM     35  C   UNL A   1      39.098  27.006  29.725  1.00  0.00     0.029 A 
ATOM     36  N   UNL A   1      40.616  28.644  29.595  1.00  0.00    -0.354 N 
ATOM     37  C   UNL A   1      44.401  28.016  27.632  1.00  0.00     0.074 A 
ATOM     38  C   UNL A   1      44.499  26.666  27.115  1.00  0.00     0.031 C 
ATOM     39  C   UNL A   1      38.509  28.144  30.136  1.00  0.00     0.029 A 
ATOM     40  C   UNL A   1      39.460  29.254  30.048  1.00  0.00     0.049 A 
ATOM     41  H   UNL A   1      41.475  29.116  29.510  1.00  0.00     0.167 HD
ATOM     42  C   UNL A   1      45.396  28.936  27.561  1.00  0.00     0.034 A 
ATOM     43  C   UNL A   1      39.193  30.552  30.329  1.00  0.00     0.034 A 
ATOM     44  C   UNL A   1      45.312  30.268  28.113  1.00  0.00     0.049 A 
ATOM     45  C   UNL A   1      40.324  31.563  30.248  1.00  0.00     0.074 A 
ATOM     46  C   UNL A   1      46.303  31.232  28.201  1.00  0.00     0.029 A 
ATOM     47  N   UNL A   1      44.173  30.827  28.676  1.00  0.00    -0.354 N 
ATOM     48  N   UNL A   1      41.540  31.415  29.772  1.00  0.00    -0.248 NA
ATOM     49  C   UNL A   1      40.052  32.907  30.781  1.00  0.00     0.031 C 
ATOM     50  C   UNL A   1      45.784  32.340  28.882  1.00  0.00     0.029 A 
ATOM     51  C   UNL A   1      44.444  32.106  29.140  1.00  0.00     0.049 A 
ATOM     52  H   UNL A   1      43.298  30.379  28.738  1.00  0.00     0.167 HD
ATOM     53  C   UNL A   1      42.177  32.642  29.971  1.00  0.00     0.074 A 
ATOM     54  C   UNL A   1      41.192  33.537  30.536  1.00  0.00     0.031 C 
ATOM     55  C   UNL A   1      43.471  32.988  29.741  1.00  0.00     0.034 A 
BRANCH  42  56
ATOM     56  C   UNL A   1      46.716  28.467  26.999  1.00  0.00     0.023 A 
ATOM     57  C   UNL A   1      46.961  28.381  25.617  1.00  0.00     0.031 A 
ATOM     58  C   UNL A   1      47.723  28.024  27.877  1.00  0.00     0.131 A 
ATOM     59  C   UNL A   1      48.151  27.794  25.158  1.00  0.00     0.055 A 
ATOM     60  C   UNL A   1      48.938  27.520  27.413  1.00  0.00     0.041 A 
ATOM     61  F   UNL A   1      47.532  28.053  29.206  1.00  0.00    -0.206 F 
ATOM     62  C   UNL A   1      49.151  27.387  26.046  1.00  0.00     0.022 A 
BRANCH  59  63
ATOM     63  S   UNL A   1      48.307  27.413  23.390  1.00  0.00     0.124 S 
ATOM     64  O   UNL A   1      48.084  25.969  23.380  1.00  0.00    -0.237 OA
ATOM     65  O   UNL A   1      47.253  28.228  22.797  1.00  0.00    -0.237 OA
ATOM     66  O   UNL A   1      49.671  27.826  23.069  1.00  0.00    -0.744 OA
ENDBRANCH  59  63
ENDBRANCH  42  56
BRANCH  43  67
ATOM     67  C   UNL A   1      37.828  31.011  30.768  1.00  0.00     0.023 A 
ATOM     68  C   UNL A   1      36.880  31.486  29.839  1.00  0.00     0.031 A 
ATOM     69  C   UNL A   1      37.488  31.094  32.131  1.00  0.00     0.131 A 
ATOM     70  C   UNL A   1      35.676  32.065  30.286  1.00  0.00     0.055 A 
ATOM     71  C   UNL A   1      36.254  31.587  32.563  1.00  0.00     0.041 A 
ATOM     72  F   UNL A   1      38.359  30.707  33.076  1.00  0.00    -0.206 F 
ATOM     73  C   UNL A   1      35.347  32.091  31.640  1.00  0.00     0.022 A 
BRANCH  70  74
ATOM     74  S   UNL A   1      34.610  32.928  29.091  1.00  0.00     0.124 S 
ATOM     75  O   UNL A   1      33.854  33.820  29.960  1.00  0.00    -0.237 OA
ATOM     76  O   UNL A   1      35.585  33.561  28.210  1.00  0.00    -0.237 OA
ATOM     77  O   UNL A   1      33.836  31.847  28.484  1.00  0.00    -0.744 OA
ENDBRANCH  70  74
ENDBRANCH  43  67
BRANCH  55  78
ATOM     78  C   UNL A   1      43.898  34.389  30.127  1.00  0.00     0.023 A 
ATOM     79  C   UNL A   1      43.889  35.444  29.195  1.00  0.00     0.031 A 
ATOM     80  C   UNL A   1      44.325  34.676  31.435  1.00  0.00     0.131 A 
ATOM     81  C   UNL A   1      44.357  36.716  29.563  1.00  0.00     0.055 A 
ATOM     82  C   UNL A   1      44.731  35.959  31.814  1.00  0.00     0.041 A 
ATOM     83  F   UNL A   1      44.355  33.716  32.373  1.00  0.00    -0.206 F 
ATOM     84  C   UNL A   1      44.764  36.984  30.872  1.00  0.00     0.022 A 
BRANCH  81  85
ATOM     85  S   UNL A   1      44.527  37.991  28.283  1.00  0.00     0.124 S 
ATOM     86  O   UNL A   1      45.658  37.497  27.505  1.00  0.00    -0.237 OA
ATOM     87  O   UNL A   1      43.228  37.942  27.620  1.00  0.00    -0.237 OA
ATOM     88  O   UNL A   1      44.785  39.211  29.045  1.00  0.00    -0.744 OA
ENDBRANCH  81  85
ENDBRANCH  55  78
ENDBRANCH  29  30
ENDBRANCH  22  24
ENDBRANCH  21  22
ENDBRANCH  20  21
ENDBRANCH   1  20
TORSDOF 18
ENDMDL
