MODEL 1
REMARK VINA RESULT:     -11.3      0.000      0.000
REMARK SMILES COc1ncccc1Cn1ccc(C(=O)OCCOC(=O)c2ccc(-c3c4nc(c(-c5cc(S(=O)(=O)[O-])ccc5F)c5ccc([nH]5)c(-c5cc(S(=O)(=O)[O-])ccc5F)c5nc(c(-c6cc(S(=O)(=O)[O-])ccc6F)c6ccc3[nH]6)C=C5)C=C4)cc2)n1
REMARK SMILES IDX 17 1 16 2 14 3 15 4 13 5 10 6 11 7 85 8 12 9 9 10 8 11 3 12
REMARK SMILES IDX 4 13 5 14 7 15 6 16 2 17 1 18 18 19 19 20 20 21 21 22 22 23
REMARK SMILES IDX 23 24 84 25 24 26 83 27 25 28 26 29 27 30 77 31 28 32 82 33
REMARK SMILES IDX 76 34 78 35 29 36 81 37 75 38 74 39 30 41 62 42 42 43 61 44
REMARK SMILES IDX 43 45 46 46 60 47 79 48 44 49 45 50 59 52 80 53 47 54 31 55
REMARK SMILES IDX 32 56 40 57 33 58 39 59 41 60 38 61 34 62 35 63 36 64 37 65
REMARK SMILES IDX 63 66 64 67 72 68 65 69 71 70 73 71 70 72 66 73 67 74 68 75
REMARK SMILES IDX 69 76 48 77 49 78 57 79 50 80 56 81 58 82 55 83 51 84 52 85
REMARK SMILES IDX 53 86 54 87
REMARK H PARENT 78 40 46 51
REMARK Flexibility Score: inf
ROOT
ATOM      1  C   UNL A   1      32.803  30.172  26.292  1.00  0.00     0.275 C 
ENDROOT
BRANCH   1   2
ATOM      2  O   UNL A   1      33.612  29.416  25.387  1.00  0.00    -0.457 OA
BRANCH   2   3
ATOM      3  C   UNL A   1      32.917  28.523  24.590  1.00  0.00     0.358 C 
ATOM      4  O   UNL A   1      32.137  28.856  23.723  1.00  0.00    -0.244 OA
BRANCH   3   5
ATOM      5  C   UNL A   1      33.372  27.144  24.788  1.00  0.00     0.170 A 
ATOM      6  N   UNL A   1      33.992  25.139  24.430  1.00  0.00    -0.267 N 
ATOM      7  C   UNL A   1      33.557  25.146  25.724  1.00  0.00     0.110 A 
ATOM      8  N   UNL A   1      33.857  26.344  23.825  1.00  0.00    -0.165 NA
ATOM      9  C   UNL A   1      33.285  26.454  26.028  1.00  0.00     0.057 A 
BRANCH   6  10
ATOM     10  C   UNL A   1      34.664  24.061  23.700  1.00  0.00     0.185 C 
BRANCH  10  11
ATOM     11  C   UNL A   1      33.871  22.794  23.591  1.00  0.00     0.036 A 
ATOM     12  C   UNL A   1      34.097  21.711  24.440  1.00  0.00     0.218 A 
ATOM     13  N   UNL A   1      33.396  20.559  24.407  1.00  0.00    -0.222 NA
ATOM     14  C   UNL A   1      32.405  20.480  23.489  1.00  0.00     0.115 A 
ATOM     15  C   UNL A   1      32.845  22.665  22.647  1.00  0.00     0.013 A 
ATOM     16  C   UNL A   1      32.106  21.489  22.588  1.00  0.00     0.021 A 
BRANCH  12  17
ATOM     17  O   UNL A   1      35.187  21.738  25.276  1.00  0.00    -0.481 OA
ATOM     18  C   UNL A   1      34.791  21.743  26.645  1.00  0.00     0.280 C 
ENDBRANCH  12  17
ENDBRANCH  10  11
ENDBRANCH   6  10
ENDBRANCH   3   5
ENDBRANCH   2   3
ENDBRANCH   1   2
BRANCH   1  19
ATOM     19  C   UNL A   1      33.616  30.666  27.487  1.00  0.00     0.275 C 
BRANCH  19  20
ATOM     20  O   UNL A   1      35.023  30.613  27.236  1.00  0.00    -0.458 OA
BRANCH  20  21
ATOM     21  C   UNL A   1      35.749  31.510  27.943  1.00  0.00     0.338 C 
ATOM     22  O   UNL A   1      35.677  32.724  27.860  1.00  0.00    -0.246 OA
BRANCH  21  23
ATOM     23  C   UNL A   1      36.796  30.820  28.706  1.00  0.00     0.060 A 
ATOM     24  C   UNL A   1      37.956  31.534  29.026  1.00  0.00     0.016 A 
ATOM     25  C   UNL A   1      36.728  29.429  28.852  1.00  0.00     0.016 A 
ATOM     26  C   UNL A   1      39.099  30.833  29.366  1.00  0.00     0.010 A 
ATOM     27  C   UNL A   1      37.872  28.731  29.172  1.00  0.00     0.010 A 
ATOM     28  C   UNL A   1      39.061  29.436  29.365  1.00  0.00    -0.014 A 
BRANCH  28  29
ATOM     29  C   UNL A   1      40.285  28.704  29.638  1.00  0.00     0.031 A 
ATOM     30  C   UNL A   1      40.648  28.627  31.072  1.00  0.00     0.074 A 
ATOM     31  C   UNL A   1      40.928  28.002  28.684  1.00  0.00     0.049 A 
ATOM     32  N   UNL A   1      41.731  29.025  31.649  1.00  0.00    -0.248 NA
ATOM     33  C   UNL A   1      39.614  28.147  32.004  1.00  0.00     0.031 C 
ATOM     34  C   UNL A   1      40.485  27.766  27.308  1.00  0.00     0.029 A 
ATOM     35  N   UNL A   1      42.052  27.240  28.787  1.00  0.00    -0.354 N 
ATOM     36  C   UNL A   1      41.606  28.651  32.984  1.00  0.00     0.074 A 
ATOM     37  C   UNL A   1      40.228  28.295  33.175  1.00  0.00     0.031 C 
ATOM     38  C   UNL A   1      41.203  26.751  26.778  1.00  0.00     0.029 A 
ATOM     39  C   UNL A   1      42.230  26.356  27.728  1.00  0.00     0.049 A 
ATOM     40  H   UNL A   1      42.682  27.308  29.540  1.00  0.00     0.167 HD
ATOM     41  C   UNL A   1      42.699  28.441  33.767  1.00  0.00     0.034 A 
ATOM     42  C   UNL A   1      43.107  25.320  27.665  1.00  0.00     0.034 A 
ATOM     43  C   UNL A   1      43.865  29.092  33.219  1.00  0.00     0.049 A 
ATOM     44  C   UNL A   1      44.173  25.581  28.660  1.00  0.00     0.074 A 
ATOM     45  C   UNL A   1      44.192  30.401  32.920  1.00  0.00     0.029 A 
ATOM     46  N   UNL A   1      44.790  28.318  32.556  1.00  0.00    -0.354 N 
ATOM     47  N   UNL A   1      45.012  26.577  28.574  1.00  0.00    -0.248 NA
ATOM     48  C   UNL A   1      44.052  24.993  29.986  1.00  0.00     0.031 C 
ATOM     49  C   UNL A   1      44.985  30.328  31.737  1.00  0.00     0.029 A 
ATOM     50  C   UNL A   1      45.141  28.980  31.406  1.00  0.00     0.049 A 
ATOM     51  H   UNL A   1      45.138  27.447  32.854  1.00  0.00     0.167 HD
ATOM     52  C   UNL A   1      45.185  27.014  29.878  1.00  0.00     0.074 A 
ATOM     53  C   UNL A   1      44.682  25.924  30.708  1.00  0.00     0.031 C 
ATOM     54  C   UNL A   1      45.457  28.325  30.150  1.00  0.00     0.034 A 
BRANCH  41  55
ATOM     55  C   UNL A   1      42.789  27.359  34.824  1.00  0.00     0.023 A 
ATOM     56  C   UNL A   1      43.527  26.205  34.500  1.00  0.00     0.031 A 
ATOM     57  C   UNL A   1      41.983  27.261  35.982  1.00  0.00     0.131 A 
ATOM     58  C   UNL A   1      43.370  25.013  35.231  1.00  0.00     0.055 A 
ATOM     59  C   UNL A   1      41.886  26.095  36.750  1.00  0.00     0.041 A 
ATOM     60  F   UNL A   1      41.171  28.241  36.393  1.00  0.00    -0.206 F 
ATOM     61  C   UNL A   1      42.554  24.951  36.356  1.00  0.00     0.022 A 
BRANCH  58  62
ATOM     62  S   UNL A   1      44.098  23.496  34.564  1.00  0.00     0.124 S 
ATOM     63  O   UNL A   1      43.007  22.983  33.741  1.00  0.00    -0.237 OA
ATOM     64  O   UNL A   1      45.259  24.011  33.848  1.00  0.00    -0.237 OA
ATOM     65  O   UNL A   1      44.398  22.713  35.760  1.00  0.00    -0.744 OA
ENDBRANCH  58  62
ENDBRANCH  41  55
BRANCH  42  66
ATOM     66  C   UNL A   1      42.880  24.001  27.020  1.00  0.00     0.023 A 
ATOM     67  C   UNL A   1      43.780  23.442  26.091  1.00  0.00     0.031 A 
ATOM     68  C   UNL A   1      41.853  23.156  27.498  1.00  0.00     0.131 A 
ATOM     69  C   UNL A   1      43.627  22.099  25.675  1.00  0.00     0.055 A 
ATOM     70  C   UNL A   1      41.698  21.836  27.075  1.00  0.00     0.041 A 
ATOM     71  F   UNL A   1      41.009  23.564  28.461  1.00  0.00    -0.206 F 
ATOM     72  C   UNL A   1      42.592  21.297  26.165  1.00  0.00     0.022 A 
BRANCH  69  73
ATOM     73  S   UNL A   1      44.844  21.341  24.552  1.00  0.00     0.124 S 
ATOM     74  O   UNL A   1      44.332  19.984  24.409  1.00  0.00    -0.237 OA
ATOM     75  O   UNL A   1      44.756  22.196  23.374  1.00  0.00    -0.237 OA
ATOM     76  O   UNL A   1      46.102  21.448  25.290  1.00  0.00    -0.744 OA
ENDBRANCH  69  73
ENDBRANCH  42  66
BRANCH  54  77
ATOM     77  C   UNL A   1      45.898  29.211  29.001  1.00  0.00     0.023 A 
ATOM     78  C   UNL A   1      45.057  30.120  28.318  1.00  0.00     0.031 A 
ATOM     79  C   UNL A   1      47.262  29.205  28.661  1.00  0.00     0.131 A 
ATOM     80  C   UNL A   1      45.591  30.967  27.326  1.00  0.00     0.055 A 
ATOM     81  C   UNL A   1      47.790  30.058  27.694  1.00  0.00     0.041 A 
ATOM     82  F   UNL A   1      48.118  28.386  29.297  1.00  0.00    -0.206 F 
ATOM     83  C   UNL A   1      46.955  30.939  27.018  1.00  0.00     0.022 A 
BRANCH  80  84
ATOM     84  S   UNL A   1      44.514  32.119  26.414  1.00  0.00     0.124 S 
ATOM     85  O   UNL A   1      43.441  31.266  25.917  1.00  0.00    -0.237 OA
ATOM     86  O   UNL A   1      44.139  33.085  27.443  1.00  0.00    -0.237 OA
ATOM     87  O   UNL A   1      45.394  32.657  25.374  1.00  0.00    -0.744 OA
ENDBRANCH  80  84
ENDBRANCH  54  77
ENDBRANCH  28  29
ENDBRANCH  21  23
ENDBRANCH  20  21
ENDBRANCH  19  20
ENDBRANCH   1  19
TORSDOF 17
ENDMDL
MODEL 2
REMARK VINA RESULT:     -11.1      3.658      6.330
REMARK SMILES COc1ncccc1Cn1ccc(C(=O)OCCOC(=O)c2ccc(-c3c4nc(c(-c5cc(S(=O)(=O)[O-])ccc5F)c5ccc([nH]5)c(-c5cc(S(=O)(=O)[O-])ccc5F)c5nc(c(-c6cc(S(=O)(=O)[O-])ccc6F)c6ccc3[nH]6)C=C5)C=C4)cc2)n1
REMARK SMILES IDX 17 1 16 2 14 3 15 4 13 5 10 6 11 7 85 8 12 9 9 10 8 11 3 12
REMARK SMILES IDX 4 13 5 14 7 15 6 16 2 17 1 18 18 19 19 20 20 21 21 22 22 23
REMARK SMILES IDX 23 24 84 25 24 26 83 27 25 28 26 29 27 30 77 31 28 32 82 33
REMARK SMILES IDX 76 34 78 35 29 36 81 37 75 38 74 39 30 41 62 42 42 43 61 44
REMARK SMILES IDX 43 45 46 46 60 47 79 48 44 49 45 50 59 52 80 53 47 54 31 55
REMARK SMILES IDX 32 56 40 57 33 58 39 59 41 60 38 61 34 62 35 63 36 64 37 65
REMARK SMILES IDX 63 66 64 67 72 68 65 69 71 70 73 71 70 72 66 73 67 74 68 75
REMARK SMILES IDX 69 76 48 77 49 78 57 79 50 80 56 81 58 82 55 83 51 84 52 85
REMARK SMILES IDX 53 86 54 87
REMARK H PARENT 78 40 46 51
REMARK Flexibility Score: inf
ROOT
ATOM      1  C   UNL A   1      33.002  33.694  28.116  1.00  0.00     0.275 C 
ENDROOT
BRANCH   1   2
ATOM      2  O   UNL A   1      33.394  34.060  29.442  1.00  0.00    -0.457 OA
BRANCH   2   3
ATOM      3  C   UNL A   1      33.111  35.367  29.795  1.00  0.00     0.358 C 
ATOM      4  O   UNL A   1      32.414  36.110  29.136  1.00  0.00    -0.244 OA
BRANCH   3   5
ATOM      5  C   UNL A   1      33.593  35.687  31.142  1.00  0.00     0.170 A 
ATOM      6  N   UNL A   1      34.246  35.509  33.161  1.00  0.00    -0.267 N 
ATOM      7  C   UNL A   1      33.825  36.802  33.041  1.00  0.00     0.110 A 
ATOM      8  N   UNL A   1      34.082  34.796  32.020  1.00  0.00    -0.165 NA
ATOM      9  C   UNL A   1      33.531  36.986  31.715  1.00  0.00     0.057 A 
BRANCH   6  10
ATOM     10  C   UNL A   1      34.930  34.874  34.290  1.00  0.00     0.185 C 
BRANCH  10  11
ATOM     11  C   UNL A   1      36.322  34.404  33.990  1.00  0.00     0.036 A 
ATOM     12  C   UNL A   1      37.014  33.560  34.856  1.00  0.00     0.218 A 
ATOM     13  N   UNL A   1      38.255  33.082  34.625  1.00  0.00    -0.222 NA
ATOM     14  C   UNL A   1      38.837  33.452  33.461  1.00  0.00     0.115 A 
ATOM     15  C   UNL A   1      36.967  34.773  32.803  1.00  0.00     0.013 A 
ATOM     16  C   UNL A   1      38.247  34.299  32.537  1.00  0.00     0.021 A 
BRANCH  12  17
ATOM     17  O   UNL A   1      36.481  33.295  36.095  1.00  0.00    -0.481 OA
ATOM     18  C   UNL A   1      37.458  33.444  37.122  1.00  0.00     0.280 C 
ENDBRANCH  12  17
ENDBRANCH  10  11
ENDBRANCH   6  10
ENDBRANCH   3   5
ENDBRANCH   2   3
ENDBRANCH   1   2
BRANCH   1  19
ATOM     19  C   UNL A   1      33.619  32.361  27.699  1.00  0.00     0.275 C 
BRANCH  19  20
ATOM     20  O   UNL A   1      34.618  31.921  28.623  1.00  0.00    -0.458 OA
BRANCH  20  21
ATOM     21  C   UNL A   1      35.870  32.346  28.334  1.00  0.00     0.338 C 
ATOM     22  O   UNL A   1      36.174  33.192  27.511  1.00  0.00    -0.246 OA
BRANCH  21  23
ATOM     23  C   UNL A   1      36.858  31.503  29.018  1.00  0.00     0.060 A 
ATOM     24  C   UNL A   1      37.988  32.123  29.564  1.00  0.00     0.016 A 
ATOM     25  C   UNL A   1      36.783  30.111  28.874  1.00  0.00     0.016 A 
ATOM     26  C   UNL A   1      39.103  31.353  29.840  1.00  0.00     0.010 A 
ATOM     27  C   UNL A   1      37.901  29.350  29.132  1.00  0.00     0.010 A 
ATOM     28  C   UNL A   1      39.069  29.985  29.553  1.00  0.00    -0.014 A 
BRANCH  28  29
ATOM     29  C   UNL A   1      40.271  29.198  29.764  1.00  0.00     0.031 A 
ATOM     30  C   UNL A   1      40.660  29.040  31.185  1.00  0.00     0.074 A 
ATOM     31  C   UNL A   1      40.868  28.520  28.765  1.00  0.00     0.049 A 
ATOM     32  N   UNL A   1      41.769  29.371  31.756  1.00  0.00    -0.248 NA
ATOM     33  C   UNL A   1      39.628  28.554  32.116  1.00  0.00     0.031 C 
ATOM     34  C   UNL A   1      40.389  28.367  27.389  1.00  0.00     0.029 A 
ATOM     35  N   UNL A   1      41.966  27.714  28.806  1.00  0.00    -0.354 N 
ATOM     36  C   UNL A   1      41.658  28.939  33.074  1.00  0.00     0.074 A 
ATOM     37  C   UNL A   1      40.272  28.622  33.279  1.00  0.00     0.031 C 
ATOM     38  C   UNL A   1      41.058  27.352  26.796  1.00  0.00     0.029 A 
ATOM     39  C   UNL A   1      42.089  26.876  27.704  1.00  0.00     0.049 A 
ATOM     40  H   UNL A   1      42.613  27.724  29.548  1.00  0.00     0.167 HD
ATOM     41  C   UNL A   1      42.757  28.652  33.822  1.00  0.00     0.034 A 
ATOM     42  C   UNL A   1      42.926  25.814  27.572  1.00  0.00     0.034 A 
ATOM     43  C   UNL A   1      43.935  29.287  33.279  1.00  0.00     0.049 A 
ATOM     44  C   UNL A   1      44.021  25.988  28.555  1.00  0.00     0.074 A 
ATOM     45  C   UNL A   1      44.305  30.596  33.035  1.00  0.00     0.029 A 
ATOM     46  N   UNL A   1      44.818  28.512  32.561  1.00  0.00    -0.354 N 
ATOM     47  N   UNL A   1      44.893  26.956  28.497  1.00  0.00    -0.248 NA
ATOM     48  C   UNL A   1      43.906  25.342  29.853  1.00  0.00     0.031 C 
ATOM     49  C   UNL A   1      45.069  30.551  31.832  1.00  0.00     0.029 A 
ATOM     50  C   UNL A   1      45.169  29.215  31.435  1.00  0.00     0.049 A 
ATOM     51  H   UNL A   1      45.139  27.616  32.810  1.00  0.00     0.167 HD
ATOM     52  C   UNL A   1      45.110  27.324  29.815  1.00  0.00     0.074 A 
ATOM     53  C   UNL A   1      44.584  26.215  30.605  1.00  0.00     0.031 C 
ATOM     54  C   UNL A   1      45.435  28.610  30.143  1.00  0.00     0.034 A 
BRANCH  41  55
ATOM     55  C   UNL A   1      42.829  27.518  34.824  1.00  0.00     0.023 A 
ATOM     56  C   UNL A   1      43.563  26.376  34.450  1.00  0.00     0.031 A 
ATOM     57  C   UNL A   1      42.011  27.368  35.969  1.00  0.00     0.131 A 
ATOM     58  C   UNL A   1      43.390  25.151  35.120  1.00  0.00     0.055 A 
ATOM     59  C   UNL A   1      41.898  26.167  36.676  1.00  0.00     0.041 A 
ATOM     60  F   UNL A   1      41.202  28.333  36.420  1.00  0.00    -0.206 F 
ATOM     61  C   UNL A   1      42.563  25.039  36.232  1.00  0.00     0.022 A 
BRANCH  58  62
ATOM     62  S   UNL A   1      44.114  23.663  34.385  1.00  0.00     0.124 S 
ATOM     63  O   UNL A   1      42.923  22.938  33.956  1.00  0.00    -0.237 OA
ATOM     64  O   UNL A   1      44.944  24.226  33.327  1.00  0.00    -0.237 OA
ATOM     65  O   UNL A   1      44.843  23.060  35.498  1.00  0.00    -0.744 OA
ENDBRANCH  58  62
ENDBRANCH  41  55
BRANCH  42  66
ATOM     66  C   UNL A   1      42.638  24.536  26.871  1.00  0.00     0.023 A 
ATOM     67  C   UNL A   1      43.571  23.903  26.027  1.00  0.00     0.031 A 
ATOM     68  C   UNL A   1      41.485  23.794  27.215  1.00  0.00     0.131 A 
ATOM     69  C   UNL A   1      43.328  22.589  25.561  1.00  0.00     0.055 A 
ATOM     70  C   UNL A   1      41.244  22.504  26.742  1.00  0.00     0.041 A 
ATOM     71  F   UNL A   1      40.588  24.271  28.095  1.00  0.00    -0.206 F 
ATOM     72  C   UNL A   1      42.171  21.891  25.917  1.00  0.00     0.022 A 
BRANCH  69  73
ATOM     73  S   UNL A   1      44.576  21.728  24.551  1.00  0.00     0.124 S 
ATOM     74  O   UNL A   1      44.161  20.336  24.665  1.00  0.00    -0.237 OA
ATOM     75  O   UNL A   1      44.405  22.353  23.245  1.00  0.00    -0.237 OA
ATOM     76  O   UNL A   1      45.837  22.050  25.220  1.00  0.00    -0.744 OA
ENDBRANCH  69  73
ENDBRANCH  42  66
BRANCH  54  77
ATOM     77  C   UNL A   1      45.885  29.534  29.027  1.00  0.00     0.023 A 
ATOM     78  C   UNL A   1      45.072  30.523  28.426  1.00  0.00     0.031 A 
ATOM     79  C   UNL A   1      47.234  29.474  28.638  1.00  0.00     0.131 A 
ATOM     80  C   UNL A   1      45.618  31.394  27.462  1.00  0.00     0.055 A 
ATOM     81  C   UNL A   1      47.775  30.350  27.698  1.00  0.00     0.041 A 
ATOM     82  F   UNL A   1      48.064  28.577  29.196  1.00  0.00    -0.206 F 
ATOM     83  C   UNL A   1      46.967  31.311  27.101  1.00  0.00     0.022 A 
BRANCH  80  84
ATOM     84  S   UNL A   1      44.575  32.651  26.653  1.00  0.00     0.124 S 
ATOM     85  O   UNL A   1      43.831  31.890  25.658  1.00  0.00    -0.237 OA
ATOM     86  O   UNL A   1      43.796  33.182  27.769  1.00  0.00    -0.237 OA
ATOM     87  O   UNL A   1      45.549  33.593  26.095  1.00  0.00    -0.744 OA
ENDBRANCH  80  84
ENDBRANCH  54  77
ENDBRANCH  28  29
ENDBRANCH  21  23
ENDBRANCH  20  21
ENDBRANCH  19  20
ENDBRANCH   1  19
TORSDOF 17
ENDMDL
MODEL 3
REMARK VINA RESULT:     -11.0      2.403      7.281
REMARK SMILES COc1ncccc1Cn1ccc(C(=O)OCCOC(=O)c2ccc(-c3c4nc(c(-c5cc(S(=O)(=O)[O-])ccc5F)c5ccc([nH]5)c(-c5cc(S(=O)(=O)[O-])ccc5F)c5nc(c(-c6cc(S(=O)(=O)[O-])ccc6F)c6ccc3[nH]6)C=C5)C=C4)cc2)n1
REMARK SMILES IDX 17 1 16 2 14 3 15 4 13 5 10 6 11 7 85 8 12 9 9 10 8 11 3 12
REMARK SMILES IDX 4 13 5 14 7 15 6 16 2 17 1 18 18 19 19 20 20 21 21 22 22 23
REMARK SMILES IDX 23 24 84 25 24 26 83 27 25 28 26 29 27 30 77 31 28 32 82 33
REMARK SMILES IDX 76 34 78 35 29 36 81 37 75 38 74 39 30 41 62 42 42 43 61 44
REMARK SMILES IDX 43 45 46 46 60 47 79 48 44 49 45 50 59 52 80 53 47 54 31 55
REMARK SMILES IDX 32 56 40 57 33 58 39 59 41 60 38 61 34 62 35 63 36 64 37 65
REMARK SMILES IDX 63 66 64 67 72 68 65 69 71 70 73 71 70 72 66 73 67 74 68 75
REMARK SMILES IDX 69 76 48 77 49 78 57 79 50 80 56 81 58 82 55 83 51 84 52 85
REMARK SMILES IDX 53 86 54 87
REMARK H PARENT 78 40 46 51
REMARK Flexibility Score: inf
ROOT
ATOM      1  C   UNL A   1      33.582  29.921  27.255  1.00  0.00     0.275 C 
ENDROOT
BRANCH   1   2
ATOM      2  O   UNL A   1      34.020  29.249  26.072  1.00  0.00    -0.457 OA
BRANCH   2   3
ATOM      3  C   UNL A   1      33.018  28.626  25.349  1.00  0.00     0.358 C 
ATOM      4  O   UNL A   1      32.082  29.212  24.847  1.00  0.00    -0.244 OA
BRANCH   3   5
ATOM      5  C   UNL A   1      33.317  27.212  25.105  1.00  0.00     0.170 A 
ATOM      6  N   UNL A   1      33.923  25.189  25.373  1.00  0.00    -0.267 N 
ATOM      7  C   UNL A   1      34.005  25.404  24.028  1.00  0.00     0.110 A 
ATOM      8  N   UNL A   1      33.536  26.292  26.058  1.00  0.00    -0.165 NA
ATOM      9  C   UNL A   1      33.485  26.653  23.809  1.00  0.00     0.057 A 
BRANCH   6  10
ATOM     10  C   UNL A   1      34.082  23.931  26.106  1.00  0.00     0.185 C 
BRANCH  10  11
ATOM     11  C   UNL A   1      35.331  23.169  25.774  1.00  0.00     0.036 A 
ATOM     12  C   UNL A   1      35.285  21.872  25.266  1.00  0.00     0.218 A 
ATOM     13  N   UNL A   1      36.373  21.150  24.922  1.00  0.00    -0.222 NA
ATOM     14  C   UNL A   1      37.573  21.756  25.078  1.00  0.00     0.115 A 
ATOM     15  C   UNL A   1      36.593  23.753  25.931  1.00  0.00     0.013 A 
ATOM     16  C   UNL A   1      37.733  23.034  25.587  1.00  0.00     0.021 A 
BRANCH  12  17
ATOM     17  O   UNL A   1      34.082  21.210  25.238  1.00  0.00    -0.481 OA
ATOM     18  C   UNL A   1      34.243  19.858  24.816  1.00  0.00     0.280 C 
ENDBRANCH  12  17
ENDBRANCH  10  11
ENDBRANCH   6  10
ENDBRANCH   3   5
ENDBRANCH   2   3
ENDBRANCH   1   2
BRANCH   1  19
ATOM     19  C   UNL A   1      34.563  31.015  27.671  1.00  0.00     0.275 C 
BRANCH  19  20
ATOM     20  O   UNL A   1      35.920  30.565  27.620  1.00  0.00    -0.458 OA
BRANCH  20  21
ATOM     21  C   UNL A   1      36.397  30.102  28.799  1.00  0.00     0.338 C 
ATOM     22  O   UNL A   1      36.016  30.427  29.911  1.00  0.00    -0.246 OA
BRANCH  21  23
ATOM     23  C   UNL A   1      37.592  29.281  28.570  1.00  0.00     0.060 A 
ATOM     24  C   UNL A   1      38.033  28.455  29.611  1.00  0.00     0.016 A 
ATOM     25  C   UNL A   1      38.394  29.541  27.451  1.00  0.00     0.016 A 
ATOM     26  C   UNL A   1      39.337  27.997  29.592  1.00  0.00     0.010 A 
ATOM     27  C   UNL A   1      39.699  29.100  27.445  1.00  0.00     0.010 A 
ATOM     28  C   UNL A   1      40.176  28.385  28.543  1.00  0.00    -0.014 A 
BRANCH  28  29
ATOM     29  C   UNL A   1      41.568  27.972  28.573  1.00  0.00     0.031 A 
ATOM     30  C   UNL A   1      41.845  26.694  27.877  1.00  0.00     0.074 A 
ATOM     31  C   UNL A   1      42.544  28.778  29.034  1.00  0.00     0.049 A 
ATOM     32  N   UNL A   1      42.372  25.617  28.355  1.00  0.00    -0.248 NA
ATOM     33  C   UNL A   1      41.361  26.561  26.493  1.00  0.00     0.031 C 
ATOM     34  C   UNL A   1      42.413  30.173  29.461  1.00  0.00     0.029 A 
ATOM     35  N   UNL A   1      43.887  28.557  29.093  1.00  0.00    -0.354 N 
ATOM     36  C   UNL A   1      42.484  24.743  27.278  1.00  0.00     0.074 A 
ATOM     37  C   UNL A   1      41.686  25.299  26.222  1.00  0.00     0.031 C 
ATOM     38  C   UNL A   1      43.641  30.737  29.519  1.00  0.00     0.029 A 
ATOM     39  C   UNL A   1      44.641  29.714  29.258  1.00  0.00     0.049 A 
ATOM     40  H   UNL A   1      44.288  27.660  29.025  1.00  0.00     0.167 HD
ATOM     41  C   UNL A   1      43.416  23.751  27.263  1.00  0.00     0.034 A 
ATOM     42  C   UNL A   1      45.985  29.843  29.114  1.00  0.00     0.034 A 
ATOM     43  C   UNL A   1      43.872  23.446  28.598  1.00  0.00     0.049 A 
ATOM     44  C   UNL A   1      46.577  28.493  29.253  1.00  0.00     0.074 A 
ATOM     45  C   UNL A   1      43.258  23.005  29.755  1.00  0.00     0.029 A 
ATOM     46  N   UNL A   1      45.099  23.932  28.992  1.00  0.00    -0.354 N 
ATOM     47  N   UNL A   1      46.546  27.802  30.359  1.00  0.00    -0.248 NA
ATOM     48  C   UNL A   1      46.836  27.714  28.051  1.00  0.00     0.031 C 
ATOM     49  C   UNL A   1      43.936  23.672  30.817  1.00  0.00     0.029 A 
ATOM     50  C   UNL A   1      44.958  24.443  30.259  1.00  0.00     0.049 A 
ATOM     51  H   UNL A   1      45.927  23.915  28.462  1.00  0.00     0.167 HD
ATOM     52  C   UNL A   1      46.344  26.490  29.959  1.00  0.00     0.074 A 
ATOM     53  C   UNL A   1      46.665  26.480  28.535  1.00  0.00     0.031 C 
ATOM     54  C   UNL A   1      45.669  25.608  30.754  1.00  0.00     0.034 A 
BRANCH  41  55
ATOM     55  C   UNL A   1      44.168  23.313  26.023  1.00  0.00     0.023 A 
ATOM     56  C   UNL A   1      44.069  21.957  25.657  1.00  0.00     0.031 A 
ATOM     57  C   UNL A   1      45.178  24.050  25.361  1.00  0.00     0.131 A 
ATOM     58  C   UNL A   1      44.997  21.374  24.775  1.00  0.00     0.055 A 
ATOM     59  C   UNL A   1      46.052  23.483  24.428  1.00  0.00     0.041 A 
ATOM     60  F   UNL A   1      45.448  25.331  25.637  1.00  0.00    -0.206 F 
ATOM     61  C   UNL A   1      45.988  22.129  24.156  1.00  0.00     0.022 A 
BRANCH  58  62
ATOM     62  S   UNL A   1      45.004  19.572  24.606  1.00  0.00     0.124 S 
ATOM     63  O   UNL A   1      44.012  19.180  25.603  1.00  0.00    -0.237 OA
ATOM     64  O   UNL A   1      44.620  19.401  23.210  1.00  0.00    -0.237 OA
ATOM     65  O   UNL A   1      46.383  19.210  24.924  1.00  0.00    -0.744 OA
ENDBRANCH  58  62
ENDBRANCH  41  55
BRANCH  42  66
ATOM     66  C   UNL A   1      46.712  31.013  28.556  1.00  0.00     0.023 A 
ATOM     67  C   UNL A   1      46.184  31.819  27.528  1.00  0.00     0.031 A 
ATOM     68  C   UNL A   1      47.872  31.491  29.208  1.00  0.00     0.131 A 
ATOM     69  C   UNL A   1      46.817  33.037  27.187  1.00  0.00     0.055 A 
ATOM     70  C   UNL A   1      48.499  32.687  28.858  1.00  0.00     0.041 A 
ATOM     71  F   UNL A   1      48.390  30.846  30.267  1.00  0.00    -0.206 F 
ATOM     72  C   UNL A   1      47.968  33.472  27.849  1.00  0.00     0.022 A 
BRANCH  69  73
ATOM     73  S   UNL A   1      46.084  34.131  25.928  1.00  0.00     0.124 S 
ATOM     74  O   UNL A   1      45.369  35.106  26.742  1.00  0.00    -0.237 OA
ATOM     75  O   UNL A   1      47.260  34.616  25.215  1.00  0.00    -0.237 OA
ATOM     76  O   UNL A   1      45.228  33.232  25.152  1.00  0.00    -0.744 OA
ENDBRANCH  69  73
ENDBRANCH  42  66
BRANCH  54  77
ATOM     77  C   UNL A   1      45.446  25.987  32.205  1.00  0.00     0.023 A 
ATOM     78  C   UNL A   1      44.304  26.663  32.694  1.00  0.00     0.031 A 
ATOM     79  C   UNL A   1      46.392  25.542  33.145  1.00  0.00     0.131 A 
ATOM     80  C   UNL A   1      44.152  26.883  34.077  1.00  0.00     0.055 A 
ATOM     81  C   UNL A   1      46.228  25.745  34.515  1.00  0.00     0.041 A 
ATOM     82  F   UNL A   1      47.482  24.866  32.746  1.00  0.00    -0.206 F 
ATOM     83  C   UNL A   1      45.109  26.422  34.986  1.00  0.00     0.022 A 
BRANCH  80  84
ATOM     84  S   UNL A   1      42.702  27.782  34.719  1.00  0.00     0.124 S 
ATOM     85  O   UNL A   1      42.523  27.233  36.057  1.00  0.00    -0.237 OA
ATOM     86  O   UNL A   1      43.139  29.175  34.651  1.00  0.00    -0.237 OA
ATOM     87  O   UNL A   1      41.641  27.436  33.771  1.00  0.00    -0.744 OA
ENDBRANCH  80  84
ENDBRANCH  54  77
ENDBRANCH  28  29
ENDBRANCH  21  23
ENDBRANCH  20  21
ENDBRANCH  19  20
ENDBRANCH   1  19
TORSDOF 17
ENDMDL
