MODEL 1
REMARK VINA RESULT:     -11.9      0.000      0.000
REMARK SMILES Cc1c([C@@H]2[C@H](C(=O)OCCOC(=O)c3ccc(-c4c5nc(c(-c6cc(S(=O)(=O)[O-])ccc6F)c6ccc([nH]6)c(-c6cc(S(=O)(=O)[O-])ccc6F)c6nc(c(-c7cc(S(=O)(=O)[O-])ccc7F)c7ccc4[nH]7)C=C6)C=C5)cc3)CC(=O)N2C(C)C)cnn1C
REMARK SMILES IDX 10 1 9 2 8 3 6 4 7 5 5 6 4 7 80 8 77 9 78 10 79 11 3 12 1 13
REMARK SMILES IDX 2 14 86 15 84 16 85 17 87 18 81 19 82 20 83 21 11 22 12 23
REMARK SMILES IDX 13 24 14 25 15 26 76 27 16 28 75 29 17 30 18 31 19 32 69 33
REMARK SMILES IDX 20 34 74 35 68 36 70 37 21 38 73 39 67 40 66 41 22 43 54 44
REMARK SMILES IDX 34 45 53 46 35 47 38 48 52 49 71 50 36 51 37 52 51 54 72 55
REMARK SMILES IDX 39 56 23 57 24 58 32 59 25 60 31 61 33 62 30 63 26 64 27 65
REMARK SMILES IDX 28 66 29 67 55 68 56 69 64 70 57 71 63 72 65 73 62 74 58 75
REMARK SMILES IDX 59 76 60 77 61 78 40 79 41 80 49 81 42 82 48 83 50 84 47 85
REMARK SMILES IDX 43 86 44 87 45 88 46 89
REMARK H PARENT 70 42 38 53
REMARK Flexibility Score: inf
ROOT
ATOM      1  C   UNL A   1      36.882  20.327  25.016  1.00  0.00     0.275 C 
ENDROOT
BRANCH   1   2
ATOM      2  C   UNL A   1      35.418  20.657  24.735  1.00  0.00     0.274 C 
BRANCH   2   3
ATOM      3  O   UNL A   1      34.800  21.421  25.798  1.00  0.00    -0.462 OA
BRANCH   3   4
ATOM      4  C   UNL A   1      33.790  22.227  25.387  1.00  0.00     0.312 C 
ATOM      5  O   UNL A   1      33.137  22.039  24.361  1.00  0.00    -0.252 OA
BRANCH   4   6
ATOM      6  C   UNL A   1      33.643  23.526  26.142  1.00  0.00     0.136 C 
ATOM      7  C   UNL A   1      32.942  24.757  25.597  1.00  0.00     0.134 C 
ATOM      8  N   UNL A   1      31.531  24.470  25.773  1.00  0.00    -0.332 N 
ATOM      9  C   UNL A   1      32.751  23.179  27.336  1.00  0.00     0.118 C 
ATOM     10  C   UNL A   1      31.377  23.582  26.844  1.00  0.00     0.224 C 
ATOM     11  O   UNL A   1      30.331  23.231  27.367  1.00  0.00    -0.275 OA
BRANCH   7  12
ATOM     12  C   UNL A   1      33.386  25.400  24.331  1.00  0.00     0.016 A 
ATOM     13  C   UNL A   1      33.773  27.864  25.148  1.00  0.00     0.067 C 
ATOM     14  C   UNL A   1      33.693  26.753  24.159  1.00  0.00     0.040 A 
ATOM     15  N   UNL A   1      33.874  26.941  22.810  1.00  0.00    -0.273 N 
ATOM     16  C   UNL A   1      33.523  24.868  23.033  1.00  0.00     0.141 A 
ATOM     17  N   UNL A   1      33.787  25.796  22.113  1.00  0.00    -0.181 NA
ATOM     18  C   UNL A   1      34.029  28.197  22.105  1.00  0.00     0.174 C 
ENDBRANCH   7  12
BRANCH   8  19
ATOM     19  C   UNL A   1      30.394  25.254  25.270  1.00  0.00     0.079 C 
ATOM     20  C   UNL A   1      30.424  26.719  25.702  1.00  0.00     0.031 C 
ATOM     21  C   UNL A   1      30.178  25.102  23.766  1.00  0.00     0.031 C 
ENDBRANCH   8  19
ENDBRANCH   4   6
ENDBRANCH   3   4
ENDBRANCH   2   3
ENDBRANCH   1   2
BRANCH   1  22
ATOM     22  O   UNL A   1      37.496  21.378  25.778  1.00  0.00    -0.458 OA
BRANCH  22  23
ATOM     23  C   UNL A   1      38.818  21.203  26.004  1.00  0.00     0.338 C 
ATOM     24  O   UNL A   1      39.455  20.180  25.834  1.00  0.00    -0.246 OA
BRANCH  23  25
ATOM     25  C   UNL A   1      39.409  22.439  26.536  1.00  0.00     0.060 A 
ATOM     26  C   UNL A   1      38.961  23.694  26.115  1.00  0.00     0.016 A 
ATOM     27  C   UNL A   1      40.509  22.330  27.385  1.00  0.00     0.016 A 
ATOM     28  C   UNL A   1      39.624  24.847  26.524  1.00  0.00     0.010 A 
ATOM     29  C   UNL A   1      41.150  23.486  27.827  1.00  0.00     0.010 A 
ATOM     30  C   UNL A   1      40.720  24.749  27.388  1.00  0.00    -0.014 A 
BRANCH  30  31
ATOM     31  C   UNL A   1      41.432  25.967  27.834  1.00  0.00     0.031 A 
ATOM     32  C   UNL A   1      40.695  27.028  28.595  1.00  0.00     0.074 A 
ATOM     33  C   UNL A   1      42.729  26.122  27.513  1.00  0.00     0.049 A 
ATOM     34  N   UNL A   1      41.086  28.230  28.926  1.00  0.00    -0.248 NA
ATOM     35  C   UNL A   1      39.332  26.690  29.030  1.00  0.00     0.031 C 
ATOM     36  C   UNL A   1      43.545  25.133  26.807  1.00  0.00     0.029 A 
ATOM     37  N   UNL A   1      43.581  27.176  27.716  1.00  0.00    -0.354 N 
ATOM     38  C   UNL A   1      40.010  28.807  29.590  1.00  0.00     0.074 A 
ATOM     39  C   UNL A   1      38.945  27.824  29.594  1.00  0.00     0.031 C 
ATOM     40  C   UNL A   1      44.774  25.636  26.616  1.00  0.00     0.029 A 
ATOM     41  C   UNL A   1      44.810  27.002  27.128  1.00  0.00     0.049 A 
ATOM     42  H   UNL A   1      43.336  27.979  28.231  1.00  0.00     0.167 HD
ATOM     43  C   UNL A   1      39.927  30.045  30.141  1.00  0.00     0.034 A 
ATOM     44  C   UNL A   1      45.832  27.864  26.970  1.00  0.00     0.034 A 
ATOM     45  C   UNL A   1      41.002  31.008  30.106  1.00  0.00     0.049 A 
ATOM     46  C   UNL A   1      45.694  29.256  27.524  1.00  0.00     0.074 A 
ATOM     47  C   UNL A   1      41.039  32.285  30.639  1.00  0.00     0.029 A 
ATOM     48  N   UNL A   1      42.232  30.804  29.487  1.00  0.00    -0.354 N 
ATOM     49  N   UNL A   1      44.671  29.799  28.144  1.00  0.00    -0.248 NA
ATOM     50  C   UNL A   1      46.847  30.147  27.362  1.00  0.00     0.031 C 
ATOM     51  C   UNL A   1      42.262  32.872  30.290  1.00  0.00     0.029 A 
ATOM     52  C   UNL A   1      43.021  31.940  29.600  1.00  0.00     0.049 A 
ATOM     53  H   UNL A   1      42.504  29.972  29.036  1.00  0.00     0.167 HD
ATOM     54  C   UNL A   1      45.062  31.096  28.456  1.00  0.00     0.074 A 
ATOM     55  C   UNL A   1      46.422  31.243  27.974  1.00  0.00     0.031 C 
ATOM     56  C   UNL A   1      44.365  32.075  29.088  1.00  0.00     0.034 A 
BRANCH  43  57
ATOM     57  C   UNL A   1      38.607  30.432  30.764  1.00  0.00     0.023 A 
ATOM     58  C   UNL A   1      37.585  31.043  30.017  1.00  0.00     0.031 A 
ATOM     59  C   UNL A   1      38.387  30.234  32.139  1.00  0.00     0.131 A 
ATOM     60  C   UNL A   1      36.427  31.508  30.660  1.00  0.00     0.055 A 
ATOM     61  C   UNL A   1      37.200  30.628  32.760  1.00  0.00     0.041 A 
ATOM     62  F   UNL A   1      39.334  29.675  32.910  1.00  0.00    -0.206 F 
ATOM     63  C   UNL A   1      36.217  31.285  32.023  1.00  0.00     0.022 A 
BRANCH  60  64
ATOM     64  S   UNL A   1      35.272  32.544  29.719  1.00  0.00     0.124 S 
ATOM     65  O   UNL A   1      36.142  33.625  29.257  1.00  0.00    -0.237 OA
ATOM     66  O   UNL A   1      34.795  31.629  28.689  1.00  0.00    -0.237 OA
ATOM     67  O   UNL A   1      34.277  32.939  30.714  1.00  0.00    -0.744 OA
ENDBRANCH  60  64
ENDBRANCH  43  57
BRANCH  44  68
ATOM     68  C   UNL A   1      47.037  27.452  26.200  1.00  0.00     0.023 A 
ATOM     69  C   UNL A   1      47.169  27.757  24.838  1.00  0.00     0.031 A 
ATOM     70  C   UNL A   1      48.078  26.741  26.825  1.00  0.00     0.131 A 
ATOM     71  C   UNL A   1      48.308  27.332  24.137  1.00  0.00     0.055 A 
ATOM     72  C   UNL A   1      49.228  26.360  26.135  1.00  0.00     0.041 A 
ATOM     73  F   UNL A   1      48.000  26.431  28.129  1.00  0.00    -0.206 F 
ATOM     74  C   UNL A   1      49.344  26.648  24.779  1.00  0.00     0.022 A 
BRANCH  71  75
ATOM     75  S   UNL A   1      48.393  27.639  22.352  1.00  0.00     0.124 S 
ATOM     76  O   UNL A   1      47.162  28.385  22.119  1.00  0.00    -0.237 OA
ATOM     77  O   UNL A   1      49.635  28.397  22.235  1.00  0.00    -0.237 OA
ATOM     78  O   UNL A   1      48.429  26.296  21.777  1.00  0.00    -0.744 OA
ENDBRANCH  71  75
ENDBRANCH  44  68
BRANCH  56  79
ATOM     79  C   UNL A   1      45.089  33.379  29.313  1.00  0.00     0.023 A 
ATOM     80  C   UNL A   1      44.984  34.446  28.405  1.00  0.00     0.031 A 
ATOM     81  C   UNL A   1      45.921  33.540  30.435  1.00  0.00     0.131 A 
ATOM     82  C   UNL A   1      45.742  35.609  28.605  1.00  0.00     0.055 A 
ATOM     83  C   UNL A   1      46.629  34.720  30.658  1.00  0.00     0.041 A 
ATOM     84  F   UNL A   1      46.060  32.550  31.330  1.00  0.00    -0.206 F 
ATOM     85  C   UNL A   1      46.553  35.759  29.734  1.00  0.00     0.022 A 
BRANCH  82  86
ATOM     86  S   UNL A   1      45.728  36.892  27.322  1.00  0.00     0.124 S 
ATOM     87  O   UNL A   1      46.276  38.040  28.035  1.00  0.00    -0.237 OA
ATOM     88  O   UNL A   1      46.583  36.312  26.291  1.00  0.00    -0.237 OA
ATOM     89  O   UNL A   1      44.314  37.002  26.964  1.00  0.00    -0.744 OA
ENDBRANCH  82  86
ENDBRANCH  56  79
ENDBRANCH  30  31
ENDBRANCH  23  25
ENDBRANCH  22  23
ENDBRANCH   1  22
TORSDOF 16
ENDMDL
MODEL 2
REMARK VINA RESULT:     -11.8      1.388      1.624
REMARK SMILES Cc1c([C@@H]2[C@H](C(=O)OCCOC(=O)c3ccc(-c4c5nc(c(-c6cc(S(=O)(=O)[O-])ccc6F)c6ccc([nH]6)c(-c6cc(S(=O)(=O)[O-])ccc6F)c6nc(c(-c7cc(S(=O)(=O)[O-])ccc7F)c7ccc4[nH]7)C=C6)C=C5)cc3)CC(=O)N2C(C)C)cnn1C
REMARK SMILES IDX 10 1 9 2 8 3 6 4 7 5 5 6 4 7 80 8 77 9 78 10 79 11 3 12 1 13
REMARK SMILES IDX 2 14 86 15 84 16 85 17 87 18 81 19 82 20 83 21 11 22 12 23
REMARK SMILES IDX 13 24 14 25 15 26 76 27 16 28 75 29 17 30 18 31 19 32 69 33
REMARK SMILES IDX 20 34 74 35 68 36 70 37 21 38 73 39 67 40 66 41 22 43 54 44
REMARK SMILES IDX 34 45 53 46 35 47 38 48 52 49 71 50 36 51 37 52 51 54 72 55
REMARK SMILES IDX 39 56 23 57 24 58 32 59 25 60 31 61 33 62 30 63 26 64 27 65
REMARK SMILES IDX 28 66 29 67 55 68 56 69 64 70 57 71 63 72 65 73 62 74 58 75
REMARK SMILES IDX 59 76 60 77 61 78 40 79 41 80 49 81 42 82 48 83 50 84 47 85
REMARK SMILES IDX 43 86 44 87 45 88 46 89
REMARK H PARENT 70 42 38 53
REMARK Flexibility Score: inf
ROOT
ATOM      1  C   UNL A   1      36.635  20.210  25.065  1.00  0.00     0.275 C 
ENDROOT
BRANCH   1   2
ATOM      2  C   UNL A   1      35.142  20.521  25.008  1.00  0.00     0.274 C 
BRANCH   2   3
ATOM      3  O   UNL A   1      34.851  21.764  24.326  1.00  0.00    -0.462 OA
BRANCH   3   4
ATOM      4  C   UNL A   1      33.690  22.350  24.712  1.00  0.00     0.312 C 
ATOM      5  O   UNL A   1      32.599  22.114  24.194  1.00  0.00    -0.252 OA
BRANCH   4   6
ATOM      6  C   UNL A   1      33.830  23.502  25.677  1.00  0.00     0.136 C 
ATOM      7  C   UNL A   1      33.190  24.864  25.480  1.00  0.00     0.134 C 
ATOM      8  N   UNL A   1      31.809  24.671  25.876  1.00  0.00    -0.332 N 
ATOM      9  C   UNL A   1      33.127  23.025  26.950  1.00  0.00     0.118 C 
ATOM     10  C   UNL A   1      31.743  23.623  26.802  1.00  0.00     0.224 C 
ATOM     11  O   UNL A   1      30.772  23.275  27.454  1.00  0.00    -0.275 OA
BRANCH   7  12
ATOM     12  C   UNL A   1      33.477  25.683  24.270  1.00  0.00     0.016 A 
ATOM     13  C   UNL A   1      33.932  28.025  25.364  1.00  0.00     0.067 C 
ATOM     14  C   UNL A   1      33.749  27.053  24.249  1.00  0.00     0.040 A 
ATOM     15  N   UNL A   1      33.768  27.425  22.926  1.00  0.00    -0.273 N 
ATOM     16  C   UNL A   1      33.467  25.332  22.905  1.00  0.00     0.141 A 
ATOM     17  N   UNL A   1      33.613  26.381  22.095  1.00  0.00    -0.181 NA
ATOM     18  C   UNL A   1      33.827  28.768  22.385  1.00  0.00     0.174 C 
ENDBRANCH   7  12
BRANCH   8  19
ATOM     19  C   UNL A   1      30.700  25.624  25.733  1.00  0.00     0.079 C 
ATOM     20  C   UNL A   1      30.947  26.958  26.435  1.00  0.00     0.031 C 
ATOM     21  C   UNL A   1      30.252  25.811  24.285  1.00  0.00     0.031 C 
ENDBRANCH   8  19
ENDBRANCH   4   6
ENDBRANCH   3   4
ENDBRANCH   2   3
ENDBRANCH   1   2
BRANCH   1  22
ATOM     22  O   UNL A   1      37.375  21.376  25.464  1.00  0.00    -0.458 OA
BRANCH  22  23
ATOM     23  C   UNL A   1      38.659  21.129  25.810  1.00  0.00     0.338 C 
ATOM     24  O   UNL A   1      39.244  20.065  25.722  1.00  0.00    -0.246 OA
BRANCH  23  25
ATOM     25  C   UNL A   1      39.278  22.343  26.361  1.00  0.00     0.060 A 
ATOM     26  C   UNL A   1      38.818  23.614  26.003  1.00  0.00     0.016 A 
ATOM     27  C   UNL A   1      40.411  22.200  27.159  1.00  0.00     0.016 A 
ATOM     28  C   UNL A   1      39.504  24.749  26.425  1.00  0.00     0.010 A 
ATOM     29  C   UNL A   1      41.074  23.338  27.616  1.00  0.00     0.010 A 
ATOM     30  C   UNL A   1      40.633  24.617  27.239  1.00  0.00    -0.014 A 
BRANCH  30  31
ATOM     31  C   UNL A   1      41.369  25.816  27.698  1.00  0.00     0.031 A 
ATOM     32  C   UNL A   1      40.651  26.886  28.464  1.00  0.00     0.074 A 
ATOM     33  C   UNL A   1      42.671  25.946  27.385  1.00  0.00     0.049 A 
ATOM     34  N   UNL A   1      41.066  28.077  28.807  1.00  0.00    -0.248 NA
ATOM     35  C   UNL A   1      39.280  26.574  28.891  1.00  0.00     0.031 C 
ATOM     36  C   UNL A   1      43.469  24.945  26.674  1.00  0.00     0.029 A 
ATOM     37  N   UNL A   1      43.544  26.980  27.600  1.00  0.00    -0.354 N 
ATOM     38  C   UNL A   1      40.000  28.671  29.471  1.00  0.00     0.074 A 
ATOM     39  C   UNL A   1      38.914  27.712  29.462  1.00  0.00     0.031 C 
ATOM     40  C   UNL A   1      44.709  25.424  26.493  1.00  0.00     0.029 A 
ATOM     41  C   UNL A   1      44.772  26.784  27.017  1.00  0.00     0.049 A 
ATOM     42  H   UNL A   1      43.313  27.783  28.121  1.00  0.00     0.167 HD
ATOM     43  C   UNL A   1      39.940  29.907  30.031  1.00  0.00     0.034 A 
ATOM     44  C   UNL A   1      45.812  27.626  26.870  1.00  0.00     0.034 A 
ATOM     45  C   UNL A   1      41.036  30.846  30.009  1.00  0.00     0.049 A 
ATOM     46  C   UNL A   1      45.701  29.015  27.435  1.00  0.00     0.074 A 
ATOM     47  C   UNL A   1      41.097  32.118  30.553  1.00  0.00     0.029 A 
ATOM     48  N   UNL A   1      42.264  30.621  29.395  1.00  0.00    -0.354 N 
ATOM     49  N   UNL A   1      44.687  29.575  28.054  1.00  0.00    -0.248 NA
ATOM     50  C   UNL A   1      46.874  29.884  27.285  1.00  0.00     0.031 C 
ATOM     51  C   UNL A   1      42.334  32.682  30.214  1.00  0.00     0.029 A 
ATOM     52  C   UNL A   1      43.076  31.739  29.520  1.00  0.00     0.049 A 
ATOM     53  H   UNL A   1      42.520  29.788  28.937  1.00  0.00     0.167 HD
ATOM     54  C   UNL A   1      45.104  30.861  28.379  1.00  0.00     0.074 A 
ATOM     55  C   UNL A   1      46.470  30.983  27.904  1.00  0.00     0.031 C 
ATOM     56  C   UNL A   1      44.425  31.850  29.015  1.00  0.00     0.034 A 
BRANCH  43  57
ATOM     57  C   UNL A   1      38.626  30.316  30.652  1.00  0.00     0.023 A 
ATOM     58  C   UNL A   1      37.621  30.957  29.906  1.00  0.00     0.031 A 
ATOM     59  C   UNL A   1      38.394  30.110  32.024  1.00  0.00     0.131 A 
ATOM     60  C   UNL A   1      36.471  31.441  30.547  1.00  0.00     0.055 A 
ATOM     61  C   UNL A   1      37.213  30.524  32.643  1.00  0.00     0.041 A 
ATOM     62  F   UNL A   1      39.325  29.523  32.794  1.00  0.00    -0.206 F 
ATOM     63  C   UNL A   1      36.249  31.210  31.906  1.00  0.00     0.022 A 
BRANCH  60  64
ATOM     64  S   UNL A   1      35.343  32.512  29.610  1.00  0.00     0.124 S 
ATOM     65  O   UNL A   1      34.266  32.733  30.574  1.00  0.00    -0.237 OA
ATOM     66  O   UNL A   1      36.180  33.669  29.318  1.00  0.00    -0.237 OA
ATOM     67  O   UNL A   1      34.976  31.697  28.455  1.00  0.00    -0.744 OA
ENDBRANCH  60  64
ENDBRANCH  43  57
BRANCH  44  68
ATOM     68  C   UNL A   1      47.012  27.194  26.102  1.00  0.00     0.023 A 
ATOM     69  C   UNL A   1      48.100  26.581  26.736  1.00  0.00     0.031 A 
ATOM     70  C   UNL A   1      47.080  27.393  24.710  1.00  0.00     0.131 A 
ATOM     71  C   UNL A   1      49.225  26.208  25.983  1.00  0.00     0.055 A 
ATOM     72  C   UNL A   1      48.180  26.980  23.959  1.00  0.00     0.041 A 
ATOM     73  F   UNL A   1      46.059  27.971  24.057  1.00  0.00    -0.206 F 
ATOM     74  C   UNL A   1      49.266  26.390  24.598  1.00  0.00     0.022 A 
BRANCH  71  75
ATOM     75  S   UNL A   1      50.663  25.526  26.852  1.00  0.00     0.124 S 
ATOM     76  O   UNL A   1      51.140  26.686  27.596  1.00  0.00    -0.237 OA
ATOM     77  O   UNL A   1      50.060  24.458  27.643  1.00  0.00    -0.237 OA
ATOM     78  O   UNL A   1      51.535  25.079  25.767  1.00  0.00    -0.744 OA
ENDBRANCH  71  75
ENDBRANCH  44  68
BRANCH  56  79
ATOM     79  C   UNL A   1      45.176  33.136  29.254  1.00  0.00     0.023 A 
ATOM     80  C   UNL A   1      45.192  34.168  28.301  1.00  0.00     0.031 A 
ATOM     81  C   UNL A   1      45.911  33.315  30.439  1.00  0.00     0.131 A 
ATOM     82  C   UNL A   1      45.973  35.311  28.523  1.00  0.00     0.055 A 
ATOM     83  C   UNL A   1      46.641  34.478  30.680  1.00  0.00     0.041 A 
ATOM     84  F   UNL A   1      45.932  32.358  31.381  1.00  0.00    -0.206 F 
ATOM     85  C   UNL A   1      46.687  35.480  29.713  1.00  0.00     0.022 A 
BRANCH  82  86
ATOM     86  S   UNL A   1      46.121  36.539  27.196  1.00  0.00     0.124 S 
ATOM     87  O   UNL A   1      47.100  37.467  27.750  1.00  0.00    -0.237 OA
ATOM     88  O   UNL A   1      46.574  35.729  26.069  1.00  0.00    -0.237 OA
ATOM     89  O   UNL A   1      44.765  37.071  27.069  1.00  0.00    -0.744 OA
ENDBRANCH  82  86
ENDBRANCH  56  79
ENDBRANCH  30  31
ENDBRANCH  23  25
ENDBRANCH  22  23
ENDBRANCH   1  22
TORSDOF 16
ENDMDL
MODEL 3
REMARK VINA RESULT:     -11.7      5.112      9.948
REMARK SMILES Cc1c([C@@H]2[C@H](C(=O)OCCOC(=O)c3ccc(-c4c5nc(c(-c6cc(S(=O)(=O)[O-])ccc6F)c6ccc([nH]6)c(-c6cc(S(=O)(=O)[O-])ccc6F)c6nc(c(-c7cc(S(=O)(=O)[O-])ccc7F)c7ccc4[nH]7)C=C6)C=C5)cc3)CC(=O)N2C(C)C)cnn1C
REMARK SMILES IDX 10 1 9 2 8 3 6 4 7 5 5 6 4 7 80 8 77 9 78 10 79 11 3 12 1 13
REMARK SMILES IDX 2 14 86 15 84 16 85 17 87 18 81 19 82 20 83 21 11 22 12 23
REMARK SMILES IDX 13 24 14 25 15 26 76 27 16 28 75 29 17 30 18 31 19 32 69 33
REMARK SMILES IDX 20 34 74 35 68 36 70 37 21 38 73 39 67 40 66 41 22 43 54 44
REMARK SMILES IDX 34 45 53 46 35 47 38 48 52 49 71 50 36 51 37 52 51 54 72 55
REMARK SMILES IDX 39 56 23 57 24 58 32 59 25 60 31 61 33 62 30 63 26 64 27 65
REMARK SMILES IDX 28 66 29 67 55 68 56 69 64 70 57 71 63 72 65 73 62 74 58 75
REMARK SMILES IDX 59 76 60 77 61 78 40 79 41 80 49 81 42 82 48 83 50 84 47 85
REMARK SMILES IDX 43 86 44 87 45 88 46 89
REMARK H PARENT 70 42 38 53
REMARK Flexibility Score: inf
ROOT
ATOM      1  C   UNL A   1      31.958  30.068  26.512  1.00  0.00     0.275 C 
ENDROOT
BRANCH   1   2
ATOM      2  C   UNL A   1      32.090  28.557  26.343  1.00  0.00     0.274 C 
BRANCH   2   3
ATOM      3  O   UNL A   1      31.127  28.007  25.414  1.00  0.00    -0.462 OA
BRANCH   3   4
ATOM      4  C   UNL A   1      31.635  27.722  24.190  1.00  0.00     0.312 C 
ATOM      5  O   UNL A   1      30.975  27.742  23.152  1.00  0.00    -0.252 OA
BRANCH   4   6
ATOM      6  C   UNL A   1      33.029  27.143  24.181  1.00  0.00     0.136 C 
ATOM      7  C   UNL A   1      33.342  25.664  24.317  1.00  0.00     0.134 C 
ATOM      8  N   UNL A   1      33.084  25.121  22.998  1.00  0.00    -0.332 N 
ATOM      9  C   UNL A   1      33.556  27.429  22.773  1.00  0.00     0.118 C 
ATOM     10  C   UNL A   1      33.266  26.132  22.046  1.00  0.00     0.224 C 
ATOM     11  O   UNL A   1      33.273  26.010  20.832  1.00  0.00    -0.275 OA
BRANCH   7  12
ATOM     12  C   UNL A   1      32.895  24.889  25.507  1.00  0.00     0.016 A 
ATOM     13  C   UNL A   1      35.128  23.675  26.163  1.00  0.00     0.067 C 
ATOM     14  C   UNL A   1      33.677  24.004  26.254  1.00  0.00     0.040 A 
ATOM     15  N   UNL A   1      32.825  23.378  27.132  1.00  0.00    -0.273 N 
ATOM     16  C   UNL A   1      31.623  24.782  26.105  1.00  0.00     0.141 A 
ATOM     17  N   UNL A   1      31.571  23.855  27.061  1.00  0.00    -0.181 NA
ATOM     18  C   UNL A   1      33.114  22.249  27.993  1.00  0.00     0.174 C 
ENDBRANCH   7  12
BRANCH   8  19
ATOM     19  C   UNL A   1      33.071  23.706  22.604  1.00  0.00     0.079 C 
ATOM     20  C   UNL A   1      34.390  22.984  22.875  1.00  0.00     0.031 C 
ATOM     21  C   UNL A   1      31.872  22.939  23.159  1.00  0.00     0.031 C 
ENDBRANCH   8  19
ENDBRANCH   4   6
ENDBRANCH   3   4
ENDBRANCH   2   3
ENDBRANCH   1   2
BRANCH   1  22
ATOM     22  O   UNL A   1      33.222  30.710  26.280  1.00  0.00    -0.458 OA
BRANCH  22  23
ATOM     23  C   UNL A   1      33.611  31.548  27.269  1.00  0.00     0.338 C 
ATOM     24  O   UNL A   1      33.008  32.528  27.670  1.00  0.00    -0.246 OA
BRANCH  23  25
ATOM     25  C   UNL A   1      34.919  31.137  27.798  1.00  0.00     0.060 A 
ATOM     26  C   UNL A   1      35.135  29.835  28.255  1.00  0.00     0.016 A 
ATOM     27  C   UNL A   1      35.906  32.110  27.942  1.00  0.00     0.016 A 
ATOM     28  C   UNL A   1      36.334  29.503  28.879  1.00  0.00     0.010 A 
ATOM     29  C   UNL A   1      37.123  31.769  28.530  1.00  0.00     0.010 A 
ATOM     30  C   UNL A   1      37.337  30.468  29.015  1.00  0.00    -0.014 A 
BRANCH  30  31
ATOM     31  C   UNL A   1      38.619  30.129  29.672  1.00  0.00     0.031 A 
ATOM     32  C   UNL A   1      39.519  29.094  29.066  1.00  0.00     0.074 A 
ATOM     33  C   UNL A   1      38.939  30.729  30.833  1.00  0.00     0.049 A 
ATOM     34  N   UNL A   1      40.591  28.537  29.565  1.00  0.00    -0.248 NA
ATOM     35  C   UNL A   1      39.155  28.620  27.724  1.00  0.00     0.031 C 
ATOM     36  C   UNL A   1      38.149  31.773  31.486  1.00  0.00     0.029 A 
ATOM     37  N   UNL A   1      39.998  30.531  31.680  1.00  0.00    -0.354 N 
ATOM     38  C   UNL A   1      41.021  27.625  28.609  1.00  0.00     0.074 A 
ATOM     39  C   UNL A   1      40.078  27.694  27.510  1.00  0.00     0.031 C 
ATOM     40  C   UNL A   1      38.739  32.109  32.643  1.00  0.00     0.029 A 
ATOM     41  C   UNL A   1      39.909  31.261  32.840  1.00  0.00     0.049 A 
ATOM     42  H   UNL A   1      40.748  29.925  31.477  1.00  0.00     0.167 HD
ATOM     43  C   UNL A   1      42.104  26.807  28.653  1.00  0.00     0.034 A 
ATOM     44  C   UNL A   1      40.654  31.212  33.961  1.00  0.00     0.034 A 
ATOM     45  C   UNL A   1      43.016  26.751  29.770  1.00  0.00     0.049 A 
ATOM     46  C   UNL A   1      41.807  30.248  34.019  1.00  0.00     0.074 A 
ATOM     47  C   UNL A   1      44.151  25.973  29.923  1.00  0.00     0.029 A 
ATOM     48  N   UNL A   1      42.888  27.494  30.940  1.00  0.00    -0.354 N 
ATOM     49  N   UNL A   1      42.204  29.381  33.115  1.00  0.00    -0.248 NA
ATOM     50  C   UNL A   1      42.613  30.257  35.245  1.00  0.00     0.031 C 
ATOM     51  C   UNL A   1      44.671  26.201  31.204  1.00  0.00     0.029 A 
ATOM     52  C   UNL A   1      43.904  27.173  31.828  1.00  0.00     0.049 A 
ATOM     53  H   UNL A   1      42.178  28.155  31.111  1.00  0.00     0.167 HD
ATOM     54  C   UNL A   1      43.316  28.749  33.660  1.00  0.00     0.074 A 
ATOM     55  C   UNL A   1      43.536  29.350  34.962  1.00  0.00     0.031 C 
ATOM     56  C   UNL A   1      44.089  27.765  33.132  1.00  0.00     0.034 A 
BRANCH  43  57
ATOM     57  C   UNL A   1      42.308  25.874  27.483  1.00  0.00     0.023 A 
ATOM     58  C   UNL A   1      41.697  24.609  27.428  1.00  0.00     0.031 A 
ATOM     59  C   UNL A   1      43.168  26.234  26.430  1.00  0.00     0.131 A 
ATOM     60  C   UNL A   1      42.016  23.719  26.391  1.00  0.00     0.055 A 
ATOM     61  C   UNL A   1      43.422  25.375  25.359  1.00  0.00     0.041 A 
ATOM     62  F   UNL A   1      43.798  27.420  26.436  1.00  0.00    -0.206 F 
ATOM     63  C   UNL A   1      42.858  24.101  25.344  1.00  0.00     0.022 A 
BRANCH  60  64
ATOM     64  S   UNL A   1      41.439  22.003  26.515  1.00  0.00     0.124 S 
ATOM     65  O   UNL A   1      41.613  21.727  27.940  1.00  0.00    -0.237 OA
ATOM     66  O   UNL A   1      40.060  22.101  26.051  1.00  0.00    -0.237 OA
ATOM     67  O   UNL A   1      42.345  21.271  25.632  1.00  0.00    -0.744 OA
ENDBRANCH  60  64
ENDBRANCH  43  57
BRANCH  44  68
ATOM     68  C   UNL A   1      40.285  32.053  35.132  1.00  0.00     0.023 A 
ATOM     69  C   UNL A   1      39.311  31.636  36.049  1.00  0.00     0.031 A 
ATOM     70  C   UNL A   1      40.911  33.295  35.346  1.00  0.00     0.131 A 
ATOM     71  C   UNL A   1      38.972  32.466  37.129  1.00  0.00     0.055 A 
ATOM     72  C   UNL A   1      40.604  34.095  36.446  1.00  0.00     0.041 A 
ATOM     73  F   UNL A   1      41.855  33.735  34.499  1.00  0.00    -0.206 F 
ATOM     74  C   UNL A   1      39.621  33.685  37.342  1.00  0.00     0.022 A 
BRANCH  71  75
ATOM     75  S   UNL A   1      37.625  31.951  38.229  1.00  0.00     0.124 S 
ATOM     76  O   UNL A   1      38.268  32.013  39.536  1.00  0.00    -0.237 OA
ATOM     77  O   UNL A   1      36.612  32.967  37.962  1.00  0.00    -0.237 OA
ATOM     78  O   UNL A   1      37.296  30.607  37.758  1.00  0.00    -0.744 OA
ENDBRANCH  71  75
ENDBRANCH  44  68
BRANCH  56  79
ATOM     79  C   UNL A   1      45.261  27.310  33.966  1.00  0.00     0.023 A 
ATOM     80  C   UNL A   1      45.156  26.227  34.855  1.00  0.00     0.031 A 
ATOM     81  C   UNL A   1      46.488  27.991  33.891  1.00  0.00     0.131 A 
ATOM     82  C   UNL A   1      46.243  25.891  35.676  1.00  0.00     0.055 A 
ATOM     83  C   UNL A   1      47.583  27.617  34.669  1.00  0.00     0.041 A 
ATOM     84  F   UNL A   1      46.640  29.035  33.060  1.00  0.00    -0.206 F 
ATOM     85  C   UNL A   1      47.461  26.570  35.578  1.00  0.00     0.022 A 
BRANCH  82  86
ATOM     86  S   UNL A   1      46.016  24.612  36.943  1.00  0.00     0.124 S 
ATOM     87  O   UNL A   1      47.229  23.817  36.790  1.00  0.00    -0.237 OA
ATOM     88  O   UNL A   1      45.919  25.399  38.168  1.00  0.00    -0.237 OA
ATOM     89  O   UNL A   1      44.781  23.943  36.538  1.00  0.00    -0.744 OA
ENDBRANCH  82  86
ENDBRANCH  56  79
ENDBRANCH  30  31
ENDBRANCH  23  25
ENDBRANCH  22  23
ENDBRANCH   1  22
TORSDOF 16
ENDMDL
