MODEL 1
REMARK VINA RESULT:     -11.5      0.000      0.000
REMARK SMILES COc1ccc(CSc2ncccc2C(=O)OCCOC(=O)c2ccc(-c3c4nc(c(-c5cc(S(=O)(=O)[O-])ccc5F)c5ccc([nH]5)c(-c5cc(S(=O)(=O)[O-])ccc5F)c5nc(c(-c6cc(S(=O)(=O)[O-])ccc6F)c6ccc3[nH]6)C=C5)C=C4)cc2)cc1
REMARK SMILES IDX 18 1 17 2 15 3 16 4 14 5 9 6 10 7 11 8 13 9 12 10 8 11 7 12
REMARK SMILES IDX 6 13 3 14 4 15 87 16 5 17 86 18 2 19 1 20 19 21 20 22 21 23
REMARK SMILES IDX 22 24 23 25 24 26 85 27 25 28 84 29 26 30 27 31 28 32 78 33
REMARK SMILES IDX 29 34 83 35 77 36 79 37 30 38 82 39 76 40 75 41 31 43 63 44
REMARK SMILES IDX 43 45 62 46 44 47 47 48 61 49 80 50 45 51 46 52 60 54 81 55
REMARK SMILES IDX 48 56 32 57 33 58 41 59 34 60 40 61 42 62 39 63 35 64 36 65
REMARK SMILES IDX 37 66 38 67 64 68 65 69 73 70 66 71 72 72 74 73 71 74 67 75
REMARK SMILES IDX 68 76 69 77 70 78 49 79 50 80 58 81 51 82 57 83 59 84 56 85
REMARK SMILES IDX 52 86 53 87 54 88 55 89
REMARK H PARENT 79 42 47 53
REMARK Flexibility Score: inf
ROOT
ATOM      1  C   UNL A   1      31.959  28.213  25.858  1.00  0.00     0.275 C 
ENDROOT
BRANCH   1   2
ATOM      2  O   UNL A   1      33.348  27.966  25.549  1.00  0.00    -0.458 OA
BRANCH   2   3
ATOM      3  C   UNL A   1      33.620  27.466  24.315  1.00  0.00     0.341 C 
ATOM      4  O   UNL A   1      33.864  28.109  23.309  1.00  0.00    -0.246 OA
BRANCH   3   5
ATOM      5  C   UNL A   1      33.481  25.996  24.336  1.00  0.00     0.092 A 
ATOM      6  C   UNL A   1      32.437  25.337  23.686  1.00  0.00     0.111 A 
ATOM      7  N   UNL A   1      32.255  23.997  23.792  1.00  0.00    -0.249 NA
ATOM      8  C   UNL A   1      33.133  23.287  24.526  1.00  0.00     0.112 A 
ATOM      9  C   UNL A   1      34.381  25.232  25.091  1.00  0.00     0.020 A 
ATOM     10  C   UNL A   1      34.211  23.853  25.179  1.00  0.00     0.021 A 
BRANCH   6  11
ATOM     11  S   UNL A   1      31.393  26.097  22.477  1.00  0.00    -0.101 SA
BRANCH  11  12
ATOM     12  C   UNL A   1      29.925  26.497  23.483  1.00  0.00     0.112 C 
BRANCH  12  13
ATOM     13  C   UNL A   1      29.324  27.833  23.127  1.00  0.00    -0.037 A 
ATOM     14  C   UNL A   1      28.158  30.295  22.408  1.00  0.00     0.118 A 
ATOM     15  C   UNL A   1      29.502  30.046  22.137  1.00  0.00     0.047 A 
ATOM     16  C   UNL A   1      27.405  29.329  23.073  1.00  0.00     0.047 A 
ATOM     17  C   UNL A   1      30.089  28.838  22.515  1.00  0.00     0.008 A 
ATOM     18  C   UNL A   1      27.984  28.105  23.430  1.00  0.00     0.008 A 
BRANCH  14  19
ATOM     19  O   UNL A   1      27.684  31.487  21.936  1.00  0.00    -0.497 OA
ATOM     20  C   UNL A   1      28.033  31.813  20.598  1.00  0.00     0.278 C 
ENDBRANCH  14  19
ENDBRANCH  12  13
ENDBRANCH  11  12
ENDBRANCH   6  11
ENDBRANCH   3   5
ENDBRANCH   2   3
ENDBRANCH   1   2
BRANCH   1  21
ATOM     21  C   UNL A   1      31.627  29.691  25.668  1.00  0.00     0.275 C 
BRANCH  21  22
ATOM     22  O   UNL A   1      32.851  30.432  25.749  1.00  0.00    -0.458 OA
BRANCH  22  23
ATOM     23  C   UNL A   1      33.003  31.246  26.823  1.00  0.00     0.338 C 
ATOM     24  O   UNL A   1      32.186  32.048  27.240  1.00  0.00    -0.246 OA
BRANCH  23  25
ATOM     25  C   UNL A   1      34.338  30.997  27.428  1.00  0.00     0.060 A 
ATOM     26  C   UNL A   1      34.748  29.698  27.717  1.00  0.00     0.016 A 
ATOM     27  C   UNL A   1      35.167  32.063  27.782  1.00  0.00     0.016 A 
ATOM     28  C   UNL A   1      35.921  29.472  28.437  1.00  0.00     0.010 A 
ATOM     29  C   UNL A   1      36.398  31.818  28.417  1.00  0.00     0.010 A 
ATOM     30  C   UNL A   1      36.779  30.516  28.791  1.00  0.00    -0.014 A 
BRANCH  30  31
ATOM     31  C   UNL A   1      38.001  30.241  29.617  1.00  0.00     0.031 A 
ATOM     32  C   UNL A   1      39.137  29.434  29.034  1.00  0.00     0.074 A 
ATOM     33  C   UNL A   1      38.159  30.760  30.855  1.00  0.00     0.049 A 
ATOM     34  N   UNL A   1      40.150  28.866  29.639  1.00  0.00    -0.248 NA
ATOM     35  C   UNL A   1      39.115  29.221  27.579  1.00  0.00     0.031 C 
ATOM     36  C   UNL A   1      37.210  31.643  31.539  1.00  0.00     0.029 A 
ATOM     37  N   UNL A   1      39.197  30.648  31.753  1.00  0.00    -0.354 N 
ATOM     38  C   UNL A   1      40.830  28.151  28.656  1.00  0.00     0.074 A 
ATOM     39  C   UNL A   1      40.119  28.373  27.413  1.00  0.00     0.031 C 
ATOM     40  C   UNL A   1      37.746  32.061  32.695  1.00  0.00     0.029 A 
ATOM     41  C   UNL A   1      39.010  31.368  32.912  1.00  0.00     0.049 A 
ATOM     42  H   UNL A   1      39.997  30.103  31.582  1.00  0.00     0.167 HD
ATOM     43  C   UNL A   1      41.932  27.370  28.786  1.00  0.00     0.034 A 
ATOM     44  C   UNL A   1      39.733  31.423  34.050  1.00  0.00     0.034 A 
ATOM     45  C   UNL A   1      42.681  27.232  30.013  1.00  0.00     0.049 A 
ATOM     46  C   UNL A   1      40.940  30.530  34.188  1.00  0.00     0.074 A 
ATOM     47  C   UNL A   1      43.795  26.447  30.265  1.00  0.00     0.029 A 
ATOM     48  N   UNL A   1      42.414  27.923  31.188  1.00  0.00    -0.354 N 
ATOM     49  N   UNL A   1      41.464  29.709  33.308  1.00  0.00    -0.248 NA
ATOM     50  C   UNL A   1      41.623  30.537  35.488  1.00  0.00     0.031 C 
ATOM     51  C   UNL A   1      44.173  26.631  31.600  1.00  0.00     0.029 A 
ATOM     52  C   UNL A   1      43.334  27.576  32.167  1.00  0.00     0.049 A 
ATOM     53  H   UNL A   1      41.679  28.567  31.308  1.00  0.00     0.167 HD
ATOM     54  C   UNL A   1      42.531  29.094  33.956  1.00  0.00     0.074 A 
ATOM     55  C   UNL A   1      42.600  29.665  35.284  1.00  0.00     0.031 C 
ATOM     56  C   UNL A   1      43.371  28.131  33.497  1.00  0.00     0.034 A 
BRANCH  43  57
ATOM     57  C   UNL A   1      42.333  26.534  27.594  1.00  0.00     0.023 A 
ATOM     58  C   UNL A   1      41.912  25.205  27.423  1.00  0.00     0.031 A 
ATOM     59  C   UNL A   1      43.196  27.082  26.626  1.00  0.00     0.131 A 
ATOM     60  C   UNL A   1      42.412  24.448  26.349  1.00  0.00     0.055 A 
ATOM     61  C   UNL A   1      43.627  26.349  25.520  1.00  0.00     0.041 A 
ATOM     62  F   UNL A   1      43.648  28.340  26.748  1.00  0.00    -0.206 F 
ATOM     63  C   UNL A   1      43.247  25.018  25.384  1.00  0.00     0.022 A 
BRANCH  60  64
ATOM     64  S   UNL A   1      42.072  22.667  26.305  1.00  0.00     0.124 S 
ATOM     65  O   UNL A   1      40.616  22.640  26.424  1.00  0.00    -0.237 OA
ATOM     66  O   UNL A   1      42.617  22.273  25.011  1.00  0.00    -0.237 OA
ATOM     67  O   UNL A   1      42.793  22.151  27.469  1.00  0.00    -0.744 OA
ENDBRANCH  60  64
ENDBRANCH  43  57
BRANCH  44  68
ATOM     68  C   UNL A   1      39.280  32.261  35.202  1.00  0.00     0.023 A 
ATOM     69  C   UNL A   1      39.732  33.581  35.367  1.00  0.00     0.031 A 
ATOM     70  C   UNL A   1      38.422  31.732  36.185  1.00  0.00     0.131 A 
ATOM     71  C   UNL A   1      39.346  34.315  36.502  1.00  0.00     0.055 A 
ATOM     72  C   UNL A   1      37.992  32.487  37.277  1.00  0.00     0.041 A 
ATOM     73  F   UNL A   1      37.971  30.471  36.087  1.00  0.00    -0.206 F 
ATOM     74  C   UNL A   1      38.464  33.784  37.445  1.00  0.00     0.022 A 
BRANCH  71  75
ATOM     75  S   UNL A   1      40.079  35.953  36.775  1.00  0.00     0.124 S 
ATOM     76  O   UNL A   1      39.351  36.413  37.952  1.00  0.00    -0.237 OA
ATOM     77  O   UNL A   1      41.487  35.630  36.977  1.00  0.00    -0.237 OA
ATOM     78  O   UNL A   1      39.780  36.670  35.538  1.00  0.00    -0.744 OA
ENDBRANCH  71  75
ENDBRANCH  44  68
BRANCH  56  79
ATOM     79  C   UNL A   1      44.441  27.657  34.448  1.00  0.00     0.023 A 
ATOM     80  C   UNL A   1      44.213  26.590  35.334  1.00  0.00     0.031 A 
ATOM     81  C   UNL A   1      45.692  28.295  34.483  1.00  0.00     0.131 A 
ATOM     82  C   UNL A   1      45.206  26.222  36.254  1.00  0.00     0.055 A 
ATOM     83  C   UNL A   1      46.694  27.895  35.368  1.00  0.00     0.041 A 
ATOM     84  F   UNL A   1      45.959  29.320  33.659  1.00  0.00    -0.206 F 
ATOM     85  C   UNL A   1      46.449  26.860  36.268  1.00  0.00     0.022 A 
BRANCH  82  86
ATOM     86  S   UNL A   1      44.827  24.945  37.486  1.00  0.00     0.124 S 
ATOM     87  O   UNL A   1      43.412  25.188  37.753  1.00  0.00    -0.237 OA
ATOM     88  O   UNL A   1      45.139  23.714  36.768  1.00  0.00    -0.237 OA
ATOM     89  O   UNL A   1      45.728  25.259  38.595  1.00  0.00    -0.744 OA
ENDBRANCH  82  86
ENDBRANCH  56  79
ENDBRANCH  30  31
ENDBRANCH  23  25
ENDBRANCH  22  23
ENDBRANCH  21  22
ENDBRANCH   1  21
TORSDOF 18
ENDMDL
MODEL 2
REMARK VINA RESULT:     -11.2      1.536      3.561
REMARK SMILES COc1ccc(CSc2ncccc2C(=O)OCCOC(=O)c2ccc(-c3c4nc(c(-c5cc(S(=O)(=O)[O-])ccc5F)c5ccc([nH]5)c(-c5cc(S(=O)(=O)[O-])ccc5F)c5nc(c(-c6cc(S(=O)(=O)[O-])ccc6F)c6ccc3[nH]6)C=C5)C=C4)cc2)cc1
REMARK SMILES IDX 18 1 17 2 15 3 16 4 14 5 9 6 10 7 11 8 13 9 12 10 8 11 7 12
REMARK SMILES IDX 6 13 3 14 4 15 87 16 5 17 86 18 2 19 1 20 19 21 20 22 21 23
REMARK SMILES IDX 22 24 23 25 24 26 85 27 25 28 84 29 26 30 27 31 28 32 78 33
REMARK SMILES IDX 29 34 83 35 77 36 79 37 30 38 82 39 76 40 75 41 31 43 63 44
REMARK SMILES IDX 43 45 62 46 44 47 47 48 61 49 80 50 45 51 46 52 60 54 81 55
REMARK SMILES IDX 48 56 32 57 33 58 41 59 34 60 40 61 42 62 39 63 35 64 36 65
REMARK SMILES IDX 37 66 38 67 64 68 65 69 73 70 66 71 72 72 74 73 71 74 67 75
REMARK SMILES IDX 68 76 69 77 70 78 49 79 50 80 58 81 51 82 57 83 59 84 56 85
REMARK SMILES IDX 52 86 53 87 54 88 55 89
REMARK H PARENT 79 42 47 53
REMARK Flexibility Score: inf
ROOT
ATOM      1  C   UNL A   1      33.052  28.993  24.450  1.00  0.00     0.275 C 
ENDROOT
BRANCH   1   2
ATOM      2  O   UNL A   1      32.485  28.477  23.226  1.00  0.00    -0.458 OA
BRANCH   2   3
ATOM      3  C   UNL A   1      32.621  27.143  23.005  1.00  0.00     0.341 C 
ATOM      4  O   UNL A   1      33.179  26.617  22.058  1.00  0.00    -0.246 OA
BRANCH   3   5
ATOM      5  C   UNL A   1      31.900  26.392  24.053  1.00  0.00     0.092 A 
ATOM      6  C   UNL A   1      32.522  25.416  24.831  1.00  0.00     0.111 A 
ATOM      7  N   UNL A   1      31.833  24.657  25.721  1.00  0.00    -0.249 NA
ATOM      8  C   UNL A   1      30.514  24.884  25.868  1.00  0.00     0.112 A 
ATOM      9  C   UNL A   1      30.526  26.607  24.229  1.00  0.00     0.020 A 
ATOM     10  C   UNL A   1      29.823  25.848  25.161  1.00  0.00     0.021 A 
BRANCH   6  11
ATOM     11  S   UNL A   1      34.276  25.213  24.941  1.00  0.00    -0.101 SA
BRANCH  11  12
ATOM     12  C   UNL A   1      34.566  23.963  23.645  1.00  0.00     0.112 C 
BRANCH  12  13
ATOM     13  C   UNL A   1      33.943  22.630  23.975  1.00  0.00    -0.037 A 
ATOM     14  C   UNL A   1      32.717  20.176  24.616  1.00  0.00     0.118 A 
ATOM     15  C   UNL A   1      33.808  20.632  25.353  1.00  0.00     0.047 A 
ATOM     16  C   UNL A   1      32.262  20.927  23.533  1.00  0.00     0.047 A 
ATOM     17  C   UNL A   1      34.434  21.834  25.022  1.00  0.00     0.008 A 
ATOM     18  C   UNL A   1      32.871  22.146  23.215  1.00  0.00     0.008 A 
BRANCH  14  19
ATOM     19  O   UNL A   1      32.153  19.018  25.073  1.00  0.00    -0.497 OA
ATOM     20  C   UNL A   1      32.672  17.812  24.530  1.00  0.00     0.278 C 
ENDBRANCH  14  19
ENDBRANCH  12  13
ENDBRANCH  11  12
ENDBRANCH   6  11
ENDBRANCH   3   5
ENDBRANCH   2   3
ENDBRANCH   1   2
BRANCH   1  21
ATOM     21  C   UNL A   1      32.044  29.889  25.166  1.00  0.00     0.275 C 
BRANCH  21  22
ATOM     22  O   UNL A   1      32.426  29.970  26.544  1.00  0.00    -0.458 OA
BRANCH  22  23
ATOM     23  C   UNL A   1      32.932  31.153  26.970  1.00  0.00     0.338 C 
ATOM     24  O   UNL A   1      32.378  32.236  26.908  1.00  0.00    -0.246 OA
BRANCH  23  25
ATOM     25  C   UNL A   1      34.284  30.920  27.543  1.00  0.00     0.060 A 
ATOM     26  C   UNL A   1      34.729  29.624  27.790  1.00  0.00     0.016 A 
ATOM     27  C   UNL A   1      35.096  31.996  27.908  1.00  0.00     0.016 A 
ATOM     28  C   UNL A   1      35.921  29.407  28.480  1.00  0.00     0.010 A 
ATOM     29  C   UNL A   1      36.345  31.763  28.512  1.00  0.00     0.010 A 
ATOM     30  C   UNL A   1      36.763  30.461  28.844  1.00  0.00    -0.014 A 
BRANCH  30  31
ATOM     31  C   UNL A   1      38.007  30.194  29.639  1.00  0.00     0.031 A 
ATOM     32  C   UNL A   1      39.134  29.398  29.025  1.00  0.00     0.074 A 
ATOM     33  C   UNL A   1      38.191  30.710  30.875  1.00  0.00     0.049 A 
ATOM     34  N   UNL A   1      40.167  28.837  29.603  1.00  0.00    -0.248 NA
ATOM     35  C   UNL A   1      39.079  29.190  27.570  1.00  0.00     0.031 C 
ATOM     36  C   UNL A   1      37.252  31.583  31.585  1.00  0.00     0.029 A 
ATOM     37  N   UNL A   1      39.251  30.604  31.746  1.00  0.00    -0.354 N 
ATOM     38  C   UNL A   1      40.828  28.131  28.601  1.00  0.00     0.074 A 
ATOM     39  C   UNL A   1      40.085  28.351  27.377  1.00  0.00     0.031 C 
ATOM     40  C   UNL A   1      37.813  32.001  32.729  1.00  0.00     0.029 A 
ATOM     41  C   UNL A   1      39.088  31.319  32.912  1.00  0.00     0.049 A 
ATOM     42  H   UNL A   1      40.052  30.066  31.553  1.00  0.00     0.167 HD
ATOM     43  C   UNL A   1      41.939  27.359  28.701  1.00  0.00     0.034 A 
ATOM     44  C   UNL A   1      39.838  31.376  34.032  1.00  0.00     0.034 A 
ATOM     45  C   UNL A   1      42.720  27.223  29.908  1.00  0.00     0.049 A 
ATOM     46  C   UNL A   1      41.055  30.492  34.137  1.00  0.00     0.074 A 
ATOM     47  C   UNL A   1      43.846  26.447  30.130  1.00  0.00     0.029 A 
ATOM     48  N   UNL A   1      42.477  27.908  31.092  1.00  0.00    -0.354 N 
ATOM     49  N   UNL A   1      41.565  29.678  33.242  1.00  0.00    -0.248 NA
ATOM     50  C   UNL A   1      41.771  30.500  35.420  1.00  0.00     0.031 C 
ATOM     51  C   UNL A   1      44.256  26.630  31.456  1.00  0.00     0.029 A 
ATOM     52  C   UNL A   1      43.423  27.565  32.047  1.00  0.00     0.049 A 
ATOM     53  H   UNL A   1      41.739  28.546  31.233  1.00  0.00     0.167 HD
ATOM     54  C   UNL A   1      42.652  29.070  33.860  1.00  0.00     0.074 A 
ATOM     55  C   UNL A   1      42.749  29.638  35.188  1.00  0.00     0.031 C 
ATOM     56  C   UNL A   1      43.489  28.116  33.378  1.00  0.00     0.034 A 
BRANCH  43  57
ATOM     57  C   UNL A   1      42.318  26.530  27.496  1.00  0.00     0.023 A 
ATOM     58  C   UNL A   1      41.933  25.188  27.347  1.00  0.00     0.031 A 
ATOM     59  C   UNL A   1      43.123  27.101  26.492  1.00  0.00     0.131 A 
ATOM     60  C   UNL A   1      42.412  24.442  26.256  1.00  0.00     0.055 A 
ATOM     61  C   UNL A   1      43.532  26.376  25.372  1.00  0.00     0.041 A 
ATOM     62  F   UNL A   1      43.541  28.373  26.592  1.00  0.00    -0.206 F 
ATOM     63  C   UNL A   1      43.189  25.033  25.256  1.00  0.00     0.022 A 
BRANCH  60  64
ATOM     64  S   UNL A   1      42.126  22.651  26.232  1.00  0.00     0.124 S 
ATOM     65  O   UNL A   1      42.792  22.260  24.992  1.00  0.00    -0.237 OA
ATOM     66  O   UNL A   1      42.765  22.214  27.468  1.00  0.00    -0.237 OA
ATOM     67  O   UNL A   1      40.668  22.536  26.210  1.00  0.00    -0.744 OA
ENDBRANCH  60  64
ENDBRANCH  43  57
BRANCH  44  68
ATOM     68  C   UNL A   1      39.407  32.206  35.198  1.00  0.00     0.023 A 
ATOM     69  C   UNL A   1      39.900  33.507  35.390  1.00  0.00     0.031 A 
ATOM     70  C   UNL A   1      38.528  31.686  36.167  1.00  0.00     0.131 A 
ATOM     71  C   UNL A   1      39.532  34.232  36.536  1.00  0.00     0.055 A 
ATOM     72  C   UNL A   1      38.118  32.434  37.271  1.00  0.00     0.041 A 
ATOM     73  F   UNL A   1      38.038  30.442  36.044  1.00  0.00    -0.206 F 
ATOM     74  C   UNL A   1      38.629  33.711  37.466  1.00  0.00     0.022 A 
BRANCH  71  75
ATOM     75  S   UNL A   1      40.316  35.840  36.844  1.00  0.00     0.124 S 
ATOM     76  O   UNL A   1      39.695  36.674  35.821  1.00  0.00    -0.237 OA
ATOM     77  O   UNL A   1      39.924  36.114  38.222  1.00  0.00    -0.237 OA
ATOM     78  O   UNL A   1      41.738  35.568  36.647  1.00  0.00    -0.744 OA
ENDBRANCH  71  75
ENDBRANCH  44  68
BRANCH  56  79
ATOM     79  C   UNL A   1      44.586  27.648  34.300  1.00  0.00     0.023 A 
ATOM     80  C   UNL A   1      44.436  26.494  35.090  1.00  0.00     0.031 A 
ATOM     81  C   UNL A   1      45.782  28.376  34.406  1.00  0.00     0.131 A 
ATOM     82  C   UNL A   1      45.449  26.128  35.989  1.00  0.00     0.055 A 
ATOM     83  C   UNL A   1      46.806  27.982  35.269  1.00  0.00     0.041 A 
ATOM     84  F   UNL A   1      45.974  29.486  33.675  1.00  0.00    -0.206 F 
ATOM     85  C   UNL A   1      46.637  26.858  36.074  1.00  0.00     0.022 A 
BRANCH  82  86
ATOM     86  S   UNL A   1      45.163  24.725  37.104  1.00  0.00     0.124 S 
ATOM     87  O   UNL A   1      44.255  25.301  38.093  1.00  0.00    -0.237 OA
ATOM     88  O   UNL A   1      44.584  23.728  36.210  1.00  0.00    -0.237 OA
ATOM     89  O   UNL A   1      46.500  24.406  37.604  1.00  0.00    -0.744 OA
ENDBRANCH  82  86
ENDBRANCH  56  79
ENDBRANCH  30  31
ENDBRANCH  23  25
ENDBRANCH  22  23
ENDBRANCH  21  22
ENDBRANCH   1  21
TORSDOF 18
ENDMDL
MODEL 3
REMARK VINA RESULT:     -11.2      1.885      2.163
REMARK SMILES COc1ccc(CSc2ncccc2C(=O)OCCOC(=O)c2ccc(-c3c4nc(c(-c5cc(S(=O)(=O)[O-])ccc5F)c5ccc([nH]5)c(-c5cc(S(=O)(=O)[O-])ccc5F)c5nc(c(-c6cc(S(=O)(=O)[O-])ccc6F)c6ccc3[nH]6)C=C5)C=C4)cc2)cc1
REMARK SMILES IDX 18 1 17 2 15 3 16 4 14 5 9 6 10 7 11 8 13 9 12 10 8 11 7 12
REMARK SMILES IDX 6 13 3 14 4 15 87 16 5 17 86 18 2 19 1 20 19 21 20 22 21 23
REMARK SMILES IDX 22 24 23 25 24 26 85 27 25 28 84 29 26 30 27 31 28 32 78 33
REMARK SMILES IDX 29 34 83 35 77 36 79 37 30 38 82 39 76 40 75 41 31 43 63 44
REMARK SMILES IDX 43 45 62 46 44 47 47 48 61 49 80 50 45 51 46 52 60 54 81 55
REMARK SMILES IDX 48 56 32 57 33 58 41 59 34 60 40 61 42 62 39 63 35 64 36 65
REMARK SMILES IDX 37 66 38 67 64 68 65 69 73 70 66 71 72 72 74 73 71 74 67 75
REMARK SMILES IDX 68 76 69 77 70 78 49 79 50 80 58 81 51 82 57 83 59 84 56 85
REMARK SMILES IDX 52 86 53 87 54 88 55 89
REMARK H PARENT 79 42 47 53
REMARK Flexibility Score: inf
ROOT
ATOM      1  C   UNL A   1      32.098  28.210  25.877  1.00  0.00     0.275 C 
ENDROOT
BRANCH   1   2
ATOM      2  O   UNL A   1      33.455  28.013  25.426  1.00  0.00    -0.458 OA
BRANCH   2   3
ATOM      3  C   UNL A   1      33.615  27.473  24.190  1.00  0.00     0.341 C 
ATOM      4  O   UNL A   1      33.764  28.082  23.145  1.00  0.00    -0.246 OA
BRANCH   3   5
ATOM      5  C   UNL A   1      33.486  26.004  24.272  1.00  0.00     0.092 A 
ATOM      6  C   UNL A   1      32.432  25.314  23.673  1.00  0.00     0.111 A 
ATOM      7  N   UNL A   1      32.260  23.978  23.836  1.00  0.00    -0.249 NA
ATOM      8  C   UNL A   1      33.158  23.303  24.578  1.00  0.00     0.112 A 
ATOM      9  C   UNL A   1      34.407  25.275  25.037  1.00  0.00     0.020 A 
ATOM     10  C   UNL A   1      34.247  23.900  25.183  1.00  0.00     0.021 A 
BRANCH   6  11
ATOM     11  S   UNL A   1      31.357  26.020  22.457  1.00  0.00    -0.101 SA
BRANCH  11  12
ATOM     12  C   UNL A   1      29.939  26.518  23.491  1.00  0.00     0.112 C 
BRANCH  12  13
ATOM     13  C   UNL A   1      29.404  27.880  23.125  1.00  0.00    -0.037 A 
ATOM     14  C   UNL A   1      28.368  30.392  22.384  1.00  0.00     0.118 A 
ATOM     15  C   UNL A   1      29.729  30.123  22.249  1.00  0.00     0.047 A 
ATOM     16  C   UNL A   1      27.529  29.419  22.926  1.00  0.00     0.047 A 
ATOM     17  C   UNL A   1      30.249  28.889  22.639  1.00  0.00     0.008 A 
ATOM     18  C   UNL A   1      28.045  28.170  23.294  1.00  0.00     0.008 A 
BRANCH  14  19
ATOM     19  O   UNL A   1      27.969  31.611  21.912  1.00  0.00    -0.497 OA
ATOM     20  C   UNL A   1      28.031  31.787  20.503  1.00  0.00     0.278 C 
ENDBRANCH  14  19
ENDBRANCH  12  13
ENDBRANCH  11  12
ENDBRANCH   6  11
ENDBRANCH   3   5
ENDBRANCH   2   3
ENDBRANCH   1   2
BRANCH   1  21
ATOM     21  C   UNL A   1      31.739  29.694  25.852  1.00  0.00     0.275 C 
BRANCH  21  22
ATOM     22  O   UNL A   1      32.960  30.444  25.873  1.00  0.00    -0.458 OA
BRANCH  22  23
ATOM     23  C   UNL A   1      33.156  31.262  26.936  1.00  0.00     0.338 C 
ATOM     24  O   UNL A   1      32.373  32.094  27.358  1.00  0.00    -0.246 OA
BRANCH  23  25
ATOM     25  C   UNL A   1      34.491  30.975  27.523  1.00  0.00     0.060 A 
ATOM     26  C   UNL A   1      34.824  29.681  27.915  1.00  0.00     0.016 A 
ATOM     27  C   UNL A   1      35.402  32.008  27.756  1.00  0.00     0.016 A 
ATOM     28  C   UNL A   1      36.003  29.437  28.618  1.00  0.00     0.010 A 
ATOM     29  C   UNL A   1      36.635  31.735  28.375  1.00  0.00     0.010 A 
ATOM     30  C   UNL A   1      36.941  30.447  28.853  1.00  0.00    -0.014 A 
BRANCH  30  31
ATOM     31  C   UNL A   1      38.170  30.161  29.665  1.00  0.00     0.031 A 
ATOM     32  C   UNL A   1      39.290  29.341  29.070  1.00  0.00     0.074 A 
ATOM     33  C   UNL A   1      38.348  30.681  30.900  1.00  0.00     0.049 A 
ATOM     34  N   UNL A   1      40.305  28.764  29.664  1.00  0.00    -0.248 NA
ATOM     35  C   UNL A   1      39.249  29.126  27.616  1.00  0.00     0.031 C 
ATOM     36  C   UNL A   1      37.416  31.574  31.593  1.00  0.00     0.029 A 
ATOM     37  N   UNL A   1      39.395  30.560  31.785  1.00  0.00    -0.354 N 
ATOM     38  C   UNL A   1      40.966  28.040  28.675  1.00  0.00     0.074 A 
ATOM     39  C   UNL A   1      40.243  28.267  27.440  1.00  0.00     0.031 C 
ATOM     40  C   UNL A   1      37.970  31.989  32.742  1.00  0.00     0.029 A 
ATOM     41  C   UNL A   1      39.230  31.284  32.945  1.00  0.00     0.049 A 
ATOM     42  H   UNL A   1      40.188  30.006  31.606  1.00  0.00     0.167 HD
ATOM     43  C   UNL A   1      42.061  27.249  28.793  1.00  0.00     0.034 A 
ATOM     44  C   UNL A   1      39.967  31.334  34.075  1.00  0.00     0.034 A 
ATOM     45  C   UNL A   1      42.823  27.105  30.011  1.00  0.00     0.049 A 
ATOM     46  C   UNL A   1      41.166  30.429  34.200  1.00  0.00     0.074 A 
ATOM     47  C   UNL A   1      43.932  26.310  30.251  1.00  0.00     0.029 A 
ATOM     48  N   UNL A   1      42.578  27.801  31.188  1.00  0.00    -0.354 N 
ATOM     49  N   UNL A   1      41.672  29.600  33.316  1.00  0.00    -0.248 NA
ATOM     50  C   UNL A   1      41.865  30.431  35.492  1.00  0.00     0.031 C 
ATOM     51  C   UNL A   1      44.329  26.492  31.582  1.00  0.00     0.029 A 
ATOM     52  C   UNL A   1      43.505  27.446  32.157  1.00  0.00     0.049 A 
ATOM     53  H   UNL A   1      41.851  28.453  31.316  1.00  0.00     0.167 HD
ATOM     54  C   UNL A   1      42.740  28.976  33.951  1.00  0.00     0.074 A 
ATOM     55  C   UNL A   1      42.830  29.549  35.278  1.00  0.00     0.031 C 
ATOM     56  C   UNL A   1      43.564  28.004  33.485  1.00  0.00     0.034 A 
BRANCH  43  57
ATOM     57  C   UNL A   1      42.440  26.406  27.598  1.00  0.00     0.023 A 
ATOM     58  C   UNL A   1      41.964  25.098  27.410  1.00  0.00     0.031 A 
ATOM     59  C   UNL A   1      43.336  26.925  26.644  1.00  0.00     0.131 A 
ATOM     60  C   UNL A   1      42.443  24.329  26.335  1.00  0.00     0.055 A 
ATOM     61  C   UNL A   1      43.748  26.183  25.537  1.00  0.00     0.041 A 
ATOM     62  F   UNL A   1      43.841  28.161  26.783  1.00  0.00    -0.206 F 
ATOM     63  C   UNL A   1      43.313  24.871  25.385  1.00  0.00     0.022 A 
BRANCH  60  64
ATOM     64  S   UNL A   1      42.027  22.565  26.272  1.00  0.00     0.124 S 
ATOM     65  O   UNL A   1      42.642  22.071  27.501  1.00  0.00    -0.237 OA
ATOM     66  O   UNL A   1      40.569  22.585  26.247  1.00  0.00    -0.237 OA
ATOM     67  O   UNL A   1      42.665  22.105  25.038  1.00  0.00    -0.744 OA
ENDBRANCH  60  64
ENDBRANCH  43  57
BRANCH  44  68
ATOM     68  C   UNL A   1      39.536  32.178  35.230  1.00  0.00     0.023 A 
ATOM     69  C   UNL A   1      38.811  31.634  36.303  1.00  0.00     0.031 A 
ATOM     70  C   UNL A   1      39.805  33.560  35.252  1.00  0.00     0.131 A 
ATOM     71  C   UNL A   1      38.357  32.470  37.336  1.00  0.00     0.055 A 
ATOM     72  C   UNL A   1      39.405  34.375  36.312  1.00  0.00     0.041 A 
ATOM     73  F   UNL A   1      40.480  34.138  34.247  1.00  0.00    -0.206 F 
ATOM     74  C   UNL A   1      38.666  33.832  37.357  1.00  0.00     0.022 A 
BRANCH  71  75
ATOM     75  S   UNL A   1      37.279  31.772  38.619  1.00  0.00     0.124 S 
ATOM     76  O   UNL A   1      37.031  30.431  38.101  1.00  0.00    -0.237 OA
ATOM     77  O   UNL A   1      38.120  31.856  39.807  1.00  0.00    -0.237 OA
ATOM     78  O   UNL A   1      36.122  32.665  38.614  1.00  0.00    -0.744 OA
ENDBRANCH  71  75
ENDBRANCH  44  68
BRANCH  56  79
ATOM     79  C   UNL A   1      44.641  27.520  34.424  1.00  0.00     0.023 A 
ATOM     80  C   UNL A   1      45.874  28.187  34.529  1.00  0.00     0.031 A 
ATOM     81  C   UNL A   1      44.438  26.368  35.201  1.00  0.00     0.131 A 
ATOM     82  C   UNL A   1      46.879  27.668  35.359  1.00  0.00     0.055 A 
ATOM     83  C   UNL A   1      45.425  25.882  36.061  1.00  0.00     0.041 A 
ATOM     84  F   UNL A   1      43.280  25.695  35.136  1.00  0.00    -0.206 F 
ATOM     85  C   UNL A   1      46.657  26.526  36.134  1.00  0.00     0.022 A 
BRANCH  82  86
ATOM     86  S   UNL A   1      48.511  28.461  35.358  1.00  0.00     0.124 S 
ATOM     87  O   UNL A   1      49.393  27.345  35.691  1.00  0.00    -0.237 OA
ATOM     88  O   UNL A   1      48.612  28.968  33.994  1.00  0.00    -0.237 OA
ATOM     89  O   UNL A   1      48.395  29.488  36.393  1.00  0.00    -0.744 OA
ENDBRANCH  82  86
ENDBRANCH  56  79
ENDBRANCH  30  31
ENDBRANCH  23  25
ENDBRANCH  22  23
ENDBRANCH  21  22
ENDBRANCH   1  21
TORSDOF 18
ENDMDL
