MODEL 1
REMARK VINA RESULT:     -11.5      0.000      0.000
REMARK SMILES CCC[C@@]1(C(=O)OCCOC(=O)c2ccc(-c3c4nc(c(-c5cc(S(=O)(=O)[O-])ccc5F)c5ccc([nH]5)c(-c5cc(S(=O)(=O)[O-])ccc5F)c5nc(c(-c6cc(S(=O)(=O)[O-])ccc6F)c6ccc3[nH]6)C=C5)C=C4)cc2)CCCN(C(=O)C[C@H]2CCCCO2)C1
REMARK SMILES IDX 8 1 7 2 5 3 6 4 4 5 76 6 89 7 77 8 79 9 78 10 3 11 2 12 1 13
REMARK SMILES IDX 80 14 81 15 82 16 83 17 84 18 88 19 85 20 87 21 86 22 9 23
REMARK SMILES IDX 10 24 11 25 12 26 13 27 14 28 75 29 15 30 74 31 16 32 17 33
REMARK SMILES IDX 18 34 68 35 19 36 73 37 67 38 69 39 20 40 72 41 66 42 65 43
REMARK SMILES IDX 21 45 53 46 33 47 52 48 34 49 37 50 51 51 70 52 35 53 36 54
REMARK SMILES IDX 50 56 71 57 38 58 22 59 23 60 31 61 24 62 30 63 32 64 29 65
REMARK SMILES IDX 25 66 26 67 27 68 28 69 54 70 55 71 63 72 56 73 62 74 64 75
REMARK SMILES IDX 61 76 57 77 58 78 59 79 60 80 39 81 40 82 48 83 41 84 47 85
REMARK SMILES IDX 49 86 46 87 42 88 43 89 44 90 45 91
REMARK H PARENT 69 44 37 55
REMARK Flexibility Score: inf
ROOT
ATOM      1  C   UNL A   1      31.765  28.042  26.985  1.00  0.00     0.274 C 
ENDROOT
BRANCH   1   2
ATOM      2  O   UNL A   1      32.265  26.779  26.495  1.00  0.00    -0.462 OA
BRANCH   2   3
ATOM      3  C   UNL A   1      31.349  25.869  26.087  1.00  0.00     0.314 C 
ATOM      4  O   UNL A   1      30.196  25.863  26.500  1.00  0.00    -0.252 OA
BRANCH   3   5
ATOM      5  C   UNL A   1      31.923  24.798  25.133  1.00  0.00     0.086 C 
ATOM      6  C   UNL A   1      33.413  25.120  24.737  1.00  0.00     0.022 C 
ATOM      7  C   UNL A   1      31.069  24.900  23.844  1.00  0.00     0.138 C 
ATOM      8  C   UNL A   1      33.631  26.369  23.885  1.00  0.00     0.023 C 
ATOM      9  N   UNL A   1      31.314  26.173  23.138  1.00  0.00    -0.341 N 
ATOM     10  C   UNL A   1      32.691  26.367  22.690  1.00  0.00     0.119 C 
BRANCH   5  11
ATOM     11  C   UNL A   1      32.008  23.332  25.698  1.00  0.00     0.020 C 
BRANCH  11  12
ATOM     12  C   UNL A   1      33.311  22.677  26.161  1.00  0.00    -0.002 C 
ATOM     13  C   UNL A   1      33.492  22.578  27.664  1.00  0.00     0.004 C 
ENDBRANCH  11  12
ENDBRANCH   5  11
BRANCH   9  14
ATOM     14  C   UNL A   1      30.313  27.143  23.110  1.00  0.00     0.225 C 
ATOM     15  O   UNL A   1      29.172  26.892  23.512  1.00  0.00    -0.275 OA
BRANCH  14  16
ATOM     16  C   UNL A   1      30.640  28.532  22.570  1.00  0.00     0.132 C 
BRANCH  16  17
ATOM     17  C   UNL A   1      29.390  29.420  22.500  1.00  0.00     0.127 C 
ATOM     18  C   UNL A   1      29.371  30.483  23.606  1.00  0.00     0.033 C 
ATOM     19  O   UNL A   1      29.361  30.085  21.225  1.00  0.00    -0.378 OA
ATOM     20  C   UNL A   1      28.118  31.346  23.485  1.00  0.00     0.005 C 
ATOM     21  C   UNL A   1      28.147  30.817  21.032  1.00  0.00     0.160 C 
ATOM     22  C   UNL A   1      27.993  31.915  22.077  1.00  0.00     0.029 C 
ENDBRANCH  16  17
ENDBRANCH  14  16
ENDBRANCH   9  14
ENDBRANCH   3   5
ENDBRANCH   2   3
ENDBRANCH   1   2
BRANCH   1  23
ATOM     23  C   UNL A   1      31.839  29.107  25.890  1.00  0.00     0.275 C 
BRANCH  23  24
ATOM     24  O   UNL A   1      33.111  29.769  25.970  1.00  0.00    -0.458 OA
BRANCH  24  25
ATOM     25  C   UNL A   1      33.208  30.834  26.803  1.00  0.00     0.338 C 
ATOM     26  O   UNL A   1      32.411  31.743  26.932  1.00  0.00    -0.246 OA
BRANCH  25  27
ATOM     27  C   UNL A   1      34.471  30.708  27.562  1.00  0.00     0.060 A 
ATOM     28  C   UNL A   1      34.790  29.488  28.154  1.00  0.00     0.016 A 
ATOM     29  C   UNL A   1      35.331  31.790  27.722  1.00  0.00     0.016 A 
ATOM     30  C   UNL A   1      35.945  29.325  28.905  1.00  0.00     0.010 A 
ATOM     31  C   UNL A   1      36.540  31.610  28.413  1.00  0.00     0.010 A 
ATOM     32  C   UNL A   1      36.862  30.370  29.001  1.00  0.00    -0.014 A 
BRANCH  32  33
ATOM     33  C   UNL A   1      38.150  30.159  29.711  1.00  0.00     0.031 A 
ATOM     34  C   UNL A   1      39.186  29.256  29.114  1.00  0.00     0.074 A 
ATOM     35  C   UNL A   1      38.396  30.795  30.876  1.00  0.00     0.049 A 
ATOM     36  N   UNL A   1      40.247  28.735  29.671  1.00  0.00    -0.248 NA
ATOM     37  C   UNL A   1      39.002  28.890  27.701  1.00  0.00     0.031 C 
ATOM     38  C   UNL A   1      37.516  31.783  31.509  1.00  0.00     0.029 A 
ATOM     39  N   UNL A   1      39.458  30.702  31.743  1.00  0.00    -0.354 N 
ATOM     40  C   UNL A   1      40.836  27.942  28.692  1.00  0.00     0.074 A 
ATOM     41  C   UNL A   1      40.014  28.056  27.505  1.00  0.00     0.031 C 
ATOM     42  C   UNL A   1      38.079  32.212  32.648  1.00  0.00     0.029 A 
ATOM     43  C   UNL A   1      39.297  31.448  32.889  1.00  0.00     0.049 A 
ATOM     44  H   UNL A   1      40.257  30.157  31.561  1.00  0.00     0.167 HD
ATOM     45  C   UNL A   1      41.954  27.183  28.790  1.00  0.00     0.034 A 
ATOM     46  C   UNL A   1      40.002  31.456  34.040  1.00  0.00     0.034 A 
ATOM     47  C   UNL A   1      42.761  27.100  29.982  1.00  0.00     0.049 A 
ATOM     48  C   UNL A   1      41.166  30.509  34.170  1.00  0.00     0.074 A 
ATOM     49  C   UNL A   1      43.894  26.340  30.210  1.00  0.00     0.029 A 
ATOM     50  N   UNL A   1      42.519  27.810  31.152  1.00  0.00    -0.354 N 
ATOM     51  N   UNL A   1      41.657  29.677  33.278  1.00  0.00    -0.248 NA
ATOM     52  C   UNL A   1      41.853  30.476  35.468  1.00  0.00     0.031 C 
ATOM     53  C   UNL A   1      44.306  26.549  31.532  1.00  0.00     0.029 A 
ATOM     54  C   UNL A   1      43.464  27.486  32.111  1.00  0.00     0.049 A 
ATOM     55  H   UNL A   1      41.783  28.451  31.280  1.00  0.00     0.167 HD
ATOM     56  C   UNL A   1      42.708  29.022  33.912  1.00  0.00     0.074 A 
ATOM     57  C   UNL A   1      42.801  29.578  35.246  1.00  0.00     0.031 C 
ATOM     58  C   UNL A   1      43.518  28.041  33.441  1.00  0.00     0.034 A 
BRANCH  45  59
ATOM     59  C   UNL A   1      42.319  26.329  27.604  1.00  0.00     0.023 A 
ATOM     60  C   UNL A   1      41.930  24.982  27.505  1.00  0.00     0.031 A 
ATOM     61  C   UNL A   1      43.090  26.873  26.559  1.00  0.00     0.131 A 
ATOM     62  C   UNL A   1      42.351  24.213  26.410  1.00  0.00     0.055 A 
ATOM     63  C   UNL A   1      43.452  26.119  25.443  1.00  0.00     0.041 A 
ATOM     64  F   UNL A   1      43.511  28.146  26.615  1.00  0.00    -0.206 F 
ATOM     65  C   UNL A   1      43.091  24.778  25.368  1.00  0.00     0.022 A 
BRANCH  62  66
ATOM     66  S   UNL A   1      42.008  22.432  26.413  1.00  0.00     0.124 S 
ATOM     67  O   UNL A   1      42.658  22.008  27.651  1.00  0.00    -0.237 OA
ATOM     68  O   UNL A   1      40.549  22.391  26.412  1.00  0.00    -0.237 OA
ATOM     69  O   UNL A   1      42.646  21.957  25.188  1.00  0.00    -0.744 OA
ENDBRANCH  62  66
ENDBRANCH  45  59
BRANCH  46  70
ATOM     70  C   UNL A   1      39.558  32.283  35.201  1.00  0.00     0.023 A 
ATOM     71  C   UNL A   1      38.843  31.718  36.268  1.00  0.00     0.031 A 
ATOM     72  C   UNL A   1      39.790  33.672  35.230  1.00  0.00     0.131 A 
ATOM     73  C   UNL A   1      38.351  32.541  37.295  1.00  0.00     0.055 A 
ATOM     74  C   UNL A   1      39.354  34.476  36.285  1.00  0.00     0.041 A 
ATOM     75  F   UNL A   1      40.456  34.272  34.231  1.00  0.00    -0.206 F 
ATOM     76  C   UNL A   1      38.615  33.912  37.319  1.00  0.00     0.022 A 
BRANCH  73  77
ATOM     77  S   UNL A   1      37.261  31.809  38.548  1.00  0.00     0.124 S 
ATOM     78  O   UNL A   1      36.117  32.713  38.512  1.00  0.00    -0.237 OA
ATOM     79  O   UNL A   1      37.039  30.472  38.008  1.00  0.00    -0.237 OA
ATOM     80  O   UNL A   1      38.062  31.863  39.768  1.00  0.00    -0.744 OA
ENDBRANCH  73  77
ENDBRANCH  46  70
BRANCH  58  81
ATOM     81  C   UNL A   1      44.576  27.534  34.385  1.00  0.00     0.023 A 
ATOM     82  C   UNL A   1      45.842  28.140  34.454  1.00  0.00     0.031 A 
ATOM     83  C   UNL A   1      44.323  26.421  35.203  1.00  0.00     0.131 A 
ATOM     84  C   UNL A   1      46.828  27.598  35.290  1.00  0.00     0.055 A 
ATOM     85  C   UNL A   1      45.291  25.917  36.072  1.00  0.00     0.041 A 
ATOM     86  F   UNL A   1      43.129  25.806  35.172  1.00  0.00    -0.206 F 
ATOM     87  C   UNL A   1      46.556  26.499  36.110  1.00  0.00     0.022 A 
BRANCH  84  88
ATOM     88  S   UNL A   1      48.496  28.307  35.241  1.00  0.00     0.124 S 
ATOM     89  O   UNL A   1      48.216  29.740  35.240  1.00  0.00    -0.237 OA
ATOM     90  O   UNL A   1      49.100  27.776  36.458  1.00  0.00    -0.237 OA
ATOM     91  O   UNL A   1      49.054  27.784  33.995  1.00  0.00    -0.744 OA
ENDBRANCH  84  88
ENDBRANCH  58  81
ENDBRANCH  32  33
ENDBRANCH  25  27
ENDBRANCH  24  25
ENDBRANCH  23  24
ENDBRANCH   1  23
TORSDOF 19
ENDMDL
MODEL 2
REMARK VINA RESULT:     -11.5      1.898      2.252
REMARK SMILES CCC[C@@]1(C(=O)OCCOC(=O)c2ccc(-c3c4nc(c(-c5cc(S(=O)(=O)[O-])ccc5F)c5ccc([nH]5)c(-c5cc(S(=O)(=O)[O-])ccc5F)c5nc(c(-c6cc(S(=O)(=O)[O-])ccc6F)c6ccc3[nH]6)C=C5)C=C4)cc2)CCCN(C(=O)C[C@H]2CCCCO2)C1
REMARK SMILES IDX 8 1 7 2 5 3 6 4 4 5 76 6 89 7 77 8 79 9 78 10 3 11 2 12 1 13
REMARK SMILES IDX 80 14 81 15 82 16 83 17 84 18 88 19 85 20 87 21 86 22 9 23
REMARK SMILES IDX 10 24 11 25 12 26 13 27 14 28 75 29 15 30 74 31 16 32 17 33
REMARK SMILES IDX 18 34 68 35 19 36 73 37 67 38 69 39 20 40 72 41 66 42 65 43
REMARK SMILES IDX 21 45 53 46 33 47 52 48 34 49 37 50 51 51 70 52 35 53 36 54
REMARK SMILES IDX 50 56 71 57 38 58 22 59 23 60 31 61 24 62 30 63 32 64 29 65
REMARK SMILES IDX 25 66 26 67 27 68 28 69 54 70 55 71 63 72 56 73 62 74 64 75
REMARK SMILES IDX 61 76 57 77 58 78 59 79 60 80 39 81 40 82 48 83 41 84 47 85
REMARK SMILES IDX 49 86 46 87 42 88 43 89 44 90 45 91
REMARK H PARENT 69 44 37 55
REMARK Flexibility Score: inf
ROOT
ATOM      1  C   UNL A   1      31.749  28.312  27.150  1.00  0.00     0.274 C 
ENDROOT
BRANCH   1   2
ATOM      2  O   UNL A   1      32.297  27.123  26.542  1.00  0.00    -0.462 OA
BRANCH   2   3
ATOM      3  C   UNL A   1      31.419  26.175  26.136  1.00  0.00     0.314 C 
ATOM      4  O   UNL A   1      30.266  26.127  26.546  1.00  0.00    -0.252 OA
BRANCH   3   5
ATOM      5  C   UNL A   1      32.037  25.122  25.191  1.00  0.00     0.086 C 
ATOM      6  C   UNL A   1      33.505  25.514  24.775  1.00  0.00     0.022 C 
ATOM      7  C   UNL A   1      31.167  25.161  23.910  1.00  0.00     0.138 C 
ATOM      8  C   UNL A   1      33.650  26.760  23.903  1.00  0.00     0.023 C 
ATOM      9  N   UNL A   1      31.339  26.435  23.184  1.00  0.00    -0.341 N 
ATOM     10  C   UNL A   1      32.699  26.693  22.718  1.00  0.00     0.119 C 
BRANCH   5  11
ATOM     11  C   UNL A   1      32.203  23.670  25.775  1.00  0.00     0.020 C 
BRANCH  11  12
ATOM     12  C   UNL A   1      33.534  23.104  26.275  1.00  0.00    -0.002 C 
ATOM     13  C   UNL A   1      33.481  22.406  27.620  1.00  0.00     0.004 C 
ENDBRANCH  11  12
ENDBRANCH   5  11
BRANCH   9  14
ATOM     14  C   UNL A   1      30.289  27.352  23.154  1.00  0.00     0.225 C 
ATOM     15  O   UNL A   1      29.131  27.002  23.402  1.00  0.00    -0.275 OA
BRANCH  14  16
ATOM     16  C   UNL A   1      30.584  28.808  22.804  1.00  0.00     0.132 C 
BRANCH  16  17
ATOM     17  C   UNL A   1      29.294  29.610  22.589  1.00  0.00     0.127 C 
ATOM     18  C   UNL A   1      29.175  30.788  23.565  1.00  0.00     0.033 C 
ATOM     19  O   UNL A   1      29.284  30.126  21.246  1.00  0.00    -0.378 OA
ATOM     20  C   UNL A   1      27.884  31.561  23.302  1.00  0.00     0.005 C 
ATOM     21  C   UNL A   1      28.044  30.762  20.928  1.00  0.00     0.160 C 
ATOM     22  C   UNL A   1      27.789  31.960  21.835  1.00  0.00     0.029 C 
ENDBRANCH  16  17
ENDBRANCH  14  16
ENDBRANCH   9  14
ENDBRANCH   3   5
ENDBRANCH   2   3
ENDBRANCH   1   2
BRANCH   1  23
ATOM     23  C   UNL A   1      31.750  29.471  26.152  1.00  0.00     0.275 C 
BRANCH  23  24
ATOM     24  O   UNL A   1      33.054  30.073  26.141  1.00  0.00    -0.458 OA
BRANCH  24  25
ATOM     25  C   UNL A   1      33.271  31.106  26.991  1.00  0.00     0.338 C 
ATOM     26  O   UNL A   1      32.557  32.074  27.173  1.00  0.00    -0.246 OA
BRANCH  25  27
ATOM     27  C   UNL A   1      34.550  30.861  27.693  1.00  0.00     0.060 A 
ATOM     28  C   UNL A   1      35.385  31.938  27.982  1.00  0.00     0.016 A 
ATOM     29  C   UNL A   1      34.949  29.575  28.043  1.00  0.00     0.016 A 
ATOM     30  C   UNL A   1      36.610  31.760  28.608  1.00  0.00     0.010 A 
ATOM     31  C   UNL A   1      36.150  29.397  28.747  1.00  0.00     0.010 A 
ATOM     32  C   UNL A   1      36.986  30.492  29.046  1.00  0.00    -0.014 A 
BRANCH  32  33
ATOM     33  C   UNL A   1      38.245  30.319  29.815  1.00  0.00     0.031 A 
ATOM     34  C   UNL A   1      39.326  29.431  29.276  1.00  0.00     0.074 A 
ATOM     35  C   UNL A   1      38.426  30.975  30.980  1.00  0.00     0.049 A 
ATOM     36  N   UNL A   1      40.373  28.941  29.886  1.00  0.00    -0.248 NA
ATOM     37  C   UNL A   1      39.212  29.043  27.862  1.00  0.00     0.031 C 
ATOM     38  C   UNL A   1      37.499  31.952  31.560  1.00  0.00     0.029 A 
ATOM     39  N   UNL A   1      39.451  30.917  31.894  1.00  0.00    -0.354 N 
ATOM     40  C   UNL A   1      41.021  28.149  28.945  1.00  0.00     0.074 A 
ATOM     41  C   UNL A   1      40.250  28.229  27.722  1.00  0.00     0.031 C 
ATOM     42  C   UNL A   1      38.002  32.407  32.717  1.00  0.00     0.029 A 
ATOM     43  C   UNL A   1      39.223  31.674  33.022  1.00  0.00     0.049 A 
ATOM     44  H   UNL A   1      40.269  30.387  31.755  1.00  0.00     0.167 HD
ATOM     45  C   UNL A   1      42.149  27.416  29.102  1.00  0.00     0.034 A 
ATOM     46  C   UNL A   1      39.876  31.712  34.202  1.00  0.00     0.034 A 
ATOM     47  C   UNL A   1      42.905  27.365  30.330  1.00  0.00     0.049 A 
ATOM     48  C   UNL A   1      41.054  30.792  34.396  1.00  0.00     0.074 A 
ATOM     49  C   UNL A   1      44.042  26.634  30.618  1.00  0.00     0.029 A 
ATOM     50  N   UNL A   1      42.596  28.086  31.478  1.00  0.00    -0.354 N 
ATOM     51  N   UNL A   1      41.601  29.961  33.538  1.00  0.00    -0.248 NA
ATOM     52  C   UNL A   1      41.683  30.792  35.723  1.00  0.00     0.031 C 
ATOM     53  C   UNL A   1      44.391  26.869  31.953  1.00  0.00     0.029 A 
ATOM     54  C   UNL A   1      43.505  27.794  32.482  1.00  0.00     0.049 A 
ATOM     55  H   UNL A   1      41.842  28.711  31.564  1.00  0.00     0.167 HD
ATOM     56  C   UNL A   1      42.637  29.336  34.226  1.00  0.00     0.074 A 
ATOM     57  C   UNL A   1      42.660  29.912  35.556  1.00  0.00     0.031 C 
ATOM     58  C   UNL A   1      43.488  28.368  33.805  1.00  0.00     0.034 A 
BRANCH  45  59
ATOM     59  C   UNL A   1      42.585  26.554  27.945  1.00  0.00     0.023 A 
ATOM     60  C   UNL A   1      42.112  25.242  27.772  1.00  0.00     0.031 A 
ATOM     61  C   UNL A   1      43.507  27.055  27.008  1.00  0.00     0.131 A 
ATOM     62  C   UNL A   1      42.599  24.461  26.714  1.00  0.00     0.055 A 
ATOM     63  C   UNL A   1      43.939  26.293  25.922  1.00  0.00     0.041 A 
ATOM     64  F   UNL A   1      44.010  28.292  27.140  1.00  0.00    -0.206 F 
ATOM     65  C   UNL A   1      43.492  24.985  25.775  1.00  0.00     0.022 A 
BRANCH  62  66
ATOM     66  S   UNL A   1      42.129  22.710  26.636  1.00  0.00     0.124 S 
ATOM     67  O   UNL A   1      40.692  22.801  26.393  1.00  0.00    -0.237 OA
ATOM     68  O   UNL A   1      42.935  22.216  25.524  1.00  0.00    -0.237 OA
ATOM     69  O   UNL A   1      42.501  22.196  27.952  1.00  0.00    -0.744 OA
ENDBRANCH  62  66
ENDBRANCH  45  59
BRANCH  46  70
ATOM     70  C   UNL A   1      39.364  32.544  35.331  1.00  0.00     0.023 A 
ATOM     71  C   UNL A   1      39.839  33.846  35.551  1.00  0.00     0.031 A 
ATOM     72  C   UNL A   1      38.434  32.021  36.251  1.00  0.00     0.131 A 
ATOM     73  C   UNL A   1      39.414  34.565  36.681  1.00  0.00     0.055 A 
ATOM     74  C   UNL A   1      37.967  32.764  37.337  1.00  0.00     0.041 A 
ATOM     75  F   UNL A   1      37.954  30.776  36.101  1.00  0.00    -0.206 F 
ATOM     76  C   UNL A   1      38.470  34.039  37.565  1.00  0.00     0.022 A 
BRANCH  73  77
ATOM     77  S   UNL A   1      40.199  36.161  37.041  1.00  0.00     0.124 S 
ATOM     78  O   UNL A   1      40.166  36.810  35.736  1.00  0.00    -0.237 OA
ATOM     79  O   UNL A   1      39.306  36.712  38.054  1.00  0.00    -0.237 OA
ATOM     80  O   UNL A   1      41.527  35.786  37.520  1.00  0.00    -0.744 OA
ENDBRANCH  73  77
ENDBRANCH  46  70
BRANCH  58  81
ATOM     81  C   UNL A   1      44.514  27.896  34.802  1.00  0.00     0.023 A 
ATOM     82  C   UNL A   1      44.149  27.101  35.901  1.00  0.00     0.031 A 
ATOM     83  C   UNL A   1      45.862  28.265  34.661  1.00  0.00     0.131 A 
ATOM     84  C   UNL A   1      45.118  26.739  36.849  1.00  0.00     0.055 A 
ATOM     85  C   UNL A   1      46.830  27.859  35.579  1.00  0.00     0.041 A 
ATOM     86  F   UNL A   1      46.258  29.025  33.627  1.00  0.00    -0.206 F 
ATOM     87  C   UNL A   1      46.458  27.101  36.687  1.00  0.00     0.022 A 
BRANCH  84  88
ATOM     88  S   UNL A   1      44.588  25.846  38.335  1.00  0.00     0.124 S 
ATOM     89  O   UNL A   1      44.801  24.456  37.946  1.00  0.00    -0.237 OA
ATOM     90  O   UNL A   1      45.492  26.368  39.355  1.00  0.00    -0.237 OA
ATOM     91  O   UNL A   1      43.189  26.239  38.491  1.00  0.00    -0.744 OA
ENDBRANCH  84  88
ENDBRANCH  58  81
ENDBRANCH  32  33
ENDBRANCH  25  27
ENDBRANCH  24  25
ENDBRANCH  23  24
ENDBRANCH   1  23
TORSDOF 19
ENDMDL
MODEL 3
REMARK VINA RESULT:     -11.4      5.160     10.254
REMARK SMILES CCC[C@@]1(C(=O)OCCOC(=O)c2ccc(-c3c4nc(c(-c5cc(S(=O)(=O)[O-])ccc5F)c5ccc([nH]5)c(-c5cc(S(=O)(=O)[O-])ccc5F)c5nc(c(-c6cc(S(=O)(=O)[O-])ccc6F)c6ccc3[nH]6)C=C5)C=C4)cc2)CCCN(C(=O)C[C@H]2CCCCO2)C1
REMARK SMILES IDX 8 1 7 2 5 3 6 4 4 5 76 6 89 7 77 8 79 9 78 10 3 11 2 12 1 13
REMARK SMILES IDX 80 14 81 15 82 16 83 17 84 18 88 19 85 20 87 21 86 22 9 23
REMARK SMILES IDX 10 24 11 25 12 26 13 27 14 28 75 29 15 30 74 31 16 32 17 33
REMARK SMILES IDX 18 34 68 35 19 36 73 37 67 38 69 39 20 40 72 41 66 42 65 43
REMARK SMILES IDX 21 45 53 46 33 47 52 48 34 49 37 50 51 51 70 52 35 53 36 54
REMARK SMILES IDX 50 56 71 57 38 58 22 59 23 60 31 61 24 62 30 63 32 64 29 65
REMARK SMILES IDX 25 66 26 67 27 68 28 69 54 70 55 71 63 72 56 73 62 74 64 75
REMARK SMILES IDX 61 76 57 77 58 78 59 79 60 80 39 81 40 82 48 83 41 84 47 85
REMARK SMILES IDX 49 86 46 87 42 88 43 89 44 90 45 91
REMARK H PARENT 69 44 37 55
REMARK Flexibility Score: inf
ROOT
ATOM      1  C   UNL A   1      36.550  22.883  23.548  1.00  0.00     0.274 C 
ENDROOT
BRANCH   1   2
ATOM      2  O   UNL A   1      35.587  23.888  23.933  1.00  0.00    -0.462 OA
BRANCH   2   3
ATOM      3  C   UNL A   1      34.379  23.852  23.323  1.00  0.00     0.314 C 
ATOM      4  O   UNL A   1      34.210  23.338  22.224  1.00  0.00    -0.252 OA
BRANCH   3   5
ATOM      5  C   UNL A   1      33.271  24.597  24.100  1.00  0.00     0.086 C 
ATOM      6  C   UNL A   1      33.733  24.950  25.563  1.00  0.00     0.022 C 
ATOM      7  C   UNL A   1      32.103  23.585  24.216  1.00  0.00     0.138 C 
ATOM      8  C   UNL A   1      33.960  23.769  26.505  1.00  0.00     0.023 C 
ATOM      9  N   UNL A   1      32.458  22.455  25.098  1.00  0.00    -0.341 N 
ATOM     10  C   UNL A   1      32.765  22.830  26.476  1.00  0.00     0.119 C 
BRANCH   5  11
ATOM     11  C   UNL A   1      32.821  25.987  23.516  1.00  0.00     0.020 C 
BRANCH  11  12
ATOM     12  C   UNL A   1      33.611  27.283  23.712  1.00  0.00    -0.002 C 
ATOM     13  C   UNL A   1      33.915  28.058  22.444  1.00  0.00     0.004 C 
ENDBRANCH  11  12
ENDBRANCH   5  11
BRANCH   9  14
ATOM     14  C   UNL A   1      32.652  21.191  24.544  1.00  0.00     0.225 C 
ATOM     15  O   UNL A   1      32.254  20.926  23.405  1.00  0.00    -0.275 OA
BRANCH  14  16
ATOM     16  C   UNL A   1      33.366  20.121  25.366  1.00  0.00     0.132 C 
BRANCH  16  17
ATOM     17  C   UNL A   1      33.103  18.714  24.814  1.00  0.00     0.127 C 
ATOM     18  C   UNL A   1      34.378  18.056  24.271  1.00  0.00     0.033 C 
ATOM     19  O   UNL A   1      32.577  17.889  25.869  1.00  0.00    -0.378 OA
ATOM     20  C   UNL A   1      34.066  16.657  23.746  1.00  0.00     0.005 C 
ATOM     21  C   UNL A   1      32.170  16.605  25.390  1.00  0.00     0.160 C 
ATOM     22  C   UNL A   1      33.350  15.834  24.810  1.00  0.00     0.029 C 
ENDBRANCH  16  17
ENDBRANCH  14  16
ENDBRANCH   9  14
ENDBRANCH   3   5
ENDBRANCH   2   3
ENDBRANCH   1   2
BRANCH   1  23
ATOM     23  C   UNL A   1      36.513  21.708  24.526  1.00  0.00     0.275 C 
BRANCH  23  24
ATOM     24  O   UNL A   1      37.145  22.104  25.753  1.00  0.00    -0.458 OA
BRANCH  24  25
ATOM     25  C   UNL A   1      38.401  21.649  25.983  1.00  0.00     0.338 C 
ATOM     26  O   UNL A   1      38.818  20.519  25.812  1.00  0.00    -0.246 OA
BRANCH  25  27
ATOM     27  C   UNL A   1      39.214  22.779  26.483  1.00  0.00     0.060 A 
ATOM     28  C   UNL A   1      38.887  24.076  26.092  1.00  0.00     0.016 A 
ATOM     29  C   UNL A   1      40.314  22.571  27.307  1.00  0.00     0.016 A 
ATOM     30  C   UNL A   1      39.636  25.168  26.503  1.00  0.00     0.010 A 
ATOM     31  C   UNL A   1      41.028  23.678  27.791  1.00  0.00     0.010 A 
ATOM     32  C   UNL A   1      40.686  24.989  27.402  1.00  0.00    -0.014 A 
BRANCH  32  33
ATOM     33  C   UNL A   1      41.417  26.170  27.929  1.00  0.00     0.031 A 
ATOM     34  C   UNL A   1      40.676  27.209  28.717  1.00  0.00     0.074 A 
ATOM     35  C   UNL A   1      42.744  26.298  27.720  1.00  0.00     0.049 A 
ATOM     36  N   UNL A   1      41.047  28.419  29.041  1.00  0.00    -0.248 NA
ATOM     37  C   UNL A   1      39.339  26.834  29.203  1.00  0.00     0.031 C 
ATOM     38  C   UNL A   1      43.602  25.306  27.063  1.00  0.00     0.029 A 
ATOM     39  N   UNL A   1      43.608  27.320  28.033  1.00  0.00    -0.354 N 
ATOM     40  C   UNL A   1      39.974  28.970  29.732  1.00  0.00     0.074 A 
ATOM     41  C   UNL A   1      38.939  27.958  29.782  1.00  0.00     0.031 C 
ATOM     42  C   UNL A   1      44.863  25.761  27.036  1.00  0.00     0.029 A 
ATOM     43  C   UNL A   1      44.887  27.119  27.562  1.00  0.00     0.049 A 
ATOM     44  H   UNL A   1      43.340  28.116  28.545  1.00  0.00     0.167 HD
ATOM     45  C   UNL A   1      39.866  30.213  30.260  1.00  0.00     0.034 A 
ATOM     46  C   UNL A   1      45.938  27.962  27.486  1.00  0.00     0.034 A 
ATOM     47  C   UNL A   1      40.920  31.197  30.207  1.00  0.00     0.049 A 
ATOM     48  C   UNL A   1      45.754  29.378  27.966  1.00  0.00     0.074 A 
ATOM     49  C   UNL A   1      40.915  32.497  30.677  1.00  0.00     0.029 A 
ATOM     50  N   UNL A   1      42.175  30.982  29.650  1.00  0.00    -0.354 N 
ATOM     51  N   UNL A   1      44.698  29.930  28.521  1.00  0.00    -0.248 NA
ATOM     52  C   UNL A   1      46.888  30.293  27.782  1.00  0.00     0.031 C 
ATOM     53  C   UNL A   1      42.144  33.086  30.358  1.00  0.00     0.029 A 
ATOM     54  C   UNL A   1      42.940  32.133  29.740  1.00  0.00     0.049 A 
ATOM     55  H   UNL A   1      42.475  30.135  29.249  1.00  0.00     0.167 HD
ATOM     56  C   UNL A   1      45.043  31.259  28.748  1.00  0.00     0.074 A 
ATOM     57  C   UNL A   1      46.413  31.415  28.303  1.00  0.00     0.031 C 
ATOM     58  C   UNL A   1      44.296  32.265  29.267  1.00  0.00     0.034 A 
BRANCH  45  59
ATOM     59  C   UNL A   1      38.543  30.597  30.869  1.00  0.00     0.023 A 
ATOM     60  C   UNL A   1      37.524  31.206  30.117  1.00  0.00     0.031 A 
ATOM     61  C   UNL A   1      38.307  30.364  32.237  1.00  0.00     0.131 A 
ATOM     62  C   UNL A   1      36.335  31.603  30.747  1.00  0.00     0.055 A 
ATOM     63  C   UNL A   1      37.098  30.704  32.843  1.00  0.00     0.041 A 
ATOM     64  F   UNL A   1      39.256  29.808  33.007  1.00  0.00    -0.206 F 
ATOM     65  C   UNL A   1      36.106  31.336  32.100  1.00  0.00     0.022 A 
BRANCH  62  66
ATOM     66  S   UNL A   1      35.127  32.569  29.799  1.00  0.00     0.124 S 
ATOM     67  O   UNL A   1      34.037  32.704  30.762  1.00  0.00    -0.237 OA
ATOM     68  O   UNL A   1      35.866  33.790  29.497  1.00  0.00    -0.237 OA
ATOM     69  O   UNL A   1      34.833  31.717  28.649  1.00  0.00    -0.744 OA
ENDBRANCH  62  66
ENDBRANCH  45  59
BRANCH  46  70
ATOM     70  C   UNL A   1      47.207  27.541  26.821  1.00  0.00     0.023 A 
ATOM     71  C   UNL A   1      47.372  27.646  25.431  1.00  0.00     0.031 A 
ATOM     72  C   UNL A   1      48.256  26.965  27.564  1.00  0.00     0.131 A 
ATOM     73  C   UNL A   1      48.536  27.147  24.824  1.00  0.00     0.055 A 
ATOM     74  C   UNL A   1      49.438  26.528  26.963  1.00  0.00     0.041 A 
ATOM     75  F   UNL A   1      48.151  26.824  28.895  1.00  0.00    -0.206 F 
ATOM     76  C   UNL A   1      49.576  26.604  25.582  1.00  0.00     0.022 A 
BRANCH  73  77
ATOM     77  S   UNL A   1      48.627  27.115  23.013  1.00  0.00     0.124 S 
ATOM     78  O   UNL A   1      48.278  25.730  22.721  1.00  0.00    -0.237 OA
ATOM     79  O   UNL A   1      47.632  28.118  22.645  1.00  0.00    -0.237 OA
ATOM     80  O   UNL A   1      50.013  27.483  22.735  1.00  0.00    -0.744 OA
ENDBRANCH  73  77
ENDBRANCH  46  70
BRANCH  58  81
ATOM     81  C   UNL A   1      44.967  33.608  29.387  1.00  0.00     0.023 A 
ATOM     82  C   UNL A   1      45.034  34.488  28.294  1.00  0.00     0.031 A 
ATOM     83  C   UNL A   1      45.564  33.997  30.597  1.00  0.00     0.131 A 
ATOM     84  C   UNL A   1      45.729  35.699  28.419  1.00  0.00     0.055 A 
ATOM     85  C   UNL A   1      46.210  35.227  30.730  1.00  0.00     0.041 A 
ATOM     86  F   UNL A   1      45.527  33.189  31.669  1.00  0.00    -0.206 F 
ATOM     87  C   UNL A   1      46.305  36.080  29.634  1.00  0.00     0.022 A 
BRANCH  84  88
ATOM     88  S   UNL A   1      45.931  36.742  26.949  1.00  0.00     0.124 S 
ATOM     89  O   UNL A   1      44.800  37.655  27.067  1.00  0.00    -0.237 OA
ATOM     90  O   UNL A   1      47.251  37.329  27.158  1.00  0.00    -0.237 OA
ATOM     91  O   UNL A   1      45.847  35.791  25.841  1.00  0.00    -0.744 OA
ENDBRANCH  84  88
ENDBRANCH  58  81
ENDBRANCH  32  33
ENDBRANCH  25  27
ENDBRANCH  24  25
ENDBRANCH  23  24
ENDBRANCH   1  23
TORSDOF 19
ENDMDL
