MODEL 1
REMARK VINA RESULT:     -12.1      0.000      0.000
REMARK SMILES Cc1cc(C)nc(N2CCCC[C@H]2C(=O)OCCOC(=O)c2ccc(-c3c4nc(c(-c5cc(S(=O)(=O)[O-])ccc5F)c5ccc([nH]5)c(-c5cc(S(=O)(=O)[O-])ccc5F)c5nc(c(-c6cc(S(=O)(=O)[O-])ccc6F)c6ccc3[nH]6)C=C5)C=C4)cc2)n1
REMARK SMILES IDX 18 1 17 2 16 3 14 4 15 5 13 6 8 7 9 8 10 9 12 10 11 11 7 12
REMARK SMILES IDX 1 13 2 14 3 15 85 16 4 17 5 18 6 19 19 20 20 21 21 22 22 23
REMARK SMILES IDX 23 24 84 25 24 26 83 27 25 28 26 29 27 30 77 31 28 32 82 33
REMARK SMILES IDX 76 34 78 35 29 36 81 37 75 38 74 39 30 41 62 42 42 43 61 44
REMARK SMILES IDX 43 45 46 46 60 47 79 48 44 49 45 50 59 52 80 53 47 54 31 55
REMARK SMILES IDX 32 56 40 57 33 58 39 59 41 60 38 61 34 62 35 63 36 64 37 65
REMARK SMILES IDX 63 66 64 67 72 68 65 69 71 70 73 71 70 72 66 73 67 74 68 75
REMARK SMILES IDX 69 76 48 77 49 78 57 79 50 80 56 81 58 82 55 83 51 84 52 85
REMARK SMILES IDX 53 86 54 87
REMARK H PARENT 78 40 46 51
REMARK Flexibility Score: inf
ROOT
ATOM      1  C   UNL A   1      31.808  30.038  26.961  1.00  0.00     0.275 C 
ENDROOT
BRANCH   1   2
ATOM      2  C   UNL A   1      31.757  28.532  26.733  1.00  0.00     0.274 C 
BRANCH   2   3
ATOM      3  O   UNL A   1      31.389  28.238  25.371  1.00  0.00    -0.461 OA
BRANCH   3   4
ATOM      4  C   UNL A   1      31.242  26.916  25.056  1.00  0.00     0.328 C 
ATOM      5  O   UNL A   1      31.212  26.012  25.885  1.00  0.00    -0.250 OA
BRANCH   4   6
ATOM      6  C   UNL A   1      31.155  26.713  23.530  1.00  0.00     0.195 C 
ATOM      7  N   UNL A   1      31.164  27.991  22.829  1.00  0.00    -0.327 N 
ATOM      8  C   UNL A   1      32.361  28.805  22.815  1.00  0.00     0.120 C 
ATOM      9  C   UNL A   1      33.561  27.977  22.342  1.00  0.00     0.022 C 
ATOM     10  C   UNL A   1      32.289  25.877  22.918  1.00  0.00     0.037 C 
ATOM     11  C   UNL A   1      33.640  26.590  22.985  1.00  0.00     0.005 C 
BRANCH   7  12
ATOM     12  C   UNL A   1      29.946  28.512  22.507  1.00  0.00     0.226 A 
ATOM     13  C   UNL A   1      28.709  31.665  21.127  1.00  0.00     0.067 C 
ATOM     14  C   UNL A   1      28.724  30.337  21.818  1.00  0.00     0.043 A 
ATOM     15  C   UNL A   1      27.584  29.828  22.400  1.00  0.00     0.047 A 
ATOM     16  N   UNL A   1      29.906  29.700  21.886  1.00  0.00    -0.218 NA
ATOM     17  C   UNL A   1      27.713  28.604  23.023  1.00  0.00     0.043 A 
ATOM     18  C   UNL A   1      26.568  28.012  23.786  1.00  0.00     0.067 C 
ATOM     19  N   UNL A   1      28.871  27.920  23.040  1.00  0.00    -0.218 NA
ENDBRANCH   7  12
ENDBRANCH   4   6
ENDBRANCH   3   4
ENDBRANCH   2   3
ENDBRANCH   1   2
BRANCH   1  20
ATOM     20  O   UNL A   1      33.096  30.529  26.554  1.00  0.00    -0.458 OA
BRANCH  20  21
ATOM     21  C   UNL A   1      33.590  31.555  27.279  1.00  0.00     0.338 C 
ATOM     22  O   UNL A   1      33.022  32.589  27.595  1.00  0.00    -0.246 OA
BRANCH  21  23
ATOM     23  C   UNL A   1      34.940  31.200  27.734  1.00  0.00     0.060 A 
ATOM     24  C   UNL A   1      35.193  29.871  28.062  1.00  0.00     0.016 A 
ATOM     25  C   UNL A   1      35.909  32.174  27.952  1.00  0.00     0.016 A 
ATOM     26  C   UNL A   1      36.376  29.511  28.696  1.00  0.00     0.010 A 
ATOM     27  C   UNL A   1      37.137  31.798  28.511  1.00  0.00     0.010 A 
ATOM     28  C   UNL A   1      37.368  30.470  28.924  1.00  0.00    -0.014 A 
BRANCH  28  29
ATOM     29  C   UNL A   1      38.605  30.108  29.665  1.00  0.00     0.031 A 
ATOM     30  C   UNL A   1      39.578  29.139  29.048  1.00  0.00     0.074 A 
ATOM     31  C   UNL A   1      38.883  30.660  30.863  1.00  0.00     0.049 A 
ATOM     32  N   UNL A   1      40.600  28.528  29.588  1.00  0.00    -0.248 NA
ATOM     33  C   UNL A   1      39.361  28.813  27.629  1.00  0.00     0.031 C 
ATOM     34  C   UNL A   1      38.079  31.685  31.532  1.00  0.00     0.029 A 
ATOM     35  N   UNL A   1      39.923  30.437  31.732  1.00  0.00    -0.354 N 
ATOM     36  C   UNL A   1      41.117  27.704  28.593  1.00  0.00     0.074 A 
ATOM     37  C   UNL A   1      40.291  27.893  27.420  1.00  0.00     0.031 C 
ATOM     38  C   UNL A   1      38.666  32.016  32.694  1.00  0.00     0.029 A 
ATOM     39  C   UNL A   1      39.832  31.162  32.897  1.00  0.00     0.049 A 
ATOM     40  H   UNL A   1      40.662  29.817  31.539  1.00  0.00     0.167 HD
ATOM     41  C   UNL A   1      42.178  26.862  28.660  1.00  0.00     0.034 A 
ATOM     42  C   UNL A   1      40.570  31.108  34.025  1.00  0.00     0.034 A 
ATOM     43  C   UNL A   1      43.009  26.711  29.831  1.00  0.00     0.049 A 
ATOM     44  C   UNL A   1      41.691  30.105  34.110  1.00  0.00     0.074 A 
ATOM     45  C   UNL A   1      44.098  25.877  30.017  1.00  0.00     0.029 A 
ATOM     46  N   UNL A   1      42.845  27.418  31.015  1.00  0.00    -0.354 N 
ATOM     47  N   UNL A   1      42.111  29.256  33.200  1.00  0.00    -0.248 NA
ATOM     48  C   UNL A   1      42.423  30.037  35.381  1.00  0.00     0.031 C 
ATOM     49  C   UNL A   1      44.558  26.042  31.330  1.00  0.00     0.029 A 
ATOM     50  C   UNL A   1      43.796  27.023  31.943  1.00  0.00     0.049 A 
ATOM     51  H   UNL A   1      42.153  28.100  31.173  1.00  0.00     0.167 HD
ATOM     52  C   UNL A   1      43.165  28.562  33.787  1.00  0.00     0.074 A 
ATOM     53  C   UNL A   1      43.327  29.105  35.121  1.00  0.00     0.031 C 
ATOM     54  C   UNL A   1      43.931  27.566  33.274  1.00  0.00     0.034 A 
BRANCH  41  55
ATOM     55  C   UNL A   1      42.440  25.987  27.459  1.00  0.00     0.023 A 
ATOM     56  C   UNL A   1      41.963  24.667  27.374  1.00  0.00     0.031 A 
ATOM     57  C   UNL A   1      43.231  26.472  26.402  1.00  0.00     0.131 A 
ATOM     58  C   UNL A   1      42.340  23.858  26.290  1.00  0.00     0.055 A 
ATOM     59  C   UNL A   1      43.540  25.685  25.291  1.00  0.00     0.041 A 
ATOM     60  F   UNL A   1      43.733  27.716  26.440  1.00  0.00    -0.206 F 
ATOM     61  C   UNL A   1      43.107  24.365  25.238  1.00  0.00     0.022 A 
BRANCH  58  62
ATOM     62  S   UNL A   1      41.933  22.090  26.343  1.00  0.00     0.124 S 
ATOM     63  O   UNL A   1      40.496  22.109  26.082  1.00  0.00    -0.237 OA
ATOM     64  O   UNL A   1      42.769  21.542  25.283  1.00  0.00    -0.237 OA
ATOM     65  O   UNL A   1      42.306  21.694  27.700  1.00  0.00    -0.744 OA
ENDBRANCH  58  62
ENDBRANCH  41  55
BRANCH  42  66
ATOM     66  C   UNL A   1      40.223  31.959  35.199  1.00  0.00     0.023 A 
ATOM     67  C   UNL A   1      39.273  31.542  36.145  1.00  0.00     0.031 A 
ATOM     68  C   UNL A   1      40.803  33.231  35.363  1.00  0.00     0.131 A 
ATOM     69  C   UNL A   1      38.906  32.403  37.192  1.00  0.00     0.055 A 
ATOM     70  C   UNL A   1      40.474  34.060  36.436  1.00  0.00     0.041 A 
ATOM     71  F   UNL A   1      41.712  33.682  34.484  1.00  0.00    -0.206 F 
ATOM     72  C   UNL A   1      39.511  33.652  37.352  1.00  0.00     0.022 A 
BRANCH  69  73
ATOM     73  S   UNL A   1      37.564  31.897  38.303  1.00  0.00     0.124 S 
ATOM     74  O   UNL A   1      37.300  30.536  37.850  1.00  0.00    -0.237 OA
ATOM     75  O   UNL A   1      38.190  32.026  39.615  1.00  0.00    -0.237 OA
ATOM     76  O   UNL A   1      36.507  32.864  38.021  1.00  0.00    -0.744 OA
ENDBRANCH  69  73
ENDBRANCH  42  66
BRANCH  54  77
ATOM     77  C   UNL A   1      45.034  27.036  34.154  1.00  0.00     0.023 A 
ATOM     78  C   UNL A   1      44.852  25.899  34.959  1.00  0.00     0.031 A 
ATOM     79  C   UNL A   1      46.276  27.693  34.199  1.00  0.00     0.131 A 
ATOM     80  C   UNL A   1      45.881  25.480  35.815  1.00  0.00     0.055 A 
ATOM     81  C   UNL A   1      47.313  27.243  35.016  1.00  0.00     0.041 A 
ATOM     82  F   UNL A   1      46.499  28.785  33.451  1.00  0.00    -0.206 F 
ATOM     83  C   UNL A   1      47.115  26.137  35.839  1.00  0.00     0.022 A 
BRANCH  80  84
ATOM     84  S   UNL A   1      45.564  24.107  36.957  1.00  0.00     0.124 S 
ATOM     85  O   UNL A   1      44.766  24.753  37.995  1.00  0.00    -0.237 OA
ATOM     86  O   UNL A   1      44.854  23.154  36.110  1.00  0.00    -0.237 OA
ATOM     87  O   UNL A   1      46.901  23.689  37.372  1.00  0.00    -0.744 OA
ENDBRANCH  80  84
ENDBRANCH  54  77
ENDBRANCH  28  29
ENDBRANCH  21  23
ENDBRANCH  20  21
ENDBRANCH   1  20
TORSDOF 15
ENDMDL
MODEL 2
REMARK VINA RESULT:     -12.1      5.318     10.158
REMARK SMILES Cc1cc(C)nc(N2CCCC[C@H]2C(=O)OCCOC(=O)c2ccc(-c3c4nc(c(-c5cc(S(=O)(=O)[O-])ccc5F)c5ccc([nH]5)c(-c5cc(S(=O)(=O)[O-])ccc5F)c5nc(c(-c6cc(S(=O)(=O)[O-])ccc6F)c6ccc3[nH]6)C=C5)C=C4)cc2)n1
REMARK SMILES IDX 18 1 17 2 16 3 14 4 15 5 13 6 8 7 9 8 10 9 12 10 11 11 7 12
REMARK SMILES IDX 1 13 2 14 3 15 85 16 4 17 5 18 6 19 19 20 20 21 21 22 22 23
REMARK SMILES IDX 23 24 84 25 24 26 83 27 25 28 26 29 27 30 77 31 28 32 82 33
REMARK SMILES IDX 76 34 78 35 29 36 81 37 75 38 74 39 30 41 62 42 42 43 61 44
REMARK SMILES IDX 43 45 46 46 60 47 79 48 44 49 45 50 59 52 80 53 47 54 31 55
REMARK SMILES IDX 32 56 40 57 33 58 39 59 41 60 38 61 34 62 35 63 36 64 37 65
REMARK SMILES IDX 63 66 64 67 72 68 65 69 71 70 73 71 70 72 66 73 67 74 68 75
REMARK SMILES IDX 69 76 48 77 49 78 57 79 50 80 56 81 58 82 55 83 51 84 52 85
REMARK SMILES IDX 53 86 54 87
REMARK H PARENT 78 40 46 51
REMARK Flexibility Score: inf
ROOT
ATOM      1  C   UNL A   1      36.764  20.695  24.968  1.00  0.00     0.275 C 
ENDROOT
BRANCH   1   2
ATOM      2  C   UNL A   1      35.293  21.084  25.063  1.00  0.00     0.274 C 
BRANCH   2   3
ATOM      3  O   UNL A   1      35.131  22.255  25.887  1.00  0.00    -0.461 OA
BRANCH   3   4
ATOM      4  C   UNL A   1      34.665  23.376  25.259  1.00  0.00     0.328 C 
ATOM      5  O   UNL A   1      35.092  23.790  24.185  1.00  0.00    -0.250 OA
BRANCH   4   6
ATOM      6  C   UNL A   1      33.564  24.064  26.090  1.00  0.00     0.195 C 
ATOM      7  N   UNL A   1      32.627  24.778  25.231  1.00  0.00    -0.327 N 
ATOM      8  C   UNL A   1      31.736  24.045  24.359  1.00  0.00     0.120 C 
ATOM      9  C   UNL A   1      30.963  22.988  25.155  1.00  0.00     0.022 C 
ATOM     10  C   UNL A   1      32.719  23.121  26.960  1.00  0.00     0.037 C 
ATOM     11  C   UNL A   1      31.839  22.191  26.125  1.00  0.00     0.005 C 
BRANCH   7  12
ATOM     12  C   UNL A   1      32.871  26.107  25.046  1.00  0.00     0.226 A 
ATOM     13  C   UNL A   1      33.922  28.230  22.259  1.00  0.00     0.067 C 
ATOM     14  C   UNL A   1      33.635  27.776  23.657  1.00  0.00     0.043 A 
ATOM     15  C   UNL A   1      33.932  28.577  24.737  1.00  0.00     0.047 A 
ATOM     16  N   UNL A   1      33.128  26.539  23.802  1.00  0.00    -0.218 NA
ATOM     17  C   UNL A   1      33.641  28.055  25.981  1.00  0.00     0.043 A 
ATOM     18  C   UNL A   1      34.027  28.791  27.227  1.00  0.00     0.067 C 
ATOM     19  N   UNL A   1      33.069  26.848  26.142  1.00  0.00    -0.218 NA
ENDBRANCH   7  12
ENDBRANCH   4   6
ENDBRANCH   3   4
ENDBRANCH   2   3
ENDBRANCH   1   2
BRANCH   1  20
ATOM     20  O   UNL A   1      37.568  21.793  25.428  1.00  0.00    -0.458 OA
BRANCH  20  21
ATOM     21  C   UNL A   1      38.782  21.466  25.921  1.00  0.00     0.338 C 
ATOM     22  O   UNL A   1      39.378  20.407  25.800  1.00  0.00    -0.246 OA
BRANCH  21  23
ATOM     23  C   UNL A   1      39.353  22.647  26.581  1.00  0.00     0.060 A 
ATOM     24  C   UNL A   1      38.908  23.903  26.178  1.00  0.00     0.016 A 
ATOM     25  C   UNL A   1      40.397  22.532  27.493  1.00  0.00     0.016 A 
ATOM     26  C   UNL A   1      39.556  25.055  26.606  1.00  0.00     0.010 A 
ATOM     27  C   UNL A   1      40.994  23.695  27.994  1.00  0.00     0.010 A 
ATOM     28  C   UNL A   1      40.605  24.967  27.526  1.00  0.00    -0.014 A 
BRANCH  28  29
ATOM     29  C   UNL A   1      41.350  26.188  27.934  1.00  0.00     0.031 A 
ATOM     30  C   UNL A   1      40.652  27.236  28.760  1.00  0.00     0.074 A 
ATOM     31  C   UNL A   1      42.646  26.353  27.605  1.00  0.00     0.049 A 
ATOM     32  N   UNL A   1      41.029  28.454  29.050  1.00  0.00    -0.248 NA
ATOM     33  C   UNL A   1      39.348  26.856  29.328  1.00  0.00     0.031 C 
ATOM     34  C   UNL A   1      43.472  25.375  26.894  1.00  0.00     0.029 A 
ATOM     35  N   UNL A   1      43.500  27.405  27.828  1.00  0.00    -0.354 N 
ATOM     36  C   UNL A   1      39.987  29.006  29.789  1.00  0.00     0.074 A 
ATOM     37  C   UNL A   1      38.963  27.988  29.898  1.00  0.00     0.031 C 
ATOM     38  C   UNL A   1      44.715  25.864  26.758  1.00  0.00     0.029 A 
ATOM     39  C   UNL A   1      44.751  27.224  27.286  1.00  0.00     0.049 A 
ATOM     40  H   UNL A   1      43.240  28.212  28.327  1.00  0.00     0.167 HD
ATOM     41  C   UNL A   1      39.895  30.251  30.320  1.00  0.00     0.034 A 
ATOM     42  C   UNL A   1      45.792  28.074  27.175  1.00  0.00     0.034 A 
ATOM     43  C   UNL A   1      40.941  31.241  30.228  1.00  0.00     0.049 A 
ATOM     44  C   UNL A   1      45.637  29.481  27.696  1.00  0.00     0.074 A 
ATOM     45  C   UNL A   1      40.950  32.538  30.713  1.00  0.00     0.029 A 
ATOM     46  N   UNL A   1      42.170  31.040  29.614  1.00  0.00    -0.354 N 
ATOM     47  N   UNL A   1      44.609  30.028  28.305  1.00  0.00    -0.248 NA
ATOM     48  C   UNL A   1      46.772  30.389  27.493  1.00  0.00     0.031 C 
ATOM     49  C   UNL A   1      42.162  33.136  30.345  1.00  0.00     0.029 A 
ATOM     50  C   UNL A   1      42.935  32.194  29.686  1.00  0.00     0.049 A 
ATOM     51  H   UNL A   1      42.457  30.200  29.189  1.00  0.00     0.167 HD
ATOM     52  C   UNL A   1      44.983  31.343  28.568  1.00  0.00     0.074 A 
ATOM     53  C   UNL A   1      46.334  31.499  28.069  1.00  0.00     0.031 C 
ATOM     54  C   UNL A   1      44.275  32.334  29.168  1.00  0.00     0.034 A 
BRANCH  41  55
ATOM     55  C   UNL A   1      38.586  30.627  30.970  1.00  0.00     0.023 A 
ATOM     56  C   UNL A   1      37.541  31.238  30.256  1.00  0.00     0.031 A 
ATOM     57  C   UNL A   1      38.407  30.415  32.350  1.00  0.00     0.131 A 
ATOM     58  C   UNL A   1      36.394  31.678  30.937  1.00  0.00     0.055 A 
ATOM     59  C   UNL A   1      37.233  30.789  33.006  1.00  0.00     0.041 A 
ATOM     60  F   UNL A   1      39.380  29.858  33.088  1.00  0.00    -0.206 F 
ATOM     61  C   UNL A   1      36.225  31.438  32.302  1.00  0.00     0.022 A 
BRANCH  58  62
ATOM     62  S   UNL A   1      35.189  32.696  30.040  1.00  0.00     0.124 S 
ATOM     63  O   UNL A   1      34.224  33.008  31.092  1.00  0.00    -0.237 OA
ATOM     64  O   UNL A   1      36.004  33.808  29.569  1.00  0.00    -0.237 OA
ATOM     65  O   UNL A   1      34.692  31.800  28.997  1.00  0.00    -0.744 OA
ENDBRANCH  58  62
ENDBRANCH  41  55
BRANCH  42  66
ATOM     66  C   UNL A   1      47.038  27.660  26.469  1.00  0.00     0.023 A 
ATOM     67  C   UNL A   1      47.200  27.878  25.092  1.00  0.00     0.031 A 
ATOM     68  C   UNL A   1      48.067  26.991  27.157  1.00  0.00     0.131 A 
ATOM     69  C   UNL A   1      48.348  27.400  24.440  1.00  0.00     0.055 A 
ATOM     70  C   UNL A   1      49.230  26.566  26.514  1.00  0.00     0.041 A 
ATOM     71  F   UNL A   1      47.960  26.750  28.473  1.00  0.00    -0.206 F 
ATOM     72  C   UNL A   1      49.370  26.759  25.144  1.00  0.00     0.022 A 
BRANCH  69  73
ATOM     73  S   UNL A   1      48.453  27.558  22.636  1.00  0.00     0.124 S 
ATOM     74  O   UNL A   1      49.694  28.309  22.475  1.00  0.00    -0.237 OA
ATOM     75  O   UNL A   1      48.485  26.164  22.209  1.00  0.00    -0.237 OA
ATOM     76  O   UNL A   1      47.235  28.286  22.287  1.00  0.00    -0.744 OA
ENDBRANCH  69  73
ENDBRANCH  42  66
BRANCH  54  77
ATOM     77  C   UNL A   1      44.976  33.656  29.345  1.00  0.00     0.023 A 
ATOM     78  C   UNL A   1      44.907  34.663  28.368  1.00  0.00     0.031 A 
ATOM     79  C   UNL A   1      45.739  33.900  30.500  1.00  0.00     0.131 A 
ATOM     80  C   UNL A   1      45.630  35.853  28.541  1.00  0.00     0.055 A 
ATOM     81  C   UNL A   1      46.417  35.104  30.689  1.00  0.00     0.041 A 
ATOM     82  F   UNL A   1      45.839  32.968  31.462  1.00  0.00    -0.206 F 
ATOM     83  C   UNL A   1      46.373  36.084  29.701  1.00  0.00     0.022 A 
BRANCH  80  84
ATOM     84  S   UNL A   1      45.649  37.068  27.194  1.00  0.00     0.124 S 
ATOM     85  O   UNL A   1      46.431  38.154  27.776  1.00  0.00    -0.237 OA
ATOM     86  O   UNL A   1      46.293  36.328  26.114  1.00  0.00    -0.237 OA
ATOM     87  O   UNL A   1      44.235  37.367  26.982  1.00  0.00    -0.744 OA
ENDBRANCH  80  84
ENDBRANCH  54  77
ENDBRANCH  28  29
ENDBRANCH  21  23
ENDBRANCH  20  21
ENDBRANCH   1  20
TORSDOF 15
ENDMDL
MODEL 3
REMARK VINA RESULT:     -12.1      1.610      3.019
REMARK SMILES Cc1cc(C)nc(N2CCCC[C@H]2C(=O)OCCOC(=O)c2ccc(-c3c4nc(c(-c5cc(S(=O)(=O)[O-])ccc5F)c5ccc([nH]5)c(-c5cc(S(=O)(=O)[O-])ccc5F)c5nc(c(-c6cc(S(=O)(=O)[O-])ccc6F)c6ccc3[nH]6)C=C5)C=C4)cc2)n1
REMARK SMILES IDX 18 1 17 2 16 3 14 4 15 5 13 6 8 7 9 8 10 9 12 10 11 11 7 12
REMARK SMILES IDX 1 13 2 14 3 15 85 16 4 17 5 18 6 19 19 20 20 21 21 22 22 23
REMARK SMILES IDX 23 24 84 25 24 26 83 27 25 28 26 29 27 30 77 31 28 32 82 33
REMARK SMILES IDX 76 34 78 35 29 36 81 37 75 38 74 39 30 41 62 42 42 43 61 44
REMARK SMILES IDX 43 45 46 46 60 47 79 48 44 49 45 50 59 52 80 53 47 54 31 55
REMARK SMILES IDX 32 56 40 57 33 58 39 59 41 60 38 61 34 62 35 63 36 64 37 65
REMARK SMILES IDX 63 66 64 67 72 68 65 69 71 70 73 71 70 72 66 73 67 74 68 75
REMARK SMILES IDX 69 76 48 77 49 78 57 79 50 80 56 81 58 82 55 83 51 84 52 85
REMARK SMILES IDX 53 86 54 87
REMARK H PARENT 78 40 46 51
REMARK Flexibility Score: inf
ROOT
ATOM      1  C   UNL A   1      31.864  30.148  26.847  1.00  0.00     0.275 C 
ENDROOT
BRANCH   1   2
ATOM      2  C   UNL A   1      31.673  28.678  27.204  1.00  0.00     0.274 C 
BRANCH   2   3
ATOM      3  O   UNL A   1      32.795  27.897  26.749  1.00  0.00    -0.461 OA
BRANCH   3   4
ATOM      4  C   UNL A   1      32.500  26.690  26.179  1.00  0.00     0.328 C 
ATOM      5  O   UNL A   1      31.693  25.890  26.642  1.00  0.00    -0.250 OA
BRANCH   4   6
ATOM      6  C   UNL A   1      33.337  26.455  24.905  1.00  0.00     0.195 C 
ATOM      7  N   UNL A   1      32.840  25.308  24.156  1.00  0.00    -0.327 N 
ATOM      8  C   UNL A   1      31.555  25.372  23.494  1.00  0.00     0.120 C 
ATOM      9  C   UNL A   1      31.479  26.613  22.599  1.00  0.00     0.022 C 
ATOM     10  C   UNL A   1      33.369  27.633  23.921  1.00  0.00     0.037 C 
ATOM     11  C   UNL A   1      32.010  27.884  23.267  1.00  0.00     0.005 C 
BRANCH   7  12
ATOM     12  C   UNL A   1      33.459  24.116  24.395  1.00  0.00     0.226 A 
ATOM     13  C   UNL A   1      36.672  22.594  23.537  1.00  0.00     0.067 C 
ATOM     14  C   UNL A   1      35.249  22.730  23.986  1.00  0.00     0.043 A 
ATOM     15  C   UNL A   1      34.501  21.621  24.310  1.00  0.00     0.047 A 
ATOM     16  N   UNL A   1      34.733  23.971  24.004  1.00  0.00    -0.218 NA
ATOM     17  C   UNL A   1      33.198  21.857  24.697  1.00  0.00     0.043 A 
ATOM     18  C   UNL A   1      32.261  20.719  24.961  1.00  0.00     0.067 C 
ATOM     19  N   UNL A   1      32.685  23.098  24.789  1.00  0.00    -0.218 NA
ENDBRANCH   7  12
ENDBRANCH   4   6
ENDBRANCH   3   4
ENDBRANCH   2   3
ENDBRANCH   1   2
BRANCH   1  20
ATOM     20  O   UNL A   1      33.264  30.400  26.642  1.00  0.00    -0.458 OA
BRANCH  20  21
ATOM     21  C   UNL A   1      33.779  31.445  27.326  1.00  0.00     0.338 C 
ATOM     22  O   UNL A   1      33.226  32.494  27.616  1.00  0.00    -0.246 OA
BRANCH  21  23
ATOM     23  C   UNL A   1      35.133  31.091  27.771  1.00  0.00     0.060 A 
ATOM     24  C   UNL A   1      35.396  29.757  28.073  1.00  0.00     0.016 A 
ATOM     25  C   UNL A   1      36.094  32.067  28.008  1.00  0.00     0.016 A 
ATOM     26  C   UNL A   1      36.582  29.394  28.698  1.00  0.00     0.010 A 
ATOM     27  C   UNL A   1      37.326  31.690  28.557  1.00  0.00     0.010 A 
ATOM     28  C   UNL A   1      37.568  30.356  28.944  1.00  0.00    -0.014 A 
BRANCH  28  29
ATOM     29  C   UNL A   1      38.809  29.988  29.676  1.00  0.00     0.031 A 
ATOM     30  C   UNL A   1      39.771  29.013  29.053  1.00  0.00     0.074 A 
ATOM     31  C   UNL A   1      39.099  30.542  30.870  1.00  0.00     0.049 A 
ATOM     32  N   UNL A   1      40.794  28.397  29.587  1.00  0.00    -0.248 NA
ATOM     33  C   UNL A   1      39.541  28.684  27.637  1.00  0.00     0.031 C 
ATOM     34  C   UNL A   1      38.306  31.573  31.543  1.00  0.00     0.029 A 
ATOM     35  N   UNL A   1      40.145  30.315  31.731  1.00  0.00    -0.354 N 
ATOM     36  C   UNL A   1      41.298  27.567  28.590  1.00  0.00     0.074 A 
ATOM     37  C   UNL A   1      40.464  27.759  27.423  1.00  0.00     0.031 C 
ATOM     38  C   UNL A   1      38.904  31.903  32.699  1.00  0.00     0.029 A 
ATOM     39  C   UNL A   1      40.068  31.044  32.895  1.00  0.00     0.049 A 
ATOM     40  H   UNL A   1      40.879  29.691  31.534  1.00  0.00     0.167 HD
ATOM     41  C   UNL A   1      42.355  26.719  28.651  1.00  0.00     0.034 A 
ATOM     42  C   UNL A   1      40.814  30.988  34.017  1.00  0.00     0.034 A 
ATOM     43  C   UNL A   1      43.194  26.567  29.815  1.00  0.00     0.049 A 
ATOM     44  C   UNL A   1      41.931  29.979  34.096  1.00  0.00     0.074 A 
ATOM     45  C   UNL A   1      44.280  25.727  29.995  1.00  0.00     0.029 A 
ATOM     46  N   UNL A   1      43.044  27.278  30.998  1.00  0.00    -0.354 N 
ATOM     47  N   UNL A   1      42.338  29.125  33.184  1.00  0.00    -0.248 NA
ATOM     48  C   UNL A   1      42.671  29.909  35.361  1.00  0.00     0.031 C 
ATOM     49  C   UNL A   1      44.752  25.892  31.303  1.00  0.00     0.029 A 
ATOM     50  C   UNL A   1      44.000  26.880  31.920  1.00  0.00     0.049 A 
ATOM     51  H   UNL A   1      42.357  27.964  31.160  1.00  0.00     0.167 HD
ATOM     52  C   UNL A   1      43.393  28.427  33.765  1.00  0.00     0.074 A 
ATOM     53  C   UNL A   1      43.569  28.972  35.096  1.00  0.00     0.031 C 
ATOM     54  C   UNL A   1      44.149  27.425  33.248  1.00  0.00     0.034 A 
BRANCH  41  55
ATOM     55  C   UNL A   1      42.602  25.840  27.450  1.00  0.00     0.023 A 
ATOM     56  C   UNL A   1      42.096  24.532  27.360  1.00  0.00     0.031 A 
ATOM     57  C   UNL A   1      43.409  26.309  26.396  1.00  0.00     0.131 A 
ATOM     58  C   UNL A   1      42.459  23.716  26.277  1.00  0.00     0.055 A 
ATOM     59  C   UNL A   1      43.705  25.516  25.286  1.00  0.00     0.041 A 
ATOM     60  F   UNL A   1      43.940  27.541  26.438  1.00  0.00    -0.206 F 
ATOM     61  C   UNL A   1      43.242  24.206  25.230  1.00  0.00     0.022 A 
BRANCH  58  62
ATOM     62  S   UNL A   1      42.011  21.957  26.326  1.00  0.00     0.124 S 
ATOM     63  O   UNL A   1      40.580  22.008  26.037  1.00  0.00    -0.237 OA
ATOM     64  O   UNL A   1      42.855  21.387  25.283  1.00  0.00    -0.237 OA
ATOM     65  O   UNL A   1      42.349  21.556  27.691  1.00  0.00    -0.744 OA
ENDBRANCH  58  62
ENDBRANCH  41  55
BRANCH  42  66
ATOM     66  C   UNL A   1      40.481  31.844  35.192  1.00  0.00     0.023 A 
ATOM     67  C   UNL A   1      39.446  31.498  36.074  1.00  0.00     0.031 A 
ATOM     68  C   UNL A   1      41.166  33.053  35.419  1.00  0.00     0.131 A 
ATOM     69  C   UNL A   1      39.101  32.368  37.121  1.00  0.00     0.055 A 
ATOM     70  C   UNL A   1      40.854  33.887  36.493  1.00  0.00     0.041 A 
ATOM     71  F   UNL A   1      42.160  33.435  34.602  1.00  0.00    -0.206 F 
ATOM     72  C   UNL A   1      39.808  33.552  37.346  1.00  0.00     0.022 A 
BRANCH  69  73
ATOM     73  S   UNL A   1      37.658  31.967  38.145  1.00  0.00     0.124 S 
ATOM     74  O   UNL A   1      36.699  32.979  37.716  1.00  0.00    -0.237 OA
ATOM     75  O   UNL A   1      37.369  30.596  37.741  1.00  0.00    -0.237 OA
ATOM     76  O   UNL A   1      38.156  32.121  39.510  1.00  0.00    -0.744 OA
ENDBRANCH  69  73
ENDBRANCH  42  66
BRANCH  54  77
ATOM     77  C   UNL A   1      45.255  26.891  34.121  1.00  0.00     0.023 A 
ATOM     78  C   UNL A   1      45.056  25.794  34.975  1.00  0.00     0.031 A 
ATOM     79  C   UNL A   1      46.521  27.505  34.108  1.00  0.00     0.131 A 
ATOM     80  C   UNL A   1      46.093  25.372  35.821  1.00  0.00     0.055 A 
ATOM     81  C   UNL A   1      47.563  27.050  34.916  1.00  0.00     0.041 A 
ATOM     82  F   UNL A   1      46.761  28.558  33.311  1.00  0.00    -0.206 F 
ATOM     83  C   UNL A   1      47.348  25.985  35.787  1.00  0.00     0.022 A 
BRANCH  80  84
ATOM     84  S   UNL A   1      45.758  24.057  37.025  1.00  0.00     0.124 S 
ATOM     85  O   UNL A   1      45.228  22.995  36.175  1.00  0.00    -0.237 OA
ATOM     86  O   UNL A   1      47.077  23.815  37.599  1.00  0.00    -0.237 OA
ATOM     87  O   UNL A   1      44.789  24.663  37.936  1.00  0.00    -0.744 OA
ENDBRANCH  80  84
ENDBRANCH  54  77
ENDBRANCH  28  29
ENDBRANCH  21  23
ENDBRANCH  20  21
ENDBRANCH   1  20
TORSDOF 15
ENDMDL
