MODEL 1
REMARK VINA RESULT:     -12.7      0.000      0.000
REMARK SMILES CCn1ncc(NC(=O)[C@@H]2CCCC[C@@H]2C(=O)OCCOC(=O)c2ccc(-c3c4nc(c(-c5cc(S(=O)(=O)[O-])ccc5F)c5ccc([nH]5)c(-c5cc(S(=O)(=O)[O-])ccc5F)c5nc(c(-c6cc(S(=O)(=O)[O-])ccc6F)c6ccc3[nH]6)C=C5)C=C4)cc2)c1C(=O)Nc1cnn(C)c1C
REMARK SMILES IDX 19 1 18 2 16 3 17 4 15 5 10 6 11 7 12 8 14 9 13 10 8 11 7 12
REMARK SMILES IDX 9 14 6 15 3 16 4 17 87 18 5 19 2 20 1 21 88 22 89 23 90 24
REMARK SMILES IDX 91 26 92 27 96 28 93 29 94 30 97 31 95 32 20 33 21 34 22 35
REMARK SMILES IDX 23 36 24 37 25 38 86 39 26 40 85 41 27 42 28 43 29 44 79 45
REMARK SMILES IDX 30 46 84 47 78 48 80 49 31 50 83 51 77 52 76 53 32 55 64 56
REMARK SMILES IDX 44 57 63 58 45 59 48 60 62 61 81 62 46 63 47 64 61 66 82 67
REMARK SMILES IDX 49 68 33 69 34 70 42 71 35 72 41 73 43 74 40 75 36 76 37 77
REMARK SMILES IDX 38 78 39 79 65 80 66 81 74 82 67 83 73 84 75 85 72 86 68 87
REMARK SMILES IDX 69 88 70 89 71 90 50 91 51 92 59 93 52 94 58 95 60 96 57 97
REMARK SMILES IDX 53 98 54 99 55 100 56 101
REMARK H PARENT 7 13 90 25 80 54 48 65
REMARK Flexibility Score: inf
ROOT
ATOM      1  C   UNL A   1      37.313  23.242  26.100  1.00  0.00     0.274 C 
ENDROOT
BRANCH   1   2
ATOM      2  O   UNL A   1      36.610  22.872  24.891  1.00  0.00    -0.462 OA
BRANCH   2   3
ATOM      3  C   UNL A   1      35.927  21.690  24.967  1.00  0.00     0.309 C 
ATOM      4  O   UNL A   1      36.483  20.640  25.271  1.00  0.00    -0.252 OA
BRANCH   3   5
ATOM      5  C   UNL A   1      34.470  21.813  24.463  1.00  0.00     0.111 C 
ATOM      6  C   UNL A   1      33.793  23.235  24.534  1.00  0.00     0.093 C 
ATOM      7  C   UNL A   1      34.064  23.811  25.910  1.00  0.00     0.014 C 
ATOM      8  C   UNL A   1      33.403  22.921  26.971  1.00  0.00     0.001 C 
ATOM      9  C   UNL A   1      33.647  20.898  25.387  1.00  0.00     0.016 C 
ATOM     10  C   UNL A   1      33.634  21.414  26.833  1.00  0.00     0.001 C 
BRANCH   6  11
ATOM     11  C   UNL A   1      33.914  24.072  23.252  1.00  0.00     0.228 C 
ATOM     12  N   UNL A   1      33.658  25.407  23.110  1.00  0.00    -0.322 N 
ATOM     13  H   UNL A   1      33.763  25.705  22.177  1.00  0.00     0.170 HD
ATOM     14  O   UNL A   1      34.219  23.490  22.201  1.00  0.00    -0.274 OA
BRANCH  12  15
ATOM     15  C   UNL A   1      33.284  26.447  23.949  1.00  0.00     0.092 A 
ATOM     16  N   UNL A   1      32.568  27.602  25.622  1.00  0.00    -0.258 N 
ATOM     17  N   UNL A   1      33.635  28.313  25.195  1.00  0.00    -0.178 NA
ATOM     18  C   UNL A   1      32.097  26.751  24.632  1.00  0.00     0.150 A 
ATOM     19  C   UNL A   1      34.112  27.567  24.203  1.00  0.00     0.162 A 
BRANCH  16  20
ATOM     20  C   UNL A   1      32.318  27.682  27.051  1.00  0.00     0.142 C 
ATOM     21  C   UNL A   1      31.553  28.905  27.528  1.00  0.00     0.029 C 
ENDBRANCH  16  20
BRANCH  18  22
ATOM     22  C   UNL A   1      30.786  26.207  24.310  1.00  0.00     0.276 C 
ATOM     23  O   UNL A   1      30.504  25.031  24.569  1.00  0.00    -0.267 OA
ATOM     24  N   UNL A   1      29.707  26.959  23.920  1.00  0.00    -0.318 N 
ATOM     25  H   UNL A   1      28.856  26.662  24.316  1.00  0.00     0.170 HD
BRANCH  24  26
ATOM     26  C   UNL A   1      29.579  28.037  23.090  1.00  0.00     0.082 A 
ATOM     27  C   UNL A   1      30.520  28.698  22.283  1.00  0.00     0.161 A 
ATOM     28  C   UNL A   1      28.373  28.662  22.838  1.00  0.00     0.059 A 
ATOM     29  N   UNL A   1      29.982  29.747  21.655  1.00  0.00    -0.179 NA
ATOM     30  N   UNL A   1      28.700  29.753  22.070  1.00  0.00    -0.271 N 
ATOM     31  C   UNL A   1      27.008  28.417  23.371  1.00  0.00     0.068 C 
ATOM     32  C   UNL A   1      27.891  30.919  21.800  1.00  0.00     0.174 C 
ENDBRANCH  24  26
ENDBRANCH  18  22
ENDBRANCH  12  15
ENDBRANCH   6  11
ENDBRANCH   3   5
ENDBRANCH   2   3
ENDBRANCH   1   2
BRANCH   1  33
ATOM     33  C   UNL A   1      38.827  22.997  26.053  1.00  0.00     0.275 C 
BRANCH  33  34
ATOM     34  O   UNL A   1      39.553  23.517  27.177  1.00  0.00    -0.458 OA
BRANCH  34  35
ATOM     35  C   UNL A   1      40.147  24.697  26.896  1.00  0.00     0.338 C 
ATOM     36  O   UNL A   1      41.161  24.852  26.235  1.00  0.00    -0.246 OA
BRANCH  35  37
ATOM     37  C   UNL A   1      39.544  25.831  27.599  1.00  0.00     0.060 A 
ATOM     38  C   UNL A   1      39.851  27.079  27.057  1.00  0.00     0.016 A 
ATOM     39  C   UNL A   1      39.052  25.702  28.897  1.00  0.00     0.016 A 
ATOM     40  C   UNL A   1      39.886  28.185  27.871  1.00  0.00     0.010 A 
ATOM     41  C   UNL A   1      39.051  26.825  29.712  1.00  0.00     0.010 A 
ATOM     42  C   UNL A   1      39.569  28.031  29.218  1.00  0.00    -0.014 A 
BRANCH  42  43
ATOM     43  C   UNL A   1      39.880  29.167  30.078  1.00  0.00     0.031 A 
ATOM     44  C   UNL A   1      38.758  30.096  30.385  1.00  0.00     0.074 A 
ATOM     45  C   UNL A   1      41.110  29.342  30.600  1.00  0.00     0.049 A 
ATOM     46  N   UNL A   1      38.732  31.386  30.290  1.00  0.00    -0.248 NA
ATOM     47  C   UNL A   1      37.470  29.497  30.760  1.00  0.00     0.031 C 
ATOM     48  C   UNL A   1      42.250  28.424  30.537  1.00  0.00     0.029 A 
ATOM     49  N   UNL A   1      41.540  30.320  31.444  1.00  0.00    -0.354 N 
ATOM     50  C   UNL A   1      37.479  31.785  30.750  1.00  0.00     0.074 A 
ATOM     51  C   UNL A   1      36.709  30.579  30.915  1.00  0.00     0.031 C 
ATOM     52  C   UNL A   1      43.106  28.730  31.534  1.00  0.00     0.029 A 
ATOM     53  C   UNL A   1      42.627  29.924  32.209  1.00  0.00     0.049 A 
ATOM     54  H   UNL A   1      41.126  31.212  31.504  1.00  0.00     0.167 HD
ATOM     55  C   UNL A   1      37.201  33.069  31.107  1.00  0.00     0.034 A 
ATOM     56  C   UNL A   1      43.009  30.440  33.402  1.00  0.00     0.034 A 
ATOM     57  C   UNL A   1      38.137  34.002  30.537  1.00  0.00     0.049 A 
ATOM     58  C   UNL A   1      42.472  31.820  33.491  1.00  0.00     0.074 A 
ATOM     59  C   UNL A   1      38.487  34.354  29.248  1.00  0.00     0.029 A 
ATOM     60  N   UNL A   1      39.112  34.544  31.341  1.00  0.00    -0.354 N 
ATOM     61  N   UNL A   1      42.867  32.791  32.714  1.00  0.00    -0.248 NA
ATOM     62  C   UNL A   1      41.176  32.031  34.121  1.00  0.00     0.031 C 
ATOM     63  C   UNL A   1      39.880  34.637  29.306  1.00  0.00     0.029 A 
ATOM     64  C   UNL A   1      40.285  34.467  30.631  1.00  0.00     0.049 A 
ATOM     65  H   UNL A   1      38.992  34.915  32.246  1.00  0.00     0.167 HD
ATOM     66  C   UNL A   1      41.716  33.502  32.411  1.00  0.00     0.074 A 
ATOM     67  C   UNL A   1      40.735  33.068  33.403  1.00  0.00     0.031 C 
ATOM     68  C   UNL A   1      41.571  34.152  31.218  1.00  0.00     0.034 A 
BRANCH  55  69
ATOM     69  C   UNL A   1      36.216  33.469  32.177  1.00  0.00     0.023 A 
ATOM     70  C   UNL A   1      35.089  34.224  31.797  1.00  0.00     0.031 A 
ATOM     71  C   UNL A   1      36.466  33.391  33.565  1.00  0.00     0.131 A 
ATOM     72  C   UNL A   1      34.317  34.903  32.754  1.00  0.00     0.055 A 
ATOM     73  C   UNL A   1      35.652  34.007  34.520  1.00  0.00     0.041 A 
ATOM     74  F   UNL A   1      37.561  32.802  34.066  1.00  0.00    -0.206 F 
ATOM     75  C   UNL A   1      34.586  34.792  34.117  1.00  0.00     0.022 A 
BRANCH  72  76
ATOM     76  S   UNL A   1      33.075  36.096  32.184  1.00  0.00     0.124 S 
ATOM     77  O   UNL A   1      33.341  37.245  33.043  1.00  0.00    -0.237 OA
ATOM     78  O   UNL A   1      33.426  36.246  30.777  1.00  0.00    -0.237 OA
ATOM     79  O   UNL A   1      31.808  35.412  32.441  1.00  0.00    -0.744 OA
ENDBRANCH  72  76
ENDBRANCH  55  69
BRANCH  56  80
ATOM     80  C   UNL A   1      43.484  29.624  34.548  1.00  0.00     0.023 A 
ATOM     81  C   UNL A   1      42.674  28.682  35.202  1.00  0.00     0.031 A 
ATOM     82  C   UNL A   1      44.851  29.658  34.920  1.00  0.00     0.131 A 
ATOM     83  C   UNL A   1      43.225  27.859  36.210  1.00  0.00     0.055 A 
ATOM     84  C   UNL A   1      45.382  28.868  35.938  1.00  0.00     0.041 A 
ATOM     85  F   UNL A   1      45.738  30.416  34.255  1.00  0.00    -0.206 F 
ATOM     86  C   UNL A   1      44.567  27.961  36.589  1.00  0.00     0.022 A 
BRANCH  83  87
ATOM     87  S   UNL A   1      42.210  26.561  36.980  1.00  0.00     0.124 S 
ATOM     88  O   UNL A   1      42.225  25.513  35.968  1.00  0.00    -0.237 OA
ATOM     89  O   UNL A   1      42.943  26.284  38.211  1.00  0.00    -0.237 OA
ATOM     90  O   UNL A   1      40.915  27.212  37.176  1.00  0.00    -0.744 OA
ENDBRANCH  83  87
ENDBRANCH  56  80
BRANCH  68  91
ATOM     91  C   UNL A   1      42.778  34.277  30.313  1.00  0.00     0.023 A 
ATOM     92  C   UNL A   1      43.127  33.309  29.345  1.00  0.00     0.031 A 
ATOM     93  C   UNL A   1      43.500  35.483  30.318  1.00  0.00     0.131 A 
ATOM     94  C   UNL A   1      44.175  33.557  28.440  1.00  0.00     0.055 A 
ATOM     95  C   UNL A   1      44.527  35.734  29.408  1.00  0.00     0.041 A 
ATOM     96  F   UNL A   1      43.185  36.462  31.185  1.00  0.00    -0.206 F 
ATOM     97  C   UNL A   1      44.873  34.768  28.468  1.00  0.00     0.022 A 
BRANCH  94  98
ATOM     98  S   UNL A   1      44.637  32.298  27.210  1.00  0.00     0.124 S 
ATOM     99  O   UNL A   1      43.749  31.182  27.515  1.00  0.00    -0.237 OA
ATOM    100  O   UNL A   1      44.392  32.986  25.947  1.00  0.00    -0.237 OA
ATOM    101  O   UNL A   1      46.050  32.045  27.500  1.00  0.00    -0.744 OA
ENDBRANCH  94  98
ENDBRANCH  68  91
ENDBRANCH  42  43
ENDBRANCH  35  37
ENDBRANCH  34  35
ENDBRANCH  33  34
ENDBRANCH   1  33
TORSDOF 19
ENDMDL
MODEL 2
REMARK VINA RESULT:     -12.3      4.209     10.314
REMARK SMILES CCn1ncc(NC(=O)[C@@H]2CCCC[C@@H]2C(=O)OCCOC(=O)c2ccc(-c3c4nc(c(-c5cc(S(=O)(=O)[O-])ccc5F)c5ccc([nH]5)c(-c5cc(S(=O)(=O)[O-])ccc5F)c5nc(c(-c6cc(S(=O)(=O)[O-])ccc6F)c6ccc3[nH]6)C=C5)C=C4)cc2)c1C(=O)Nc1cnn(C)c1C
REMARK SMILES IDX 19 1 18 2 16 3 17 4 15 5 10 6 11 7 12 8 14 9 13 10 8 11 7 12
REMARK SMILES IDX 9 14 6 15 3 16 4 17 87 18 5 19 2 20 1 21 88 22 89 23 90 24
REMARK SMILES IDX 91 26 92 27 96 28 93 29 94 30 97 31 95 32 20 33 21 34 22 35
REMARK SMILES IDX 23 36 24 37 25 38 86 39 26 40 85 41 27 42 28 43 29 44 79 45
REMARK SMILES IDX 30 46 84 47 78 48 80 49 31 50 83 51 77 52 76 53 32 55 64 56
REMARK SMILES IDX 44 57 63 58 45 59 48 60 62 61 81 62 46 63 47 64 61 66 82 67
REMARK SMILES IDX 49 68 33 69 34 70 42 71 35 72 41 73 43 74 40 75 36 76 37 77
REMARK SMILES IDX 38 78 39 79 65 80 66 81 74 82 67 83 73 84 75 85 72 86 68 87
REMARK SMILES IDX 69 88 70 89 71 90 50 91 51 92 59 93 52 94 58 95 60 96 57 97
REMARK SMILES IDX 53 98 54 99 55 100 56 101
REMARK H PARENT 7 13 90 25 80 54 48 65
REMARK Flexibility Score: inf
ROOT
ATOM      1  C   UNL A   1      34.041  28.725  27.010  1.00  0.00     0.274 C 
ENDROOT
BRANCH   1   2
ATOM      2  O   UNL A   1      33.303  29.084  25.819  1.00  0.00    -0.462 OA
BRANCH   2   3
ATOM      3  C   UNL A   1      33.572  28.310  24.725  1.00  0.00     0.309 C 
ATOM      4  O   UNL A   1      34.429  28.623  23.905  1.00  0.00    -0.252 OA
BRANCH   3   5
ATOM      5  C   UNL A   1      32.574  27.138  24.567  1.00  0.00     0.111 C 
ATOM      6  C   UNL A   1      32.133  26.751  23.105  1.00  0.00     0.093 C 
ATOM      7  C   UNL A   1      31.768  28.029  22.374  1.00  0.00     0.014 C 
ATOM      8  C   UNL A   1      30.569  28.685  23.069  1.00  0.00     0.001 C 
ATOM      9  C   UNL A   1      31.298  27.598  25.294  1.00  0.00     0.016 C 
ATOM     10  C   UNL A   1      30.646  28.800  24.594  1.00  0.00     0.001 C 
BRANCH   6  11
ATOM     11  C   UNL A   1      32.968  25.639  22.452  1.00  0.00     0.228 C 
ATOM     12  N   UNL A   1      33.122  24.355  22.893  1.00  0.00    -0.322 N 
ATOM     13  H   UNL A   1      33.746  23.843  22.327  1.00  0.00     0.170 HD
ATOM     14  O   UNL A   1      33.634  25.923  21.445  1.00  0.00    -0.274 OA
BRANCH  12  15
ATOM     15  C   UNL A   1      32.623  23.591  23.938  1.00  0.00     0.092 A 
ATOM     16  N   UNL A   1      32.330  22.633  25.847  1.00  0.00    -0.258 N 
ATOM     17  N   UNL A   1      31.075  22.979  25.482  1.00  0.00    -0.178 NA
ATOM     18  C   UNL A   1      33.182  22.595  24.753  1.00  0.00     0.150 A 
ATOM     19  C   UNL A   1      31.265  23.624  24.335  1.00  0.00     0.162 A 
BRANCH  16  20
ATOM     20  C   UNL A   1      32.568  22.638  27.280  1.00  0.00     0.142 C 
ATOM     21  C   UNL A   1      34.023  22.598  27.715  1.00  0.00     0.029 C 
ENDBRANCH  16  20
BRANCH  18  22
ATOM     22  C   UNL A   1      34.378  21.829  24.433  1.00  0.00     0.276 C 
ATOM     23  O   UNL A   1      35.396  22.387  24.007  1.00  0.00    -0.267 OA
ATOM     24  N   UNL A   1      34.571  20.513  24.769  1.00  0.00    -0.318 N 
ATOM     25  H   UNL A   1      35.486  20.314  25.073  1.00  0.00     0.170 HD
BRANCH  24  26
ATOM     26  C   UNL A   1      33.747  19.424  24.766  1.00  0.00     0.082 A 
ATOM     27  C   UNL A   1      32.345  19.327  24.733  1.00  0.00     0.161 A 
ATOM     28  C   UNL A   1      34.207  18.122  24.721  1.00  0.00     0.059 A 
ATOM     29  N   UNL A   1      31.936  18.056  24.787  1.00  0.00    -0.179 NA
ATOM     30  N   UNL A   1      33.080  17.349  24.862  1.00  0.00    -0.271 N 
ATOM     31  C   UNL A   1      35.584  17.567  24.716  1.00  0.00     0.068 C 
ATOM     32  C   UNL A   1      33.006  15.949  25.209  1.00  0.00     0.174 C 
ENDBRANCH  24  26
ENDBRANCH  18  22
ENDBRANCH  12  15
ENDBRANCH   6  11
ENDBRANCH   3   5
ENDBRANCH   2   3
ENDBRANCH   1   2
BRANCH   1  33
ATOM     33  C   UNL A   1      35.283  29.587  27.270  1.00  0.00     0.275 C 
BRANCH  33  34
ATOM     34  O   UNL A   1      35.244  30.340  28.491  1.00  0.00    -0.458 OA
BRANCH  34  35
ATOM     35  C   UNL A   1      36.453  30.397  29.091  1.00  0.00     0.338 C 
ATOM     36  O   UNL A   1      36.801  31.211  29.933  1.00  0.00    -0.246 OA
BRANCH  35  37
ATOM     37  C   UNL A   1      37.424  29.458  28.529  1.00  0.00     0.060 A 
ATOM     38  C   UNL A   1      37.811  28.436  29.396  1.00  0.00     0.016 A 
ATOM     39  C   UNL A   1      38.179  29.781  27.402  1.00  0.00     0.016 A 
ATOM     40  C   UNL A   1      39.061  27.878  29.275  1.00  0.00     0.010 A 
ATOM     41  C   UNL A   1      39.427  29.193  27.258  1.00  0.00     0.010 A 
ATOM     42  C   UNL A   1      39.896  28.327  28.256  1.00  0.00    -0.014 A 
BRANCH  42  43
ATOM     43  C   UNL A   1      41.289  27.901  28.340  1.00  0.00     0.031 A 
ATOM     44  C   UNL A   1      41.633  26.616  27.672  1.00  0.00     0.074 A 
ATOM     45  C   UNL A   1      42.221  28.654  28.957  1.00  0.00     0.049 A 
ATOM     46  N   UNL A   1      42.283  25.607  28.154  1.00  0.00    -0.248 NA
ATOM     47  C   UNL A   1      41.103  26.396  26.318  1.00  0.00     0.031 C 
ATOM     48  C   UNL A   1      42.069  30.009  29.492  1.00  0.00     0.029 A 
ATOM     49  N   UNL A   1      43.555  28.413  29.081  1.00  0.00    -0.354 N 
ATOM     50  C   UNL A   1      42.394  24.684  27.116  1.00  0.00     0.074 A 
ATOM     51  C   UNL A   1      41.553  25.171  26.053  1.00  0.00     0.031 C 
ATOM     52  C   UNL A   1      43.291  30.571  29.596  1.00  0.00     0.029 A 
ATOM     53  C   UNL A   1      44.292  29.576  29.251  1.00  0.00     0.049 A 
ATOM     54  H   UNL A   1      43.954  27.513  29.055  1.00  0.00     0.167 HD
ATOM     55  C   UNL A   1      43.283  23.654  27.139  1.00  0.00     0.034 A 
ATOM     56  C   UNL A   1      45.607  29.750  28.969  1.00  0.00     0.034 A 
ATOM     57  C   UNL A   1      43.730  23.357  28.475  1.00  0.00     0.049 A 
ATOM     58  C   UNL A   1      46.258  28.418  29.005  1.00  0.00     0.074 A 
ATOM     59  C   UNL A   1      43.102  22.944  29.635  1.00  0.00     0.029 A 
ATOM     60  N   UNL A   1      44.986  23.760  28.863  1.00  0.00    -0.354 N 
ATOM     61  N   UNL A   1      46.376  27.710  30.096  1.00  0.00    -0.248 NA
ATOM     62  C   UNL A   1      46.372  27.657  27.769  1.00  0.00     0.031 C 
ATOM     63  C   UNL A   1      43.812  23.585  30.688  1.00  0.00     0.029 A 
ATOM     64  C   UNL A   1      44.844  24.324  30.107  1.00  0.00     0.049 A 
ATOM     65  H   UNL A   1      45.822  23.662  28.351  1.00  0.00     0.167 HD
ATOM     66  C   UNL A   1      46.136  26.402  29.705  1.00  0.00     0.074 A 
ATOM     67  C   UNL A   1      46.267  26.415  28.250  1.00  0.00     0.031 C 
ATOM     68  C   UNL A   1      45.567  25.496  30.555  1.00  0.00     0.034 A 
BRANCH  55  69
ATOM     69  C   UNL A   1      43.943  23.060  25.920  1.00  0.00     0.023 A 
ATOM     70  C   UNL A   1      43.929  21.660  25.770  1.00  0.00     0.031 A 
ATOM     71  C   UNL A   1      44.813  23.765  25.057  1.00  0.00     0.131 A 
ATOM     72  C   UNL A   1      44.787  21.022  24.858  1.00  0.00     0.055 A 
ATOM     73  C   UNL A   1      45.610  23.131  24.100  1.00  0.00     0.041 A 
ATOM     74  F   UNL A   1      45.013  25.086  25.160  1.00  0.00    -0.206 F 
ATOM     75  C   UNL A   1      45.623  21.750  24.014  1.00  0.00     0.022 A 
BRANCH  72  76
ATOM     76  S   UNL A   1      44.943  19.216  24.927  1.00  0.00     0.124 S 
ATOM     77  O   UNL A   1      43.805  18.845  25.763  1.00  0.00    -0.237 OA
ATOM     78  O   UNL A   1      44.854  18.852  23.518  1.00  0.00    -0.237 OA
ATOM     79  O   UNL A   1      46.254  19.014  25.543  1.00  0.00    -0.744 OA
ENDBRANCH  72  76
ENDBRANCH  55  69
BRANCH  56  80
ATOM     80  C   UNL A   1      46.165  30.966  28.326  1.00  0.00     0.023 A 
ATOM     81  C   UNL A   1      45.479  31.690  27.337  1.00  0.00     0.031 A 
ATOM     82  C   UNL A   1      47.366  31.536  28.817  1.00  0.00     0.131 A 
ATOM     83  C   UNL A   1      46.020  32.901  26.850  1.00  0.00     0.055 A 
ATOM     84  C   UNL A   1      47.912  32.714  28.310  1.00  0.00     0.041 A 
ATOM     85  F   UNL A   1      48.017  31.001  29.863  1.00  0.00    -0.206 F 
ATOM     86  C   UNL A   1      47.237  33.404  27.321  1.00  0.00     0.022 A 
BRANCH  83  87
ATOM     87  S   UNL A   1      45.083  33.900  25.653  1.00  0.00     0.124 S 
ATOM     88  O   UNL A   1      44.195  34.668  26.517  1.00  0.00    -0.237 OA
ATOM     89  O   UNL A   1      46.139  34.646  24.978  1.00  0.00    -0.237 OA
ATOM     90  O   UNL A   1      44.418  32.897  24.820  1.00  0.00    -0.744 OA
ENDBRANCH  83  87
ENDBRANCH  56  80
BRANCH  68  91
ATOM     91  C   UNL A   1      45.408  25.875  32.012  1.00  0.00     0.023 A 
ATOM     92  C   UNL A   1      44.193  26.333  32.568  1.00  0.00     0.031 A 
ATOM     93  C   UNL A   1      46.468  25.609  32.896  1.00  0.00     0.131 A 
ATOM     94  C   UNL A   1      44.076  26.528  33.956  1.00  0.00     0.055 A 
ATOM     95  C   UNL A   1      46.344  25.786  34.274  1.00  0.00     0.041 A 
ATOM     96  F   UNL A   1      47.636  25.127  32.434  1.00  0.00    -0.206 F 
ATOM     97  C   UNL A   1      45.148  26.252  34.810  1.00  0.00     0.022 A 
BRANCH  94  98
ATOM     98  S   UNL A   1      42.516  27.142  34.664  1.00  0.00     0.124 S 
ATOM     99  O   UNL A   1      41.852  25.929  35.129  1.00  0.00    -0.237 OA
ATOM    100  O   UNL A   1      42.979  28.057  35.702  1.00  0.00    -0.237 OA
ATOM    101  O   UNL A   1      41.862  27.793  33.528  1.00  0.00    -0.744 OA
ENDBRANCH  94  98
ENDBRANCH  68  91
ENDBRANCH  42  43
ENDBRANCH  35  37
ENDBRANCH  34  35
ENDBRANCH  33  34
ENDBRANCH   1  33
TORSDOF 19
ENDMDL
MODEL 3
REMARK VINA RESULT:     -11.8      4.065      8.435
REMARK SMILES CCn1ncc(NC(=O)[C@@H]2CCCC[C@@H]2C(=O)OCCOC(=O)c2ccc(-c3c4nc(c(-c5cc(S(=O)(=O)[O-])ccc5F)c5ccc([nH]5)c(-c5cc(S(=O)(=O)[O-])ccc5F)c5nc(c(-c6cc(S(=O)(=O)[O-])ccc6F)c6ccc3[nH]6)C=C5)C=C4)cc2)c1C(=O)Nc1cnn(C)c1C
REMARK SMILES IDX 19 1 18 2 16 3 17 4 15 5 10 6 11 7 12 8 14 9 13 10 8 11 7 12
REMARK SMILES IDX 9 14 6 15 3 16 4 17 87 18 5 19 2 20 1 21 88 22 89 23 90 24
REMARK SMILES IDX 91 26 92 27 96 28 93 29 94 30 97 31 95 32 20 33 21 34 22 35
REMARK SMILES IDX 23 36 24 37 25 38 86 39 26 40 85 41 27 42 28 43 29 44 79 45
REMARK SMILES IDX 30 46 84 47 78 48 80 49 31 50 83 51 77 52 76 53 32 55 64 56
REMARK SMILES IDX 44 57 63 58 45 59 48 60 62 61 81 62 46 63 47 64 61 66 82 67
REMARK SMILES IDX 49 68 33 69 34 70 42 71 35 72 41 73 43 74 40 75 36 76 37 77
REMARK SMILES IDX 38 78 39 79 65 80 66 81 74 82 67 83 73 84 75 85 72 86 68 87
REMARK SMILES IDX 69 88 70 89 71 90 50 91 51 92 59 93 52 94 58 95 60 96 57 97
REMARK SMILES IDX 53 98 54 99 55 100 56 101
REMARK H PARENT 7 13 90 25 80 54 48 65
REMARK Flexibility Score: inf
ROOT
ATOM      1  C   UNL A   1      32.362  29.547  27.082  1.00  0.00     0.274 C 
ENDROOT
BRANCH   1   2
ATOM      2  O   UNL A   1      31.666  28.414  26.512  1.00  0.00    -0.462 OA
BRANCH   2   3
ATOM      3  C   UNL A   1      31.324  28.556  25.197  1.00  0.00     0.309 C 
ATOM      4  O   UNL A   1      31.168  29.660  24.684  1.00  0.00    -0.252 OA
BRANCH   3   5
ATOM      5  C   UNL A   1      30.995  27.205  24.519  1.00  0.00     0.111 C 
ATOM      6  C   UNL A   1      31.725  25.921  25.067  1.00  0.00     0.093 C 
ATOM      7  C   UNL A   1      33.200  26.245  25.204  1.00  0.00     0.014 C 
ATOM      8  C   UNL A   1      33.781  26.563  23.821  1.00  0.00     0.001 C 
ATOM      9  C   UNL A   1      31.450  27.368  23.058  1.00  0.00     0.016 C 
ATOM     10  C   UNL A   1      32.973  27.530  22.950  1.00  0.00     0.001 C 
BRANCH   6  11
ATOM     11  C   UNL A   1      30.949  25.146  26.142  1.00  0.00     0.228 C 
ATOM     12  N   UNL A   1      31.336  23.998  26.775  1.00  0.00    -0.322 N 
ATOM     13  H   UNL A   1      30.644  23.667  27.393  1.00  0.00     0.170 HD
ATOM     14  O   UNL A   1      29.817  25.548  26.449  1.00  0.00    -0.274 OA
BRANCH  12  15
ATOM     15  C   UNL A   1      32.457  23.181  26.763  1.00  0.00     0.092 A 
ATOM     16  N   UNL A   1      34.357  22.278  26.291  1.00  0.00    -0.258 N 
ATOM     17  N   UNL A   1      34.330  22.247  27.642  1.00  0.00    -0.178 NA
ATOM     18  C   UNL A   1      33.081  22.420  25.764  1.00  0.00     0.150 A 
ATOM     19  C   UNL A   1      33.187  22.860  27.933  1.00  0.00     0.162 A 
BRANCH  16  20
ATOM     20  C   UNL A   1      35.682  22.422  25.713  1.00  0.00     0.142 C 
ATOM     21  C   UNL A   1      36.138  21.295  24.802  1.00  0.00     0.029 C 
ENDBRANCH  16  20
BRANCH  18  22
ATOM     22  C   UNL A   1      32.451  21.997  24.521  1.00  0.00     0.276 C 
ATOM     23  O   UNL A   1      31.886  22.813  23.784  1.00  0.00    -0.267 OA
ATOM     24  N   UNL A   1      32.609  20.758  23.953  1.00  0.00    -0.318 N 
ATOM     25  H   UNL A   1      32.700  20.784  22.973  1.00  0.00     0.170 HD
BRANCH  24  26
ATOM     26  C   UNL A   1      32.664  19.498  24.475  1.00  0.00     0.082 A 
ATOM     27  C   UNL A   1      32.773  19.053  25.804  1.00  0.00     0.161 A 
ATOM     28  C   UNL A   1      32.541  18.352  23.713  1.00  0.00     0.059 A 
ATOM     29  N   UNL A   1      32.838  17.720  25.876  1.00  0.00    -0.179 NA
ATOM     30  N   UNL A   1      32.778  17.322  24.590  1.00  0.00    -0.271 N 
ATOM     31  C   UNL A   1      32.381  18.159  22.249  1.00  0.00     0.068 C 
ATOM     32  C   UNL A   1      33.097  15.949  24.276  1.00  0.00     0.174 C 
ENDBRANCH  24  26
ENDBRANCH  18  22
ENDBRANCH  12  15
ENDBRANCH   6  11
ENDBRANCH   3   5
ENDBRANCH   2   3
ENDBRANCH   1   2
BRANCH   1  33
ATOM     33  C   UNL A   1      33.701  29.873  26.408  1.00  0.00     0.275 C 
BRANCH  33  34
ATOM     34  O   UNL A   1      34.858  29.592  27.209  1.00  0.00    -0.458 OA
BRANCH  34  35
ATOM     35  C   UNL A   1      35.307  30.690  27.856  1.00  0.00     0.338 C 
ATOM     36  O   UNL A   1      35.022  31.847  27.591  1.00  0.00    -0.246 OA
BRANCH  35  37
ATOM     37  C   UNL A   1      36.332  30.393  28.858  1.00  0.00     0.060 A 
ATOM     38  C   UNL A   1      37.432  31.250  28.834  1.00  0.00     0.016 A 
ATOM     39  C   UNL A   1      36.390  29.153  29.492  1.00  0.00     0.016 A 
ATOM     40  C   UNL A   1      38.661  30.793  29.243  1.00  0.00     0.010 A 
ATOM     41  C   UNL A   1      37.623  28.702  29.940  1.00  0.00     0.010 A 
ATOM     42  C   UNL A   1      38.763  29.486  29.712  1.00  0.00    -0.014 A 
BRANCH  42  43
ATOM     43  C   UNL A   1      40.119  28.973  29.876  1.00  0.00     0.031 A 
ATOM     44  C   UNL A   1      40.611  28.827  31.273  1.00  0.00     0.074 A 
ATOM     45  C   UNL A   1      40.870  28.614  28.817  1.00  0.00     0.049 A 
ATOM     46  N   UNL A   1      41.723  29.247  31.783  1.00  0.00    -0.248 NA
ATOM     47  C   UNL A   1      39.701  28.209  32.248  1.00  0.00     0.031 C 
ATOM     48  C   UNL A   1      40.459  28.529  27.413  1.00  0.00     0.029 A 
ATOM     49  N   UNL A   1      42.125  28.085  28.809  1.00  0.00    -0.354 N 
ATOM     50  C   UNL A   1      41.736  28.806  33.104  1.00  0.00     0.074 A 
ATOM     51  C   UNL A   1      40.422  28.277  33.365  1.00  0.00     0.031 C 
ATOM     52  C   UNL A   1      41.315  27.715  26.761  1.00  0.00     0.029 A 
ATOM     53  C   UNL A   1      42.380  27.333  27.673  1.00  0.00     0.049 A 
ATOM     54  H   UNL A   1      42.780  28.222  29.532  1.00  0.00     0.167 HD
ATOM     55  C   UNL A   1      42.870  28.769  33.857  1.00  0.00     0.034 A 
ATOM     56  C   UNL A   1      43.300  26.346  27.544  1.00  0.00     0.034 A 
ATOM     57  C   UNL A   1      43.895  29.631  33.330  1.00  0.00     0.049 A 
ATOM     58  C   UNL A   1      44.351  26.571  28.565  1.00  0.00     0.074 A 
ATOM     59  C   UNL A   1      43.993  30.992  33.108  1.00  0.00     0.029 A 
ATOM     60  N   UNL A   1      44.953  29.073  32.653  1.00  0.00    -0.354 N 
ATOM     61  N   UNL A   1      45.154  27.601  28.548  1.00  0.00    -0.248 NA
ATOM     62  C   UNL A   1      44.227  25.915  29.859  1.00  0.00     0.031 C 
ATOM     63  C   UNL A   1      44.777  31.119  31.927  1.00  0.00     0.029 A 
ATOM     64  C   UNL A   1      45.131  29.830  31.521  1.00  0.00     0.049 A 
ATOM     65  H   UNL A   1      45.480  28.287  32.926  1.00  0.00     0.167 HD
ATOM     66  C   UNL A   1      45.279  27.982  29.875  1.00  0.00     0.074 A 
ATOM     67  C   UNL A   1      44.793  26.838  30.643  1.00  0.00     0.031 C 
ATOM     68  C   UNL A   1      45.484  29.287  30.226  1.00  0.00     0.034 A 
BRANCH  55  69
ATOM     69  C   UNL A   1      43.147  27.762  34.946  1.00  0.00     0.023 A 
ATOM     70  C   UNL A   1      43.939  26.641  34.629  1.00  0.00     0.031 A 
ATOM     71  C   UNL A   1      42.456  27.702  36.176  1.00  0.00     0.131 A 
ATOM     72  C   UNL A   1      43.969  25.517  35.472  1.00  0.00     0.055 A 
ATOM     73  C   UNL A   1      42.547  26.613  37.047  1.00  0.00     0.041 A 
ATOM     74  F   UNL A   1      41.581  28.644  36.556  1.00  0.00    -0.206 F 
ATOM     75  C   UNL A   1      43.284  25.498  36.685  1.00  0.00     0.022 A 
BRANCH  72  76
ATOM     76  S   UNL A   1      44.756  23.998  34.868  1.00  0.00     0.124 S 
ATOM     77  O   UNL A   1      43.789  22.978  35.263  1.00  0.00    -0.237 OA
ATOM     78  O   UNL A   1      44.866  24.264  33.438  1.00  0.00    -0.237 OA
ATOM     79  O   UNL A   1      46.024  23.963  35.596  1.00  0.00    -0.744 OA
ENDBRANCH  72  76
ENDBRANCH  55  69
BRANCH  56  80
ATOM     80  C   UNL A   1      43.056  25.071  26.823  1.00  0.00     0.023 A 
ATOM     81  C   UNL A   1      42.095  24.134  27.234  1.00  0.00     0.031 A 
ATOM     82  C   UNL A   1      43.690  24.831  25.579  1.00  0.00     0.131 A 
ATOM     83  C   UNL A   1      41.836  22.996  26.438  1.00  0.00     0.055 A 
ATOM     84  C   UNL A   1      43.455  23.690  24.812  1.00  0.00     0.041 A 
ATOM     85  F   UNL A   1      44.512  25.739  25.027  1.00  0.00    -0.206 F 
ATOM     86  C   UNL A   1      42.523  22.764  25.241  1.00  0.00     0.022 A 
BRANCH  83  87
ATOM     87  S   UNL A   1      40.514  21.838  26.906  1.00  0.00     0.124 S 
ATOM     88  O   UNL A   1      40.815  21.572  28.307  1.00  0.00    -0.237 OA
ATOM     89  O   UNL A   1      39.310  22.616  26.637  1.00  0.00    -0.237 OA
ATOM     90  O   UNL A   1      40.720  20.704  26.005  1.00  0.00    -0.744 OA
ENDBRANCH  83  87
ENDBRANCH  56  80
BRANCH  68  91
ATOM     91  C   UNL A   1      45.801  30.286  29.135  1.00  0.00     0.023 A 
ATOM     92  C   UNL A   1      47.114  30.572  28.700  1.00  0.00     0.031 A 
ATOM     93  C   UNL A   1      44.738  30.843  28.403  1.00  0.00     0.131 A 
ATOM     94  C   UNL A   1      47.328  31.401  27.584  1.00  0.00     0.055 A 
ATOM     95  C   UNL A   1      44.952  31.650  27.285  1.00  0.00     0.041 A 
ATOM     96  F   UNL A   1      43.464  30.572  28.738  1.00  0.00    -0.206 F 
ATOM     97  C   UNL A   1      46.250  31.937  26.874  1.00  0.00     0.022 A 
BRANCH  94  98
ATOM     98  S   UNL A   1      49.023  31.785  27.043  1.00  0.00     0.124 S 
ATOM     99  O   UNL A   1      49.660  32.294  28.252  1.00  0.00    -0.237 OA
ATOM    100  O   UNL A   1      49.501  30.492  26.561  1.00  0.00    -0.237 OA
ATOM    101  O   UNL A   1      48.824  32.787  25.995  1.00  0.00    -0.744 OA
ENDBRANCH  94  98
ENDBRANCH  68  91
ENDBRANCH  42  43
ENDBRANCH  35  37
ENDBRANCH  34  35
ENDBRANCH  33  34
ENDBRANCH   1  33
TORSDOF 19
ENDMDL
