MODEL 1
REMARK VINA RESULT:     -13.7      0.000      0.000
REMARK SMILES Cc1ccc(S(=O)(=O)n2cc(C(=O)C(=O)N[C@H](Cc3c[nH]c4ccccc34)C(=O)NCC(=O)OCCOC(=O)c3ccc(-c4c5nc(c(-c6cc(S(=O)(=O)[O-])ccc6F)c6ccc([nH]6)c(-c6cc(S(=O)(=O)[O-])ccc6F)c6nc(c(-c7cc(S(=O)(=O)[O-])ccc7F)c7ccc4[nH]7)C=C6)C=C5)cc3)c3ccccc32)cc1
REMARK SMILES IDX 32 1 33 2 31 3 30 4 28 5 29 6 17 8 16 9 14 10 15 11 12 13
REMARK SMILES IDX 13 14 11 15 9 16 10 17 108 18 103 19 107 20 104 21 106 22
REMARK SMILES IDX 105 23 6 24 7 25 8 26 5 27 1 28 2 29 3 30 110 31 4 32 109 33
REMARK SMILES IDX 18 34 19 35 20 36 27 37 21 38 22 39 26 40 23 42 25 43 24 44
REMARK SMILES IDX 34 45 35 46 36 47 37 48 38 49 39 50 40 51 41 52 102 53 42 54
REMARK SMILES IDX 101 55 43 56 44 57 45 58 95 59 46 60 100 61 94 62 96 63
REMARK SMILES IDX 47 64 99 65 93 66 92 67 48 69 80 70 60 71 79 72 61 73 64 74
REMARK SMILES IDX 78 75 97 76 62 77 63 78 77 80 98 81 65 82 49 83 50 84 58 85
REMARK SMILES IDX 51 86 57 87 59 88 56 89 52 90 53 91 54 92 55 93 81 94 82 95
REMARK SMILES IDX 90 96 83 97 89 98 91 99 88 100 84 101 85 102 86 103 87 104
REMARK SMILES IDX 66 105 67 106 75 107 68 108 74 109 76 110 73 111 69 112
REMARK SMILES IDX 70 113 71 114 72 115
REMARK H PARENT 30 7 16 12 21 41 96 68 64 79
REMARK Flexibility Score: inf
ROOT
ATOM      1  C   UNL A   1      37.239  29.490  31.833  1.00  0.00     0.325 C 
ATOM      2  O   UNL A   1      36.652  30.016  32.765  1.00  0.00    -0.250 OA
ENDROOT
BRANCH   1   3
ATOM      3  C   UNL A   1      36.675  29.338  30.351  1.00  0.00     0.238 C 
BRANCH   3   4
ATOM      4  N   UNL A   1      36.897  29.688  28.952  1.00  0.00    -0.343 N 
ATOM      5  C   UNL A   1      36.214  30.629  28.194  1.00  0.00     0.243 C 
ATOM      6  O   UNL A   1      36.858  31.123  27.255  1.00  0.00    -0.273 OA
ATOM      7  H   UNL A   1      37.615  29.199  28.491  1.00  0.00     0.164 HD
BRANCH   5   8
ATOM      8  C   UNL A   1      34.681  31.101  28.372  1.00  0.00     0.176 C 
BRANCH   8   9
ATOM      9  N   UNL A   1      33.352  30.145  27.962  1.00  0.00    -0.337 N 
ATOM     10  C   UNL A   1      32.806  29.037  27.153  1.00  0.00     0.293 C 
ATOM     11  O   UNL A   1      31.568  29.047  27.146  1.00  0.00    -0.265 OA
ATOM     12  H   UNL A   1      32.603  30.475  28.509  1.00  0.00     0.164 HD
BRANCH  10  13
ATOM     13  C   UNL A   1      33.605  27.677  26.359  1.00  0.00     0.252 C 
ATOM     14  O   UNL A   1      34.780  27.842  26.029  1.00  0.00    -0.283 OA
BRANCH  13  15
ATOM     15  C   UNL A   1      32.896  26.112  26.126  1.00  0.00     0.054 A 
ATOM     16  N   UNL A   1      33.051  25.225  23.214  1.00  0.00    -0.240 N 
ATOM     17  C   UNL A   1      33.002  26.635  24.391  1.00  0.00     0.117 A 
ATOM     18  C   UNL A   1      33.726  23.693  24.275  1.00  0.00     0.065 A 
ATOM     19  C   UNL A   1      33.377  24.068  26.119  1.00  0.00     0.012 A 
ATOM     20  C   UNL A   1      34.164  22.320  24.076  1.00  0.00     0.028 A 
ATOM     21  C   UNL A   1      32.937  22.855  26.811  1.00  0.00     0.011 A 
ATOM     22  C   UNL A   1      33.894  21.333  25.086  1.00  0.00     0.002 A 
ATOM     23  C   UNL A   1      33.268  21.570  26.334  1.00  0.00     0.001 A 
BRANCH  16  24
ATOM     24  S   UNL A   1      31.153  26.409  22.874  1.00  0.00     0.268 S 
ATOM     25  O   UNL A   1      30.249  25.377  23.386  1.00  0.00    -0.201 OA
ATOM     26  O   UNL A   1      31.101  26.626  21.436  1.00  0.00    -0.201 OA
BRANCH  24  27
ATOM     27  C   UNL A   1      29.944  28.129  23.186  1.00  0.00     0.088 A 
ATOM     28  C   UNL A   1      27.988  31.951  22.738  1.00  0.00     0.044 C 
ATOM     29  C   UNL A   1      28.529  30.691  23.342  1.00  0.00    -0.051 A 
ATOM     30  C   UNL A   1      27.816  29.560  23.125  1.00  0.00     0.005 A 
ATOM     31  C   UNL A   1      29.814  30.497  23.875  1.00  0.00     0.005 A 
ATOM     32  C   UNL A   1      28.518  28.340  23.120  1.00  0.00     0.022 A 
ATOM     33  C   UNL A   1      30.511  29.225  23.825  1.00  0.00     0.022 A 
ENDBRANCH  24  27
ENDBRANCH  16  24
ENDBRANCH  13  15
ENDBRANCH  10  13
ENDBRANCH   8   9
BRANCH   8  34
ATOM     34  C   UNL A   1      34.387  32.641  28.614  1.00  0.00     0.072 C 
BRANCH  34  35
ATOM     35  C   UNL A   1      34.403  33.260  29.975  1.00  0.00    -0.020 A 
ATOM     36  C   UNL A   1      34.856  32.669  31.145  1.00  0.00     0.087 A 
ATOM     37  C   UNL A   1      34.031  34.582  30.321  1.00  0.00     0.003 A 
ATOM     38  N   UNL A   1      34.524  33.480  32.193  1.00  0.00    -0.361 N 
ATOM     39  C   UNL A   1      34.050  34.674  31.712  1.00  0.00     0.046 A 
ATOM     40  C   UNL A   1      33.644  35.694  29.561  1.00  0.00     0.010 A 
ATOM     41  H   UNL A   1      34.611  33.243  33.145  1.00  0.00     0.166 HD
ATOM     42  C   UNL A   1      33.640  35.820  32.394  1.00  0.00     0.026 A 
ATOM     43  C   UNL A   1      33.278  36.863  30.222  1.00  0.00     0.001 A 
ATOM     44  C   UNL A   1      33.263  36.918  31.615  1.00  0.00     0.002 A 
ENDBRANCH  34  35
ENDBRANCH   8  34
ENDBRANCH   5   8
ENDBRANCH   3   4
ENDBRANCH   1   3
BRANCH   1  45
ATOM     45  O   UNL A   1      38.358  28.711  31.998  1.00  0.00    -0.461 OA
BRANCH  45  46
ATOM     46  C   UNL A   1      39.377  28.429  30.969  1.00  0.00     0.274 C 
BRANCH  46  47
ATOM     47  C   UNL A   1      40.223  29.585  30.322  1.00  0.00     0.275 C 
BRANCH  47  48
ATOM     48  O   UNL A   1      39.716  30.937  30.226  1.00  0.00    -0.458 OA
BRANCH  48  49
ATOM     49  C   UNL A   1      40.422  31.979  30.701  1.00  0.00     0.338 C 
ATOM     50  O   UNL A   1      41.418  32.510  30.247  1.00  0.00    -0.246 OA
BRANCH  49  51
ATOM     51  C   UNL A   1      39.712  32.443  31.896  1.00  0.00     0.060 A 
ATOM     52  C   UNL A   1      38.749  33.367  31.837  1.00  0.00     0.016 A 
ATOM     53  C   UNL A   1      39.768  31.709  33.100  1.00  0.00     0.016 A 
ATOM     54  C   UNL A   1      38.086  33.493  33.053  1.00  0.00     0.010 A 
ATOM     55  C   UNL A   1      39.080  31.907  34.325  1.00  0.00     0.010 A 
ATOM     56  C   UNL A   1      38.561  33.154  34.436  1.00  0.00    -0.014 A 
BRANCH  56  57
ATOM     57  C   UNL A   1      39.542  34.217  35.669  1.00  0.00     0.031 A 
ATOM     58  C   UNL A   1      38.654  33.931  37.121  1.00  0.00     0.074 A 
ATOM     59  C   UNL A   1      41.315  35.030  35.362  1.00  0.00     0.049 A 
ATOM     60  N   UNL A   1      39.095  34.159  38.311  1.00  0.00    -0.248 NA
ATOM     61  C   UNL A   1      37.328  33.348  37.242  1.00  0.00     0.031 C 
ATOM     62  C   UNL A   1      42.818  34.667  36.367  1.00  0.00     0.029 A 
ATOM     63  N   UNL A   1      42.265  35.267  34.272  1.00  0.00    -0.354 N 
ATOM     64  C   UNL A   1      38.387  33.408  39.222  1.00  0.00     0.074 A 
ATOM     65  C   UNL A   1      37.226  32.977  38.523  1.00  0.00     0.031 C 
ATOM     66  C   UNL A   1      43.952  34.510  35.708  1.00  0.00     0.029 A 
ATOM     67  C   UNL A   1      43.638  35.349  34.658  1.00  0.00     0.049 A 
ATOM     68  H   UNL A   1      41.976  35.363  33.335  1.00  0.00     0.167 HD
ATOM     69  C   UNL A   1      38.953  33.186  40.434  1.00  0.00     0.034 A 
ATOM     70  C   UNL A   1      44.078  36.591  34.928  1.00  0.00     0.034 A 
ATOM     71  C   UNL A   1      40.229  33.895  40.513  1.00  0.00     0.049 A 
ATOM     72  C   UNL A   1      43.979  37.002  36.764  1.00  0.00     0.074 A 
ATOM     73  C   UNL A   1      41.535  33.460  40.556  1.00  0.00     0.029 A 
ATOM     74  N   UNL A   1      40.268  35.264  40.291  1.00  0.00    -0.354 N 
ATOM     75  N   UNL A   1      43.097  36.517  37.670  1.00  0.00    -0.248 NA
ATOM     76  C   UNL A   1      44.707  38.036  37.597  1.00  0.00     0.031 C 
ATOM     77  C   UNL A   1      42.353  34.558  40.193  1.00  0.00     0.029 A 
ATOM     78  C   UNL A   1      41.558  35.678  40.023  1.00  0.00     0.049 A 
ATOM     79  H   UNL A   1      39.484  35.859  40.320  1.00  0.00     0.167 HD
ATOM     80  C   UNL A   1      42.923  37.262  38.846  1.00  0.00     0.074 A 
ATOM     81  C   UNL A   1      43.911  38.283  38.674  1.00  0.00     0.031 C 
ATOM     82  C   UNL A   1      41.885  37.074  39.760  1.00  0.00     0.034 A 
BRANCH  69  83
ATOM     83  C   UNL A   1      38.539  32.233  41.526  1.00  0.00     0.023 A 
ATOM     84  C   UNL A   1      37.208  32.361  41.968  1.00  0.00     0.031 A 
ATOM     85  C   UNL A   1      39.314  31.287  42.221  1.00  0.00     0.131 A 
ATOM     86  C   UNL A   1      36.690  31.623  43.035  1.00  0.00     0.055 A 
ATOM     87  C   UNL A   1      38.785  30.509  43.271  1.00  0.00     0.041 A 
ATOM     88  F   UNL A   1      40.610  31.088  41.948  1.00  0.00    -0.206 F 
ATOM     89  C   UNL A   1      37.466  30.676  43.688  1.00  0.00     0.022 A 
BRANCH  86  90
ATOM     90  S   UNL A   1      34.988  31.976  43.536  1.00  0.00     0.124 S 
ATOM     91  O   UNL A   1      35.142  33.232  44.265  1.00  0.00    -0.237 OA
ATOM     92  O   UNL A   1      34.302  32.057  42.251  1.00  0.00    -0.237 OA
ATOM     93  O   UNL A   1      34.632  30.822  44.358  1.00  0.00    -0.744 OA
ENDBRANCH  86  90
ENDBRANCH  69  83
BRANCH  70  94
ATOM     94  C   UNL A   1      43.621  37.177  33.323  1.00  0.00     0.023 A 
ATOM     95  C   UNL A   1      43.151  38.531  33.375  1.00  0.00     0.031 A 
ATOM     96  C   UNL A   1      44.276  36.936  32.072  1.00  0.00     0.131 A 
ATOM     97  C   UNL A   1      43.684  39.559  32.528  1.00  0.00     0.055 A 
ATOM     98  C   UNL A   1      44.856  37.958  31.257  1.00  0.00     0.041 A 
ATOM     99  F   UNL A   1      44.212  35.728  31.487  1.00  0.00    -0.206 F 
ATOM    100  C   UNL A   1      44.625  39.292  31.539  1.00  0.00     0.022 A 
BRANCH  97 101
ATOM    101  S   UNL A   1      43.260  41.291  32.880  1.00  0.00     0.124 S 
ATOM    102  O   UNL A   1      43.383  41.333  34.333  1.00  0.00    -0.237 OA
ATOM    103  O   UNL A   1      44.281  42.015  32.128  1.00  0.00    -0.237 OA
ATOM    104  O   UNL A   1      41.903  41.437  32.364  1.00  0.00    -0.744 OA
ENDBRANCH  97 101
ENDBRANCH  70  94
BRANCH  82 105
ATOM    105  C   UNL A   1      41.193  38.158  40.636  1.00  0.00     0.023 A 
ATOM    106  C   UNL A   1      41.855  38.758  41.715  1.00  0.00     0.031 A 
ATOM    107  C   UNL A   1      39.901  38.712  40.367  1.00  0.00     0.131 A 
ATOM    108  C   UNL A   1      41.195  39.673  42.571  1.00  0.00     0.055 A 
ATOM    109  C   UNL A   1      39.278  39.688  41.167  1.00  0.00     0.041 A 
ATOM    110  F   UNL A   1      39.165  38.337  39.311  1.00  0.00    -0.206 F 
ATOM    111  C   UNL A   1      39.906  40.135  42.312  1.00  0.00     0.022 A 
BRANCH 108 112
ATOM    112  S   UNL A   1      41.985  40.081  44.150  1.00  0.00     0.124 S 
ATOM    113  O   UNL A   1      40.826  40.352  44.997  1.00  0.00    -0.237 OA
ATOM    114  O   UNL A   1      42.732  38.868  44.463  1.00  0.00    -0.237 OA
ATOM    115  O   UNL A   1      42.803  41.253  43.839  1.00  0.00    -0.744 OA
ENDBRANCH 108 112
ENDBRANCH  82 105
ENDBRANCH  56  57
ENDBRANCH  49  51
ENDBRANCH  48  49
ENDBRANCH  47  48
ENDBRANCH  46  47
ENDBRANCH  45  46
ENDBRANCH   1  45
TORSDOF 23
ENDMDL
MODEL 2
REMARK VINA RESULT:     -13.3      2.773      4.275
REMARK SMILES Cc1ccc(S(=O)(=O)n2cc(C(=O)C(=O)N[C@H](Cc3c[nH]c4ccccc34)C(=O)NCC(=O)OCCOC(=O)c3ccc(-c4c5nc(c(-c6cc(S(=O)(=O)[O-])ccc6F)c6ccc([nH]6)c(-c6cc(S(=O)(=O)[O-])ccc6F)c6nc(c(-c7cc(S(=O)(=O)[O-])ccc7F)c7ccc4[nH]7)C=C6)C=C5)cc3)c3ccccc32)cc1
REMARK SMILES IDX 32 1 33 2 31 3 30 4 28 5 29 6 17 8 16 9 14 10 15 11 12 13
REMARK SMILES IDX 13 14 11 15 9 16 10 17 108 18 103 19 107 20 104 21 106 22
REMARK SMILES IDX 105 23 6 24 7 25 8 26 5 27 1 28 2 29 3 30 110 31 4 32 109 33
REMARK SMILES IDX 18 34 19 35 20 36 27 37 21 38 22 39 26 40 23 42 25 43 24 44
REMARK SMILES IDX 34 45 35 46 36 47 37 48 38 49 39 50 40 51 41 52 102 53 42 54
REMARK SMILES IDX 101 55 43 56 44 57 45 58 95 59 46 60 100 61 94 62 96 63
REMARK SMILES IDX 47 64 99 65 93 66 92 67 48 69 80 70 60 71 79 72 61 73 64 74
REMARK SMILES IDX 78 75 97 76 62 77 63 78 77 80 98 81 65 82 49 83 50 84 58 85
REMARK SMILES IDX 51 86 57 87 59 88 56 89 52 90 53 91 54 92 55 93 81 94 82 95
REMARK SMILES IDX 90 96 83 97 89 98 91 99 88 100 84 101 85 102 86 103 87 104
REMARK SMILES IDX 66 105 67 106 75 107 68 108 74 109 76 110 73 111 69 112
REMARK SMILES IDX 70 113 71 114 72 115
REMARK H PARENT 30 7 16 12 21 41 96 68 64 79
REMARK Flexibility Score: inf
ROOT
ATOM      1  C   UNL A   1      37.042  30.156  32.534  1.00  0.00     0.325 C 
ATOM      2  O   UNL A   1      36.563  30.979  33.298  1.00  0.00    -0.250 OA
ENDROOT
BRANCH   1   3
ATOM      3  C   UNL A   1      36.540  29.867  31.051  1.00  0.00     0.238 C 
BRANCH   3   4
ATOM      4  N   UNL A   1      36.959  29.708  29.662  1.00  0.00    -0.343 N 
ATOM      5  C   UNL A   1      36.575  30.469  28.567  1.00  0.00     0.243 C 
ATOM      6  O   UNL A   1      37.395  30.511  27.636  1.00  0.00    -0.273 OA
ATOM      7  H   UNL A   1      37.589  28.974  29.481  1.00  0.00     0.164 HD
BRANCH   5   8
ATOM      8  C   UNL A   1      35.176  31.247  28.360  1.00  0.00     0.176 C 
BRANCH   8   9
ATOM      9  N   UNL A   1      33.717  30.475  28.008  1.00  0.00    -0.337 N 
ATOM     10  C   UNL A   1      32.979  29.512  27.169  1.00  0.00     0.293 C 
ATOM     11  O   UNL A   1      31.753  29.648  27.290  1.00  0.00    -0.265 OA
ATOM     12  H   UNL A   1      33.064  30.824  28.657  1.00  0.00     0.164 HD
BRANCH  10  13
ATOM     13  C   UNL A   1      33.544  28.162  26.181  1.00  0.00     0.252 C 
ATOM     14  O   UNL A   1      34.631  28.304  25.621  1.00  0.00    -0.283 OA
BRANCH  13  15
ATOM     15  C   UNL A   1      32.743  26.629  26.048  1.00  0.00     0.054 A 
ATOM     16  N   UNL A   1      32.759  25.591  23.182  1.00  0.00    -0.240 N 
ATOM     17  C   UNL A   1      32.825  27.059  24.286  1.00  0.00     0.117 A 
ATOM     18  C   UNL A   1      33.380  24.078  24.301  1.00  0.00     0.065 A 
ATOM     19  C   UNL A   1      33.110  24.563  26.132  1.00  0.00     0.012 A 
ATOM     20  C   UNL A   1      33.736  22.675  24.161  1.00  0.00     0.028 A 
ATOM     21  C   UNL A   1      32.624  23.413  26.897  1.00  0.00     0.011 A 
ATOM     22  C   UNL A   1      33.442  21.755  25.227  1.00  0.00     0.002 A 
ATOM     23  C   UNL A   1      32.869  22.089  26.478  1.00  0.00     0.001 A 
BRANCH  16  24
ATOM     24  S   UNL A   1      30.920  26.863  22.835  1.00  0.00     0.268 S 
ATOM     25  O   UNL A   1      29.977  25.912  23.425  1.00  0.00    -0.201 OA
ATOM     26  O   UNL A   1      30.836  27.010  21.389  1.00  0.00    -0.201 OA
BRANCH  24  27
ATOM     27  C   UNL A   1      29.819  28.663  23.091  1.00  0.00     0.088 A 
ATOM     28  C   UNL A   1      28.394  32.726  22.771  1.00  0.00     0.044 C 
ATOM     29  C   UNL A   1      28.635  31.337  23.282  1.00  0.00    -0.051 A 
ATOM     30  C   UNL A   1      27.922  30.344  22.698  1.00  0.00     0.005 A 
ATOM     31  C   UNL A   1      29.695  30.914  24.101  1.00  0.00     0.005 A 
ATOM     32  C   UNL A   1      28.493  29.058  22.680  1.00  0.00     0.022 A 
ATOM     33  C   UNL A   1      30.270  29.583  24.030  1.00  0.00     0.022 A 
ENDBRANCH  24  27
ENDBRANCH  16  24
ENDBRANCH  13  15
ENDBRANCH  10  13
ENDBRANCH   8   9
BRANCH   8  34
ATOM     34  C   UNL A   1      35.210  32.816  28.131  1.00  0.00     0.072 C 
BRANCH  34  35
ATOM     35  C   UNL A   1      34.419  33.770  28.969  1.00  0.00    -0.020 A 
ATOM     36  C   UNL A   1      33.272  34.448  28.586  1.00  0.00     0.087 A 
ATOM     37  C   UNL A   1      34.642  34.108  30.326  1.00  0.00     0.003 A 
ATOM     38  N   UNL A   1      32.967  35.360  29.557  1.00  0.00    -0.361 N 
ATOM     39  C   UNL A   1      33.769  35.147  30.649  1.00  0.00     0.046 A 
ATOM     40  C   UNL A   1      35.542  33.637  31.291  1.00  0.00     0.010 A 
ATOM     41  H   UNL A   1      32.279  36.060  29.484  1.00  0.00     0.166 HD
ATOM     42  C   UNL A   1      33.792  35.786  31.888  1.00  0.00     0.026 A 
ATOM     43  C   UNL A   1      35.546  34.231  32.550  1.00  0.00     0.001 A 
ATOM     44  C   UNL A   1      34.695  35.297  32.837  1.00  0.00     0.002 A 
ENDBRANCH  34  35
ENDBRANCH   8  34
ENDBRANCH   5   8
ENDBRANCH   3   4
ENDBRANCH   1   3
BRANCH   1  45
ATOM     45  O   UNL A   1      37.909  29.172  32.942  1.00  0.00    -0.461 OA
BRANCH  45  46
ATOM     46  C   UNL A   1      38.217  27.929  32.209  1.00  0.00     0.274 C 
BRANCH  46  47
ATOM     47  C   UNL A   1      39.416  27.857  31.195  1.00  0.00     0.275 C 
BRANCH  47  48
ATOM     48  O   UNL A   1      39.743  28.963  30.323  1.00  0.00    -0.458 OA
BRANCH  48  49
ATOM     49  C   UNL A   1      40.870  29.677  30.498  1.00  0.00     0.338 C 
ATOM     50  O   UNL A   1      42.006  29.428  30.139  1.00  0.00    -0.246 OA
BRANCH  49  51
ATOM     51  C   UNL A   1      40.471  30.912  31.176  1.00  0.00     0.060 A 
ATOM     52  C   UNL A   1      39.742  31.852  30.570  1.00  0.00     0.016 A 
ATOM     53  C   UNL A   1      40.543  31.021  32.582  1.00  0.00     0.016 A 
ATOM     54  C   UNL A   1      39.315  32.827  31.466  1.00  0.00     0.010 A 
ATOM     55  C   UNL A   1      40.109  32.062  33.442  1.00  0.00     0.010 A 
ATOM     56  C   UNL A   1      39.905  33.230  32.786  1.00  0.00    -0.014 A 
BRANCH  56  57
ATOM     57  C   UNL A   1      41.275  34.495  33.159  1.00  0.00     0.031 A 
ATOM     58  C   UNL A   1      40.715  35.145  34.657  1.00  0.00     0.074 A 
ATOM     59  C   UNL A   1      43.020  34.634  32.247  1.00  0.00     0.049 A 
ATOM     60  N   UNL A   1      41.443  35.804  35.492  1.00  0.00    -0.248 NA
ATOM     61  C   UNL A   1      39.387  35.011  35.233  1.00  0.00     0.031 C 
ATOM     62  C   UNL A   1      44.653  34.460  33.087  1.00  0.00     0.029 A 
ATOM     63  N   UNL A   1      43.717  34.101  31.075  1.00  0.00    -0.354 N 
ATOM     64  C   UNL A   1      40.871  35.761  36.744  1.00  0.00     0.074 A 
ATOM     65  C   UNL A   1      39.535  35.328  36.524  1.00  0.00     0.031 C 
ATOM     66  C   UNL A   1      45.575  33.754  32.456  1.00  0.00     0.029 A 
ATOM     67  C   UNL A   1      45.140  34.039  31.178  1.00  0.00     0.049 A 
ATOM     68  H   UNL A   1      43.236  33.803  30.268  1.00  0.00     0.167 HD
ATOM     69  C   UNL A   1      41.666  36.019  37.811  1.00  0.00     0.034 A 
ATOM     70  C   UNL A   1      45.789  35.122  30.714  1.00  0.00     0.034 A 
ATOM     71  C   UNL A   1      43.009  36.367  37.347  1.00  0.00     0.049 A 
ATOM     72  C   UNL A   1      46.170  36.366  32.076  1.00  0.00     0.074 A 
ATOM     73  C   UNL A   1      44.221  35.719  37.431  1.00  0.00     0.029 A 
ATOM     74  N   UNL A   1      43.174  37.415  36.453  1.00  0.00    -0.354 N 
ATOM     75  N   UNL A   1      45.464  36.587  33.211  1.00  0.00    -0.248 NA
ATOM     76  C   UNL A   1      47.199  37.474  32.159  1.00  0.00     0.031 C 
ATOM     77  C   UNL A   1      45.070  36.292  36.453  1.00  0.00     0.029 A 
ATOM     78  C   UNL A   1      44.411  37.344  35.842  1.00  0.00     0.049 A 
ATOM     79  H   UNL A   1      42.503  38.114  36.278  1.00  0.00     0.167 HD
ATOM     80  C   UNL A   1      45.664  37.819  33.852  1.00  0.00     0.074 A 
ATOM     81  C   UNL A   1      46.712  38.379  33.053  1.00  0.00     0.031 C 
ATOM     82  C   UNL A   1      44.849  38.330  34.862  1.00  0.00     0.034 A 
BRANCH  69  83
ATOM     83  C   UNL A   1      41.393  35.823  39.281  1.00  0.00     0.023 A 
ATOM     84  C   UNL A   1      40.984  34.527  39.651  1.00  0.00     0.031 A 
ATOM     85  C   UNL A   1      41.414  36.767  40.323  1.00  0.00     0.131 A 
ATOM     86  C   UNL A   1      40.599  34.198  40.954  1.00  0.00     0.055 A 
ATOM     87  C   UNL A   1      41.068  36.431  41.647  1.00  0.00     0.041 A 
ATOM     88  F   UNL A   1      41.735  38.051  40.115  1.00  0.00    -0.206 F 
ATOM     89  C   UNL A   1      40.654  35.141  41.970  1.00  0.00     0.022 A 
BRANCH  86  90
ATOM     90  S   UNL A   1      40.010  32.513  41.241  1.00  0.00     0.124 S 
ATOM     91  O   UNL A   1      41.230  31.731  41.065  1.00  0.00    -0.237 OA
ATOM     92  O   UNL A   1      39.490  32.599  42.602  1.00  0.00    -0.237 OA
ATOM     93  O   UNL A   1      39.000  32.327  40.202  1.00  0.00    -0.744 OA
ENDBRANCH  86  90
ENDBRANCH  69  83
BRANCH  70  94
ATOM     94  C   UNL A   1      45.057  34.961  29.112  1.00  0.00     0.023 A 
ATOM     95  C   UNL A   1      44.330  36.143  28.749  1.00  0.00     0.031 A 
ATOM     96  C   UNL A   1      45.611  34.351  27.941  1.00  0.00     0.131 A 
ATOM     97  C   UNL A   1      44.551  36.826  27.507  1.00  0.00     0.055 A 
ATOM     98  C   UNL A   1      45.883  35.047  26.722  1.00  0.00     0.041 A 
ATOM     99  F   UNL A   1      45.733  33.015  27.857  1.00  0.00    -0.206 F 
ATOM    100  C   UNL A   1      45.418  36.336  26.534  1.00  0.00     0.022 A 
BRANCH  97 101
ATOM    101  S   UNL A   1      43.824  38.475  27.272  1.00  0.00     0.124 S 
ATOM    102  O   UNL A   1      44.837  39.127  26.450  1.00  0.00    -0.237 OA
ATOM    103  O   UNL A   1      42.562  38.161  26.607  1.00  0.00    -0.237 OA
ATOM    104  O   UNL A   1      43.685  38.998  28.627  1.00  0.00    -0.744 OA
ENDBRANCH  97 101
ENDBRANCH  70  94
BRANCH  82 105
ATOM    105  C   UNL A   1      44.525  39.826  35.144  1.00  0.00     0.023 A 
ATOM    106  C   UNL A   1      44.941  40.454  36.325  1.00  0.00     0.031 A 
ATOM    107  C   UNL A   1      43.892  40.708  34.211  1.00  0.00     0.131 A 
ATOM    108  C   UNL A   1      44.564  41.786  36.627  1.00  0.00     0.055 A 
ATOM    109  C   UNL A   1      43.596  42.058  34.474  1.00  0.00     0.041 A 
ATOM    110  F   UNL A   1      43.523  40.309  32.985  1.00  0.00    -0.206 F 
ATOM    111  C   UNL A   1      43.885  42.590  35.714  1.00  0.00     0.022 A 
BRANCH 108 112
ATOM    112  S   UNL A   1      44.800  42.371  38.326  1.00  0.00     0.124 S 
ATOM    113  O   UNL A   1      45.451  43.661  38.103  1.00  0.00    -0.237 OA
ATOM    114  O   UNL A   1      43.437  42.427  38.842  1.00  0.00    -0.237 OA
ATOM    115  O   UNL A   1      45.655  41.351  38.932  1.00  0.00    -0.744 OA
ENDBRANCH 108 112
ENDBRANCH  82 105
ENDBRANCH  56  57
ENDBRANCH  49  51
ENDBRANCH  48  49
ENDBRANCH  47  48
ENDBRANCH  46  47
ENDBRANCH  45  46
ENDBRANCH   1  45
TORSDOF 23
ENDMDL
MODEL 3
REMARK VINA RESULT:     -12.8      7.024     11.996
REMARK SMILES Cc1ccc(S(=O)(=O)n2cc(C(=O)C(=O)N[C@H](Cc3c[nH]c4ccccc34)C(=O)NCC(=O)OCCOC(=O)c3ccc(-c4c5nc(c(-c6cc(S(=O)(=O)[O-])ccc6F)c6ccc([nH]6)c(-c6cc(S(=O)(=O)[O-])ccc6F)c6nc(c(-c7cc(S(=O)(=O)[O-])ccc7F)c7ccc4[nH]7)C=C6)C=C5)cc3)c3ccccc32)cc1
REMARK SMILES IDX 32 1 33 2 31 3 30 4 28 5 29 6 17 8 16 9 14 10 15 11 12 13
REMARK SMILES IDX 13 14 11 15 9 16 10 17 108 18 103 19 107 20 104 21 106 22
REMARK SMILES IDX 105 23 6 24 7 25 8 26 5 27 1 28 2 29 3 30 110 31 4 32 109 33
REMARK SMILES IDX 18 34 19 35 20 36 27 37 21 38 22 39 26 40 23 42 25 43 24 44
REMARK SMILES IDX 34 45 35 46 36 47 37 48 38 49 39 50 40 51 41 52 102 53 42 54
REMARK SMILES IDX 101 55 43 56 44 57 45 58 95 59 46 60 100 61 94 62 96 63
REMARK SMILES IDX 47 64 99 65 93 66 92 67 48 69 80 70 60 71 79 72 61 73 64 74
REMARK SMILES IDX 78 75 97 76 62 77 63 78 77 80 98 81 65 82 49 83 50 84 58 85
REMARK SMILES IDX 51 86 57 87 59 88 56 89 52 90 53 91 54 92 55 93 81 94 82 95
REMARK SMILES IDX 90 96 83 97 89 98 91 99 88 100 84 101 85 102 86 103 87 104
REMARK SMILES IDX 66 105 67 106 75 107 68 108 74 109 76 110 73 111 69 112
REMARK SMILES IDX 70 113 71 114 72 115
REMARK H PARENT 30 7 16 12 21 41 96 68 64 79
REMARK Flexibility Score: inf
ROOT
ATOM      1  C   UNL A   1      50.934  30.614  26.467  1.00  0.00     0.325 C 
ATOM      2  O   UNL A   1      51.341  30.962  25.370  1.00  0.00    -0.250 OA
ENDROOT
BRANCH   1   3
ATOM      3  C   UNL A   1      51.260  29.227  27.178  1.00  0.00     0.238 C 
BRANCH   3   4
ATOM      4  N   UNL A   1      51.894  28.603  28.336  1.00  0.00    -0.343 N 
ATOM      5  C   UNL A   1      51.671  27.330  28.842  1.00  0.00     0.243 C 
ATOM      6  O   UNL A   1      52.625  26.830  29.459  1.00  0.00    -0.273 OA
ATOM      7  H   UNL A   1      52.556  29.150  28.814  1.00  0.00     0.164 HD
BRANCH   5   8
ATOM      8  C   UNL A   1      50.308  26.470  28.758  1.00  0.00     0.176 C 
BRANCH   8   9
ATOM      9  N   UNL A   1      49.443  25.950  30.111  1.00  0.00    -0.337 N 
ATOM     10  C   UNL A   1      48.184  25.976  30.881  1.00  0.00     0.293 C 
ATOM     11  O   UNL A   1      48.347  25.551  32.033  1.00  0.00    -0.265 OA
ATOM     12  H   UNL A   1      50.055  25.365  30.613  1.00  0.00     0.164 HD
BRANCH  10  13
ATOM     13  C   UNL A   1      46.532  26.359  30.390  1.00  0.00     0.252 C 
ATOM     14  O   UNL A   1      46.390  26.869  29.278  1.00  0.00    -0.283 OA
BRANCH  13  15
ATOM     15  C   UNL A   1      45.111  25.960  31.301  1.00  0.00     0.054 A 
ATOM     16  N   UNL A   1      44.249  23.072  30.844  1.00  0.00    -0.240 N 
ATOM     17  C   UNL A   1      45.130  24.538  30.172  1.00  0.00     0.117 A 
ATOM     18  C   UNL A   1      44.265  23.319  32.810  1.00  0.00     0.065 A 
ATOM     19  C   UNL A   1      44.507  25.185  33.158  1.00  0.00     0.012 A 
ATOM     20  C   UNL A   1      43.920  22.585  34.018  1.00  0.00     0.028 A 
ATOM     21  C   UNL A   1      43.665  25.607  34.279  1.00  0.00     0.011 A 
ATOM     22  C   UNL A   1      43.394  23.291  35.155  1.00  0.00     0.002 A 
ATOM     23  C   UNL A   1      43.218  24.692  35.254  1.00  0.00     0.001 A 
BRANCH  16  24
ATOM     24  S   UNL A   1      43.162  23.812  29.003  1.00  0.00     0.268 S 
ATOM     25  O   UNL A   1      41.996  22.941  29.167  1.00  0.00    -0.201 OA
ATOM     26  O   UNL A   1      44.040  23.476  27.891  1.00  0.00    -0.201 OA
BRANCH  24  27
ATOM     27  C   UNL A   1      42.284  25.368  27.851  1.00  0.00     0.088 A 
ATOM     28  C   UNL A   1      41.689  28.821  25.330  1.00  0.00     0.044 C 
ATOM     29  C   UNL A   1      41.441  27.711  26.306  1.00  0.00    -0.051 A 
ATOM     30  C   UNL A   1      41.248  26.476  25.783  1.00  0.00     0.005 A 
ATOM     31  C   UNL A   1      41.647  27.749  27.695  1.00  0.00     0.005 A 
ATOM     32  C   UNL A   1      41.605  25.371  26.578  1.00  0.00     0.022 A 
ATOM     33  C   UNL A   1      42.040  26.588  28.471  1.00  0.00     0.022 A 
ENDBRANCH  24  27
ENDBRANCH  16  24
ENDBRANCH  13  15
ENDBRANCH  10  13
ENDBRANCH   8   9
BRANCH   8  34
ATOM     34  C   UNL A   1      49.932  25.780  27.380  1.00  0.00     0.072 C 
BRANCH  34  35
ATOM     35  C   UNL A   1      48.517  25.523  26.967  1.00  0.00    -0.020 A 
ATOM     36  C   UNL A   1      47.792  24.362  27.188  1.00  0.00     0.087 A 
ATOM     37  C   UNL A   1      47.628  26.431  26.343  1.00  0.00     0.003 A 
ATOM     38  N   UNL A   1      46.618  24.451  26.494  1.00  0.00    -0.361 N 
ATOM     39  C   UNL A   1      46.477  25.722  25.998  1.00  0.00     0.046 A 
ATOM     40  C   UNL A   1      47.727  27.789  26.012  1.00  0.00     0.010 A 
ATOM     41  H   UNL A   1      45.974  23.716  26.370  1.00  0.00     0.166 HD
ATOM     42  C   UNL A   1      45.431  26.296  25.277  1.00  0.00     0.026 A 
ATOM     43  C   UNL A   1      46.671  28.392  25.333  1.00  0.00     0.001 A 
ATOM     44  C   UNL A   1      45.550  27.653  24.961  1.00  0.00     0.002 A 
ENDBRANCH  34  35
ENDBRANCH   8  34
ENDBRANCH   5   8
ENDBRANCH   3   4
ENDBRANCH   1   3
BRANCH   1  45
ATOM     45  O   UNL A   1      49.915  31.258  27.126  1.00  0.00    -0.461 OA
BRANCH  45  46
ATOM     46  C   UNL A   1      50.039  32.503  27.906  1.00  0.00     0.274 C 
BRANCH  46  47
ATOM     47  C   UNL A   1      48.803  33.446  28.139  1.00  0.00     0.275 C 
BRANCH  47  48
ATOM     48  O   UNL A   1      48.597  34.638  27.346  1.00  0.00    -0.458 OA
BRANCH  48  49
ATOM     49  C   UNL A   1      47.836  34.613  26.237  1.00  0.00     0.338 C 
ATOM     50  O   UNL A   1      48.172  34.514  25.072  1.00  0.00    -0.246 OA
BRANCH  49  51
ATOM     51  C   UNL A   1      46.445  34.661  26.694  1.00  0.00     0.060 A 
ATOM     52  C   UNL A   1      45.876  35.791  27.122  1.00  0.00     0.016 A 
ATOM     53  C   UNL A   1      45.549  33.613  26.393  1.00  0.00     0.016 A 
ATOM     54  C   UNL A   1      44.506  35.637  27.305  1.00  0.00     0.010 A 
ATOM     55  C   UNL A   1      44.155  33.505  26.632  1.00  0.00     0.010 A 
ATOM     56  C   UNL A   1      43.715  34.388  27.562  1.00  0.00    -0.014 A 
BRANCH  56  57
ATOM     57  C   UNL A   1      43.315  33.530  29.212  1.00  0.00     0.031 A 
ATOM     58  C   UNL A   1      41.770  34.215  29.565  1.00  0.00     0.074 A 
ATOM     59  C   UNL A   1      44.268  31.986  29.990  1.00  0.00     0.049 A 
ATOM     60  N   UNL A   1      40.923  33.725  30.405  1.00  0.00    -0.248 NA
ATOM     61  C   UNL A   1      41.164  35.384  28.951  1.00  0.00     0.031 C 
ATOM     62  C   UNL A   1      43.485  30.359  30.367  1.00  0.00     0.029 A 
ATOM     63  N   UNL A   1      45.486  31.201  29.780  1.00  0.00    -0.354 N 
ATOM     64  C   UNL A   1      39.659  34.189  30.115  1.00  0.00     0.074 A 
ATOM     65  C   UNL A   1      39.863  35.299  29.249  1.00  0.00     0.031 C 
ATOM     66  C   UNL A   1      44.177  29.279  30.054  1.00  0.00     0.029 A 
ATOM     67  C   UNL A   1      45.427  29.842  30.218  1.00  0.00     0.049 A 
ATOM     68  H   UNL A   1      46.293  31.583  29.364  1.00  0.00     0.167 HD
ATOM     69  C   UNL A   1      38.603  33.487  30.594  1.00  0.00     0.034 A 
ATOM     70  C   UNL A   1      45.851  29.633  31.477  1.00  0.00     0.034 A 
ATOM     71  C   UNL A   1      39.086  32.373  31.408  1.00  0.00     0.049 A 
ATOM     72  C   UNL A   1      44.437  29.650  32.721  1.00  0.00     0.074 A 
ATOM     73  C   UNL A   1      39.070  31.009  31.224  1.00  0.00     0.029 A 
ATOM     74  N   UNL A   1      39.928  32.624  32.482  1.00  0.00    -0.354 N 
ATOM     75  N   UNL A   1      43.273  30.337  32.637  1.00  0.00    -0.248 NA
ATOM     76  C   UNL A   1      44.327  29.070  34.116  1.00  0.00     0.031 C 
ATOM     77  C   UNL A   1      40.041  30.457  32.096  1.00  0.00     0.029 A 
ATOM     78  C   UNL A   1      40.577  31.469  32.873  1.00  0.00     0.049 A 
ATOM     79  H   UNL A   1      40.047  33.504  32.907  1.00  0.00     0.167 HD
ATOM     80  C   UNL A   1      42.574  30.551  33.834  1.00  0.00     0.074 A 
ATOM     81  C   UNL A   1      43.373  29.802  34.757  1.00  0.00     0.031 C 
ATOM     82  C   UNL A   1      41.516  31.447  33.987  1.00  0.00     0.034 A 
BRANCH  69  83
ATOM     83  C   UNL A   1      37.138  33.608  30.257  1.00  0.00     0.023 A 
ATOM     84  C   UNL A   1      36.310  34.040  31.311  1.00  0.00     0.031 A 
ATOM     85  C   UNL A   1      36.470  33.277  29.065  1.00  0.00     0.131 A 
ATOM     86  C   UNL A   1      34.919  34.115  31.199  1.00  0.00     0.055 A 
ATOM     87  C   UNL A   1      35.071  33.391  28.932  1.00  0.00     0.041 A 
ATOM     88  F   UNL A   1      37.118  32.805  27.992  1.00  0.00    -0.206 F 
ATOM     89  C   UNL A   1      34.285  33.809  30.004  1.00  0.00     0.022 A 
BRANCH  86  90
ATOM     90  S   UNL A   1      33.996  34.599  32.677  1.00  0.00     0.124 S 
ATOM     91  O   UNL A   1      32.837  35.275  32.102  1.00  0.00    -0.237 OA
ATOM     92  O   UNL A   1      33.741  33.311  33.313  1.00  0.00    -0.237 OA
ATOM     93  O   UNL A   1      34.930  35.468  33.389  1.00  0.00    -0.744 OA
ENDBRANCH  86  90
ENDBRANCH  69  83
BRANCH  70  94
ATOM     94  C   UNL A   1      47.438  30.335  31.132  1.00  0.00     0.023 A 
ATOM     95  C   UNL A   1      47.846  31.238  32.168  1.00  0.00     0.031 A 
ATOM     96  C   UNL A   1      48.586  29.694  30.564  1.00  0.00     0.131 A 
ATOM     97  C   UNL A   1      49.120  31.129  32.821  1.00  0.00     0.055 A 
ATOM     98  C   UNL A   1      49.837  29.537  31.238  1.00  0.00     0.041 A 
ATOM     99  F   UNL A   1      48.612  29.365  29.261  1.00  0.00    -0.206 F 
ATOM    100  C   UNL A   1      50.077  30.198  32.428  1.00  0.00     0.022 A 
BRANCH  97 101
ATOM    101  S   UNL A   1      49.420  32.105  34.324  1.00  0.00     0.124 S 
ATOM    102  O   UNL A   1      48.892  31.221  35.357  1.00  0.00    -0.237 OA
ATOM    103  O   UNL A   1      50.871  32.268  34.298  1.00  0.00    -0.237 OA
ATOM    104  O   UNL A   1      48.665  33.334  34.107  1.00  0.00    -0.744 OA
ENDBRANCH  97 101
ENDBRANCH  70  94
BRANCH  82 105
ATOM    105  C   UNL A   1      41.148  32.260  35.262  1.00  0.00     0.023 A 
ATOM    106  C   UNL A   1      39.954  32.027  35.958  1.00  0.00     0.031 A 
ATOM    107  C   UNL A   1      42.010  33.212  35.894  1.00  0.00     0.131 A 
ATOM    108  C   UNL A   1      39.572  32.830  37.060  1.00  0.00     0.055 A 
ATOM    109  C   UNL A   1      41.668  33.948  37.043  1.00  0.00     0.041 A 
ATOM    110  F   UNL A   1      43.238  33.484  35.430  1.00  0.00    -0.206 F 
ATOM    111  C   UNL A   1      40.415  33.798  37.602  1.00  0.00     0.022 A 
BRANCH 108 112
ATOM    112  S   UNL A   1      37.856  32.723  37.635  1.00  0.00     0.124 S 
ATOM    113  O   UNL A   1      37.841  31.405  38.266  1.00  0.00    -0.237 OA
ATOM    114  O   UNL A   1      37.745  33.863  38.538  1.00  0.00    -0.237 OA
ATOM    115  O   UNL A   1      37.069  32.822  36.406  1.00  0.00    -0.744 OA
ENDBRANCH 108 112
ENDBRANCH  82 105
ENDBRANCH  56  57
ENDBRANCH  49  51
ENDBRANCH  48  49
ENDBRANCH  47  48
ENDBRANCH  46  47
ENDBRANCH  45  46
ENDBRANCH   1  45
TORSDOF 23
ENDMDL
