MODEL 1
REMARK VINA RESULT:     -12.3      0.000      0.000
REMARK SMILES Cc1onc2c(=O)n(C)nc(C(=O)OCCOC(=O)c3ccc(-c4c5nc(c(-c6cc(S(=O)(=O)[O-])ccc6F)c6ccc([nH]6)c(-c6cc(S(=O)(=O)[O-])ccc6F)c6nc(c(-c7cc(S(=O)(=O)[O-])ccc7F)c7ccc4[nH]7)C=C6)C=C5)cc3)c12
REMARK SMILES IDX 17 1 16 2 15 3 14 4 12 5 13 6 11 7 1 8 2 9 3 10 83 11 4 12
REMARK SMILES IDX 5 13 6 14 10 15 7 16 8 17 9 18 18 19 19 20 20 21 21 22 82 23
REMARK SMILES IDX 22 24 81 25 23 26 24 27 25 28 75 29 26 30 80 31 74 32 76 33
REMARK SMILES IDX 27 34 79 35 73 36 72 37 28 39 60 40 40 41 59 42 41 43 44 44
REMARK SMILES IDX 58 45 77 46 42 47 43 48 57 50 78 51 45 52 29 53 30 54 38 55
REMARK SMILES IDX 31 56 37 57 39 58 36 59 32 60 33 61 34 62 35 63 61 64 62 65
REMARK SMILES IDX 70 66 63 67 69 68 71 69 68 70 64 71 65 72 66 73 67 74 46 75
REMARK SMILES IDX 47 76 55 77 48 78 54 79 56 80 53 81 49 82 50 83 51 84 52 85
REMARK H PARENT 76 38 44 49
REMARK Flexibility Score: inf
ROOT
ATOM      1  O   UNL A   1      43.974  27.583  26.071  1.00  0.00    -0.458 OA
ENDROOT
BRANCH   1   2
ATOM      2  C   UNL A   1      44.563  26.485  25.344  1.00  0.00     0.275 C 
BRANCH   2   3
ATOM      3  C   UNL A   1      44.801  25.243  26.210  1.00  0.00     0.275 C 
BRANCH   3   4
ATOM      4  O   UNL A   1      44.387  24.067  25.505  1.00  0.00    -0.457 OA
BRANCH   4   5
ATOM      5  C   UNL A   1      44.920  22.903  25.909  1.00  0.00     0.359 C 
ATOM      6  O   UNL A   1      46.044  22.699  26.339  1.00  0.00    -0.244 OA
BRANCH   5   7
ATOM      7  C   UNL A   1      43.850  21.826  25.907  1.00  0.00     0.182 A 
ATOM      8  C   UNL A   1      46.625  20.230  24.644  1.00  0.00     0.091 C 
ATOM      9  C   UNL A   1      45.213  19.879  24.884  1.00  0.00     0.144 A 
ATOM     10  O   UNL A   1      44.863  18.598  24.559  1.00  0.00    -0.360 OA
ATOM     11  C   UNL A   1      44.106  20.512  25.395  1.00  0.00     0.085 A 
ATOM     12  N   UNL A   1      43.532  18.379  24.884  1.00  0.00    -0.074 NA
ATOM     13  C   UNL A   1      43.101  19.534  25.399  1.00  0.00     0.183 A 
ATOM     14  C   UNL A   1      41.786  19.803  25.944  1.00  0.00     0.296 A 
ATOM     15  N   UNL A   1      42.667  22.110  26.386  1.00  0.00    -0.162 NA
ATOM     16  O   UNL A   1      40.873  18.982  25.985  1.00  0.00    -0.265 OA
ATOM     17  N   UNL A   1      41.664  21.126  26.429  1.00  0.00    -0.230 N 
ATOM     18  C   UNL A   1      40.412  21.506  27.050  1.00  0.00     0.178 C 
ENDBRANCH   5   7
ENDBRANCH   4   5
ENDBRANCH   3   4
ENDBRANCH   2   3
ENDBRANCH   1   2
BRANCH   1  19
ATOM     19  C   UNL A   1      42.779  28.015  25.578  1.00  0.00     0.338 C 
ATOM     20  O   UNL A   1      42.389  27.898  24.432  1.00  0.00    -0.246 OA
BRANCH  19  21
ATOM     21  C   UNL A   1      41.933  28.579  26.650  1.00  0.00     0.060 A 
ATOM     22  C   UNL A   1      40.544  28.537  26.497  1.00  0.00     0.016 A 
ATOM     23  C   UNL A   1      42.485  29.201  27.762  1.00  0.00     0.016 A 
ATOM     24  C   UNL A   1      39.699  29.034  27.494  1.00  0.00     0.010 A 
ATOM     25  C   UNL A   1      41.634  29.755  28.723  1.00  0.00     0.010 A 
ATOM     26  C   UNL A   1      40.228  29.658  28.628  1.00  0.00    -0.014 A 
BRANCH  26  27
ATOM     27  C   UNL A   1      39.319  30.119  29.728  1.00  0.00     0.031 A 
ATOM     28  C   UNL A   1      39.513  29.434  31.036  1.00  0.00     0.074 A 
ATOM     29  C   UNL A   1      38.832  31.381  29.830  1.00  0.00     0.049 A 
ATOM     30  N   UNL A   1      40.552  29.745  31.746  1.00  0.00    -0.248 NA
ATOM     31  C   UNL A   1      38.826  28.242  31.521  1.00  0.00     0.031 C 
ATOM     32  C   UNL A   1      39.420  32.544  29.148  1.00  0.00     0.029 A 
ATOM     33  N   UNL A   1      37.912  31.938  30.701  1.00  0.00    -0.354 N 
ATOM     34  C   UNL A   1      40.738  28.773  32.704  1.00  0.00     0.074 A 
ATOM     35  C   UNL A   1      39.613  27.876  32.554  1.00  0.00     0.031 C 
ATOM     36  C   UNL A   1      38.965  33.670  29.730  1.00  0.00     0.029 A 
ATOM     37  C   UNL A   1      37.960  33.331  30.733  1.00  0.00     0.049 A 
ATOM     38  H   UNL A   1      37.287  31.405  31.244  1.00  0.00     0.167 HD
ATOM     39  C   UNL A   1      41.827  28.826  33.522  1.00  0.00     0.034 A 
ATOM     40  C   UNL A   1      37.656  34.120  31.799  1.00  0.00     0.034 A 
ATOM     41  C   UNL A   1      42.702  29.973  33.359  1.00  0.00     0.049 A 
ATOM     42  C   UNL A   1      38.865  33.958  32.688  1.00  0.00     0.074 A 
ATOM     43  C   UNL A   1      44.047  30.288  33.365  1.00  0.00     0.029 A 
ATOM     44  N   UNL A   1      42.068  31.153  33.104  1.00  0.00    -0.354 N 
ATOM     45  N   UNL A   1      40.042  34.500  32.502  1.00  0.00    -0.248 NA
ATOM     46  C   UNL A   1      38.832  32.927  33.737  1.00  0.00     0.031 C 
ATOM     47  C   UNL A   1      44.155  31.714  33.183  1.00  0.00     0.029 A 
ATOM     48  C   UNL A   1      42.876  32.245  33.127  1.00  0.00     0.049 A 
ATOM     49  H   UNL A   1      41.102  31.208  32.920  1.00  0.00     0.167 HD
ATOM     50  C   UNL A   1      40.921  33.702  33.220  1.00  0.00     0.074 A 
ATOM     51  C   UNL A   1      40.110  32.876  34.093  1.00  0.00     0.031 C 
ATOM     52  C   UNL A   1      42.233  33.517  32.885  1.00  0.00     0.034 A 
BRANCH  39  53
ATOM     53  C   UNL A   1      42.021  27.938  34.689  1.00  0.00     0.023 A 
ATOM     54  C   UNL A   1      42.726  26.742  34.477  1.00  0.00     0.031 A 
ATOM     55  C   UNL A   1      41.409  28.141  35.930  1.00  0.00     0.131 A 
ATOM     56  C   UNL A   1      42.792  25.772  35.483  1.00  0.00     0.055 A 
ATOM     57  C   UNL A   1      41.477  27.168  36.935  1.00  0.00     0.041 A 
ATOM     58  F   UNL A   1      40.703  29.257  36.170  1.00  0.00    -0.206 F 
ATOM     59  C   UNL A   1      42.164  25.974  36.712  1.00  0.00     0.022 A 
BRANCH  56  60
ATOM     60  S   UNL A   1      43.681  24.230  35.138  1.00  0.00     0.124 S 
ATOM     61  O   UNL A   1      44.462  24.581  33.958  1.00  0.00    -0.237 OA
ATOM     62  O   UNL A   1      44.432  24.037  36.375  1.00  0.00    -0.237 OA
ATOM     63  O   UNL A   1      42.607  23.266  34.909  1.00  0.00    -0.744 OA
ENDBRANCH  56  60
ENDBRANCH  39  53
BRANCH  40  64
ATOM     64  C   UNL A   1      36.246  34.127  32.312  1.00  0.00     0.023 A 
ATOM     65  C   UNL A   1      35.516  35.336  32.280  1.00  0.00     0.031 A 
ATOM     66  C   UNL A   1      35.601  33.032  32.914  1.00  0.00     0.131 A 
ATOM     67  C   UNL A   1      34.182  35.391  32.726  1.00  0.00     0.055 A 
ATOM     68  C   UNL A   1      34.258  33.072  33.305  1.00  0.00     0.041 A 
ATOM     69  F   UNL A   1      36.250  31.887  33.159  1.00  0.00    -0.206 F 
ATOM     70  C   UNL A   1      33.534  34.251  33.194  1.00  0.00     0.022 A 
BRANCH  67  71
ATOM     71  S   UNL A   1      33.281  36.966  32.658  1.00  0.00     0.124 S 
ATOM     72  O   UNL A   1      34.015  37.778  33.622  1.00  0.00    -0.237 OA
ATOM     73  O   UNL A   1      33.420  37.352  31.257  1.00  0.00    -0.237 OA
ATOM     74  O   UNL A   1      31.925  36.596  33.059  1.00  0.00    -0.744 OA
ENDBRANCH  67  71
ENDBRANCH  40  64
BRANCH  52  75
ATOM     75  C   UNL A   1      42.893  34.603  32.125  1.00  0.00     0.023 A 
ATOM     76  C   UNL A   1      42.778  34.604  30.725  1.00  0.00     0.031 A 
ATOM     77  C   UNL A   1      43.563  35.667  32.742  1.00  0.00     0.131 A 
ATOM     78  C   UNL A   1      43.315  35.654  29.976  1.00  0.00     0.055 A 
ATOM     79  C   UNL A   1      44.095  36.719  31.993  1.00  0.00     0.041 A 
ATOM     80  F   UNL A   1      43.708  35.713  34.077  1.00  0.00    -0.206 F 
ATOM     81  C   UNL A   1      43.966  36.719  30.604  1.00  0.00     0.022 A 
BRANCH  78  82
ATOM     82  S   UNL A   1      43.088  35.639  28.181  1.00  0.00     0.124 S 
ATOM     83  O   UNL A   1      41.638  35.556  28.044  1.00  0.00    -0.237 OA
ATOM     84  O   UNL A   1      43.697  36.902  27.771  1.00  0.00    -0.237 OA
ATOM     85  O   UNL A   1      43.818  34.445  27.757  1.00  0.00    -0.744 OA
ENDBRANCH  78  82
ENDBRANCH  52  75
ENDBRANCH  26  27
ENDBRANCH  19  21
ENDBRANCH   1  19
TORSDOF 14
ENDMDL
MODEL 2
REMARK VINA RESULT:     -12.2      4.166     13.467
REMARK SMILES Cc1onc2c(=O)n(C)nc(C(=O)OCCOC(=O)c3ccc(-c4c5nc(c(-c6cc(S(=O)(=O)[O-])ccc6F)c6ccc([nH]6)c(-c6cc(S(=O)(=O)[O-])ccc6F)c6nc(c(-c7cc(S(=O)(=O)[O-])ccc7F)c7ccc4[nH]7)C=C6)C=C5)cc3)c12
REMARK SMILES IDX 17 1 16 2 15 3 14 4 12 5 13 6 11 7 1 8 2 9 3 10 83 11 4 12
REMARK SMILES IDX 5 13 6 14 10 15 7 16 8 17 9 18 18 19 19 20 20 21 21 22 82 23
REMARK SMILES IDX 22 24 81 25 23 26 24 27 25 28 75 29 26 30 80 31 74 32 76 33
REMARK SMILES IDX 27 34 79 35 73 36 72 37 28 39 60 40 40 41 59 42 41 43 44 44
REMARK SMILES IDX 58 45 77 46 42 47 43 48 57 50 78 51 45 52 29 53 30 54 38 55
REMARK SMILES IDX 31 56 37 57 39 58 36 59 32 60 33 61 34 62 35 63 61 64 62 65
REMARK SMILES IDX 70 66 63 67 69 68 71 69 68 70 64 71 65 72 66 73 67 74 46 75
REMARK SMILES IDX 47 76 55 77 48 78 54 79 56 80 53 81 49 82 50 83 51 84 52 85
REMARK H PARENT 76 38 44 49
REMARK Flexibility Score: inf
ROOT
ATOM      1  O   UNL A   1      37.860  30.361  32.352  1.00  0.00    -0.458 OA
ENDROOT
BRANCH   1   2
ATOM      2  C   UNL A   1      36.591  30.906  32.771  1.00  0.00     0.275 C 
BRANCH   2   3
ATOM      3  C   UNL A   1      36.721  32.243  33.510  1.00  0.00     0.275 C 
BRANCH   3   4
ATOM      4  O   UNL A   1      35.549  33.037  33.295  1.00  0.00    -0.457 OA
BRANCH   4   5
ATOM      5  C   UNL A   1      35.732  34.237  32.721  1.00  0.00     0.359 C 
ATOM      6  O   UNL A   1      36.544  35.098  33.021  1.00  0.00    -0.244 OA
BRANCH   5   7
ATOM      7  C   UNL A   1      34.856  34.349  31.487  1.00  0.00     0.182 A 
ATOM      8  C   UNL A   1      33.903  37.035  33.417  1.00  0.00     0.091 C 
ATOM      9  C   UNL A   1      33.480  36.442  32.135  1.00  0.00     0.144 A 
ATOM     10  O   UNL A   1      32.466  37.097  31.493  1.00  0.00    -0.360 OA
ATOM     11  C   UNL A   1      33.863  35.376  31.360  1.00  0.00     0.085 A 
ATOM     12  N   UNL A   1      32.201  36.477  30.280  1.00  0.00    -0.074 NA
ATOM     13  C   UNL A   1      33.062  35.457  30.211  1.00  0.00     0.183 A 
ATOM     14  C   UNL A   1      33.224  34.533  29.107  1.00  0.00     0.296 A 
ATOM     15  N   UNL A   1      35.015  33.485  30.519  1.00  0.00    -0.162 NA
ATOM     16  O   UNL A   1      32.561  34.566  28.074  1.00  0.00    -0.265 OA
ATOM     17  N   UNL A   1      34.242  33.581  29.348  1.00  0.00    -0.230 N 
ATOM     18  C   UNL A   1      34.542  32.632  28.297  1.00  0.00     0.178 C 
ENDBRANCH   5   7
ENDBRANCH   4   5
ENDBRANCH   3   4
ENDBRANCH   2   3
ENDBRANCH   1   2
BRANCH   1  19
ATOM     19  C   UNL A   1      37.963  29.007  32.468  1.00  0.00     0.338 C 
ATOM     20  O   UNL A   1      37.303  28.296  33.202  1.00  0.00    -0.246 OA
BRANCH  19  21
ATOM     21  C   UNL A   1      38.938  28.461  31.501  1.00  0.00     0.060 A 
ATOM     22  C   UNL A   1      38.468  27.651  30.463  1.00  0.00     0.016 A 
ATOM     23  C   UNL A   1      40.303  28.681  31.640  1.00  0.00     0.016 A 
ATOM     24  C   UNL A   1      39.347  27.132  29.507  1.00  0.00     0.010 A 
ATOM     25  C   UNL A   1      41.181  28.103  30.719  1.00  0.00     0.010 A 
ATOM     26  C   UNL A   1      40.724  27.345  29.619  1.00  0.00    -0.014 A 
BRANCH  26  27
ATOM     27  C   UNL A   1      41.652  26.851  28.549  1.00  0.00     0.031 A 
ATOM     28  C   UNL A   1      42.476  27.903  27.891  1.00  0.00     0.074 A 
ATOM     29  C   UNL A   1      42.223  25.620  28.550  1.00  0.00     0.049 A 
ATOM     30  N   UNL A   1      43.477  28.401  28.548  1.00  0.00    -0.248 NA
ATOM     31  C   UNL A   1      42.148  28.661  26.689  1.00  0.00     0.031 C 
ATOM     32  C   UNL A   1      42.346  24.775  29.747  1.00  0.00     0.029 A 
ATOM     33  N   UNL A   1      43.001  24.972  27.605  1.00  0.00    -0.354 N 
ATOM     34  C   UNL A   1      43.866  29.572  27.936  1.00  0.00     0.074 A 
ATOM     35  C   UNL A   1      43.036  29.674  26.755  1.00  0.00     0.031 C 
ATOM     36  C   UNL A   1      43.265  23.818  29.515  1.00  0.00     0.029 A 
ATOM     37  C   UNL A   1      43.705  23.888  28.125  1.00  0.00     0.049 A 
ATOM     38  H   UNL A   1      43.051  25.250  26.662  1.00  0.00     0.167 HD
ATOM     39  C   UNL A   1      44.846  30.336  28.494  1.00  0.00     0.034 A 
ATOM     40  C   UNL A   1      44.907  23.428  27.686  1.00  0.00     0.034 A 
ATOM     41  C   UNL A   1      45.470  29.810  29.696  1.00  0.00     0.049 A 
ATOM     42  C   UNL A   1      45.875  24.447  28.237  1.00  0.00     0.074 A 
ATOM     43  C   UNL A   1      45.953  30.243  30.915  1.00  0.00     0.029 A 
ATOM     44  N   UNL A   1      45.664  28.461  29.702  1.00  0.00    -0.354 N 
ATOM     45  N   UNL A   1      46.263  24.554  29.482  1.00  0.00    -0.248 NA
ATOM     46  C   UNL A   1      46.260  25.582  27.383  1.00  0.00     0.031 C 
ATOM     47  C   UNL A   1      46.507  29.096  31.590  1.00  0.00     0.029 A 
ATOM     48  C   UNL A   1      46.403  28.002  30.747  1.00  0.00     0.049 A 
ATOM     49  H   UNL A   1      45.301  27.867  29.006  1.00  0.00     0.167 HD
ATOM     50  C   UNL A   1      46.702  25.865  29.609  1.00  0.00     0.074 A 
ATOM     51  C   UNL A   1      46.846  26.384  28.264  1.00  0.00     0.031 C 
ATOM     52  C   UNL A   1      46.650  26.577  30.773  1.00  0.00     0.034 A 
BRANCH  39  53
ATOM     53  C   UNL A   1      45.454  31.508  27.828  1.00  0.00     0.023 A 
ATOM     54  C   UNL A   1      44.648  32.648  27.669  1.00  0.00     0.031 A 
ATOM     55  C   UNL A   1      46.708  31.487  27.210  1.00  0.00     0.131 A 
ATOM     56  C   UNL A   1      45.090  33.724  26.891  1.00  0.00     0.055 A 
ATOM     57  C   UNL A   1      47.148  32.565  26.432  1.00  0.00     0.041 A 
ATOM     58  F   UNL A   1      47.502  30.410  27.312  1.00  0.00    -0.206 F 
ATOM     59  C   UNL A   1      46.335  33.688  26.264  1.00  0.00     0.022 A 
BRANCH  56  60
ATOM     60  S   UNL A   1      43.990  35.151  26.688  1.00  0.00     0.124 S 
ATOM     61  O   UNL A   1      43.351  34.869  25.408  1.00  0.00    -0.237 OA
ATOM     62  O   UNL A   1      43.141  35.042  27.870  1.00  0.00    -0.237 OA
ATOM     63  O   UNL A   1      44.909  36.287  26.687  1.00  0.00    -0.744 OA
ENDBRANCH  56  60
ENDBRANCH  39  53
BRANCH  40  64
ATOM     64  C   UNL A   1      45.001  22.862  26.300  1.00  0.00     0.023 A 
ATOM     65  C   UNL A   1      45.330  21.497  26.141  1.00  0.00     0.031 A 
ATOM     66  C   UNL A   1      44.871  23.607  25.114  1.00  0.00     0.131 A 
ATOM     67  C   UNL A   1      45.406  20.912  24.864  1.00  0.00     0.055 A 
ATOM     68  C   UNL A   1      44.891  23.014  23.846  1.00  0.00     0.041 A 
ATOM     69  F   UNL A   1      44.733  24.939  25.137  1.00  0.00    -0.206 F 
ATOM     70  C   UNL A   1      45.139  21.655  23.716  1.00  0.00     0.022 A 
BRANCH  67  71
ATOM     71  S   UNL A   1      45.824  19.151  24.711  1.00  0.00     0.124 S 
ATOM     72  O   UNL A   1      44.744  18.517  25.460  1.00  0.00    -0.237 OA
ATOM     73  O   UNL A   1      45.808  18.944  23.266  1.00  0.00    -0.237 OA
ATOM     74  O   UNL A   1      47.146  19.064  25.328  1.00  0.00    -0.744 OA
ENDBRANCH  67  71
ENDBRANCH  40  64
BRANCH  52  75
ATOM     75  C   UNL A   1      46.688  25.806  32.037  1.00  0.00     0.023 A 
ATOM     76  C   UNL A   1      45.491  25.250  32.517  1.00  0.00     0.031 A 
ATOM     77  C   UNL A   1      47.874  25.546  32.736  1.00  0.00     0.131 A 
ATOM     78  C   UNL A   1      45.497  24.447  33.660  1.00  0.00     0.055 A 
ATOM     79  C   UNL A   1      47.880  24.739  33.876  1.00  0.00     0.041 A 
ATOM     80  F   UNL A   1      49.046  26.060  32.326  1.00  0.00    -0.206 F 
ATOM     81  C   UNL A   1      46.689  24.180  34.339  1.00  0.00     0.022 A 
BRANCH  78  82
ATOM     82  S   UNL A   1      43.939  23.704  34.203  1.00  0.00     0.124 S 
ATOM     83  O   UNL A   1      43.155  24.866  34.606  1.00  0.00    -0.237 OA
ATOM     84  O   UNL A   1      43.480  23.009  33.002  1.00  0.00    -0.237 OA
ATOM     85  O   UNL A   1      44.347  22.823  35.297  1.00  0.00    -0.744 OA
ENDBRANCH  78  82
ENDBRANCH  52  75
ENDBRANCH  26  27
ENDBRANCH  19  21
ENDBRANCH   1  19
TORSDOF 14
ENDMDL
MODEL 3
REMARK VINA RESULT:     -12.2      1.542      2.267
REMARK SMILES Cc1onc2c(=O)n(C)nc(C(=O)OCCOC(=O)c3ccc(-c4c5nc(c(-c6cc(S(=O)(=O)[O-])ccc6F)c6ccc([nH]6)c(-c6cc(S(=O)(=O)[O-])ccc6F)c6nc(c(-c7cc(S(=O)(=O)[O-])ccc7F)c7ccc4[nH]7)C=C6)C=C5)cc3)c12
REMARK SMILES IDX 17 1 16 2 15 3 14 4 12 5 13 6 11 7 1 8 2 9 3 10 83 11 4 12
REMARK SMILES IDX 5 13 6 14 10 15 7 16 8 17 9 18 18 19 19 20 20 21 21 22 82 23
REMARK SMILES IDX 22 24 81 25 23 26 24 27 25 28 75 29 26 30 80 31 74 32 76 33
REMARK SMILES IDX 27 34 79 35 73 36 72 37 28 39 60 40 40 41 59 42 41 43 44 44
REMARK SMILES IDX 58 45 77 46 42 47 43 48 57 50 78 51 45 52 29 53 30 54 38 55
REMARK SMILES IDX 31 56 37 57 39 58 36 59 32 60 33 61 34 62 35 63 61 64 62 65
REMARK SMILES IDX 70 66 63 67 69 68 71 69 68 70 64 71 65 72 66 73 67 74 46 75
REMARK SMILES IDX 47 76 55 77 48 78 54 79 56 80 53 81 49 82 50 83 51 84 52 85
REMARK H PARENT 76 38 44 49
REMARK Flexibility Score: inf
ROOT
ATOM      1  O   UNL A   1      43.679  27.302  26.131  1.00  0.00    -0.458 OA
ENDROOT
BRANCH   1   2
ATOM      2  C   UNL A   1      44.503  26.640  25.149  1.00  0.00     0.275 C 
BRANCH   2   3
ATOM      3  C   UNL A   1      44.910  25.220  25.558  1.00  0.00     0.275 C 
BRANCH   3   4
ATOM      4  O   UNL A   1      43.783  24.340  25.464  1.00  0.00    -0.457 OA
BRANCH   4   5
ATOM      5  C   UNL A   1      43.570  23.521  26.506  1.00  0.00     0.359 C 
ATOM      6  O   UNL A   1      43.179  23.813  27.625  1.00  0.00    -0.244 OA
BRANCH   5   7
ATOM      7  C   UNL A   1      43.745  22.080  26.062  1.00  0.00     0.182 A 
ATOM      8  C   UNL A   1      40.389  22.316  26.787  1.00  0.00     0.091 C 
ATOM      9  C   UNL A   1      41.314  21.247  26.367  1.00  0.00     0.144 A 
ATOM     10  O   UNL A   1      40.746  20.018  26.183  1.00  0.00    -0.360 OA
ATOM     11  C   UNL A   1      42.652  21.153  26.070  1.00  0.00     0.085 A 
ATOM     12  N   UNL A   1      41.705  19.120  25.736  1.00  0.00    -0.074 NA
ATOM     13  C   UNL A   1      42.838  19.825  25.659  1.00  0.00     0.183 A 
ATOM     14  C   UNL A   1      44.122  19.351  25.187  1.00  0.00     0.296 A 
ATOM     15  N   UNL A   1      44.924  21.681  25.663  1.00  0.00    -0.162 NA
ATOM     16  O   UNL A   1      44.338  18.205  24.803  1.00  0.00    -0.265 OA
ATOM     17  N   UNL A   1      45.111  20.362  25.214  1.00  0.00    -0.230 N 
ATOM     18  C   UNL A   1      46.430  20.031  24.715  1.00  0.00     0.178 C 
ENDBRANCH   5   7
ENDBRANCH   4   5
ENDBRANCH   3   4
ENDBRANCH   2   3
ENDBRANCH   1   2
BRANCH   1  19
ATOM     19  C   UNL A   1      42.668  28.054  25.611  1.00  0.00     0.338 C 
ATOM     20  O   UNL A   1      42.416  28.201  24.431  1.00  0.00    -0.246 OA
BRANCH  19  21
ATOM     21  C   UNL A   1      41.820  28.620  26.681  1.00  0.00     0.060 A 
ATOM     22  C   UNL A   1      40.433  28.614  26.507  1.00  0.00     0.016 A 
ATOM     23  C   UNL A   1      42.371  29.210  27.811  1.00  0.00     0.016 A 
ATOM     24  C   UNL A   1      39.586  29.113  27.501  1.00  0.00     0.010 A 
ATOM     25  C   UNL A   1      41.519  29.768  28.770  1.00  0.00     0.010 A 
ATOM     26  C   UNL A   1      40.113  29.705  28.653  1.00  0.00    -0.014 A 
BRANCH  26  27
ATOM     27  C   UNL A   1      39.199  30.169  29.748  1.00  0.00     0.031 A 
ATOM     28  C   UNL A   1      39.388  29.487  31.059  1.00  0.00     0.074 A 
ATOM     29  C   UNL A   1      38.712  31.431  29.845  1.00  0.00     0.049 A 
ATOM     30  N   UNL A   1      40.424  29.800  31.773  1.00  0.00    -0.248 NA
ATOM     31  C   UNL A   1      38.700  28.296  31.544  1.00  0.00     0.031 C 
ATOM     32  C   UNL A   1      39.302  32.592  29.162  1.00  0.00     0.029 A 
ATOM     33  N   UNL A   1      37.787  31.990  30.711  1.00  0.00    -0.354 N 
ATOM     34  C   UNL A   1      40.606  28.831  32.734  1.00  0.00     0.074 A 
ATOM     35  C   UNL A   1      39.482  27.933  32.581  1.00  0.00     0.031 C 
ATOM     36  C   UNL A   1      38.844  33.719  29.740  1.00  0.00     0.029 A 
ATOM     37  C   UNL A   1      37.835  33.382  30.739  1.00  0.00     0.049 A 
ATOM     38  H   UNL A   1      37.160  31.458  31.252  1.00  0.00     0.167 HD
ATOM     39  C   UNL A   1      41.691  28.886  33.556  1.00  0.00     0.034 A 
ATOM     40  C   UNL A   1      37.526  34.174  31.802  1.00  0.00     0.034 A 
ATOM     41  C   UNL A   1      42.567  30.033  33.393  1.00  0.00     0.049 A 
ATOM     42  C   UNL A   1      38.732  34.015  32.696  1.00  0.00     0.074 A 
ATOM     43  C   UNL A   1      43.912  30.349  33.404  1.00  0.00     0.029 A 
ATOM     44  N   UNL A   1      41.933  31.212  33.133  1.00  0.00    -0.354 N 
ATOM     45  N   UNL A   1      39.909  34.557  32.514  1.00  0.00    -0.248 NA
ATOM     46  C   UNL A   1      38.694  32.987  33.748  1.00  0.00     0.031 C 
ATOM     47  C   UNL A   1      44.020  31.775  33.219  1.00  0.00     0.029 A 
ATOM     48  C   UNL A   1      42.742  32.305  33.156  1.00  0.00     0.049 A 
ATOM     49  H   UNL A   1      40.969  31.267  32.945  1.00  0.00     0.167 HD
ATOM     50  C   UNL A   1      40.786  33.761  33.238  1.00  0.00     0.074 A 
ATOM     51  C   UNL A   1      39.971  32.937  34.109  1.00  0.00     0.031 C 
ATOM     52  C   UNL A   1      42.099  33.576  32.909  1.00  0.00     0.034 A 
BRANCH  39  53
ATOM     53  C   UNL A   1      41.881  28.002  34.726  1.00  0.00     0.023 A 
ATOM     54  C   UNL A   1      42.590  26.806  34.521  1.00  0.00     0.031 A 
ATOM     55  C   UNL A   1      41.262  28.206  35.963  1.00  0.00     0.131 A 
ATOM     56  C   UNL A   1      42.652  25.839  35.529  1.00  0.00     0.055 A 
ATOM     57  C   UNL A   1      41.326  27.235  36.971  1.00  0.00     0.041 A 
ATOM     58  F   UNL A   1      40.552  29.320  36.197  1.00  0.00    -0.206 F 
ATOM     59  C   UNL A   1      42.018  26.042  36.754  1.00  0.00     0.022 A 
BRANCH  56  60
ATOM     60  S   UNL A   1      43.547  24.298  35.193  1.00  0.00     0.124 S 
ATOM     61  O   UNL A   1      42.462  23.330  35.078  1.00  0.00    -0.237 OA
ATOM     62  O   UNL A   1      44.252  24.626  33.958  1.00  0.00    -0.237 OA
ATOM     63  O   UNL A   1      44.399  24.139  36.370  1.00  0.00    -0.744 OA
ENDBRANCH  56  60
ENDBRANCH  39  53
BRANCH  40  64
ATOM     64  C   UNL A   1      36.114  34.182  32.309  1.00  0.00     0.023 A 
ATOM     65  C   UNL A   1      35.355  35.368  32.191  1.00  0.00     0.031 A 
ATOM     66  C   UNL A   1      35.494  33.116  32.984  1.00  0.00     0.131 A 
ATOM     67  C   UNL A   1      34.018  35.420  32.628  1.00  0.00     0.055 A 
ATOM     68  C   UNL A   1      34.148  33.150  33.367  1.00  0.00     0.041 A 
ATOM     69  F   UNL A   1      36.169  32.007  33.309  1.00  0.00    -0.206 F 
ATOM     70  C   UNL A   1      33.395  34.300  33.172  1.00  0.00     0.022 A 
BRANCH  67  71
ATOM     71  S   UNL A   1      33.079  36.964  32.448  1.00  0.00     0.124 S 
ATOM     72  O   UNL A   1      33.938  37.923  33.134  1.00  0.00    -0.237 OA
ATOM     73  O   UNL A   1      32.983  37.112  30.999  1.00  0.00    -0.237 OA
ATOM     74  O   UNL A   1      31.814  36.669  33.119  1.00  0.00    -0.744 OA
ENDBRANCH  67  71
ENDBRANCH  40  64
BRANCH  52  75
ATOM     75  C   UNL A   1      42.761  34.660  32.148  1.00  0.00     0.023 A 
ATOM     76  C   UNL A   1      43.070  35.855  32.820  1.00  0.00     0.031 A 
ATOM     77  C   UNL A   1      43.157  34.522  30.812  1.00  0.00     0.131 A 
ATOM     78  C   UNL A   1      43.768  36.870  32.163  1.00  0.00     0.055 A 
ATOM     79  C   UNL A   1      43.859  35.537  30.157  1.00  0.00     0.041 A 
ATOM     80  F   UNL A   1      42.880  33.405  30.120  1.00  0.00    -0.206 F 
ATOM     81  C   UNL A   1      44.174  36.714  30.835  1.00  0.00     0.022 A 
BRANCH  78  82
ATOM     82  S   UNL A   1      44.197  38.364  33.090  1.00  0.00     0.124 S 
ATOM     83  O   UNL A   1      45.204  37.879  34.027  1.00  0.00    -0.237 OA
ATOM     84  O   UNL A   1      44.678  39.264  32.044  1.00  0.00    -0.237 OA
ATOM     85  O   UNL A   1      42.927  38.761  33.697  1.00  0.00    -0.744 OA
ENDBRANCH  78  82
ENDBRANCH  52  75
ENDBRANCH  26  27
ENDBRANCH  19  21
ENDBRANCH   1  19
TORSDOF 14
ENDMDL
