MODEL 1
REMARK VINA RESULT:     -12.6      0.000      0.000
REMARK SMILES N#Cc1cccnc1N1CC[NH+]([C@@H](C(=O)OCCOC(=O)c2ccc(-c3c4nc(c(-c5cc(S(=O)(=O)[O-])ccc5F)c5ccc([nH]5)c(-c5cc(S(=O)(=O)[O-])ccc5F)c5nc(c(-c6cc(S(=O)(=O)[O-])ccc6F)c6ccc3[nH]6)C=C5)C=C4)cc2)c2c[nH]c3cc(CO)ccc23)CC1
REMARK SMILES IDX 17 1 16 2 14 3 15 4 13 5 12 6 9 7 10 8 97 9 11 10 96 11 8 13
REMARK SMILES IDX 3 14 4 15 5 16 7 17 6 18 2 19 1 20 85 21 86 22 95 23 87 24
REMARK SMILES IDX 88 25 94 26 89 28 93 29 90 30 91 31 92 32 18 34 19 35 20 36
REMARK SMILES IDX 21 37 22 38 23 39 84 40 24 41 83 42 25 43 26 44 27 45 77 46
REMARK SMILES IDX 28 47 82 48 76 49 78 50 29 51 81 52 75 53 74 54 30 56 62 57
REMARK SMILES IDX 42 58 61 59 43 60 46 61 60 62 79 63 44 64 45 65 59 67 80 68
REMARK SMILES IDX 47 69 31 70 32 71 40 72 33 73 39 74 41 75 38 76 34 77 35 78
REMARK SMILES IDX 36 79 37 80 63 81 64 82 72 83 65 84 71 85 73 86 70 87 66 88
REMARK SMILES IDX 67 89 68 90 69 91 48 92 49 93 57 94 50 95 56 96 58 97 55 98
REMARK SMILES IDX 51 99 52 100 53 101 54 102
REMARK H PARENT 12 12 87 27 92 33 78 55 46 66
REMARK Flexibility Score: inf
ROOT
ATOM      1  C   UNL A   1      33.455  27.737  26.026  1.00  0.00     0.274 C 
ENDROOT
BRANCH   1   2
ATOM      2  O   UNL A   1      32.603  26.693  25.495  1.00  0.00    -0.457 OA
BRANCH   2   3
ATOM      3  C   UNL A   1      31.388  26.483  26.057  1.00  0.00     0.370 C 
ATOM      4  O   UNL A   1      31.158  26.744  27.237  1.00  0.00    -0.245 OA
BRANCH   3   5
ATOM      5  C   UNL A   1      30.378  25.755  25.142  1.00  0.00     0.328 C 
BRANCH   5   6
ATOM      6  N   UNL A   1      30.317  24.241  25.236  1.00  0.00    -0.316 N 
ATOM      7  N   UNL A   1      33.016  23.103  25.464  1.00  0.00    -0.344 N 
ATOM      8  C   UNL A   1      32.515  23.705  24.238  1.00  0.00     0.179 C 
ATOM      9  C   UNL A   1      32.226  23.158  26.701  1.00  0.00     0.179 C 
ATOM     10  C   UNL A   1      31.015  23.472  24.207  1.00  0.00     0.285 C 
ATOM     11  C   UNL A   1      30.735  23.651  26.530  1.00  0.00     0.285 C 
ATOM     12  H   UNL A   1      29.310  24.148  25.103  1.00  0.00     0.349 HD
BRANCH   7  13
ATOM     13  C   UNL A   1      34.378  22.884  25.454  1.00  0.00     0.146 A 
ATOM     14  C   UNL A   1      34.896  21.619  25.174  1.00  0.00     0.095 A 
ATOM     15  C   UNL A   1      36.269  21.485  24.940  1.00  0.00     0.025 A 
ATOM     16  C   UNL A   1      37.089  22.607  24.978  1.00  0.00     0.022 A 
ATOM     17  N   UNL A   1      35.187  23.970  25.519  1.00  0.00    -0.238 NA
ATOM     18  C   UNL A   1      36.505  23.822  25.273  1.00  0.00     0.113 A 
BRANCH  14  19
ATOM     19  C   UNL A   1      34.035  20.492  25.017  1.00  0.00     0.103 C 
ATOM     20  N   UNL A   1      33.338  19.563  24.912  1.00  0.00    -0.192 NA
ENDBRANCH  14  19
ENDBRANCH   7  13
ENDBRANCH   5   6
BRANCH   5  21
ATOM     21  C   UNL A   1      29.946  26.404  23.766  1.00  0.00     0.046 A 
ATOM     22  C   UNL A   1      30.889  26.579  22.744  1.00  0.00     0.094 A 
ATOM     23  C   UNL A   1      29.093  27.533  23.448  1.00  0.00     0.009 A 
ATOM     24  N   UNL A   1      31.170  27.945  22.884  1.00  0.00    -0.361 N 
ATOM     25  C   UNL A   1      29.972  28.577  23.158  1.00  0.00     0.046 A 
ATOM     26  C   UNL A   1      27.739  27.849  23.275  1.00  0.00     0.011 A 
ATOM     27  H   UNL A   1      32.052  28.372  22.804  1.00  0.00     0.166 HD
ATOM     28  C   UNL A   1      29.586  29.928  23.221  1.00  0.00     0.032 A 
ATOM     29  C   UNL A   1      27.303  29.165  23.126  1.00  0.00     0.007 A 
ATOM     30  C   UNL A   1      28.209  30.208  23.267  1.00  0.00    -0.021 A 
BRANCH  30  31
ATOM     31  C   UNL A   1      27.670  31.592  23.501  1.00  0.00     0.191 C 
BRANCH  31  32
ATOM     32  O   UNL A   1      27.652  32.321  22.266  1.00  0.00    -0.392 OA
ATOM     33  H   UNL A   1      28.280  31.920  21.645  1.00  0.00     0.211 HD
ENDBRANCH  31  32
ENDBRANCH  30  31
ENDBRANCH   5  21
ENDBRANCH   3   5
ENDBRANCH   2   3
ENDBRANCH   1   2
BRANCH   1  34
ATOM     34  C   UNL A   1      33.000  29.069  25.442  1.00  0.00     0.275 C 
BRANCH  34  35
ATOM     35  O   UNL A   1      33.955  30.076  25.837  1.00  0.00    -0.458 OA
BRANCH  35  36
ATOM     36  C   UNL A   1      33.592  30.688  26.982  1.00  0.00     0.338 C 
ATOM     37  O   UNL A   1      32.470  31.085  27.254  1.00  0.00    -0.246 OA
BRANCH  36  38
ATOM     38  C   UNL A   1      34.674  30.791  27.972  1.00  0.00     0.060 A 
ATOM     39  C   UNL A   1      35.623  31.808  27.811  1.00  0.00     0.016 A 
ATOM     40  C   UNL A   1      35.013  29.615  28.646  1.00  0.00     0.016 A 
ATOM     41  C   UNL A   1      36.952  31.584  28.162  1.00  0.00     0.010 A 
ATOM     42  C   UNL A   1      36.329  29.429  29.080  1.00  0.00     0.010 A 
ATOM     43  C   UNL A   1      37.317  30.390  28.796  1.00  0.00    -0.014 A 
BRANCH  43  44
ATOM     44  C   UNL A   1      38.665  30.237  29.383  1.00  0.00     0.031 A 
ATOM     45  C   UNL A   1      39.692  29.289  28.839  1.00  0.00     0.074 A 
ATOM     46  C   UNL A   1      38.860  30.899  30.535  1.00  0.00     0.049 A 
ATOM     47  N   UNL A   1      40.667  28.689  29.471  1.00  0.00    -0.248 NA
ATOM     48  C   UNL A   1      39.631  28.979  27.406  1.00  0.00     0.031 C 
ATOM     49  C   UNL A   1      37.954  31.914  31.085  1.00  0.00     0.029 A 
ATOM     50  N   UNL A   1      39.836  30.770  31.483  1.00  0.00    -0.354 N 
ATOM     51  C   UNL A   1      41.299  27.877  28.531  1.00  0.00     0.074 A 
ATOM     52  C   UNL A   1      40.606  28.083  27.275  1.00  0.00     0.031 C 
ATOM     53  C   UNL A   1      38.383  32.274  32.297  1.00  0.00     0.029 A 
ATOM     54  C   UNL A   1      39.512  31.429  32.644  1.00  0.00     0.049 A 
ATOM     55  H   UNL A   1      40.671  30.265  31.350  1.00  0.00     0.167 HD
ATOM     56  C   UNL A   1      42.355  27.047  28.731  1.00  0.00     0.034 A 
ATOM     57  C   UNL A   1      39.989  31.284  33.889  1.00  0.00     0.034 A 
ATOM     58  C   UNL A   1      43.060  26.971  29.996  1.00  0.00     0.049 A 
ATOM     59  C   UNL A   1      41.103  30.308  34.110  1.00  0.00     0.074 A 
ATOM     60  C   UNL A   1      44.187  26.231  30.312  1.00  0.00     0.029 A 
ATOM     61  N   UNL A   1      42.712  27.670  31.147  1.00  0.00    -0.354 N 
ATOM     62  N   UNL A   1      41.649  29.478  33.252  1.00  0.00    -0.248 NA
ATOM     63  C   UNL A   1      41.679  30.261  35.455  1.00  0.00     0.031 C 
ATOM     64  C   UNL A   1      44.470  26.418  31.667  1.00  0.00     0.029 A 
ATOM     65  C   UNL A   1      43.587  27.356  32.175  1.00  0.00     0.049 A 
ATOM     66  H   UNL A   1      41.957  28.295  31.220  1.00  0.00     0.167 HD
ATOM     67  C   UNL A   1      42.677  28.851  33.942  1.00  0.00     0.074 A 
ATOM     68  C   UNL A   1      42.667  29.396  35.286  1.00  0.00     0.031 C 
ATOM     69  C   UNL A   1      43.562  27.923  33.502  1.00  0.00     0.034 A 
BRANCH  56  70
ATOM     70  C   UNL A   1      42.807  26.114  27.625  1.00  0.00     0.023 A 
ATOM     71  C   UNL A   1      42.283  24.825  27.439  1.00  0.00     0.031 A 
ATOM     72  C   UNL A   1      43.726  26.587  26.662  1.00  0.00     0.131 A 
ATOM     73  C   UNL A   1      42.693  24.051  26.336  1.00  0.00     0.055 A 
ATOM     74  C   UNL A   1      44.073  25.844  25.532  1.00  0.00     0.041 A 
ATOM     75  F   UNL A   1      44.283  27.802  26.790  1.00  0.00    -0.206 F 
ATOM     76  C   UNL A   1      43.558  24.564  25.367  1.00  0.00     0.022 A 
BRANCH  73  77
ATOM     77  S   UNL A   1      42.153  22.321  26.224  1.00  0.00     0.124 S 
ATOM     78  O   UNL A   1      42.819  21.881  25.000  1.00  0.00    -0.237 OA
ATOM     79  O   UNL A   1      42.659  21.750  27.467  1.00  0.00    -0.237 OA
ATOM     80  O   UNL A   1      40.698  22.419  26.130  1.00  0.00    -0.744 OA
ENDBRANCH  73  77
ENDBRANCH  56  70
BRANCH  57  81
ATOM     81  C   UNL A   1      39.378  32.050  35.001  1.00  0.00     0.023 A 
ATOM     82  C   UNL A   1      39.778  33.365  35.242  1.00  0.00     0.031 A 
ATOM     83  C   UNL A   1      38.394  31.488  35.837  1.00  0.00     0.131 A 
ATOM     84  C   UNL A   1      39.260  34.057  36.341  1.00  0.00     0.055 A 
ATOM     85  C   UNL A   1      37.814  32.212  36.877  1.00  0.00     0.041 A 
ATOM     86  F   UNL A   1      37.962  30.231  35.636  1.00  0.00    -0.206 F 
ATOM     87  C   UNL A   1      38.264  33.500  37.148  1.00  0.00     0.022 A 
BRANCH  84  88
ATOM     88  S   UNL A   1      40.028  35.634  36.779  1.00  0.00     0.124 S 
ATOM     89  O   UNL A   1      39.652  36.467  35.642  1.00  0.00    -0.237 OA
ATOM     90  O   UNL A   1      39.375  35.946  38.045  1.00  0.00    -0.237 OA
ATOM     91  O   UNL A   1      41.448  35.304  36.871  1.00  0.00    -0.744 OA
ENDBRANCH  84  88
ENDBRANCH  57  81
BRANCH  69  92
ATOM     92  C   UNL A   1      44.649  27.516  34.461  1.00  0.00     0.023 A 
ATOM     93  C   UNL A   1      44.485  26.455  35.364  1.00  0.00     0.031 A 
ATOM     94  C   UNL A   1      45.870  28.215  34.465  1.00  0.00     0.131 A 
ATOM     95  C   UNL A   1      45.508  26.154  36.272  1.00  0.00     0.055 A 
ATOM     96  C   UNL A   1      46.911  27.863  35.320  1.00  0.00     0.041 A 
ATOM     97  F   UNL A   1      46.070  29.247  33.629  1.00  0.00    -0.206 F 
ATOM     98  C   UNL A   1      46.730  26.833  36.239  1.00  0.00     0.022 A 
BRANCH  95  99
ATOM     99  S   UNL A   1      45.188  24.922  37.563  1.00  0.00     0.124 S 
ATOM    100  O   UNL A   1      43.731  24.829  37.534  1.00  0.00    -0.237 OA
ATOM    101  O   UNL A   1      45.910  23.755  37.069  1.00  0.00    -0.237 OA
ATOM    102  O   UNL A   1      45.748  25.534  38.766  1.00  0.00    -0.744 OA
ENDBRANCH  95  99
ENDBRANCH  69  92
ENDBRANCH  43  44
ENDBRANCH  36  38
ENDBRANCH  35  36
ENDBRANCH  34  35
ENDBRANCH   1  34
TORSDOF 20
ENDMDL
MODEL 2
REMARK VINA RESULT:     -12.4      4.521     10.033
REMARK SMILES N#Cc1cccnc1N1CC[NH+]([C@@H](C(=O)OCCOC(=O)c2ccc(-c3c4nc(c(-c5cc(S(=O)(=O)[O-])ccc5F)c5ccc([nH]5)c(-c5cc(S(=O)(=O)[O-])ccc5F)c5nc(c(-c6cc(S(=O)(=O)[O-])ccc6F)c6ccc3[nH]6)C=C5)C=C4)cc2)c2c[nH]c3cc(CO)ccc23)CC1
REMARK SMILES IDX 17 1 16 2 14 3 15 4 13 5 12 6 9 7 10 8 97 9 11 10 96 11 8 13
REMARK SMILES IDX 3 14 4 15 5 16 7 17 6 18 2 19 1 20 85 21 86 22 95 23 87 24
REMARK SMILES IDX 88 25 94 26 89 28 93 29 90 30 91 31 92 32 18 34 19 35 20 36
REMARK SMILES IDX 21 37 22 38 23 39 84 40 24 41 83 42 25 43 26 44 27 45 77 46
REMARK SMILES IDX 28 47 82 48 76 49 78 50 29 51 81 52 75 53 74 54 30 56 62 57
REMARK SMILES IDX 42 58 61 59 43 60 46 61 60 62 79 63 44 64 45 65 59 67 80 68
REMARK SMILES IDX 47 69 31 70 32 71 40 72 33 73 39 74 41 75 38 76 34 77 35 78
REMARK SMILES IDX 36 79 37 80 63 81 64 82 72 83 65 84 71 85 73 86 70 87 66 88
REMARK SMILES IDX 67 89 68 90 69 91 48 92 49 93 57 94 50 95 56 96 58 97 55 98
REMARK SMILES IDX 51 99 52 100 53 101 54 102
REMARK H PARENT 12 12 87 27 92 33 78 55 46 66
REMARK Flexibility Score: inf
ROOT
ATOM      1  C   UNL A   1      35.895  22.605  23.802  1.00  0.00     0.274 C 
ENDROOT
BRANCH   1   2
ATOM      2  O   UNL A   1      35.486  23.903  24.299  1.00  0.00    -0.457 OA
BRANCH   2   3
ATOM      3  C   UNL A   1      34.189  24.103  24.636  1.00  0.00     0.370 C 
ATOM      4  O   UNL A   1      33.859  24.551  25.733  1.00  0.00    -0.245 OA
BRANCH   3   5
ATOM      5  C   UNL A   1      33.171  23.580  23.598  1.00  0.00     0.328 C 
BRANCH   5   6
ATOM      6  N   UNL A   1      32.711  24.549  22.524  1.00  0.00    -0.316 N 
ATOM      7  N   UNL A   1      32.434  27.262  23.617  1.00  0.00    -0.344 N 
ATOM      8  C   UNL A   1      31.524  26.179  23.957  1.00  0.00     0.179 C 
ATOM      9  C   UNL A   1      33.628  27.008  22.802  1.00  0.00     0.179 C 
ATOM     10  C   UNL A   1      31.453  25.260  22.749  1.00  0.00     0.285 C 
ATOM     11  C   UNL A   1      33.690  25.585  22.118  1.00  0.00     0.285 C 
ATOM     12  H   UNL A   1      32.582  23.861  21.782  1.00  0.00     0.349 HD
BRANCH   7  13
ATOM     13  C   UNL A   1      32.306  28.365  24.436  1.00  0.00     0.146 A 
ATOM     14  C   UNL A   1      31.341  29.339  24.177  1.00  0.00     0.095 A 
ATOM     15  C   UNL A   1      31.081  30.312  25.148  1.00  0.00     0.025 A 
ATOM     16  C   UNL A   1      31.775  30.289  26.351  1.00  0.00     0.022 A 
ATOM     17  N   UNL A   1      33.000  28.364  25.600  1.00  0.00    -0.238 NA
ATOM     18  C   UNL A   1      32.722  29.301  26.530  1.00  0.00     0.113 A 
BRANCH  14  19
ATOM     19  C   UNL A   1      30.547  29.289  22.992  1.00  0.00     0.103 C 
ATOM     20  N   UNL A   1      29.917  29.260  22.011  1.00  0.00    -0.192 NA
ENDBRANCH  14  19
ENDBRANCH   7  13
ENDBRANCH   5   6
BRANCH   5  21
ATOM     21  C   UNL A   1      32.174  22.416  23.984  1.00  0.00     0.046 A 
ATOM     22  C   UNL A   1      31.391  22.514  25.143  1.00  0.00     0.094 A 
ATOM     23  C   UNL A   1      32.307  20.972  23.955  1.00  0.00     0.009 A 
ATOM     24  N   UNL A   1      32.116  21.692  26.015  1.00  0.00    -0.361 N 
ATOM     25  C   UNL A   1      32.548  20.605  25.279  1.00  0.00     0.046 A 
ATOM     26  C   UNL A   1      32.191  19.894  23.067  1.00  0.00     0.011 A 
ATOM     27  H   UNL A   1      32.286  21.858  26.970  1.00  0.00     0.166 HD
ATOM     28  C   UNL A   1      33.152  19.383  25.627  1.00  0.00     0.032 A 
ATOM     29  C   UNL A   1      32.585  18.604  23.418  1.00  0.00     0.007 A 
ATOM     30  C   UNL A   1      33.217  18.387  24.636  1.00  0.00    -0.021 A 
BRANCH  30  31
ATOM     31  C   UNL A   1      33.978  17.104  24.825  1.00  0.00     0.191 C 
BRANCH  31  32
ATOM     32  O   UNL A   1      33.583  16.482  26.055  1.00  0.00    -0.392 OA
ATOM     33  H   UNL A   1      32.656  16.203  25.992  1.00  0.00     0.211 HD
ENDBRANCH  31  32
ENDBRANCH  30  31
ENDBRANCH   5  21
ENDBRANCH   3   5
ENDBRANCH   2   3
ENDBRANCH   1   2
BRANCH   1  34
ATOM     34  C   UNL A   1      36.016  21.656  24.988  1.00  0.00     0.275 C 
BRANCH  34  35
ATOM     35  O   UNL A   1      36.916  22.253  25.944  1.00  0.00    -0.458 OA
BRANCH  35  36
ATOM     36  C   UNL A   1      38.160  21.744  25.847  1.00  0.00     0.338 C 
ATOM     37  O   UNL A   1      38.440  20.600  25.521  1.00  0.00    -0.246 OA
BRANCH  36  38
ATOM     38  C   UNL A   1      39.228  22.722  26.102  1.00  0.00     0.060 A 
ATOM     39  C   UNL A   1      40.165  22.432  27.101  1.00  0.00     0.016 A 
ATOM     40  C   UNL A   1      38.947  24.049  25.768  1.00  0.00     0.016 A 
ATOM     41  C   UNL A   1      40.689  23.457  27.885  1.00  0.00     0.010 A 
ATOM     42  C   UNL A   1      39.545  25.081  26.498  1.00  0.00     0.010 A 
ATOM     43  C   UNL A   1      40.380  24.791  27.592  1.00  0.00    -0.014 A 
BRANCH  43  44
ATOM     44  C   UNL A   1      41.107  25.891  28.259  1.00  0.00     0.031 A 
ATOM     45  C   UNL A   1      40.419  27.002  28.994  1.00  0.00     0.074 A 
ATOM     46  C   UNL A   1      42.432  25.912  28.035  1.00  0.00     0.049 A 
ATOM     47  N   UNL A   1      40.825  28.229  29.189  1.00  0.00    -0.248 NA
ATOM     48  C   UNL A   1      39.114  26.704  29.596  1.00  0.00     0.031 C 
ATOM     49  C   UNL A   1      43.196  24.824  27.414  1.00  0.00     0.029 A 
ATOM     50  N   UNL A   1      43.353  26.901  28.233  1.00  0.00    -0.354 N 
ATOM     51  C   UNL A   1      39.801  28.874  29.881  1.00  0.00     0.074 A 
ATOM     52  C   UNL A   1      38.761  27.888  30.091  1.00  0.00     0.031 C 
ATOM     53  C   UNL A   1      44.457  25.224  27.228  1.00  0.00     0.029 A 
ATOM     54  C   UNL A   1      44.544  26.625  27.605  1.00  0.00     0.049 A 
ATOM     55  H   UNL A   1      43.185  27.715  28.762  1.00  0.00     0.167 HD
ATOM     56  C   UNL A   1      39.764  30.170  30.285  1.00  0.00     0.034 A 
ATOM     57  C   UNL A   1      45.553  27.436  27.257  1.00  0.00     0.034 A 
ATOM     58  C   UNL A   1      40.889  31.070  30.126  1.00  0.00     0.049 A 
ATOM     59  C   UNL A   1      45.464  28.880  27.642  1.00  0.00     0.074 A 
ATOM     60  C   UNL A   1      41.012  32.381  30.556  1.00  0.00     0.029 A 
ATOM     61  N   UNL A   1      42.088  30.747  29.500  1.00  0.00    -0.354 N 
ATOM     62  N   UNL A   1      44.470  29.516  28.218  1.00  0.00    -0.248 NA
ATOM     63  C   UNL A   1      46.634  29.712  27.352  1.00  0.00     0.031 C 
ATOM     64  C   UNL A   1      42.245  32.872  30.120  1.00  0.00     0.029 A 
ATOM     65  C   UNL A   1      42.940  31.840  29.511  1.00  0.00     0.049 A 
ATOM     66  H   UNL A   1      42.301  29.871  29.107  1.00  0.00     0.167 HD
ATOM     67  C   UNL A   1      44.921  30.814  28.413  1.00  0.00     0.074 A 
ATOM     68  C   UNL A   1      46.272  30.868  27.888  1.00  0.00     0.031 C 
ATOM     69  C   UNL A   1      44.286  31.863  28.991  1.00  0.00     0.034 A 
BRANCH  56  70
ATOM     70  C   UNL A   1      38.494  30.742  30.883  1.00  0.00     0.023 A 
ATOM     71  C   UNL A   1      37.492  31.363  30.120  1.00  0.00     0.031 A 
ATOM     72  C   UNL A   1      38.241  30.557  32.260  1.00  0.00     0.131 A 
ATOM     73  C   UNL A   1      36.302  31.793  30.738  1.00  0.00     0.055 A 
ATOM     74  C   UNL A   1      37.030  30.919  32.852  1.00  0.00     0.041 A 
ATOM     75  F   UNL A   1      39.165  29.989  33.053  1.00  0.00    -0.206 F 
ATOM     76  C   UNL A   1      36.052  31.545  32.090  1.00  0.00     0.022 A 
BRANCH  73  77
ATOM     77  S   UNL A   1      35.110  32.765  29.774  1.00  0.00     0.124 S 
ATOM     78  O   UNL A   1      34.190  33.222  30.813  1.00  0.00    -0.237 OA
ATOM     79  O   UNL A   1      35.952  33.791  29.170  1.00  0.00    -0.237 OA
ATOM     80  O   UNL A   1      34.546  31.792  28.840  1.00  0.00    -0.744 OA
ENDBRANCH  73  77
ENDBRANCH  56  70
BRANCH  57  81
ATOM     81  C   UNL A   1      46.690  26.896  26.474  1.00  0.00     0.023 A 
ATOM     82  C   UNL A   1      47.753  26.274  27.130  1.00  0.00     0.031 A 
ATOM     83  C   UNL A   1      46.736  26.993  25.070  1.00  0.00     0.131 A 
ATOM     84  C   UNL A   1      48.861  25.840  26.396  1.00  0.00     0.055 A 
ATOM     85  C   UNL A   1      47.801  26.477  24.334  1.00  0.00     0.041 A 
ATOM     86  F   UNL A   1      45.729  27.567  24.390  1.00  0.00    -0.206 F 
ATOM     87  C   UNL A   1      48.886  25.914  25.000  1.00  0.00     0.022 A 
BRANCH  84  88
ATOM     88  S   UNL A   1      50.328  25.319  27.317  1.00  0.00     0.124 S 
ATOM     89  O   UNL A   1      49.823  24.150  28.031  1.00  0.00    -0.237 OA
ATOM     90  O   UNL A   1      51.279  25.053  26.245  1.00  0.00    -0.237 OA
ATOM     91  O   UNL A   1      50.632  26.479  28.152  1.00  0.00    -0.744 OA
ENDBRANCH  84  88
ENDBRANCH  57  81
BRANCH  69  92
ATOM     92  C   UNL A   1      45.086  33.125  29.168  1.00  0.00     0.023 A 
ATOM     93  C   UNL A   1      45.074  34.154  28.214  1.00  0.00     0.031 A 
ATOM     94  C   UNL A   1      45.879  33.290  30.319  1.00  0.00     0.131 A 
ATOM     95  C   UNL A   1      45.882  35.283  28.403  1.00  0.00     0.055 A 
ATOM     96  C   UNL A   1      46.622  34.448  30.536  1.00  0.00     0.041 A 
ATOM     97  F   UNL A   1      45.936  32.328  31.254  1.00  0.00    -0.206 F 
ATOM     98  C   UNL A   1      46.635  35.450  29.569  1.00  0.00     0.022 A 
BRANCH  95  99
ATOM     99  S   UNL A   1      46.007  36.494  27.060  1.00  0.00     0.124 S 
ATOM    100  O   UNL A   1      46.524  35.677  25.966  1.00  0.00    -0.237 OA
ATOM    101  O   UNL A   1      44.628  36.948  26.918  1.00  0.00    -0.237 OA
ATOM    102  O   UNL A   1      46.938  37.492  27.584  1.00  0.00    -0.744 OA
ENDBRANCH  95  99
ENDBRANCH  69  92
ENDBRANCH  43  44
ENDBRANCH  36  38
ENDBRANCH  35  36
ENDBRANCH  34  35
ENDBRANCH   1  34
TORSDOF 20
ENDMDL
MODEL 3
REMARK VINA RESULT:     -12.2      4.417      9.838
REMARK SMILES N#Cc1cccnc1N1CC[NH+]([C@@H](C(=O)OCCOC(=O)c2ccc(-c3c4nc(c(-c5cc(S(=O)(=O)[O-])ccc5F)c5ccc([nH]5)c(-c5cc(S(=O)(=O)[O-])ccc5F)c5nc(c(-c6cc(S(=O)(=O)[O-])ccc6F)c6ccc3[nH]6)C=C5)C=C4)cc2)c2c[nH]c3cc(CO)ccc23)CC1
REMARK SMILES IDX 17 1 16 2 14 3 15 4 13 5 12 6 9 7 10 8 97 9 11 10 96 11 8 13
REMARK SMILES IDX 3 14 4 15 5 16 7 17 6 18 2 19 1 20 85 21 86 22 95 23 87 24
REMARK SMILES IDX 88 25 94 26 89 28 93 29 90 30 91 31 92 32 18 34 19 35 20 36
REMARK SMILES IDX 21 37 22 38 23 39 84 40 24 41 83 42 25 43 26 44 27 45 77 46
REMARK SMILES IDX 28 47 82 48 76 49 78 50 29 51 81 52 75 53 74 54 30 56 62 57
REMARK SMILES IDX 42 58 61 59 43 60 46 61 60 62 79 63 44 64 45 65 59 67 80 68
REMARK SMILES IDX 47 69 31 70 32 71 40 72 33 73 39 74 41 75 38 76 34 77 35 78
REMARK SMILES IDX 36 79 37 80 63 81 64 82 72 83 65 84 71 85 73 86 70 87 66 88
REMARK SMILES IDX 67 89 68 90 69 91 48 92 49 93 57 94 50 95 56 96 58 97 55 98
REMARK SMILES IDX 51 99 52 100 53 101 54 102
REMARK H PARENT 12 12 87 27 92 33 78 55 46 66
REMARK Flexibility Score: inf
ROOT
ATOM      1  C   UNL A   1      36.074  21.956  24.248  1.00  0.00     0.274 C 
ENDROOT
BRANCH   1   2
ATOM      2  O   UNL A   1      35.624  23.333  24.276  1.00  0.00    -0.457 OA
BRANCH   2   3
ATOM      3  C   UNL A   1      34.368  23.609  24.707  1.00  0.00     0.370 C 
ATOM      4  O   UNL A   1      34.146  24.057  25.830  1.00  0.00    -0.245 OA
BRANCH   3   5
ATOM      5  C   UNL A   1      33.249  23.172  23.736  1.00  0.00     0.328 C 
BRANCH   5   6
ATOM      6  N   UNL A   1      32.685  24.228  22.802  1.00  0.00    -0.316 N 
ATOM      7  N   UNL A   1      32.557  26.840  24.141  1.00  0.00    -0.344 N 
ATOM      8  C   UNL A   1      31.679  25.734  24.487  1.00  0.00     0.179 C 
ATOM      9  C   UNL A   1      33.652  26.654  23.181  1.00  0.00     0.179 C 
ATOM     10  C   UNL A   1      31.466  24.920  23.222  1.00  0.00     0.285 C 
ATOM     11  C   UNL A   1      33.624  25.293  22.378  1.00  0.00     0.285 C 
ATOM     12  H   UNL A   1      32.468  23.605  22.025  1.00  0.00     0.349 HD
BRANCH   7  13
ATOM     13  C   UNL A   1      32.531  27.871  25.057  1.00  0.00     0.146 A 
ATOM     14  C   UNL A   1      31.725  28.991  24.850  1.00  0.00     0.095 A 
ATOM     15  C   UNL A   1      31.541  29.899  25.898  1.00  0.00     0.025 A 
ATOM     16  C   UNL A   1      32.151  29.668  27.126  1.00  0.00     0.022 A 
ATOM     17  N   UNL A   1      33.146  27.667  26.248  1.00  0.00    -0.238 NA
ATOM     18  C   UNL A   1      32.942  28.545  27.251  1.00  0.00     0.113 A 
BRANCH  14  19
ATOM     19  C   UNL A   1      31.005  29.162  23.629  1.00  0.00     0.103 C 
ATOM     20  N   UNL A   1      30.439  29.306  22.620  1.00  0.00    -0.192 NA
ENDBRANCH  14  19
ENDBRANCH   7  13
ENDBRANCH   5   6
BRANCH   5  21
ATOM     21  C   UNL A   1      32.294  21.972  24.117  1.00  0.00     0.046 A 
ATOM     22  C   UNL A   1      31.670  21.940  25.373  1.00  0.00     0.094 A 
ATOM     23  C   UNL A   1      32.400  20.540  23.910  1.00  0.00     0.009 A 
ATOM     24  N   UNL A   1      32.491  21.025  26.045  1.00  0.00    -0.361 N 
ATOM     25  C   UNL A   1      32.807  20.027  25.142  1.00  0.00     0.046 A 
ATOM     26  C   UNL A   1      32.153  19.569  22.931  1.00  0.00     0.011 A 
ATOM     27  H   UNL A   1      32.787  21.082  26.981  1.00  0.00     0.166 HD
ATOM     28  C   UNL A   1      33.433  18.774  25.269  1.00  0.00     0.032 A 
ATOM     29  C   UNL A   1      32.570  18.247  23.082  1.00  0.00     0.007 A 
ATOM     30  C   UNL A   1      33.352  17.896  24.174  1.00  0.00    -0.021 A 
BRANCH  30  31
ATOM     31  C   UNL A   1      34.113  16.599  24.117  1.00  0.00     0.191 C 
BRANCH  31  32
ATOM     32  O   UNL A   1      34.297  16.204  22.751  1.00  0.00    -0.392 OA
ATOM     33  H   UNL A   1      33.433  16.050  22.340  1.00  0.00     0.211 HD
ENDBRANCH  31  32
ENDBRANCH  30  31
ENDBRANCH   5  21
ENDBRANCH   3   5
ENDBRANCH   2   3
ENDBRANCH   1   2
BRANCH   1  34
ATOM     34  C   UNL A   1      36.813  21.668  25.548  1.00  0.00     0.275 C 
BRANCH  34  35
ATOM     35  O   UNL A   1      37.743  22.747  25.779  1.00  0.00    -0.458 OA
BRANCH  35  36
ATOM     36  C   UNL A   1      38.947  22.294  26.178  1.00  0.00     0.338 C 
ATOM     37  O   UNL A   1      39.288  21.122  26.230  1.00  0.00    -0.246 OA
BRANCH  36  38
ATOM     38  C   UNL A   1      39.910  23.358  26.499  1.00  0.00     0.060 A 
ATOM     39  C   UNL A   1      40.749  23.178  27.604  1.00  0.00     0.016 A 
ATOM     40  C   UNL A   1      39.575  24.646  26.074  1.00  0.00     0.016 A 
ATOM     41  C   UNL A   1      41.113  24.269  28.390  1.00  0.00     0.010 A 
ATOM     42  C   UNL A   1      40.016  25.748  26.814  1.00  0.00     0.010 A 
ATOM     43  C   UNL A   1      40.744  25.565  28.003  1.00  0.00    -0.014 A 
BRANCH  43  44
ATOM     44  C   UNL A   1      41.316  26.741  28.691  1.00  0.00     0.031 A 
ATOM     45  C   UNL A   1      40.475  27.810  29.322  1.00  0.00     0.074 A 
ATOM     46  C   UNL A   1      42.649  26.868  28.583  1.00  0.00     0.049 A 
ATOM     47  N   UNL A   1      40.760  29.072  29.508  1.00  0.00    -0.248 NA
ATOM     48  C   UNL A   1      39.150  27.419  29.819  1.00  0.00     0.031 C 
ATOM     49  C   UNL A   1      43.553  25.832  28.071  1.00  0.00     0.029 A 
ATOM     50  N   UNL A   1      43.465  27.937  28.825  1.00  0.00    -0.354 N 
ATOM     51  C   UNL A   1      39.629  29.647  30.084  1.00  0.00     0.074 A 
ATOM     52  C   UNL A   1      38.658  28.582  30.238  1.00  0.00     0.031 C 
ATOM     53  C   UNL A   1      44.788  26.332  27.982  1.00  0.00     0.029 A 
ATOM     54  C   UNL A   1      44.725  27.745  28.313  1.00  0.00     0.049 A 
ATOM     55  H   UNL A   1      43.183  28.748  29.308  1.00  0.00     0.167 HD
ATOM     56  C   UNL A   1      39.449  30.946  30.436  1.00  0.00     0.034 A 
ATOM     57  C   UNL A   1      45.692  28.630  28.026  1.00  0.00     0.034 A 
ATOM     58  C   UNL A   1      40.506  31.934  30.344  1.00  0.00     0.049 A 
ATOM     59  C   UNL A   1      45.450  30.071  28.349  1.00  0.00     0.074 A 
ATOM     60  C   UNL A   1      40.481  33.262  30.736  1.00  0.00     0.029 A 
ATOM     61  N   UNL A   1      41.779  31.696  29.837  1.00  0.00    -0.354 N 
ATOM     62  N   UNL A   1      44.359  30.636  28.813  1.00  0.00    -0.248 NA
ATOM     63  C   UNL A   1      46.569  30.991  28.133  1.00  0.00     0.031 C 
ATOM     64  C   UNL A   1      41.703  33.844  30.392  1.00  0.00     0.029 A 
ATOM     65  C   UNL A   1      42.533  32.858  29.883  1.00  0.00     0.049 A 
ATOM     66  H   UNL A   1      42.097  30.830  29.496  1.00  0.00     0.167 HD
ATOM     67  C   UNL A   1      44.683  31.973  29.000  1.00  0.00     0.074 A 
ATOM     68  C   UNL A   1      46.066  32.126  28.594  1.00  0.00     0.031 C 
ATOM     69  C   UNL A   1      43.914  32.980  29.482  1.00  0.00     0.034 A 
BRANCH  56  70
ATOM     70  C   UNL A   1      38.087  31.424  30.900  1.00  0.00     0.023 A 
ATOM     71  C   UNL A   1      37.129  31.982  30.038  1.00  0.00     0.031 A 
ATOM     72  C   UNL A   1      37.707  31.212  32.244  1.00  0.00     0.131 A 
ATOM     73  C   UNL A   1      35.854  32.323  30.530  1.00  0.00     0.055 A 
ATOM     74  C   UNL A   1      36.419  31.485  32.708  1.00  0.00     0.041 A 
ATOM     75  F   UNL A   1      38.581  30.703  33.127  1.00  0.00    -0.206 F 
ATOM     76  C   UNL A   1      35.484  32.049  31.849  1.00  0.00     0.022 A 
BRANCH  73  77
ATOM     77  S   UNL A   1      34.703  33.218  29.448  1.00  0.00     0.124 S 
ATOM     78  O   UNL A   1      35.601  34.140  28.757  1.00  0.00    -0.237 OA
ATOM     79  O   UNL A   1      34.136  32.149  28.636  1.00  0.00    -0.237 OA
ATOM     80  O   UNL A   1      33.773  33.851  30.382  1.00  0.00    -0.744 OA
ENDBRANCH  73  77
ENDBRANCH  56  70
BRANCH  57  81
ATOM     81  C   UNL A   1      46.935  28.166  27.365  1.00  0.00     0.023 A 
ATOM     82  C   UNL A   1      47.017  28.151  25.971  1.00  0.00     0.031 A 
ATOM     83  C   UNL A   1      48.052  27.732  28.104  1.00  0.00     0.131 A 
ATOM     84  C   UNL A   1      48.159  27.636  25.351  1.00  0.00     0.055 A 
ATOM     85  C   UNL A   1      49.223  27.306  27.482  1.00  0.00     0.041 A 
ATOM     86  F   UNL A   1      48.030  27.746  29.448  1.00  0.00    -0.206 F 
ATOM     87  C   UNL A   1      49.273  27.234  26.093  1.00  0.00     0.022 A 
BRANCH  84  88
ATOM     88  S   UNL A   1      48.093  27.361  23.565  1.00  0.00     0.124 S 
ATOM     89  O   UNL A   1      47.903  25.916  23.499  1.00  0.00    -0.237 OA
ATOM     90  O   UNL A   1      46.948  28.176  23.176  1.00  0.00    -0.237 OA
ATOM     91  O   UNL A   1      49.392  27.843  23.101  1.00  0.00    -0.744 OA
ENDBRANCH  84  88
ENDBRANCH  57  81
BRANCH  69  92
ATOM     92  C   UNL A   1      44.589  34.310  29.683  1.00  0.00     0.023 A 
ATOM     93  C   UNL A   1      45.221  34.649  30.889  1.00  0.00     0.031 A 
ATOM     94  C   UNL A   1      44.589  35.255  28.640  1.00  0.00     0.131 A 
ATOM     95  C   UNL A   1      45.786  35.922  31.042  1.00  0.00     0.055 A 
ATOM     96  C   UNL A   1      45.217  36.491  28.773  1.00  0.00     0.041 A 
ATOM     97  F   UNL A   1      43.985  34.984  27.472  1.00  0.00    -0.206 F 
ATOM     98  C   UNL A   1      45.811  36.836  29.984  1.00  0.00     0.022 A 
BRANCH  95  99
ATOM     99  S   UNL A   1      46.406  36.405  32.675  1.00  0.00     0.124 S 
ATOM    100  O   UNL A   1      45.461  37.449  33.059  1.00  0.00    -0.237 OA
ATOM    101  O   UNL A   1      46.317  35.158  33.426  1.00  0.00    -0.237 OA
ATOM    102  O   UNL A   1      47.766  36.867  32.401  1.00  0.00    -0.744 OA
ENDBRANCH  95  99
ENDBRANCH  69  92
ENDBRANCH  43  44
ENDBRANCH  36  38
ENDBRANCH  35  36
ENDBRANCH  34  35
ENDBRANCH   1  34
TORSDOF 20
ENDMDL
