MODEL 1
REMARK VINA RESULT:     -11.8      0.000      0.000
REMARK SMILES [NH3+][C@]1(C(=O)OCCOC(=O)c2ccc(-c3c4nc(c(-c5cc(S(=O)(=O)[O-])ccc5F)c5ccc([nH]5)c(-c5cc(S(=O)(=O)[O-])ccc5F)c5nc(c(-c6cc(S(=O)(=O)[O-])ccc6F)c6ccc3[nH]6)C=C5)C=C4)cc2)CC[C@@H](Sc2ccc(Cl)c(Cl)c2)C1
REMARK SMILES IDX 7 1 6 2 5 3 3 4 4 5 2 6 74 7 86 8 75 9 76 10 1 11 77 15
REMARK SMILES IDX 78 16 79 17 85 18 80 19 83 20 81 21 84 22 82 23 8 24 9 25
REMARK SMILES IDX 10 26 11 27 12 28 73 29 13 30 72 31 14 32 15 33 16 34 66 35
REMARK SMILES IDX 17 36 71 37 65 38 67 39 18 40 70 41 64 42 63 43 19 45 51 46
REMARK SMILES IDX 31 47 50 48 32 49 35 50 49 51 68 52 33 53 34 54 48 56 69 57
REMARK SMILES IDX 36 58 20 59 21 60 29 61 22 62 28 63 30 64 27 65 23 66 24 67
REMARK SMILES IDX 25 68 26 69 52 70 53 71 61 72 54 73 60 74 62 75 59 76 55 77
REMARK SMILES IDX 56 78 57 79 58 80 37 81 38 82 46 83 39 84 45 85 47 86 44 87
REMARK SMILES IDX 40 88 41 89 42 90 43 91
REMARK H PARENT 1 12 1 13 1 14 67 44 35 55
REMARK Flexibility Score: inf
ROOT
ATOM      1  C   UNL A   1      31.994  29.074  25.745  1.00  0.00     0.275 C 
ENDROOT
BRANCH   1   2
ATOM      2  C   UNL A   1      31.174  29.360  24.491  1.00  0.00     0.274 C 
BRANCH   2   3
ATOM      3  O   UNL A   1      31.867  28.945  23.296  1.00  0.00    -0.457 OA
BRANCH   3   4
ATOM      4  C   UNL A   1      31.221  28.030  22.523  1.00  0.00     0.368 C 
ATOM      5  O   UNL A   1      30.121  28.205  22.007  1.00  0.00    -0.245 OA
BRANCH   4   6
ATOM      6  C   UNL A   1      32.014  26.710  22.367  1.00  0.00     0.193 C 
ATOM      7  C   UNL A   1      33.522  26.882  22.576  1.00  0.00     0.082 C 
ATOM      8  C   UNL A   1      31.627  25.655  23.416  1.00  0.00     0.095 C 
ATOM      9  C   UNL A   1      34.022  25.474  22.856  1.00  0.00     0.022 C 
ATOM     10  C   UNL A   1      32.896  24.816  23.653  1.00  0.00     0.059 C 
BRANCH   6  11
ATOM     11  N   UNL A   1      31.776  26.144  21.009  1.00  0.00    -0.343 N 
ATOM     12  H   UNL A   1      30.829  25.768  20.958  1.00  0.00     0.345 HD
ATOM     13  H   UNL A   1      32.448  25.399  20.828  1.00  0.00     0.345 HD
ATOM     14  H   UNL A   1      31.887  26.880  20.310  1.00  0.00     0.345 HD
ENDBRANCH   6  11
BRANCH  10  15
ATOM     15  S   UNL A   1      33.271  24.544  25.436  1.00  0.00    -0.122 SA
BRANCH  15  16
ATOM     16  C   UNL A   1      34.461  23.215  25.409  1.00  0.00     0.009 A 
ATOM     17  C   UNL A   1      35.826  23.488  25.552  1.00  0.00     0.017 A 
ATOM     18  C   UNL A   1      34.053  21.907  25.133  1.00  0.00     0.037 A 
ATOM     19  C   UNL A   1      36.770  22.460  25.447  1.00  0.00     0.023 A 
ATOM     20  C   UNL A   1      34.995  20.878  25.016  1.00  0.00     0.060 A 
ATOM     21  C   UNL A   1      36.358  21.154  25.174  1.00  0.00     0.059 A 
ATOM     22  Cl  UNL A   1      34.405  19.299  24.628  1.00  0.00    -0.083 Cl
ATOM     23  Cl  UNL A   1      37.574  19.939  25.001  1.00  0.00    -0.083 Cl
ENDBRANCH  15  16
ENDBRANCH  10  15
ENDBRANCH   4   6
ENDBRANCH   3   4
ENDBRANCH   2   3
ENDBRANCH   1   2
BRANCH   1  24
ATOM     24  O   UNL A   1      33.163  29.904  25.785  1.00  0.00    -0.458 OA
BRANCH  24  25
ATOM     25  C   UNL A   1      33.145  30.854  26.748  1.00  0.00     0.338 C 
ATOM     26  O   UNL A   1      32.281  31.685  26.963  1.00  0.00    -0.246 OA
BRANCH  25  27
ATOM     27  C   UNL A   1      34.358  30.731  27.561  1.00  0.00     0.060 A 
ATOM     28  C   UNL A   1      35.180  31.844  27.741  1.00  0.00     0.016 A 
ATOM     29  C   UNL A   1      34.726  29.481  28.051  1.00  0.00     0.016 A 
ATOM     30  C   UNL A   1      36.421  31.694  28.353  1.00  0.00     0.010 A 
ATOM     31  C   UNL A   1      35.926  29.355  28.748  1.00  0.00     0.010 A 
ATOM     32  C   UNL A   1      36.795  30.454  28.885  1.00  0.00    -0.014 A 
BRANCH  32  33
ATOM     33  C   UNL A   1      38.085  30.278  29.599  1.00  0.00     0.031 A 
ATOM     34  C   UNL A   1      39.123  29.352  29.032  1.00  0.00     0.074 A 
ATOM     35  C   UNL A   1      38.283  30.883  30.785  1.00  0.00     0.049 A 
ATOM     36  N   UNL A   1      40.163  28.816  29.614  1.00  0.00    -0.248 NA
ATOM     37  C   UNL A   1      38.945  28.959  27.626  1.00  0.00     0.031 C 
ATOM     38  C   UNL A   1      37.368  31.838  31.414  1.00  0.00     0.029 A 
ATOM     39  N   UNL A   1      39.306  30.756  31.692  1.00  0.00    -0.354 N 
ATOM     40  C   UNL A   1      40.732  27.970  28.666  1.00  0.00     0.074 A 
ATOM     41  C   UNL A   1      39.914  28.069  27.473  1.00  0.00     0.031 C 
ATOM     42  C   UNL A   1      37.860  32.198  32.608  1.00  0.00     0.029 A 
ATOM     43  C   UNL A   1      39.072  31.430  32.867  1.00  0.00     0.049 A 
ATOM     44  H   UNL A   1      40.122  30.233  31.519  1.00  0.00     0.167 HD
ATOM     45  C   UNL A   1      41.826  27.179  28.794  1.00  0.00     0.034 A 
ATOM     46  C   UNL A   1      39.714  31.381  34.050  1.00  0.00     0.034 A 
ATOM     47  C   UNL A   1      42.631  27.126  29.992  1.00  0.00     0.049 A 
ATOM     48  C   UNL A   1      40.900  30.470  34.190  1.00  0.00     0.074 A 
ATOM     49  C   UNL A   1      43.779  26.392  30.233  1.00  0.00     0.029 A 
ATOM     50  N   UNL A   1      42.366  27.838  31.157  1.00  0.00    -0.354 N 
ATOM     51  N   UNL A   1      41.410  29.641  33.308  1.00  0.00    -0.248 NA
ATOM     52  C   UNL A   1      41.594  30.479  35.483  1.00  0.00     0.031 C 
ATOM     53  C   UNL A   1      44.173  26.615  31.557  1.00  0.00     0.029 A 
ATOM     54  C   UNL A   1      43.313  27.541  32.125  1.00  0.00     0.049 A 
ATOM     55  H   UNL A   1      41.614  28.463  31.277  1.00  0.00     0.167 HD
ATOM     56  C   UNL A   1      42.496  29.042  33.934  1.00  0.00     0.074 A 
ATOM     57  C   UNL A   1      42.571  29.609  35.266  1.00  0.00     0.031 C 
ATOM     58  C   UNL A   1      43.360  28.113  33.450  1.00  0.00     0.034 A 
BRANCH  45  59
ATOM     59  C   UNL A   1      42.160  26.262  27.641  1.00  0.00     0.023 A 
ATOM     60  C   UNL A   1      41.670  24.947  27.563  1.00  0.00     0.031 A 
ATOM     61  C   UNL A   1      43.032  26.698  26.626  1.00  0.00     0.131 A 
ATOM     62  C   UNL A   1      42.119  24.092  26.544  1.00  0.00     0.055 A 
ATOM     63  C   UNL A   1      43.410  25.868  25.569  1.00  0.00     0.041 A 
ATOM     64  F   UNL A   1      43.552  27.936  26.657  1.00  0.00    -0.206 F 
ATOM     65  C   UNL A   1      42.969  24.550  25.534  1.00  0.00     0.022 A 
BRANCH  62  66
ATOM     66  S   UNL A   1      41.708  22.327  26.650  1.00  0.00     0.124 S 
ATOM     67  O   UNL A   1      42.471  21.915  27.826  1.00  0.00    -0.237 OA
ATOM     68  O   UNL A   1      40.258  22.351  26.806  1.00  0.00    -0.237 OA
ATOM     69  O   UNL A   1      42.191  21.785  25.382  1.00  0.00    -0.744 OA
ENDBRANCH  62  66
ENDBRANCH  45  59
BRANCH  46  70
ATOM     70  C   UNL A   1      39.188  32.156  35.207  1.00  0.00     0.023 A 
ATOM     71  C   UNL A   1      38.547  31.519  36.279  1.00  0.00     0.031 A 
ATOM     72  C   UNL A   1      39.342  33.555  35.262  1.00  0.00     0.131 A 
ATOM     73  C   UNL A   1      38.070  32.280  37.356  1.00  0.00     0.055 A 
ATOM     74  C   UNL A   1      38.903  34.302  36.356  1.00  0.00     0.041 A 
ATOM     75  F   UNL A   1      39.957  34.210  34.265  1.00  0.00    -0.206 F 
ATOM     76  C   UNL A   1      38.256  33.664  37.409  1.00  0.00     0.022 A 
BRANCH  73  77
ATOM     77  S   UNL A   1      37.164  31.437  38.682  1.00  0.00     0.124 S 
ATOM     78  O   UNL A   1      37.025  30.091  38.137  1.00  0.00    -0.237 OA
ATOM     79  O   UNL A   1      38.076  31.580  39.812  1.00  0.00    -0.237 OA
ATOM     80  O   UNL A   1      35.922  32.200  38.784  1.00  0.00    -0.744 OA
ENDBRANCH  73  77
ENDBRANCH  46  70
BRANCH  58  81
ATOM     81  C   UNL A   1      44.489  27.700  34.356  1.00  0.00     0.023 A 
ATOM     82  C   UNL A   1      44.413  26.545  35.154  1.00  0.00     0.031 A 
ATOM     83  C   UNL A   1      45.658  28.478  34.414  1.00  0.00     0.131 A 
ATOM     84  C   UNL A   1      45.479  26.220  36.006  1.00  0.00     0.055 A 
ATOM     85  C   UNL A   1      46.732  28.124  35.229  1.00  0.00     0.041 A 
ATOM     86  F   UNL A   1      45.776  29.590  33.673  1.00  0.00    -0.206 F 
ATOM     87  C   UNL A   1      46.643  26.994  36.038  1.00  0.00     0.022 A 
BRANCH  84  88
ATOM     88  S   UNL A   1      45.304  24.799  37.120  1.00  0.00     0.124 S 
ATOM     89  O   UNL A   1      44.493  23.886  36.320  1.00  0.00    -0.237 OA
ATOM     90  O   UNL A   1      46.689  24.399  37.339  1.00  0.00    -0.237 OA
ATOM     91  O   UNL A   1      44.631  25.362  38.289  1.00  0.00    -0.744 OA
ENDBRANCH  84  88
ENDBRANCH  58  81
ENDBRANCH  32  33
ENDBRANCH  25  27
ENDBRANCH  24  25
ENDBRANCH   1  24
TORSDOF 17
ENDMDL
MODEL 2
REMARK VINA RESULT:     -11.7      5.616     10.392
REMARK SMILES [NH3+][C@]1(C(=O)OCCOC(=O)c2ccc(-c3c4nc(c(-c5cc(S(=O)(=O)[O-])ccc5F)c5ccc([nH]5)c(-c5cc(S(=O)(=O)[O-])ccc5F)c5nc(c(-c6cc(S(=O)(=O)[O-])ccc6F)c6ccc3[nH]6)C=C5)C=C4)cc2)CC[C@@H](Sc2ccc(Cl)c(Cl)c2)C1
REMARK SMILES IDX 7 1 6 2 5 3 3 4 4 5 2 6 74 7 86 8 75 9 76 10 1 11 77 15
REMARK SMILES IDX 78 16 79 17 85 18 80 19 83 20 81 21 84 22 82 23 8 24 9 25
REMARK SMILES IDX 10 26 11 27 12 28 73 29 13 30 72 31 14 32 15 33 16 34 66 35
REMARK SMILES IDX 17 36 71 37 65 38 67 39 18 40 70 41 64 42 63 43 19 45 51 46
REMARK SMILES IDX 31 47 50 48 32 49 35 50 49 51 68 52 33 53 34 54 48 56 69 57
REMARK SMILES IDX 36 58 20 59 21 60 29 61 22 62 28 63 30 64 27 65 23 66 24 67
REMARK SMILES IDX 25 68 26 69 52 70 53 71 61 72 54 73 60 74 62 75 59 76 55 77
REMARK SMILES IDX 56 78 57 79 58 80 37 81 38 82 46 83 39 84 45 85 47 86 44 87
REMARK SMILES IDX 40 88 41 89 42 90 43 91
REMARK H PARENT 1 12 1 13 1 14 67 44 35 55
REMARK Flexibility Score: inf
ROOT
ATOM      1  C   UNL A   1      35.805  20.848  25.400  1.00  0.00     0.275 C 
ENDROOT
BRANCH   1   2
ATOM      2  C   UNL A   1      34.546  21.541  24.886  1.00  0.00     0.274 C 
BRANCH   2   3
ATOM      3  O   UNL A   1      33.569  21.714  25.932  1.00  0.00    -0.457 OA
BRANCH   3   4
ATOM      4  C   UNL A   1      32.271  21.521  25.571  1.00  0.00     0.368 C 
ATOM      5  O   UNL A   1      31.806  20.453  25.186  1.00  0.00    -0.245 OA
BRANCH   4   6
ATOM      6  C   UNL A   1      31.421  22.810  25.676  1.00  0.00     0.193 C 
ATOM      7  C   UNL A   1      32.137  23.948  26.412  1.00  0.00     0.082 C 
ATOM      8  C   UNL A   1      31.097  23.424  24.304  1.00  0.00     0.095 C 
ATOM      9  C   UNL A   1      31.378  25.197  25.994  1.00  0.00     0.022 C 
ATOM     10  C   UNL A   1      30.985  24.940  24.540  1.00  0.00     0.059 C 
BRANCH   6  11
ATOM     11  N   UNL A   1      30.143  22.508  26.380  1.00  0.00    -0.343 N 
ATOM     12  H   UNL A   1      29.373  22.530  25.710  1.00  0.00     0.345 HD
ATOM     13  H   UNL A   1      29.982  23.205  27.106  1.00  0.00     0.345 HD
ATOM     14  H   UNL A   1      30.199  21.581  26.803  1.00  0.00     0.345 HD
ENDBRANCH   6  11
BRANCH  10  15
ATOM     15  S   UNL A   1      31.910  25.944  23.302  1.00  0.00    -0.122 SA
BRANCH  15  16
ATOM     16  C   UNL A   1      31.179  27.565  23.456  1.00  0.00     0.009 A 
ATOM     17  C   UNL A   1      31.652  28.463  24.419  1.00  0.00     0.017 A 
ATOM     18  C   UNL A   1      30.057  27.908  22.697  1.00  0.00     0.037 A 
ATOM     19  C   UNL A   1      31.028  29.702  24.601  1.00  0.00     0.023 A 
ATOM     20  C   UNL A   1      29.423  29.143  22.883  1.00  0.00     0.060 A 
ATOM     21  C   UNL A   1      29.909  30.043  23.837  1.00  0.00     0.059 A 
ATOM     22  Cl  UNL A   1      28.015  29.466  21.931  1.00  0.00    -0.083 Cl
ATOM     23  Cl  UNL A   1      29.148  31.563  24.147  1.00  0.00    -0.083 Cl
ENDBRANCH  15  16
ENDBRANCH  10  15
ENDBRANCH   4   6
ENDBRANCH   3   4
ENDBRANCH   2   3
ENDBRANCH   1   2
BRANCH   1  24
ATOM     24  O   UNL A   1      36.772  21.815  25.833  1.00  0.00    -0.458 OA
BRANCH  24  25
ATOM     25  C   UNL A   1      38.057  21.404  25.741  1.00  0.00     0.338 C 
ATOM     26  O   UNL A   1      38.473  20.331  25.342  1.00  0.00    -0.246 OA
BRANCH  25  27
ATOM     27  C   UNL A   1      38.937  22.489  26.183  1.00  0.00     0.060 A 
ATOM     28  C   UNL A   1      40.009  22.203  27.030  1.00  0.00     0.016 A 
ATOM     29  C   UNL A   1      38.626  23.802  25.839  1.00  0.00     0.016 A 
ATOM     30  C   UNL A   1      40.735  23.244  27.601  1.00  0.00     0.010 A 
ATOM     31  C   UNL A   1      39.417  24.836  26.337  1.00  0.00     0.010 A 
ATOM     32  C   UNL A   1      40.463  24.569  27.240  1.00  0.00    -0.014 A 
BRANCH  32  33
ATOM     33  C   UNL A   1      41.262  25.696  27.785  1.00  0.00     0.031 A 
ATOM     34  C   UNL A   1      40.586  26.748  28.616  1.00  0.00     0.074 A 
ATOM     35  C   UNL A   1      42.564  25.812  27.463  1.00  0.00     0.049 A 
ATOM     36  N   UNL A   1      40.995  27.948  28.929  1.00  0.00    -0.248 NA
ATOM     37  C   UNL A   1      39.255  26.405  29.141  1.00  0.00     0.031 C 
ATOM     38  C   UNL A   1      43.340  24.832  26.700  1.00  0.00     0.029 A 
ATOM     39  N   UNL A   1      43.457  26.826  27.707  1.00  0.00    -0.354 N 
ATOM     40  C   UNL A   1      39.947  28.532  29.637  1.00  0.00     0.074 A 
ATOM     41  C   UNL A   1      38.886  27.547  29.700  1.00  0.00     0.031 C 
ATOM     42  C   UNL A   1      44.585  25.297  26.525  1.00  0.00     0.029 A 
ATOM     43  C   UNL A   1      44.667  26.642  27.080  1.00  0.00     0.049 A 
ATOM     44  H   UNL A   1      43.251  27.604  28.273  1.00  0.00     0.167 HD
ATOM     45  C   UNL A   1      39.883  29.779  30.166  1.00  0.00     0.034 A 
ATOM     46  C   UNL A   1      45.700  27.488  26.902  1.00  0.00     0.034 A 
ATOM     47  C   UNL A   1      40.972  30.725  30.104  1.00  0.00     0.049 A 
ATOM     48  C   UNL A   1      45.598  28.879  27.459  1.00  0.00     0.074 A 
ATOM     49  C   UNL A   1      41.042  32.003  30.630  1.00  0.00     0.029 A 
ATOM     50  N   UNL A   1      42.188  30.493  29.470  1.00  0.00    -0.354 N 
ATOM     51  N   UNL A   1      44.592  29.442  28.089  1.00  0.00    -0.248 NA
ATOM     52  C   UNL A   1      46.763  29.752  27.277  1.00  0.00     0.031 C 
ATOM     53  C   UNL A   1      42.272  32.562  30.266  1.00  0.00     0.029 A 
ATOM     54  C   UNL A   1      43.001  31.611  29.571  1.00  0.00     0.049 A 
ATOM     55  H   UNL A   1      42.436  29.655  29.015  1.00  0.00     0.167 HD
ATOM     56  C   UNL A   1      45.010  30.732  28.394  1.00  0.00     0.074 A 
ATOM     57  C   UNL A   1      46.362  30.861  27.885  1.00  0.00     0.031 C 
ATOM     58  C   UNL A   1      44.342  31.718  29.044  1.00  0.00     0.034 A 
BRANCH  45  59
ATOM     59  C   UNL A   1      38.573  30.205  30.784  1.00  0.00     0.023 A 
ATOM     60  C   UNL A   1      37.575  30.864  30.046  1.00  0.00     0.031 A 
ATOM     61  C   UNL A   1      38.340  29.994  32.156  1.00  0.00     0.131 A 
ATOM     62  C   UNL A   1      36.434  31.361  30.697  1.00  0.00     0.055 A 
ATOM     63  C   UNL A   1      37.166  30.418  32.782  1.00  0.00     0.041 A 
ATOM     64  F   UNL A   1      39.265  29.390  32.920  1.00  0.00    -0.206 F 
ATOM     65  C   UNL A   1      36.212  31.122  32.056  1.00  0.00     0.022 A 
BRANCH  62  66
ATOM     66  S   UNL A   1      35.324  32.464  29.779  1.00  0.00     0.124 S 
ATOM     67  O   UNL A   1      34.310  32.770  30.786  1.00  0.00    -0.237 OA
ATOM     68  O   UNL A   1      36.208  33.563  29.408  1.00  0.00    -0.237 OA
ATOM     69  O   UNL A   1      34.857  31.636  28.669  1.00  0.00    -0.744 OA
ENDBRANCH  62  66
ENDBRANCH  45  59
BRANCH  46  70
ATOM     70  C   UNL A   1      46.871  27.058  26.090  1.00  0.00     0.023 A 
ATOM     71  C   UNL A   1      47.056  27.520  24.779  1.00  0.00     0.031 A 
ATOM     72  C   UNL A   1      47.839  26.191  26.631  1.00  0.00     0.131 A 
ATOM     73  C   UNL A   1      48.176  27.101  24.045  1.00  0.00     0.055 A 
ATOM     74  C   UNL A   1      48.972  25.811  25.912  1.00  0.00     0.041 A 
ATOM     75  F   UNL A   1      47.712  25.729  27.885  1.00  0.00    -0.206 F 
ATOM     76  C   UNL A   1      49.143  26.261  24.606  1.00  0.00     0.022 A 
BRANCH  73  77
ATOM     77  S   UNL A   1      48.337  27.641  22.322  1.00  0.00     0.124 S 
ATOM     78  O   UNL A   1      47.093  28.376  22.123  1.00  0.00    -0.237 OA
ATOM     79  O   UNL A   1      49.556  28.443  22.368  1.00  0.00    -0.237 OA
ATOM     80  O   UNL A   1      48.446  26.387  21.580  1.00  0.00    -0.744 OA
ENDBRANCH  73  77
ENDBRANCH  46  70
BRANCH  58  81
ATOM     81  C   UNL A   1      45.093  33.001  29.284  1.00  0.00     0.023 A 
ATOM     82  C   UNL A   1      44.996  34.091  28.402  1.00  0.00     0.031 A 
ATOM     83  C   UNL A   1      45.913  33.129  30.418  1.00  0.00     0.131 A 
ATOM     84  C   UNL A   1      45.741  35.254  28.652  1.00  0.00     0.055 A 
ATOM     85  C   UNL A   1      46.614  34.304  30.685  1.00  0.00     0.041 A 
ATOM     86  F   UNL A   1      46.039  32.115  31.288  1.00  0.00    -0.206 F 
ATOM     87  C   UNL A   1      46.537  35.372  29.795  1.00  0.00     0.022 A 
BRANCH  84  88
ATOM     88  S   UNL A   1      45.700  36.595  27.432  1.00  0.00     0.124 S 
ATOM     89  O   UNL A   1      44.271  36.874  27.337  1.00  0.00    -0.237 OA
ATOM     90  O   UNL A   1      46.511  37.625  28.071  1.00  0.00    -0.237 OA
ATOM     91  O   UNL A   1      46.294  35.992  26.241  1.00  0.00    -0.744 OA
ENDBRANCH  84  88
ENDBRANCH  58  81
ENDBRANCH  32  33
ENDBRANCH  25  27
ENDBRANCH  24  25
ENDBRANCH   1  24
TORSDOF 17
ENDMDL
MODEL 3
REMARK VINA RESULT:     -11.7      1.517      1.944
REMARK SMILES [NH3+][C@]1(C(=O)OCCOC(=O)c2ccc(-c3c4nc(c(-c5cc(S(=O)(=O)[O-])ccc5F)c5ccc([nH]5)c(-c5cc(S(=O)(=O)[O-])ccc5F)c5nc(c(-c6cc(S(=O)(=O)[O-])ccc6F)c6ccc3[nH]6)C=C5)C=C4)cc2)CC[C@@H](Sc2ccc(Cl)c(Cl)c2)C1
REMARK SMILES IDX 7 1 6 2 5 3 3 4 4 5 2 6 74 7 86 8 75 9 76 10 1 11 77 15
REMARK SMILES IDX 78 16 79 17 85 18 80 19 83 20 81 21 84 22 82 23 8 24 9 25
REMARK SMILES IDX 10 26 11 27 12 28 73 29 13 30 72 31 14 32 15 33 16 34 66 35
REMARK SMILES IDX 17 36 71 37 65 38 67 39 18 40 70 41 64 42 63 43 19 45 51 46
REMARK SMILES IDX 31 47 50 48 32 49 35 50 49 51 68 52 33 53 34 54 48 56 69 57
REMARK SMILES IDX 36 58 20 59 21 60 29 61 22 62 28 63 30 64 27 65 23 66 24 67
REMARK SMILES IDX 25 68 26 69 52 70 53 71 61 72 54 73 60 74 62 75 59 76 55 77
REMARK SMILES IDX 56 78 57 79 58 80 37 81 38 82 46 83 39 84 45 85 47 86 44 87
REMARK SMILES IDX 40 88 41 89 42 90 43 91
REMARK H PARENT 1 12 1 13 1 14 67 44 35 55
REMARK Flexibility Score: inf
ROOT
ATOM      1  C   UNL A   1      31.758  29.378  26.037  1.00  0.00     0.275 C 
ENDROOT
BRANCH   1   2
ATOM      2  C   UNL A   1      31.244  29.262  24.605  1.00  0.00     0.274 C 
BRANCH   2   3
ATOM      3  O   UNL A   1      31.105  27.885  24.200  1.00  0.00    -0.457 OA
BRANCH   3   4
ATOM      4  C   UNL A   1      31.120  27.656  22.858  1.00  0.00     0.368 C 
ATOM      5  O   UNL A   1      30.655  28.417  22.015  1.00  0.00    -0.245 OA
BRANCH   4   6
ATOM      6  C   UNL A   1      31.778  26.305  22.488  1.00  0.00     0.193 C 
ATOM      7  C   UNL A   1      33.250  26.215  22.906  1.00  0.00     0.082 C 
ATOM      8  C   UNL A   1      31.130  25.109  23.206  1.00  0.00     0.095 C 
ATOM      9  C   UNL A   1      33.547  24.723  22.901  1.00  0.00     0.022 C 
ATOM     10  C   UNL A   1      32.252  24.071  23.384  1.00  0.00     0.059 C 
BRANCH   6  11
ATOM     11  N   UNL A   1      31.681  26.091  21.017  1.00  0.00    -0.343 N 
ATOM     12  H   UNL A   1      30.735  26.313  20.703  1.00  0.00     0.345 HD
ATOM     13  H   UNL A   1      31.890  25.116  20.800  1.00  0.00     0.345 HD
ATOM     14  H   UNL A   1      32.348  26.697  20.540  1.00  0.00     0.345 HD
ENDBRANCH   6  11
BRANCH  10  15
ATOM     15  S   UNL A   1      32.332  23.364  25.084  1.00  0.00    -0.122 SA
BRANCH  15  16
ATOM     16  C   UNL A   1      33.045  21.749  24.826  1.00  0.00     0.009 A 
ATOM     17  C   UNL A   1      32.220  20.635  24.637  1.00  0.00     0.017 A 
ATOM     18  C   UNL A   1      34.427  21.563  24.923  1.00  0.00     0.037 A 
ATOM     19  C   UNL A   1      32.770  19.355  24.519  1.00  0.00     0.023 A 
ATOM     20  C   UNL A   1      34.982  20.282  24.816  1.00  0.00     0.060 A 
ATOM     21  C   UNL A   1      34.152  19.174  24.613  1.00  0.00     0.059 A 
ATOM     22  Cl  UNL A   1      36.697  20.140  24.993  1.00  0.00    -0.083 Cl
ATOM     23  Cl  UNL A   1      34.768  17.563  24.515  1.00  0.00    -0.083 Cl
ENDBRANCH  15  16
ENDBRANCH  10  15
ENDBRANCH   4   6
ENDBRANCH   3   4
ENDBRANCH   2   3
ENDBRANCH   1   2
BRANCH   1  24
ATOM     24  O   UNL A   1      33.059  29.982  26.058  1.00  0.00    -0.458 OA
BRANCH  24  25
ATOM     25  C   UNL A   1      33.170  31.049  26.882  1.00  0.00     0.338 C 
ATOM     26  O   UNL A   1      32.388  31.974  27.018  1.00  0.00    -0.246 OA
BRANCH  25  27
ATOM     27  C   UNL A   1      34.410  30.930  27.654  1.00  0.00     0.060 A 
ATOM     28  C   UNL A   1      35.232  32.046  27.809  1.00  0.00     0.016 A 
ATOM     29  C   UNL A   1      34.800  29.680  28.127  1.00  0.00     0.016 A 
ATOM     30  C   UNL A   1      36.494  31.900  28.378  1.00  0.00     0.010 A 
ATOM     31  C   UNL A   1      36.024  29.558  28.782  1.00  0.00     0.010 A 
ATOM     32  C   UNL A   1      36.892  30.661  28.893  1.00  0.00    -0.014 A 
BRANCH  32  33
ATOM     33  C   UNL A   1      38.206  30.489  29.562  1.00  0.00     0.031 A 
ATOM     34  C   UNL A   1      39.245  29.604  28.935  1.00  0.00     0.074 A 
ATOM     35  C   UNL A   1      38.428  31.060  30.761  1.00  0.00     0.049 A 
ATOM     36  N   UNL A   1      40.312  29.071  29.468  1.00  0.00    -0.248 NA
ATOM     37  C   UNL A   1      39.032  29.253  27.523  1.00  0.00     0.031 C 
ATOM     38  C   UNL A   1      37.513  31.975  31.448  1.00  0.00     0.029 A 
ATOM     39  N   UNL A   1      39.480  30.925  31.633  1.00  0.00    -0.354 N 
ATOM     40  C   UNL A   1      40.869  28.268  28.475  1.00  0.00     0.074 A 
ATOM     41  C   UNL A   1      40.014  28.389  27.312  1.00  0.00     0.031 C 
ATOM     42  C   UNL A   1      38.034  32.306  32.638  1.00  0.00     0.029 A 
ATOM     43  C   UNL A   1      39.269  31.556  32.836  1.00  0.00     0.049 A 
ATOM     44  H   UNL A   1      40.301  30.425  31.418  1.00  0.00     0.167 HD
ATOM     45  C   UNL A   1      41.982  27.497  28.546  1.00  0.00     0.034 A 
ATOM     46  C   UNL A   1      39.948  31.482  33.997  1.00  0.00     0.034 A 
ATOM     47  C   UNL A   1      42.824  27.422  29.716  1.00  0.00     0.049 A 
ATOM     48  C   UNL A   1      41.155  30.592  34.071  1.00  0.00     0.074 A 
ATOM     49  C   UNL A   1      43.993  26.705  29.899  1.00  0.00     0.029 A 
ATOM     50  N   UNL A   1      42.580  28.091  30.911  1.00  0.00    -0.354 N 
ATOM     51  N   UNL A   1      41.654  29.803  33.147  1.00  0.00    -0.248 NA
ATOM     52  C   UNL A   1      41.888  30.574  35.343  1.00  0.00     0.031 C 
ATOM     53  C   UNL A   1      44.423  26.894  31.217  1.00  0.00     0.029 A 
ATOM     54  C   UNL A   1      43.562  27.782  31.840  1.00  0.00     0.049 A 
ATOM     55  H   UNL A   1      41.820  28.696  31.074  1.00  0.00     0.167 HD
ATOM     56  C   UNL A   1      42.771  29.206  33.721  1.00  0.00     0.074 A 
ATOM     57  C   UNL A   1      42.875  29.732  35.069  1.00  0.00     0.031 C 
ATOM     58  C   UNL A   1      43.638  28.312  33.182  1.00  0.00     0.034 A 
BRANCH  45  59
ATOM     59  C   UNL A   1      42.299  26.625  27.354  1.00  0.00     0.023 A 
ATOM     60  C   UNL A   1      41.901  25.279  27.282  1.00  0.00     0.031 A 
ATOM     61  C   UNL A   1      43.065  27.139  26.290  1.00  0.00     0.131 A 
ATOM     62  C   UNL A   1      42.338  24.475  26.217  1.00  0.00     0.055 A 
ATOM     63  C   UNL A   1      43.427  26.355  25.193  1.00  0.00     0.041 A 
ATOM     64  F   UNL A   1      43.495  28.411  26.311  1.00  0.00    -0.206 F 
ATOM     65  C   UNL A   1      43.079  25.009  25.160  1.00  0.00     0.022 A 
BRANCH  62  66
ATOM     66  S   UNL A   1      42.062  22.684  26.315  1.00  0.00     0.124 S 
ATOM     67  O   UNL A   1      42.642  22.226  25.054  1.00  0.00    -0.237 OA
ATOM     68  O   UNL A   1      42.792  22.319  27.523  1.00  0.00    -0.237 OA
ATOM     69  O   UNL A   1      40.609  22.563  26.403  1.00  0.00    -0.744 OA
ENDBRANCH  62  66
ENDBRANCH  45  59
BRANCH  46  70
ATOM     70  C   UNL A   1      39.441  32.208  35.194  1.00  0.00     0.023 A 
ATOM     71  C   UNL A   1      39.873  33.508  35.493  1.00  0.00     0.031 A 
ATOM     72  C   UNL A   1      38.491  31.612  36.045  1.00  0.00     0.131 A 
ATOM     73  C   UNL A   1      39.368  34.165  36.625  1.00  0.00     0.055 A 
ATOM     74  C   UNL A   1      37.961  32.286  37.145  1.00  0.00     0.041 A 
ATOM     75  F   UNL A   1      38.038  30.373  35.795  1.00  0.00    -0.206 F 
ATOM     76  C   UNL A   1      38.405  33.570  37.444  1.00  0.00     0.022 A 
BRANCH  73  77
ATOM     77  S   UNL A   1      40.017  35.808  37.036  1.00  0.00     0.124 S 
ATOM     78  O   UNL A   1      39.685  36.568  35.836  1.00  0.00    -0.237 OA
ATOM     79  O   UNL A   1      39.258  36.142  38.237  1.00  0.00    -0.237 OA
ATOM     80  O   UNL A   1      41.443  35.567  37.249  1.00  0.00    -0.744 OA
ENDBRANCH  73  77
ENDBRANCH  46  70
BRANCH  58  81
ATOM     81  C   UNL A   1      44.802  27.894  34.040  1.00  0.00     0.023 A 
ATOM     82  C   UNL A   1      44.734  26.772  34.883  1.00  0.00     0.031 A 
ATOM     83  C   UNL A   1      45.997  28.634  34.006  1.00  0.00     0.131 A 
ATOM     84  C   UNL A   1      45.835  26.441  35.688  1.00  0.00     0.055 A 
ATOM     85  C   UNL A   1      47.103  28.273  34.773  1.00  0.00     0.041 A 
ATOM     86  F   UNL A   1      46.108  29.715  33.218  1.00  0.00    -0.206 F 
ATOM     87  C   UNL A   1      47.023  27.176  35.627  1.00  0.00     0.022 A 
BRANCH  84  88
ATOM     88  S   UNL A   1      45.677  25.068  36.861  1.00  0.00     0.124 S 
ATOM     89  O   UNL A   1      46.526  24.049  36.250  1.00  0.00    -0.237 OA
ATOM     90  O   UNL A   1      46.175  25.654  38.101  1.00  0.00    -0.237 OA
ATOM     91  O   UNL A   1      44.246  24.770  36.850  1.00  0.00    -0.744 OA
ENDBRANCH  84  88
ENDBRANCH  58  81
ENDBRANCH  32  33
ENDBRANCH  25  27
ENDBRANCH  24  25
ENDBRANCH   1  24
TORSDOF 17
ENDMDL
