MODEL 1
REMARK VINA RESULT:     -11.8      0.000      0.000
REMARK SMILES Cc1ccc(S(=O)(=O)Nc2ccc(C(=O)CCC(=O)OCCOC(=O)c3ccc(-c4c5nc(c(-c6cc(S(=O)(=O)[O-])ccc6F)c6ccc([nH]6)c(-c6cc(S(=O)(=O)[O-])ccc6F)c6nc(c(-c7cc(S(=O)(=O)[O-])ccc7F)c7ccc4[nH]7)C=C6)C=C5)cc3)cc2)c(C)c1
REMARK SMILES IDX 20 1 18 2 19 3 17 4 16 5 14 6 15 7 13 8 10 9 11 10 90 11
REMARK SMILES IDX 12 12 89 13 9 14 6 16 7 17 8 18 5 19 1 20 2 21 3 22 93 23
REMARK SMILES IDX 4 24 91 25 92 26 21 27 22 28 23 29 24 30 25 31 26 32 27 33
REMARK SMILES IDX 88 34 28 35 87 36 29 37 30 38 31 39 81 40 32 41 86 42 80 43
REMARK SMILES IDX 82 44 33 45 85 46 79 47 78 48 34 50 66 51 46 52 65 53 47 54
REMARK SMILES IDX 50 55 64 56 83 57 48 58 49 59 63 61 84 62 51 63 35 64 36 65
REMARK SMILES IDX 44 66 37 67 43 68 45 69 42 70 38 71 39 72 40 73 41 74 67 75
REMARK SMILES IDX 68 76 76 77 69 78 75 79 77 80 74 81 70 82 71 83 72 84 73 85
REMARK SMILES IDX 52 86 53 87 61 88 54 89 60 90 62 91 59 92 55 93 56 94 57 95
REMARK SMILES IDX 58 96
REMARK H PARENT 9 15 82 49 50 60
REMARK Flexibility Score: inf
ROOT
ATOM      1  O   UNL A   1      37.456  21.111  24.899  1.00  0.00    -0.462 OA
ENDROOT
BRANCH   1   2
ATOM      2  C   UNL A   1      36.192  21.503  24.628  1.00  0.00     0.306 C 
ATOM      3  O   UNL A   1      35.884  22.336  23.786  1.00  0.00    -0.252 OA
BRANCH   2   4
ATOM      4  C   UNL A   1      35.182  20.782  25.494  1.00  0.00     0.131 C 
BRANCH   4   5
ATOM      5  C   UNL A   1      34.393  19.665  24.803  1.00  0.00     0.093 C 
BRANCH   5   6
ATOM      6  C   UNL A   1      32.898  19.816  25.028  1.00  0.00     0.163 C 
ATOM      7  O   UNL A   1      32.232  18.909  25.526  1.00  0.00    -0.294 OA
BRANCH   6   8
ATOM      8  C   UNL A   1      32.183  21.004  24.479  1.00  0.00     0.018 A 
ATOM      9  C   UNL A   1      31.368  23.445  23.356  1.00  0.00     0.049 A 
ATOM     10  C   UNL A   1      31.840  22.414  22.542  1.00  0.00     0.027 A 
ATOM     11  C   UNL A   1      31.104  23.169  24.696  1.00  0.00     0.027 A 
ATOM     12  C   UNL A   1      32.256  21.203  23.098  1.00  0.00     0.014 A 
ATOM     13  C   UNL A   1      31.533  21.954  25.268  1.00  0.00     0.014 A 
BRANCH   9  14
ATOM     14  N   UNL A   1      31.106  24.685  22.714  1.00  0.00    -0.280 N 
ATOM     15  H   UNL A   1      31.230  24.715  21.737  1.00  0.00     0.180 HD
BRANCH  14  16
ATOM     16  S   UNL A   1      30.603  26.105  23.456  1.00  0.00     0.262 S 
ATOM     17  O   UNL A   1      29.292  25.873  24.027  1.00  0.00    -0.201 OA
ATOM     18  O   UNL A   1      30.814  27.133  22.457  1.00  0.00    -0.201 OA
BRANCH  16  19
ATOM     19  C   UNL A   1      31.703  26.503  24.822  1.00  0.00     0.090 A 
ATOM     20  C   UNL A   1      34.052  28.940  27.476  1.00  0.00     0.044 C 
ATOM     21  C   UNL A   1      33.285  27.956  26.637  1.00  0.00    -0.051 A 
ATOM     22  C   UNL A   1      31.984  27.573  26.982  1.00  0.00     0.005 A 
ATOM     23  C   UNL A   1      33.850  27.433  25.472  1.00  0.00     0.008 A 
ATOM     24  C   UNL A   1      31.192  26.848  26.077  1.00  0.00     0.023 A 
ATOM     25  C   UNL A   1      33.078  26.692  24.557  1.00  0.00    -0.030 A 
ATOM     26  C   UNL A   1      33.805  26.074  23.395  1.00  0.00     0.046 C 
ENDBRANCH  16  19
ENDBRANCH  14  16
ENDBRANCH   9  14
ENDBRANCH   6   8
ENDBRANCH   5   6
ENDBRANCH   4   5
ENDBRANCH   2   4
ENDBRANCH   1   2
BRANCH   1  27
ATOM     27  C   UNL A   1      37.739  19.709  24.808  1.00  0.00     0.274 C 
BRANCH  27  28
ATOM     28  C   UNL A   1      38.981  19.326  25.610  1.00  0.00     0.275 C 
BRANCH  28  29
ATOM     29  O   UNL A   1      39.760  20.494  25.828  1.00  0.00    -0.458 OA
BRANCH  29  30
ATOM     30  C   UNL A   1      40.379  20.509  27.028  1.00  0.00     0.338 C 
ATOM     31  O   UNL A   1      40.816  19.577  27.685  1.00  0.00    -0.246 OA
BRANCH  30  32
ATOM     32  C   UNL A   1      40.638  21.915  27.281  1.00  0.00     0.060 A 
ATOM     33  C   UNL A   1      39.906  22.877  26.576  1.00  0.00     0.016 A 
ATOM     34  C   UNL A   1      41.565  22.244  28.267  1.00  0.00     0.016 A 
ATOM     35  C   UNL A   1      40.164  24.214  26.817  1.00  0.00     0.010 A 
ATOM     36  C   UNL A   1      41.806  23.578  28.520  1.00  0.00     0.010 A 
ATOM     37  C   UNL A   1      41.140  24.554  27.762  1.00  0.00    -0.014 A 
BRANCH  37  38
ATOM     38  C   UNL A   1      41.613  25.939  27.862  1.00  0.00     0.031 A 
ATOM     39  C   UNL A   1      42.971  26.245  27.315  1.00  0.00     0.074 A 
ATOM     40  C   UNL A   1      40.846  26.846  28.481  1.00  0.00     0.049 A 
ATOM     41  N   UNL A   1      43.682  27.332  27.420  1.00  0.00    -0.248 NA
ATOM     42  C   UNL A   1      43.635  25.154  26.579  1.00  0.00     0.031 C 
ATOM     43  C   UNL A   1      39.510  26.587  29.022  1.00  0.00     0.029 A 
ATOM     44  N   UNL A   1      41.090  28.153  28.781  1.00  0.00    -0.354 N 
ATOM     45  C   UNL A   1      44.884  27.053  26.778  1.00  0.00     0.074 A 
ATOM     46  C   UNL A   1      44.827  25.676  26.344  1.00  0.00     0.031 C 
ATOM     47  C   UNL A   1      39.056  27.707  29.608  1.00  0.00     0.029 A 
ATOM     48  C   UNL A   1      40.090  28.733  29.521  1.00  0.00     0.049 A 
ATOM     49  H   UNL A   1      41.901  28.632  28.497  1.00  0.00     0.167 HD
ATOM     50  C   UNL A   1      45.927  27.890  26.567  1.00  0.00     0.034 A 
ATOM     51  C   UNL A   1      40.046  29.950  30.089  1.00  0.00     0.034 A 
ATOM     52  C   UNL A   1      45.931  29.248  27.054  1.00  0.00     0.049 A 
ATOM     53  C   UNL A   1      41.228  30.858  29.876  1.00  0.00     0.074 A 
ATOM     54  C   UNL A   1      46.909  30.215  26.933  1.00  0.00     0.029 A 
ATOM     55  N   UNL A   1      44.888  29.825  27.777  1.00  0.00    -0.354 N 
ATOM     56  N   UNL A   1      42.363  30.602  29.260  1.00  0.00    -0.248 NA
ATOM     57  C   UNL A   1      41.118  32.216  30.409  1.00  0.00     0.031 C 
ATOM     58  C   UNL A   1      46.485  31.352  27.634  1.00  0.00     0.029 A 
ATOM     59  C   UNL A   1      45.206  31.127  28.125  1.00  0.00     0.049 A 
ATOM     60  H   UNL A   1      44.044  29.373  28.006  1.00  0.00     0.167 HD
ATOM     61  C   UNL A   1      43.099  31.780  29.313  1.00  0.00     0.074 A 
ATOM     62  C   UNL A   1      42.263  32.747  30.005  1.00  0.00     0.031 C 
ATOM     63  C   UNL A   1      44.345  32.047  28.837  1.00  0.00     0.034 A 
BRANCH  50  64
ATOM     64  C   UNL A   1      47.129  27.321  25.845  1.00  0.00     0.023 A 
ATOM     65  C   UNL A   1      48.105  26.562  26.520  1.00  0.00     0.031 A 
ATOM     66  C   UNL A   1      47.361  27.623  24.492  1.00  0.00     0.131 A 
ATOM     67  C   UNL A   1      49.308  26.228  25.878  1.00  0.00     0.055 A 
ATOM     68  C   UNL A   1      48.518  27.202  23.829  1.00  0.00     0.041 A 
ATOM     69  F   UNL A   1      46.487  28.367  23.797  1.00  0.00    -0.206 F 
ATOM     70  C   UNL A   1      49.511  26.521  24.528  1.00  0.00     0.022 A 
BRANCH  67  71
ATOM     71  S   UNL A   1      50.677  25.587  26.882  1.00  0.00     0.124 S 
ATOM     72  O   UNL A   1      51.656  25.235  25.856  1.00  0.00    -0.237 OA
ATOM     73  O   UNL A   1      51.016  26.730  27.721  1.00  0.00    -0.237 OA
ATOM     74  O   UNL A   1      50.086  24.450  27.584  1.00  0.00    -0.744 OA
ENDBRANCH  67  71
ENDBRANCH  50  64
BRANCH  51  75
ATOM     75  C   UNL A   1      38.865  30.345  30.904  1.00  0.00     0.023 A 
ATOM     76  C   UNL A   1      37.818  31.096  30.352  1.00  0.00     0.031 A 
ATOM     77  C   UNL A   1      38.749  29.937  32.246  1.00  0.00     0.131 A 
ATOM     78  C   UNL A   1      36.708  31.435  31.144  1.00  0.00     0.055 A 
ATOM     79  C   UNL A   1      37.625  30.238  33.016  1.00  0.00     0.041 A 
ATOM     80  F   UNL A   1      39.717  29.203  32.820  1.00  0.00    -0.206 F 
ATOM     81  C   UNL A   1      36.598  30.999  32.467  1.00  0.00     0.022 A 
BRANCH  78  82
ATOM     82  S   UNL A   1      35.425  32.498  30.430  1.00  0.00     0.124 S 
ATOM     83  O   UNL A   1      35.065  31.763  29.223  1.00  0.00    -0.237 OA
ATOM     84  O   UNL A   1      34.423  32.516  31.492  1.00  0.00    -0.237 OA
ATOM     85  O   UNL A   1      36.117  33.765  30.209  1.00  0.00    -0.744 OA
ENDBRANCH  78  82
ENDBRANCH  51  75
BRANCH  63  86
ATOM     86  C   UNL A   1      44.841  33.458  29.028  1.00  0.00     0.023 A 
ATOM     87  C   UNL A   1      45.585  33.828  30.159  1.00  0.00     0.031 A 
ATOM     88  C   UNL A   1      44.543  34.445  28.073  1.00  0.00     0.131 A 
ATOM     89  C   UNL A   1      45.946  35.169  30.344  1.00  0.00     0.055 A 
ATOM     90  C   UNL A   1      44.969  35.763  28.225  1.00  0.00     0.041 A 
ATOM     91  F   UNL A   1      43.832  34.142  26.974  1.00  0.00    -0.206 F 
ATOM     92  C   UNL A   1      45.660  36.136  29.376  1.00  0.00     0.022 A 
BRANCH  89  93
ATOM     93  S   UNL A   1      46.686  35.657  31.926  1.00  0.00     0.124 S 
ATOM     94  O   UNL A   1      47.959  34.942  31.895  1.00  0.00    -0.237 OA
ATOM     95  O   UNL A   1      46.767  37.108  31.798  1.00  0.00    -0.237 OA
ATOM     96  O   UNL A   1      45.726  35.174  32.916  1.00  0.00    -0.744 OA
ENDBRANCH  89  93
ENDBRANCH  63  86
ENDBRANCH  37  38
ENDBRANCH  30  32
ENDBRANCH  29  30
ENDBRANCH  28  29
ENDBRANCH  27  28
ENDBRANCH   1  27
TORSDOF 20
ENDMDL
MODEL 2
REMARK VINA RESULT:     -11.6      3.076      4.381
REMARK SMILES Cc1ccc(S(=O)(=O)Nc2ccc(C(=O)CCC(=O)OCCOC(=O)c3ccc(-c4c5nc(c(-c6cc(S(=O)(=O)[O-])ccc6F)c6ccc([nH]6)c(-c6cc(S(=O)(=O)[O-])ccc6F)c6nc(c(-c7cc(S(=O)(=O)[O-])ccc7F)c7ccc4[nH]7)C=C6)C=C5)cc3)cc2)c(C)c1
REMARK SMILES IDX 20 1 18 2 19 3 17 4 16 5 14 6 15 7 13 8 10 9 11 10 90 11
REMARK SMILES IDX 12 12 89 13 9 14 6 16 7 17 8 18 5 19 1 20 2 21 3 22 93 23
REMARK SMILES IDX 4 24 91 25 92 26 21 27 22 28 23 29 24 30 25 31 26 32 27 33
REMARK SMILES IDX 88 34 28 35 87 36 29 37 30 38 31 39 81 40 32 41 86 42 80 43
REMARK SMILES IDX 82 44 33 45 85 46 79 47 78 48 34 50 66 51 46 52 65 53 47 54
REMARK SMILES IDX 50 55 64 56 83 57 48 58 49 59 63 61 84 62 51 63 35 64 36 65
REMARK SMILES IDX 44 66 37 67 43 68 45 69 42 70 38 71 39 72 40 73 41 74 67 75
REMARK SMILES IDX 68 76 76 77 69 78 75 79 77 80 74 81 70 82 71 83 72 84 73 85
REMARK SMILES IDX 52 86 53 87 61 88 54 89 60 90 62 91 59 92 55 93 56 94 57 95
REMARK SMILES IDX 58 96
REMARK H PARENT 9 15 82 49 50 60
REMARK Flexibility Score: inf
ROOT
ATOM      1  O   UNL A   1      42.336  20.436  26.653  1.00  0.00    -0.462 OA
ENDROOT
BRANCH   1   2
ATOM      2  C   UNL A   1      41.511  21.461  26.348  1.00  0.00     0.306 C 
ATOM      3  O   UNL A   1      41.850  22.482  25.766  1.00  0.00    -0.252 OA
BRANCH   2   4
ATOM      4  C   UNL A   1      40.094  21.197  26.810  1.00  0.00     0.131 C 
BRANCH   4   5
ATOM      5  C   UNL A   1      38.998  21.458  25.771  1.00  0.00     0.093 C 
BRANCH   5   6
ATOM      6  C   UNL A   1      38.354  22.820  25.969  1.00  0.00     0.163 C 
ATOM      7  O   UNL A   1      38.666  23.543  26.916  1.00  0.00    -0.294 OA
BRANCH   6   8
ATOM      8  C   UNL A   1      37.199  23.223  25.117  1.00  0.00     0.018 A 
ATOM      9  C   UNL A   1      34.712  23.695  23.902  1.00  0.00     0.049 A 
ATOM     10  C   UNL A   1      35.100  24.424  25.028  1.00  0.00     0.027 A 
ATOM     11  C   UNL A   1      35.658  22.893  23.268  1.00  0.00     0.027 A 
ATOM     12  C   UNL A   1      36.331  24.184  25.641  1.00  0.00     0.014 A 
ATOM     13  C   UNL A   1      36.899  22.635  23.886  1.00  0.00     0.014 A 
BRANCH   9  14
ATOM     14  N   UNL A   1      33.386  23.910  23.439  1.00  0.00    -0.280 N 
ATOM     15  H   UNL A   1      32.759  23.155  23.519  1.00  0.00     0.180 HD
BRANCH  14  16
ATOM     16  S   UNL A   1      32.781  25.327  22.769  1.00  0.00     0.262 S 
ATOM     17  O   UNL A   1      31.391  25.104  22.428  1.00  0.00    -0.201 OA
ATOM     18  O   UNL A   1      33.752  25.695  21.759  1.00  0.00    -0.201 OA
BRANCH  16  19
ATOM     19  C   UNL A   1      32.812  26.643  23.994  1.00  0.00     0.090 A 
ATOM     20  C   UNL A   1      34.215  28.946  27.345  1.00  0.00     0.044 C 
ATOM     21  C   UNL A   1      33.598  28.251  26.164  1.00  0.00    -0.051 A 
ATOM     22  C   UNL A   1      33.934  28.615  24.856  1.00  0.00     0.005 A 
ATOM     23  C   UNL A   1      32.700  27.199  26.356  1.00  0.00     0.008 A 
ATOM     24  C   UNL A   1      33.543  27.814  23.771  1.00  0.00     0.023 A 
ATOM     25  C   UNL A   1      32.285  26.391  25.280  1.00  0.00    -0.030 A 
ATOM     26  C   UNL A   1      31.228  25.360  25.571  1.00  0.00     0.046 C 
ENDBRANCH  16  19
ENDBRANCH  14  16
ENDBRANCH   9  14
ENDBRANCH   6   8
ENDBRANCH   5   6
ENDBRANCH   4   5
ENDBRANCH   2   4
ENDBRANCH   1   2
BRANCH   1  27
ATOM     27  C   UNL A   1      42.217  19.243  25.868  1.00  0.00     0.274 C 
BRANCH  27  28
ATOM     28  C   UNL A   1      43.573  18.763  25.355  1.00  0.00     0.275 C 
BRANCH  28  29
ATOM     29  O   UNL A   1      44.010  19.642  24.328  1.00  0.00    -0.458 OA
BRANCH  29  30
ATOM     30  C   UNL A   1      45.293  20.039  24.472  1.00  0.00     0.338 C 
ATOM     31  O   UNL A   1      46.320  19.457  24.164  1.00  0.00    -0.246 OA
BRANCH  30  32
ATOM     32  C   UNL A   1      45.195  21.433  24.862  1.00  0.00     0.060 A 
ATOM     33  C   UNL A   1      44.765  22.374  23.920  1.00  0.00     0.016 A 
ATOM     34  C   UNL A   1      45.477  21.765  26.185  1.00  0.00     0.016 A 
ATOM     35  C   UNL A   1      44.683  23.702  24.297  1.00  0.00     0.010 A 
ATOM     36  C   UNL A   1      45.374  23.086  26.565  1.00  0.00     0.010 A 
ATOM     37  C   UNL A   1      45.025  24.053  25.609  1.00  0.00    -0.014 A 
BRANCH  37  38
ATOM     38  C   UNL A   1      45.189  25.465  25.971  1.00  0.00     0.031 A 
ATOM     39  C   UNL A   1      46.565  26.044  25.881  1.00  0.00     0.074 A 
ATOM     40  C   UNL A   1      44.128  26.151  26.415  1.00  0.00     0.049 A 
ATOM     41  N   UNL A   1      47.007  27.199  26.291  1.00  0.00    -0.248 NA
ATOM     42  C   UNL A   1      47.594  25.179  25.278  1.00  0.00     0.031 C 
ATOM     43  C   UNL A   1      42.766  25.622  26.511  1.00  0.00     0.029 A 
ATOM     44  N   UNL A   1      44.035  27.425  26.893  1.00  0.00    -0.354 N 
ATOM     45  C   UNL A   1      48.370  27.195  26.010  1.00  0.00     0.074 A 
ATOM     46  C   UNL A   1      48.689  25.900  25.454  1.00  0.00     0.031 C 
ATOM     47  C   UNL A   1      41.971  26.568  27.036  1.00  0.00     0.029 A 
ATOM     48  C   UNL A   1      42.782  27.740  27.353  1.00  0.00     0.049 A 
ATOM     49  H   UNL A   1      44.792  28.055  26.907  1.00  0.00     0.167 HD
ATOM     50  C   UNL A   1      49.259  28.200  26.195  1.00  0.00     0.034 A 
ATOM     51  C   UNL A   1      42.360  28.844  27.992  1.00  0.00     0.034 A 
ATOM     52  C   UNL A   1      48.879  29.461  26.783  1.00  0.00     0.049 A 
ATOM     53  C   UNL A   1      43.367  29.939  28.222  1.00  0.00     0.074 A 
ATOM     54  C   UNL A   1      49.658  30.571  27.046  1.00  0.00     0.029 A 
ATOM     55  N   UNL A   1      47.589  29.769  27.214  1.00  0.00    -0.354 N 
ATOM     56  N   UNL A   1      44.656  29.944  27.949  1.00  0.00    -0.248 NA
ATOM     57  C   UNL A   1      42.868  31.177  28.820  1.00  0.00     0.031 C 
ATOM     58  C   UNL A   1      48.856  31.521  27.691  1.00  0.00     0.029 A 
ATOM     59  C   UNL A   1      47.555  31.042  27.758  1.00  0.00     0.049 A 
ATOM     60  H   UNL A   1      46.813  29.168  27.142  1.00  0.00     0.167 HD
ATOM     61  C   UNL A   1      45.120  31.200  28.324  1.00  0.00     0.074 A 
ATOM     62  C   UNL A   1      43.962  31.924  28.823  1.00  0.00     0.031 C 
ATOM     63  C   UNL A   1      46.377  31.714  28.265  1.00  0.00     0.034 A 
BRANCH  50  64
ATOM     64  C   UNL A   1      50.697  27.924  25.812  1.00  0.00     0.023 A 
ATOM     65  C   UNL A   1      51.140  28.029  24.480  1.00  0.00     0.031 A 
ATOM     66  C   UNL A   1      51.614  27.451  26.768  1.00  0.00     0.131 A 
ATOM     67  C   UNL A   1      52.416  27.565  24.122  1.00  0.00     0.055 A 
ATOM     68  C   UNL A   1      52.917  27.083  26.421  1.00  0.00     0.041 A 
ATOM     69  F   UNL A   1      51.249  27.299  28.050  1.00  0.00    -0.206 F 
ATOM     70  C   UNL A   1      53.318  27.116  25.088  1.00  0.00     0.022 A 
BRANCH  67  71
ATOM     71  S   UNL A   1      52.804  27.370  22.359  1.00  0.00     0.124 S 
ATOM     72  O   UNL A   1      53.807  26.308  22.394  1.00  0.00    -0.237 OA
ATOM     73  O   UNL A   1      51.511  27.007  21.790  1.00  0.00    -0.237 OA
ATOM     74  O   UNL A   1      53.311  28.684  21.971  1.00  0.00    -0.744 OA
ENDBRANCH  67  71
ENDBRANCH  50  64
BRANCH  51  75
ATOM     75  C   UNL A   1      40.949  28.940  28.453  1.00  0.00     0.023 A 
ATOM     76  C   UNL A   1      40.623  28.889  29.816  1.00  0.00     0.031 A 
ATOM     77  C   UNL A   1      39.902  29.126  27.532  1.00  0.00     0.131 A 
ATOM     78  C   UNL A   1      39.283  29.002  30.219  1.00  0.00     0.055 A 
ATOM     79  C   UNL A   1      38.576  29.283  27.940  1.00  0.00     0.041 A 
ATOM     80  F   UNL A   1      40.160  29.199  26.215  1.00  0.00    -0.206 F 
ATOM     81  C   UNL A   1      38.260  29.213  29.292  1.00  0.00     0.022 A 
BRANCH  78  82
ATOM     82  S   UNL A   1      38.888  28.822  31.980  1.00  0.00     0.124 S 
ATOM     83  O   UNL A   1      39.784  27.743  32.378  1.00  0.00    -0.237 OA
ATOM     84  O   UNL A   1      39.210  30.147  32.499  1.00  0.00    -0.237 OA
ATOM     85  O   UNL A   1      37.466  28.485  31.977  1.00  0.00    -0.744 OA
ENDBRANCH  78  82
ENDBRANCH  51  75
BRANCH  63  86
ATOM     86  C   UNL A   1      46.534  33.142  28.722  1.00  0.00     0.023 A 
ATOM     87  C   UNL A   1      46.370  34.220  27.837  1.00  0.00     0.031 A 
ATOM     88  C   UNL A   1      46.874  33.421  30.057  1.00  0.00     0.131 A 
ATOM     89  C   UNL A   1      46.617  35.525  28.280  1.00  0.00     0.055 A 
ATOM     90  C   UNL A   1      47.046  34.727  30.511  1.00  0.00     0.041 A 
ATOM     91  F   UNL A   1      47.045  32.425  30.942  1.00  0.00    -0.206 F 
ATOM     92  C   UNL A   1      46.935  35.789  29.616  1.00  0.00     0.022 A 
BRANCH  89  93
ATOM     93  S   UNL A   1      46.640  36.865  27.059  1.00  0.00     0.124 S 
ATOM     94  O   UNL A   1      46.912  36.138  25.822  1.00  0.00    -0.237 OA
ATOM     95  O   UNL A   1      45.298  37.424  27.186  1.00  0.00    -0.237 OA
ATOM     96  O   UNL A   1      47.721  37.732  27.521  1.00  0.00    -0.744 OA
ENDBRANCH  89  93
ENDBRANCH  63  86
ENDBRANCH  37  38
ENDBRANCH  30  32
ENDBRANCH  29  30
ENDBRANCH  28  29
ENDBRANCH  27  28
ENDBRANCH   1  27
TORSDOF 20
ENDMDL
MODEL 3
REMARK VINA RESULT:     -11.5      5.719     11.445
REMARK SMILES Cc1ccc(S(=O)(=O)Nc2ccc(C(=O)CCC(=O)OCCOC(=O)c3ccc(-c4c5nc(c(-c6cc(S(=O)(=O)[O-])ccc6F)c6ccc([nH]6)c(-c6cc(S(=O)(=O)[O-])ccc6F)c6nc(c(-c7cc(S(=O)(=O)[O-])ccc7F)c7ccc4[nH]7)C=C6)C=C5)cc3)cc2)c(C)c1
REMARK SMILES IDX 20 1 18 2 19 3 17 4 16 5 14 6 15 7 13 8 10 9 11 10 90 11
REMARK SMILES IDX 12 12 89 13 9 14 6 16 7 17 8 18 5 19 1 20 2 21 3 22 93 23
REMARK SMILES IDX 4 24 91 25 92 26 21 27 22 28 23 29 24 30 25 31 26 32 27 33
REMARK SMILES IDX 88 34 28 35 87 36 29 37 30 38 31 39 81 40 32 41 86 42 80 43
REMARK SMILES IDX 82 44 33 45 85 46 79 47 78 48 34 50 66 51 46 52 65 53 47 54
REMARK SMILES IDX 50 55 64 56 83 57 48 58 49 59 63 61 84 62 51 63 35 64 36 65
REMARK SMILES IDX 44 66 37 67 43 68 45 69 42 70 38 71 39 72 40 73 41 74 67 75
REMARK SMILES IDX 68 76 76 77 69 78 75 79 77 80 74 81 70 82 71 83 72 84 73 85
REMARK SMILES IDX 52 86 53 87 61 88 54 89 60 90 62 91 59 92 55 93 56 94 57 95
REMARK SMILES IDX 58 96
REMARK H PARENT 9 15 82 49 50 60
REMARK Flexibility Score: inf
ROOT
ATOM      1  O   UNL A   1      33.514  34.338  28.888  1.00  0.00    -0.462 OA
ENDROOT
BRANCH   1   2
ATOM      2  C   UNL A   1      34.751  33.794  28.876  1.00  0.00     0.306 C 
ATOM      3  O   UNL A   1      35.792  34.426  28.760  1.00  0.00    -0.252 OA
BRANCH   2   4
ATOM      4  C   UNL A   1      34.703  32.289  29.030  1.00  0.00     0.131 C 
BRANCH   4   5
ATOM      5  C   UNL A   1      33.839  31.545  28.006  1.00  0.00     0.093 C 
BRANCH   5   6
ATOM      6  C   UNL A   1      34.531  30.290  27.499  1.00  0.00     0.163 C 
ATOM      7  O   UNL A   1      35.741  30.273  27.277  1.00  0.00    -0.294 OA
BRANCH   6   8
ATOM      8  C   UNL A   1      33.716  29.111  27.089  1.00  0.00     0.018 A 
ATOM      9  C   UNL A   1      32.260  27.094  25.786  1.00  0.00     0.049 A 
ATOM     10  C   UNL A   1      33.656  27.076  25.780  1.00  0.00     0.027 A 
ATOM     11  C   UNL A   1      31.608  27.996  26.624  1.00  0.00     0.027 A 
ATOM     12  C   UNL A   1      34.383  28.083  26.418  1.00  0.00     0.014 A 
ATOM     13  C   UNL A   1      32.333  29.024  27.262  1.00  0.00     0.014 A 
BRANCH   9  14
ATOM     14  N   UNL A   1      31.614  26.110  24.990  1.00  0.00    -0.280 N 
ATOM     15  H   UNL A   1      31.201  26.418  24.151  1.00  0.00     0.180 HD
BRANCH  14  16
ATOM     16  S   UNL A   1      31.488  24.472  25.339  1.00  0.00     0.262 S 
ATOM     17  O   UNL A   1      30.704  23.849  24.292  1.00  0.00    -0.201 OA
ATOM     18  O   UNL A   1      31.060  24.426  26.723  1.00  0.00    -0.201 OA
BRANCH  16  19
ATOM     19  C   UNL A   1      33.116  23.710  25.295  1.00  0.00     0.090 A 
ATOM     20  C   UNL A   1      37.393  23.409  25.636  1.00  0.00     0.044 C 
ATOM     21  C   UNL A   1      35.900  23.353  25.471  1.00  0.00    -0.051 A 
ATOM     22  C   UNL A   1      35.071  22.977  26.533  1.00  0.00     0.005 A 
ATOM     23  C   UNL A   1      35.312  23.711  24.256  1.00  0.00     0.008 A 
ATOM     24  C   UNL A   1      33.680  23.155  26.448  1.00  0.00     0.023 A 
ATOM     25  C   UNL A   1      33.918  23.883  24.145  1.00  0.00    -0.030 A 
ATOM     26  C   UNL A   1      33.373  24.155  22.769  1.00  0.00     0.046 C 
ENDBRANCH  16  19
ENDBRANCH  14  16
ENDBRANCH   9  14
ENDBRANCH   6   8
ENDBRANCH   5   6
ENDBRANCH   4   5
ENDBRANCH   2   4
ENDBRANCH   1   2
BRANCH   1  27
ATOM     27  C   UNL A   1      33.423  35.758  28.715  1.00  0.00     0.274 C 
BRANCH  27  28
ATOM     28  C   UNL A   1      32.832  36.442  29.946  1.00  0.00     0.275 C 
BRANCH  28  29
ATOM     29  O   UNL A   1      32.584  35.459  30.941  1.00  0.00    -0.458 OA
BRANCH  29  30
ATOM     30  C   UNL A   1      33.062  35.795  32.158  1.00  0.00     0.338 C 
ATOM     31  O   UNL A   1      32.584  36.543  32.996  1.00  0.00    -0.246 OA
BRANCH  30  32
ATOM     32  C   UNL A   1      34.171  34.884  32.373  1.00  0.00     0.060 A 
ATOM     33  C   UNL A   1      33.902  33.563  32.746  1.00  0.00     0.016 A 
ATOM     34  C   UNL A   1      35.461  35.353  32.135  1.00  0.00     0.016 A 
ATOM     35  C   UNL A   1      34.964  32.703  32.956  1.00  0.00     0.010 A 
ATOM     36  C   UNL A   1      36.518  34.489  32.325  1.00  0.00     0.010 A 
ATOM     37  C   UNL A   1      36.268  33.184  32.780  1.00  0.00    -0.014 A 
BRANCH  37  38
ATOM     38  C   UNL A   1      37.412  32.385  33.231  1.00  0.00     0.031 A 
ATOM     39  C   UNL A   1      38.031  32.746  34.544  1.00  0.00     0.074 A 
ATOM     40  C   UNL A   1      37.884  31.418  32.434  1.00  0.00     0.049 A 
ATOM     41  N   UNL A   1      39.133  32.314  35.088  1.00  0.00    -0.248 NA
ATOM     42  C   UNL A   1      37.323  33.769  35.334  1.00  0.00     0.031 C 
ATOM     43  C   UNL A   1      37.303  31.030  31.147  1.00  0.00     0.029 A 
ATOM     44  N   UNL A   1      38.971  30.607  32.577  1.00  0.00    -0.354 N 
ATOM     45  C   UNL A   1      39.261  33.022  36.278  1.00  0.00     0.074 A 
ATOM     46  C   UNL A   1      38.158  33.954  36.343  1.00  0.00     0.031 C 
ATOM     47  C   UNL A   1      38.057  30.059  30.607  1.00  0.00     0.029 A 
ATOM     48  C   UNL A   1      39.191  29.800  31.489  1.00  0.00     0.049 A 
ATOM     49  H   UNL A   1      39.542  30.602  33.379  1.00  0.00     0.167 HD
ATOM     50  C   UNL A   1      40.216  32.884  37.229  1.00  0.00     0.034 A 
ATOM     51  C   UNL A   1      40.220  28.975  31.231  1.00  0.00     0.034 A 
ATOM     52  C   UNL A   1      41.308  31.953  37.088  1.00  0.00     0.049 A 
ATOM     53  C   UNL A   1      41.292  28.858  32.282  1.00  0.00     0.074 A 
ATOM     54  C   UNL A   1      42.356  31.700  37.951  1.00  0.00     0.029 A 
ATOM     55  N   UNL A   1      41.492  31.119  35.985  1.00  0.00    -0.354 N 
ATOM     56  N   UNL A   1      41.413  29.519  33.414  1.00  0.00    -0.248 NA
ATOM     57  C   UNL A   1      42.349  27.876  32.035  1.00  0.00     0.031 C 
ATOM     58  C   UNL A   1      43.204  30.765  37.343  1.00  0.00     0.029 A 
ATOM     59  C   UNL A   1      42.645  30.368  36.136  1.00  0.00     0.049 A 
ATOM     60  H   UNL A   1      40.887  31.071  35.209  1.00  0.00     0.167 HD
ATOM     61  C   UNL A   1      42.553  29.014  34.030  1.00  0.00     0.074 A 
ATOM     62  C   UNL A   1      43.065  27.981  33.145  1.00  0.00     0.031 C 
ATOM     63  C   UNL A   1      43.127  29.363  35.212  1.00  0.00     0.034 A 
BRANCH  50  64
ATOM     64  C   UNL A   1      40.126  33.799  38.431  1.00  0.00     0.023 A 
ATOM     65  C   UNL A   1      39.389  33.443  39.577  1.00  0.00     0.031 A 
ATOM     66  C   UNL A   1      40.695  35.084  38.397  1.00  0.00     0.131 A 
ATOM     67  C   UNL A   1      39.148  34.391  40.584  1.00  0.00     0.055 A 
ATOM     68  C   UNL A   1      40.534  35.991  39.449  1.00  0.00     0.041 A 
ATOM     69  F   UNL A   1      41.385  35.499  37.324  1.00  0.00    -0.206 F 
ATOM     70  C   UNL A   1      39.737  35.656  40.540  1.00  0.00     0.022 A 
BRANCH  67  71
ATOM     71  S   UNL A   1      37.896  34.017  41.844  1.00  0.00     0.124 S 
ATOM     72  O   UNL A   1      37.603  35.347  42.373  1.00  0.00    -0.237 OA
ATOM     73  O   UNL A   1      36.836  33.394  41.061  1.00  0.00    -0.237 OA
ATOM     74  O   UNL A   1      38.595  33.128  42.770  1.00  0.00    -0.744 OA
ENDBRANCH  67  71
ENDBRANCH  50  64
BRANCH  51  75
ATOM     75  C   UNL A   1      40.273  28.236  29.942  1.00  0.00     0.023 A 
ATOM     76  C   UNL A   1      41.200  28.573  28.946  1.00  0.00     0.031 A 
ATOM     77  C   UNL A   1      39.416  27.145  29.704  1.00  0.00     0.131 A 
ATOM     78  C   UNL A   1      41.236  27.842  27.748  1.00  0.00     0.055 A 
ATOM     79  C   UNL A   1      39.485  26.392  28.530  1.00  0.00     0.041 A 
ATOM     80  F   UNL A   1      38.520  26.769  30.631  1.00  0.00    -0.206 F 
ATOM     81  C   UNL A   1      40.396  26.745  27.539  1.00  0.00     0.022 A 
BRANCH  78  82
ATOM     82  S   UNL A   1      42.372  28.375  26.439  1.00  0.00     0.124 S 
ATOM     83  O   UNL A   1      43.553  27.568  26.722  1.00  0.00    -0.237 OA
ATOM     84  O   UNL A   1      41.630  28.022  25.233  1.00  0.00    -0.237 OA
ATOM     85  O   UNL A   1      42.521  29.808  26.680  1.00  0.00    -0.744 OA
ENDBRANCH  78  82
ENDBRANCH  51  75
BRANCH  63  86
ATOM     86  C   UNL A   1      44.352  28.582  35.613  1.00  0.00     0.023 A 
ATOM     87  C   UNL A   1      44.260  27.417  36.391  1.00  0.00     0.031 A 
ATOM     88  C   UNL A   1      45.628  29.026  35.227  1.00  0.00     0.131 A 
ATOM     89  C   UNL A   1      45.428  26.773  36.820  1.00  0.00     0.055 A 
ATOM     90  C   UNL A   1      46.785  28.339  35.594  1.00  0.00     0.041 A 
ATOM     91  F   UNL A   1      45.771  30.136  34.485  1.00  0.00    -0.206 F 
ATOM     92  C   UNL A   1      46.689  27.215  36.411  1.00  0.00     0.022 A 
BRANCH  89  93
ATOM     93  S   UNL A   1      45.282  25.424  38.022  1.00  0.00     0.124 S 
ATOM     94  O   UNL A   1      45.318  26.146  39.290  1.00  0.00    -0.237 OA
ATOM     95  O   UNL A   1      43.999  24.827  37.666  1.00  0.00    -0.237 OA
ATOM     96  O   UNL A   1      46.451  24.593  37.747  1.00  0.00    -0.744 OA
ENDBRANCH  89  93
ENDBRANCH  63  86
ENDBRANCH  37  38
ENDBRANCH  30  32
ENDBRANCH  29  30
ENDBRANCH  28  29
ENDBRANCH  27  28
ENDBRANCH   1  27
TORSDOF 20
ENDMDL
