MODEL 1
REMARK VINA RESULT:      -9.2      0.000      0.000
REMARK SMILES COc1ccc(-c2ccc(CCC(=O)OCCOC(=O)c3ccc(-c4c5nc(c(-c6cc(S(=O)(=O)[O-])ccc6F)c6ccc([nH]6)c(-c6cc(S(=O)(=O)[O-])ccc6F)c6nc(c(-c7cc(S(=O)(=O)[O-])ccc7F)c7ccc4[nH]7)C=C6)C=C5)cc3)n2-c2ccc(C(C)=O)cc2)cc1
REMARK SMILES IDX 16 1 15 2 13 3 14 4 12 5 11 6 10 7 7 8 8 9 84 10 9 11 6 12
REMARK SMILES IDX 3 13 4 14 95 15 5 16 94 17 2 18 1 19 85 20 86 21 93 22 87 23
REMARK SMILES IDX 92 24 88 25 89 26 90 27 91 28 17 29 18 30 19 31 20 32 21 33
REMARK SMILES IDX 22 34 83 35 23 36 82 37 24 38 25 39 26 40 76 41 27 42 81 43
REMARK SMILES IDX 75 44 77 45 28 46 80 47 74 48 73 49 29 51 61 52 41 53 60 54
REMARK SMILES IDX 42 55 45 56 59 57 78 58 43 59 44 60 58 62 79 63 46 64 30 65
REMARK SMILES IDX 31 66 39 67 32 68 38 69 40 70 37 71 33 72 34 73 35 74 36 75
REMARK SMILES IDX 62 76 63 77 71 78 64 79 70 80 72 81 69 82 65 83 66 84 67 85
REMARK SMILES IDX 68 86 47 87 48 88 56 89 49 90 55 91 57 92 54 93 50 94 51 95
REMARK SMILES IDX 52 96 53 97
REMARK H PARENT 77 50 45 61
REMARK Flexibility Score: inf
ROOT
ATOM      1  C   UNL A   1      47.015  37.322  33.776  1.00  0.00     0.274 C 
ENDROOT
BRANCH   1   2
ATOM      2  O   UNL A   1      46.005  36.369  34.162  1.00  0.00    -0.462 OA
BRANCH   2   3
ATOM      3  C   UNL A   1      44.766  36.526  33.629  1.00  0.00     0.306 C 
ATOM      4  O   UNL A   1      43.847  35.726  33.768  1.00  0.00    -0.252 OA
BRANCH   3   5
ATOM      5  C   UNL A   1      44.656  37.758  32.756  1.00  0.00     0.129 C 
BRANCH   5   6
ATOM      6  C   UNL A   1      44.382  37.542  31.265  1.00  0.00     0.066 C 
BRANCH   6   7
ATOM      7  C   UNL A   1      43.805  38.748  30.568  1.00  0.00     0.024 A 
ATOM      8  C   UNL A   1      43.281  40.145  28.872  1.00  0.00     0.053 A 
ATOM      9  C   UNL A   1      43.155  40.851  30.052  1.00  0.00     0.029 A 
ATOM     10  N   UNL A   1      43.566  38.822  29.200  1.00  0.00    -0.314 N 
ATOM     11  C   UNL A   1      43.427  39.968  31.101  1.00  0.00     0.024 A 
BRANCH   8  12
ATOM     12  C   UNL A   1      42.944  40.657  27.554  1.00  0.00    -0.001 A 
ATOM     13  C   UNL A   1      42.328  41.446  24.947  1.00  0.00     0.118 A 
ATOM     14  C   UNL A   1      43.626  41.593  25.436  1.00  0.00     0.047 A 
ATOM     15  C   UNL A   1      41.340  40.879  25.756  1.00  0.00     0.047 A 
ATOM     16  C   UNL A   1      43.935  41.205  26.737  1.00  0.00     0.014 A 
ATOM     17  C   UNL A   1      41.649  40.484  27.058  1.00  0.00     0.014 A 
BRANCH  13  18
ATOM     18  O   UNL A   1      42.146  41.839  23.650  1.00  0.00    -0.497 OA
ATOM     19  C   UNL A   1      43.080  42.800  23.177  1.00  0.00     0.278 C 
ENDBRANCH  13  18
ENDBRANCH   8  12
BRANCH  10  20
ATOM     20  C   UNL A   1      43.564  37.723  28.308  1.00  0.00     0.046 A 
ATOM     21  C   UNL A   1      44.730  37.435  27.589  1.00  0.00     0.027 A 
ATOM     22  C   UNL A   1      42.425  36.934  28.164  1.00  0.00     0.027 A 
ATOM     23  C   UNL A   1      44.754  36.355  26.704  1.00  0.00     0.014 A 
ATOM     24  C   UNL A   1      42.450  35.869  27.261  1.00  0.00     0.014 A 
ATOM     25  C   UNL A   1      43.611  35.568  26.525  1.00  0.00     0.017 A 
BRANCH  25  26
ATOM     26  C   UNL A   1      43.551  34.413  25.576  1.00  0.00     0.159 C 
ATOM     27  C   UNL A   1      44.383  33.175  25.798  1.00  0.00     0.093 C 
ATOM     28  O   UNL A   1      42.794  34.473  24.605  1.00  0.00    -0.295 OA
ENDBRANCH  25  26
ENDBRANCH  10  20
ENDBRANCH   6   7
ENDBRANCH   5   6
ENDBRANCH   3   5
ENDBRANCH   2   3
ENDBRANCH   1   2
BRANCH   1  29
ATOM     29  C   UNL A   1      48.161  36.730  32.941  1.00  0.00     0.275 C 
BRANCH  29  30
ATOM     30  O   UNL A   1      47.909  35.412  32.430  1.00  0.00    -0.458 OA
BRANCH  30  31
ATOM     31  C   UNL A   1      47.441  35.452  31.167  1.00  0.00     0.338 C 
ATOM     32  O   UNL A   1      47.560  36.371  30.380  1.00  0.00    -0.246 OA
BRANCH  31  33
ATOM     33  C   UNL A   1      46.550  34.381  30.786  1.00  0.00     0.060 A 
ATOM     34  C   UNL A   1      45.947  34.492  29.524  1.00  0.00     0.016 A 
ATOM     35  C   UNL A   1      46.008  33.613  31.816  1.00  0.00     0.016 A 
ATOM     36  C   UNL A   1      44.741  33.862  29.304  1.00  0.00     0.010 A 
ATOM     37  C   UNL A   1      44.787  33.002  31.602  1.00  0.00     0.010 A 
ATOM     38  C   UNL A   1      44.163  33.135  30.349  1.00  0.00    -0.014 A 
BRANCH  38  39
ATOM     39  C   UNL A   1      43.026  32.266  30.018  1.00  0.00     0.031 A 
ATOM     40  C   UNL A   1      43.549  30.993  29.300  1.00  0.00     0.074 A 
ATOM     41  C   UNL A   1      41.784  32.727  30.371  1.00  0.00     0.049 A 
ATOM     42  N   UNL A   1      42.947  30.166  28.505  1.00  0.00    -0.248 NA
ATOM     43  C   UNL A   1      45.001  30.635  29.411  1.00  0.00     0.031 C 
ATOM     44  C   UNL A   1      41.499  34.023  31.041  1.00  0.00     0.029 A 
ATOM     45  N   UNL A   1      40.510  32.216  30.246  1.00  0.00    -0.354 N 
ATOM     46  C   UNL A   1      43.827  29.073  28.292  1.00  0.00     0.074 A 
ATOM     47  C   UNL A   1      45.115  29.500  28.725  1.00  0.00     0.031 C 
ATOM     48  C   UNL A   1      40.165  34.219  31.189  1.00  0.00     0.029 A 
ATOM     49  C   UNL A   1      39.447  33.067  30.679  1.00  0.00     0.049 A 
ATOM     50  H   UNL A   1      40.342  31.318  29.879  1.00  0.00     0.167 HD
ATOM     51  C   UNL A   1      43.394  27.824  27.950  1.00  0.00     0.034 A 
ATOM     52  C   UNL A   1      38.093  32.852  30.601  1.00  0.00     0.034 A 
ATOM     53  C   UNL A   1      41.985  27.856  27.744  1.00  0.00     0.049 A 
ATOM     54  C   UNL A   1      37.992  31.449  30.172  1.00  0.00     0.074 A 
ATOM     55  C   UNL A   1      41.200  28.450  26.793  1.00  0.00     0.029 A 
ATOM     56  N   UNL A   1      41.198  27.485  28.810  1.00  0.00    -0.354 N 
ATOM     57  N   UNL A   1      38.232  30.425  30.931  1.00  0.00    -0.248 NA
ATOM     58  C   UNL A   1      37.659  31.164  28.770  1.00  0.00     0.031 C 
ATOM     59  C   UNL A   1      40.083  28.881  27.534  1.00  0.00     0.029 A 
ATOM     60  C   UNL A   1      40.132  28.344  28.828  1.00  0.00     0.049 A 
ATOM     61  H   UNL A   1      41.369  26.746  29.438  1.00  0.00     0.167 HD
ATOM     62  C   UNL A   1      38.387  29.412  30.022  1.00  0.00     0.074 A 
ATOM     63  C   UNL A   1      37.710  29.835  28.815  1.00  0.00     0.031 C 
ATOM     64  C   UNL A   1      39.482  28.612  30.094  1.00  0.00     0.034 A 
BRANCH  51  65
ATOM     65  C   UNL A   1      44.033  26.457  28.034  1.00  0.00     0.023 A 
ATOM     66  C   UNL A   1      44.208  25.796  26.792  1.00  0.00     0.031 A 
ATOM     67  C   UNL A   1      44.141  25.657  29.178  1.00  0.00     0.131 A 
ATOM     68  C   UNL A   1      44.267  24.402  26.705  1.00  0.00     0.055 A 
ATOM     69  C   UNL A   1      44.302  24.264  29.092  1.00  0.00     0.041 A 
ATOM     70  F   UNL A   1      44.012  26.161  30.411  1.00  0.00    -0.206 F 
ATOM     71  C   UNL A   1      44.313  23.625  27.854  1.00  0.00     0.022 A 
BRANCH  68  72
ATOM     72  S   UNL A   1      44.036  23.652  25.068  1.00  0.00     0.124 S 
ATOM     73  O   UNL A   1      42.923  24.429  24.532  1.00  0.00    -0.237 OA
ATOM     74  O   UNL A   1      45.334  23.883  24.442  1.00  0.00    -0.237 OA
ATOM     75  O   UNL A   1      43.732  22.257  25.376  1.00  0.00    -0.744 OA
ENDBRANCH  68  72
ENDBRANCH  51  65
BRANCH  52  76
ATOM     76  C   UNL A   1      36.750  33.562  30.770  1.00  0.00     0.023 A 
ATOM     77  C   UNL A   1      35.903  34.046  29.756  1.00  0.00     0.031 A 
ATOM     78  C   UNL A   1      36.212  33.701  32.095  1.00  0.00     0.131 A 
ATOM     79  C   UNL A   1      34.600  34.536  30.085  1.00  0.00     0.055 A 
ATOM     80  C   UNL A   1      34.908  34.085  32.397  1.00  0.00     0.041 A 
ATOM     81  F   UNL A   1      36.940  33.462  33.194  1.00  0.00    -0.206 F 
ATOM     82  C   UNL A   1      34.083  34.493  31.383  1.00  0.00     0.022 A 
BRANCH  79  83
ATOM     83  S   UNL A   1      33.493  35.254  28.831  1.00  0.00     0.124 S 
ATOM     84  O   UNL A   1      34.433  35.968  27.973  1.00  0.00    -0.237 OA
ATOM     85  O   UNL A   1      32.850  34.082  28.247  1.00  0.00    -0.237 OA
ATOM     86  O   UNL A   1      32.606  36.110  29.621  1.00  0.00    -0.744 OA
ENDBRANCH  79  83
ENDBRANCH  52  76
BRANCH  64  87
ATOM     87  C   UNL A   1      40.103  28.495  31.488  1.00  0.00     0.023 A 
ATOM     88  C   UNL A   1      41.387  29.016  31.740  1.00  0.00     0.031 A 
ATOM     89  C   UNL A   1      39.513  27.788  32.551  1.00  0.00     0.131 A 
ATOM     90  C   UNL A   1      42.031  28.800  32.978  1.00  0.00     0.055 A 
ATOM     91  C   UNL A   1      40.146  27.572  33.782  1.00  0.00     0.041 A 
ATOM     92  F   UNL A   1      38.295  27.266  32.433  1.00  0.00    -0.206 F 
ATOM     93  C   UNL A   1      41.418  28.076  34.000  1.00  0.00     0.022 A 
BRANCH  90  94
ATOM     94  S   UNL A   1      43.682  29.498  33.258  1.00  0.00     0.124 S 
ATOM     95  O   UNL A   1      44.050  28.941  34.555  1.00  0.00    -0.237 OA
ATOM     96  O   UNL A   1      44.436  29.002  32.111  1.00  0.00    -0.237 OA
ATOM     97  O   UNL A   1      43.448  30.943  33.254  1.00  0.00    -0.744 OA
ENDBRANCH  90  94
ENDBRANCH  64  87
ENDBRANCH  38  39
ENDBRANCH  31  33
ENDBRANCH  30  31
ENDBRANCH  29  30
ENDBRANCH   1  29
TORSDOF 20
ENDMDL
MODEL 2
REMARK VINA RESULT:      -9.1      4.454     10.208
REMARK SMILES COc1ccc(-c2ccc(CCC(=O)OCCOC(=O)c3ccc(-c4c5nc(c(-c6cc(S(=O)(=O)[O-])ccc6F)c6ccc([nH]6)c(-c6cc(S(=O)(=O)[O-])ccc6F)c6nc(c(-c7cc(S(=O)(=O)[O-])ccc7F)c7ccc4[nH]7)C=C6)C=C5)cc3)n2-c2ccc(C(C)=O)cc2)cc1
REMARK SMILES IDX 16 1 15 2 13 3 14 4 12 5 11 6 10 7 7 8 8 9 84 10 9 11 6 12
REMARK SMILES IDX 3 13 4 14 95 15 5 16 94 17 2 18 1 19 85 20 86 21 93 22 87 23
REMARK SMILES IDX 92 24 88 25 89 26 90 27 91 28 17 29 18 30 19 31 20 32 21 33
REMARK SMILES IDX 22 34 83 35 23 36 82 37 24 38 25 39 26 40 76 41 27 42 81 43
REMARK SMILES IDX 75 44 77 45 28 46 80 47 74 48 73 49 29 51 61 52 41 53 60 54
REMARK SMILES IDX 42 55 45 56 59 57 78 58 43 59 44 60 58 62 79 63 46 64 30 65
REMARK SMILES IDX 31 66 39 67 32 68 38 69 40 70 37 71 33 72 34 73 35 74 36 75
REMARK SMILES IDX 62 76 63 77 71 78 64 79 70 80 72 81 69 82 65 83 66 84 67 85
REMARK SMILES IDX 68 86 47 87 48 88 56 89 49 90 55 91 57 92 54 93 50 94 51 95
REMARK SMILES IDX 52 96 53 97
REMARK H PARENT 77 50 45 61
REMARK Flexibility Score: inf
ROOT
ATOM      1  C   UNL A   1      45.626  26.736  26.096  1.00  0.00     0.274 C 
ENDROOT
BRANCH   1   2
ATOM      2  O   UNL A   1      45.570  27.172  27.469  1.00  0.00    -0.462 OA
BRANCH   2   3
ATOM      3  C   UNL A   1      46.525  28.043  27.884  1.00  0.00     0.306 C 
ATOM      4  O   UNL A   1      46.711  29.151  27.392  1.00  0.00    -0.252 OA
BRANCH   3   5
ATOM      5  C   UNL A   1      47.411  27.468  28.969  1.00  0.00     0.129 C 
BRANCH   5   6
ATOM      6  C   UNL A   1      47.263  25.977  29.282  1.00  0.00     0.066 C 
BRANCH   6   7
ATOM      7  C   UNL A   1      46.921  25.685  30.722  1.00  0.00     0.024 A 
ATOM      8  C   UNL A   1      45.642  25.389  32.560  1.00  0.00     0.053 A 
ATOM      9  C   UNL A   1      46.941  25.593  32.980  1.00  0.00     0.029 A 
ATOM     10  N   UNL A   1      45.653  25.329  31.169  1.00  0.00    -0.314 N 
ATOM     11  C   UNL A   1      47.737  25.721  31.838  1.00  0.00     0.024 A 
BRANCH   8  12
ATOM     12  C   UNL A   1      44.525  25.065  33.432  1.00  0.00    -0.001 A 
ATOM     13  C   UNL A   1      42.503  24.490  35.269  1.00  0.00     0.118 A 
ATOM     14  C   UNL A   1      43.323  23.470  34.787  1.00  0.00     0.047 A 
ATOM     15  C   UNL A   1      42.709  25.806  34.849  1.00  0.00     0.047 A 
ATOM     16  C   UNL A   1      44.330  23.753  33.867  1.00  0.00     0.014 A 
ATOM     17  C   UNL A   1      43.721  26.092  33.932  1.00  0.00     0.014 A 
BRANCH  13  18
ATOM     18  O   UNL A   1      41.565  24.099  36.185  1.00  0.00    -0.497 OA
ATOM     19  C   UNL A   1      40.843  25.159  36.796  1.00  0.00     0.278 C 
ENDBRANCH  13  18
ENDBRANCH   8  12
BRANCH  10  20
ATOM     20  C   UNL A   1      44.577  24.924  30.343  1.00  0.00     0.046 A 
ATOM     21  C   UNL A   1      44.414  23.563  30.063  1.00  0.00     0.027 A 
ATOM     22  C   UNL A   1      43.688  25.867  29.832  1.00  0.00     0.027 A 
ATOM     23  C   UNL A   1      43.359  23.138  29.253  1.00  0.00     0.014 A 
ATOM     24  C   UNL A   1      42.649  25.438  29.003  1.00  0.00     0.014 A 
ATOM     25  C   UNL A   1      42.473  24.074  28.707  1.00  0.00     0.017 A 
BRANCH  25  26
ATOM     26  C   UNL A   1      41.337  23.700  27.808  1.00  0.00     0.159 C 
ATOM     27  C   UNL A   1      41.562  22.879  26.564  1.00  0.00     0.093 C 
ATOM     28  O   UNL A   1      40.195  24.059  28.104  1.00  0.00    -0.295 OA
ENDBRANCH  25  26
ENDBRANCH  10  20
ENDBRANCH   6   7
ENDBRANCH   5   6
ENDBRANCH   3   5
ENDBRANCH   2   3
ENDBRANCH   1   2
BRANCH   1  29
ATOM     29  C   UNL A   1      44.502  27.290  25.208  1.00  0.00     0.275 C 
BRANCH  29  30
ATOM     30  O   UNL A   1      43.175  27.003  25.675  1.00  0.00    -0.458 OA
BRANCH  30  31
ATOM     31  C   UNL A   1      42.461  28.130  25.863  1.00  0.00     0.338 C 
ATOM     32  O   UNL A   1      42.147  28.939  25.011  1.00  0.00    -0.246 OA
BRANCH  31  33
ATOM     33  C   UNL A   1      42.218  28.506  27.237  1.00  0.00     0.060 A 
ATOM     34  C   UNL A   1      41.001  28.083  27.792  1.00  0.00     0.016 A 
ATOM     35  C   UNL A   1      42.932  29.598  27.729  1.00  0.00     0.016 A 
ATOM     36  C   UNL A   1      40.457  28.804  28.833  1.00  0.00     0.010 A 
ATOM     37  C   UNL A   1      42.374  30.333  28.756  1.00  0.00     0.010 A 
ATOM     38  C   UNL A   1      41.140  29.932  29.298  1.00  0.00    -0.014 A 
BRANCH  38  39
ATOM     39  C   UNL A   1      40.684  30.524  30.562  1.00  0.00     0.031 A 
ATOM     40  C   UNL A   1      41.570  29.995  31.722  1.00  0.00     0.074 A 
ATOM     41  C   UNL A   1      39.610  31.372  30.485  1.00  0.00     0.049 A 
ATOM     42  N   UNL A   1      41.334  29.912  32.993  1.00  0.00    -0.248 NA
ATOM     43  C   UNL A   1      42.896  29.371  31.404  1.00  0.00     0.031 C 
ATOM     44  C   UNL A   1      38.872  31.726  29.243  1.00  0.00     0.029 A 
ATOM     45  N   UNL A   1      38.914  32.111  31.417  1.00  0.00    -0.354 N 
ATOM     46  C   UNL A   1      42.549  29.538  33.623  1.00  0.00     0.074 A 
ATOM     47  C   UNL A   1      43.407  29.058  32.592  1.00  0.00     0.031 C 
ATOM     48  C   UNL A   1      37.814  32.532  29.511  1.00  0.00     0.029 A 
ATOM     49  C   UNL A   1      37.775  32.823  30.931  1.00  0.00     0.049 A 
ATOM     50  H   UNL A   1      39.185  32.146  32.363  1.00  0.00     0.167 HD
ATOM     51  C   UNL A   1      42.835  29.830  34.925  1.00  0.00     0.034 A 
ATOM     52  C   UNL A   1      36.864  33.567  31.640  1.00  0.00     0.034 A 
ATOM     53  C   UNL A   1      41.697  30.439  35.529  1.00  0.00     0.049 A 
ATOM     54  C   UNL A   1      37.456  33.645  32.984  1.00  0.00     0.074 A 
ATOM     55  C   UNL A   1      40.452  29.968  35.848  1.00  0.00     0.029 A 
ATOM     56  N   UNL A   1      41.680  31.815  35.562  1.00  0.00    -0.354 N 
ATOM     57  N   UNL A   1      38.479  34.378  33.299  1.00  0.00    -0.248 NA
ATOM     58  C   UNL A   1      36.905  32.794  34.046  1.00  0.00     0.031 C 
ATOM     59  C   UNL A   1      39.617  31.062  35.549  1.00  0.00     0.029 A 
ATOM     60  C   UNL A   1      40.395  32.198  35.284  1.00  0.00     0.049 A 
ATOM     61  H   UNL A   1      42.444  32.408  35.750  1.00  0.00     0.167 HD
ATOM     62  C   UNL A   1      38.877  33.834  34.492  1.00  0.00     0.074 A 
ATOM     63  C   UNL A   1      37.725  33.144  35.034  1.00  0.00     0.031 C 
ATOM     64  C   UNL A   1      40.178  33.491  34.668  1.00  0.00     0.034 A 
BRANCH  51  65
ATOM     65  C   UNL A   1      44.128  29.895  35.704  1.00  0.00     0.023 A 
ATOM     66  C   UNL A   1      44.432  28.739  36.467  1.00  0.00     0.031 A 
ATOM     67  C   UNL A   1      44.850  31.051  36.024  1.00  0.00     0.131 A 
ATOM     68  C   UNL A   1      45.239  28.804  37.606  1.00  0.00     0.055 A 
ATOM     69  C   UNL A   1      45.740  31.089  37.110  1.00  0.00     0.041 A 
ATOM     70  F   UNL A   1      44.669  32.205  35.369  1.00  0.00    -0.206 F 
ATOM     71  C   UNL A   1      45.898  29.979  37.938  1.00  0.00     0.022 A 
BRANCH  68  72
ATOM     72  S   UNL A   1      45.195  27.393  38.748  1.00  0.00     0.124 S 
ATOM     73  O   UNL A   1      44.062  26.626  38.240  1.00  0.00    -0.237 OA
ATOM     74  O   UNL A   1      46.512  26.797  38.544  1.00  0.00    -0.237 OA
ATOM     75  O   UNL A   1      44.991  28.020  40.051  1.00  0.00    -0.744 OA
ENDBRANCH  68  72
ENDBRANCH  51  65
BRANCH  52  76
ATOM     76  C   UNL A   1      35.509  34.261  31.501  1.00  0.00     0.023 A 
ATOM     77  C   UNL A   1      34.995  35.304  32.294  1.00  0.00     0.031 A 
ATOM     78  C   UNL A   1      34.664  33.896  30.398  1.00  0.00     0.131 A 
ATOM     79  C   UNL A   1      33.776  35.954  31.920  1.00  0.00     0.055 A 
ATOM     80  C   UNL A   1      33.534  34.597  29.985  1.00  0.00     0.041 A 
ATOM     81  F   UNL A   1      34.897  32.815  29.642  1.00  0.00    -0.206 F 
ATOM     82  C   UNL A   1      33.090  35.648  30.742  1.00  0.00     0.022 A 
BRANCH  79  83
ATOM     83  S   UNL A   1      33.017  37.249  32.950  1.00  0.00     0.124 S 
ATOM     84  O   UNL A   1      31.656  36.745  33.111  1.00  0.00    -0.237 OA
ATOM     85  O   UNL A   1      33.849  37.249  34.148  1.00  0.00    -0.237 OA
ATOM     86  O   UNL A   1      33.138  38.447  32.119  1.00  0.00    -0.744 OA
ENDBRANCH  79  83
ENDBRANCH  52  76
BRANCH  64  87
ATOM     87  C   UNL A   1      41.173  34.280  33.815  1.00  0.00     0.023 A 
ATOM     88  C   UNL A   1      41.785  33.679  32.697  1.00  0.00     0.031 A 
ATOM     89  C   UNL A   1      41.622  35.574  34.131  1.00  0.00     0.131 A 
ATOM     90  C   UNL A   1      42.803  34.343  31.979  1.00  0.00     0.055 A 
ATOM     91  C   UNL A   1      42.631  36.239  33.421  1.00  0.00     0.041 A 
ATOM     92  F   UNL A   1      41.105  36.247  35.156  1.00  0.00    -0.206 F 
ATOM     93  C   UNL A   1      43.233  35.620  32.338  1.00  0.00     0.022 A 
BRANCH  90  94
ATOM     94  S   UNL A   1      43.555  33.531  30.541  1.00  0.00     0.124 S 
ATOM     95  O   UNL A   1      44.059  32.283  31.104  1.00  0.00    -0.237 OA
ATOM     96  O   UNL A   1      42.429  33.408  29.621  1.00  0.00    -0.237 OA
ATOM     97  O   UNL A   1      44.589  34.475  30.116  1.00  0.00    -0.744 OA
ENDBRANCH  90  94
ENDBRANCH  64  87
ENDBRANCH  38  39
ENDBRANCH  31  33
ENDBRANCH  30  31
ENDBRANCH  29  30
ENDBRANCH   1  29
TORSDOF 20
ENDMDL
MODEL 3
REMARK VINA RESULT:      -8.8      5.871     13.943
REMARK SMILES COc1ccc(-c2ccc(CCC(=O)OCCOC(=O)c3ccc(-c4c5nc(c(-c6cc(S(=O)(=O)[O-])ccc6F)c6ccc([nH]6)c(-c6cc(S(=O)(=O)[O-])ccc6F)c6nc(c(-c7cc(S(=O)(=O)[O-])ccc7F)c7ccc4[nH]7)C=C6)C=C5)cc3)n2-c2ccc(C(C)=O)cc2)cc1
REMARK SMILES IDX 16 1 15 2 13 3 14 4 12 5 11 6 10 7 7 8 8 9 84 10 9 11 6 12
REMARK SMILES IDX 3 13 4 14 95 15 5 16 94 17 2 18 1 19 85 20 86 21 93 22 87 23
REMARK SMILES IDX 92 24 88 25 89 26 90 27 91 28 17 29 18 30 19 31 20 32 21 33
REMARK SMILES IDX 22 34 83 35 23 36 82 37 24 38 25 39 26 40 76 41 27 42 81 43
REMARK SMILES IDX 75 44 77 45 28 46 80 47 74 48 73 49 29 51 61 52 41 53 60 54
REMARK SMILES IDX 42 55 45 56 59 57 78 58 43 59 44 60 58 62 79 63 46 64 30 65
REMARK SMILES IDX 31 66 39 67 32 68 38 69 40 70 37 71 33 72 34 73 35 74 36 75
REMARK SMILES IDX 62 76 63 77 71 78 64 79 70 80 72 81 69 82 65 83 66 84 67 85
REMARK SMILES IDX 68 86 47 87 48 88 56 89 49 90 55 91 57 92 54 93 50 94 51 95
REMARK SMILES IDX 52 96 53 97
REMARK H PARENT 77 50 45 61
REMARK Flexibility Score: inf
ROOT
ATOM      1  C   UNL A   1      31.865  29.675  26.220  1.00  0.00     0.274 C 
ENDROOT
BRANCH   1   2
ATOM      2  O   UNL A   1      32.081  29.037  24.946  1.00  0.00    -0.462 OA
BRANCH   2   3
ATOM      3  C   UNL A   1      31.863  27.699  24.876  1.00  0.00     0.306 C 
ATOM      4  O   UNL A   1      30.792  27.158  25.134  1.00  0.00    -0.252 OA
BRANCH   3   5
ATOM      5  C   UNL A   1      33.114  26.918  24.534  1.00  0.00     0.129 C 
BRANCH   5   6
ATOM      6  C   UNL A   1      33.099  26.094  23.245  1.00  0.00     0.066 C 
BRANCH   6   7
ATOM      7  C   UNL A   1      32.400  24.763  23.378  1.00  0.00     0.024 A 
ATOM      8  C   UNL A   1      32.155  22.523  23.515  1.00  0.00     0.053 A 
ATOM      9  C   UNL A   1      30.925  23.060  23.194  1.00  0.00     0.029 A 
ATOM     10  N   UNL A   1      33.031  23.580  23.743  1.00  0.00    -0.314 N 
ATOM     11  C   UNL A   1      31.069  24.450  23.164  1.00  0.00     0.024 A 
BRANCH   8  12
ATOM     12  C   UNL A   1      32.404  21.117  23.789  1.00  0.00    -0.001 A 
ATOM     13  C   UNL A   1      32.676  18.394  24.345  1.00  0.00     0.118 A 
ATOM     14  C   UNL A   1      32.836  19.337  25.361  1.00  0.00     0.047 A 
ATOM     15  C   UNL A   1      32.355  18.813  23.052  1.00  0.00     0.047 A 
ATOM     16  C   UNL A   1      32.706  20.695  25.086  1.00  0.00     0.014 A 
ATOM     17  C   UNL A   1      32.218  20.173  22.776  1.00  0.00     0.014 A 
BRANCH  13  18
ATOM     18  O   UNL A   1      32.804  17.090  24.736  1.00  0.00    -0.497 OA
ATOM     19  C   UNL A   1      33.597  16.280  23.879  1.00  0.00     0.278 C 
ENDBRANCH  13  18
ENDBRANCH   8  12
BRANCH  10  20
ATOM     20  C   UNL A   1      34.329  23.482  24.300  1.00  0.00     0.046 A 
ATOM     21  C   UNL A   1      34.495  23.718  25.670  1.00  0.00     0.027 A 
ATOM     22  C   UNL A   1      35.417  23.142  23.499  1.00  0.00     0.027 A 
ATOM     23  C   UNL A   1      35.765  23.625  26.244  1.00  0.00     0.014 A 
ATOM     24  C   UNL A   1      36.687  23.074  24.076  1.00  0.00     0.014 A 
ATOM     25  C   UNL A   1      36.874  23.313  25.450  1.00  0.00     0.017 A 
BRANCH  25  26
ATOM     26  C   UNL A   1      38.268  23.223  25.986  1.00  0.00     0.159 C 
ATOM     27  C   UNL A   1      38.917  24.396  26.677  1.00  0.00     0.093 C 
ATOM     28  O   UNL A   1      38.887  22.164  25.872  1.00  0.00    -0.295 OA
ENDBRANCH  25  26
ENDBRANCH  10  20
ENDBRANCH   6   7
ENDBRANCH   5   6
ENDBRANCH   3   5
ENDBRANCH   2   3
ENDBRANCH   1   2
BRANCH   1  29
ATOM     29  C   UNL A   1      32.915  30.735  26.586  1.00  0.00     0.275 C 
BRANCH  29  30
ATOM     30  O   UNL A   1      33.572  30.516  27.844  1.00  0.00    -0.458 OA
BRANCH  30  31
ATOM     31  C   UNL A   1      34.609  29.664  27.720  1.00  0.00     0.338 C 
ATOM     32  O   UNL A   1      34.575  28.549  27.238  1.00  0.00    -0.246 OA
BRANCH  31  33
ATOM     33  C   UNL A   1      35.825  30.042  28.402  1.00  0.00     0.060 A 
ATOM     34  C   UNL A   1      36.791  30.705  27.631  1.00  0.00     0.016 A 
ATOM     35  C   UNL A   1      36.140  29.341  29.566  1.00  0.00     0.016 A 
ATOM     36  C   UNL A   1      38.115  30.621  28.003  1.00  0.00     0.010 A 
ATOM     37  C   UNL A   1      37.470  29.237  29.925  1.00  0.00     0.010 A 
ATOM     38  C   UNL A   1      38.446  29.875  29.140  1.00  0.00    -0.014 A 
BRANCH  38  39
ATOM     39  C   UNL A   1      39.811  30.013  29.663  1.00  0.00     0.031 A 
ATOM     40  C   UNL A   1      39.861  31.214  30.646  1.00  0.00     0.074 A 
ATOM     41  C   UNL A   1      40.737  29.116  29.197  1.00  0.00     0.049 A 
ATOM     42  N   UNL A   1      40.858  31.945  31.036  1.00  0.00    -0.248 NA
ATOM     43  C   UNL A   1      38.580  31.747  31.215  1.00  0.00     0.031 C 
ATOM     44  C   UNL A   1      40.475  28.036  28.208  1.00  0.00     0.029 A 
ATOM     45  N   UNL A   1      42.077  28.917  29.447  1.00  0.00    -0.354 N 
ATOM     46  C   UNL A   1      40.386  32.774  32.085  1.00  0.00     0.074 A 
ATOM     47  C   UNL A   1      38.963  32.731  32.026  1.00  0.00     0.031 C 
ATOM     48  C   UNL A   1      41.613  27.365  27.899  1.00  0.00     0.029 A 
ATOM     49  C   UNL A   1      42.715  27.898  28.676  1.00  0.00     0.049 A 
ATOM     50  H   UNL A   1      42.566  29.446  30.118  1.00  0.00     0.167 HD
ATOM     51  C   UNL A   1      41.200  33.290  33.052  1.00  0.00     0.034 A 
ATOM     52  C   UNL A   1      44.042  27.541  28.661  1.00  0.00     0.034 A 
ATOM     53  C   UNL A   1      42.552  32.953  32.754  1.00  0.00     0.049 A 
ATOM     54  C   UNL A   1      44.615  28.299  29.783  1.00  0.00     0.074 A 
ATOM     55  C   UNL A   1      43.404  33.334  31.753  1.00  0.00     0.029 A 
ATOM     56  N   UNL A   1      43.059  31.835  33.376  1.00  0.00    -0.354 N 
ATOM     57  N   UNL A   1      44.431  28.017  31.035  1.00  0.00    -0.248 NA
ATOM     58  C   UNL A   1      45.404  29.502  29.489  1.00  0.00     0.031 C 
ATOM     59  C   UNL A   1      44.108  32.147  31.472  1.00  0.00     0.029 A 
ATOM     60  C   UNL A   1      43.821  31.180  32.446  1.00  0.00     0.049 A 
ATOM     61  H   UNL A   1      42.905  31.561  34.310  1.00  0.00     0.167 HD
ATOM     62  C   UNL A   1      44.810  29.177  31.659  1.00  0.00     0.074 A 
ATOM     63  C   UNL A   1      45.680  29.874  30.736  1.00  0.00     0.031 C 
ATOM     64  C   UNL A   1      43.981  29.746  32.571  1.00  0.00     0.034 A 
BRANCH  51  65
ATOM     65  C   UNL A   1      40.932  33.851  34.429  1.00  0.00     0.023 A 
ATOM     66  C   UNL A   1      40.268  32.971  35.320  1.00  0.00     0.031 A 
ATOM     67  C   UNL A   1      40.948  35.202  34.795  1.00  0.00     0.131 A 
ATOM     68  C   UNL A   1      39.492  33.449  36.380  1.00  0.00     0.055 A 
ATOM     69  C   UNL A   1      40.250  35.670  35.921  1.00  0.00     0.041 A 
ATOM     70  F   UNL A   1      41.554  36.134  34.049  1.00  0.00    -0.206 F 
ATOM     71  C   UNL A   1      39.476  34.802  36.688  1.00  0.00     0.022 A 
BRANCH  68  72
ATOM     72  S   UNL A   1      38.339  32.289  37.167  1.00  0.00     0.124 S 
ATOM     73  O   UNL A   1      38.696  32.413  38.576  1.00  0.00    -0.237 OA
ATOM     74  O   UNL A   1      37.043  32.843  36.786  1.00  0.00    -0.237 OA
ATOM     75  O   UNL A   1      38.674  31.008  36.548  1.00  0.00    -0.744 OA
ENDBRANCH  68  72
ENDBRANCH  51  65
BRANCH  52  76
ATOM     76  C   UNL A   1      45.051  26.695  27.884  1.00  0.00     0.023 A 
ATOM     77  C   UNL A   1      45.948  27.129  26.890  1.00  0.00     0.031 A 
ATOM     78  C   UNL A   1      45.193  25.309  28.233  1.00  0.00     0.131 A 
ATOM     79  C   UNL A   1      46.943  26.235  26.383  1.00  0.00     0.055 A 
ATOM     80  C   UNL A   1      46.225  24.475  27.809  1.00  0.00     0.041 A 
ATOM     81  F   UNL A   1      44.319  24.674  29.025  1.00  0.00    -0.206 F 
ATOM     82  C   UNL A   1      47.122  24.943  26.887  1.00  0.00     0.022 A 
BRANCH  79  83
ATOM     83  S   UNL A   1      48.073  26.709  25.037  1.00  0.00     0.124 S 
ATOM     84  O   UNL A   1      47.549  25.935  23.917  1.00  0.00    -0.237 OA
ATOM     85  O   UNL A   1      47.902  28.156  24.956  1.00  0.00    -0.237 OA
ATOM     86  O   UNL A   1      49.379  26.274  25.532  1.00  0.00    -0.744 OA
ENDBRANCH  79  83
ENDBRANCH  52  76
BRANCH  64  87
ATOM     87  C   UNL A   1      43.031  28.773  33.272  1.00  0.00     0.023 A 
ATOM     88  C   UNL A   1      43.542  27.713  34.046  1.00  0.00     0.031 A 
ATOM     89  C   UNL A   1      41.634  28.792  33.113  1.00  0.00     0.131 A 
ATOM     90  C   UNL A   1      42.688  26.728  34.588  1.00  0.00     0.055 A 
ATOM     91  C   UNL A   1      40.780  27.818  33.651  1.00  0.00     0.041 A 
ATOM     92  F   UNL A   1      41.036  29.755  32.417  1.00  0.00    -0.206 F 
ATOM     93  C   UNL A   1      41.308  26.773  34.391  1.00  0.00     0.022 A 
BRANCH  90  94
ATOM     94  S   UNL A   1      43.394  25.387  35.585  1.00  0.00     0.124 S 
ATOM     95  O   UNL A   1      42.300  24.424  35.648  1.00  0.00    -0.237 OA
ATOM     96  O   UNL A   1      44.556  24.984  34.799  1.00  0.00    -0.237 OA
ATOM     97  O   UNL A   1      43.714  26.037  36.856  1.00  0.00    -0.744 OA
ENDBRANCH  90  94
ENDBRANCH  64  87
ENDBRANCH  38  39
ENDBRANCH  31  33
ENDBRANCH  30  31
ENDBRANCH  29  30
ENDBRANCH   1  29
TORSDOF 20
ENDMDL
