MODEL 1
REMARK VINA RESULT:      -9.0      0.000      0.000
REMARK SMILES C[C@@H](CCCO)[NH2+][C@@H](C)CC(=O)OCCOC(=O)c1ccc(-c2c3nc(c(-c4cc(S(=O)(=O)[O-])ccc4F)c4ccc([nH]4)c(-c4cc(S(=O)(=O)[O-])ccc4F)c4nc(c(-c5cc(S(=O)(=O)[O-])ccc5F)c5ccc2[nH]5)C=C4)C=C3)cc1
REMARK SMILES IDX 11 1 12 2 10 3 8 4 9 5 7 6 2 9 1 10 3 11 4 12 5 13 6 14
REMARK SMILES IDX 13 16 14 17 15 18 16 19 17 20 18 21 19 22 20 23 81 24 21 25
REMARK SMILES IDX 80 26 22 27 23 28 24 29 74 30 25 31 79 32 73 33 75 34 26 35
REMARK SMILES IDX 78 36 72 37 71 38 27 40 59 41 39 42 58 43 40 44 43 45 57 46
REMARK SMILES IDX 76 47 41 48 42 49 56 51 77 52 44 53 28 54 29 55 37 56 30 57
REMARK SMILES IDX 36 58 38 59 35 60 31 61 32 62 33 63 34 64 60 65 61 66 69 67
REMARK SMILES IDX 62 68 68 69 70 70 67 71 63 72 64 73 65 74 66 75 45 76 46 77
REMARK SMILES IDX 54 78 47 79 53 80 55 81 52 82 48 83 49 84 50 85 51 86
REMARK H PARENT 7 7 7 8 6 15 75 39 43 50
REMARK Flexibility Score: inf
ROOT
ATOM      1  C   UNL A   1      34.309  22.842  23.243  1.00  0.00     0.311 C 
ATOM      2  O   UNL A   1      34.278  23.573  22.261  1.00  0.00    -0.252 OA
ENDROOT
BRANCH   1   3
ATOM      3  C   UNL A   1      33.057  22.340  23.924  1.00  0.00     0.187 C 
BRANCH   3   4
ATOM      4  C   UNL A   1      32.152  23.452  24.499  1.00  0.00     0.190 C 
ATOM      5  C   UNL A   1      30.965  23.701  23.558  1.00  0.00     0.076 C 
BRANCH   4   6
ATOM      6  N   UNL A   1      33.014  24.635  24.713  1.00  0.00    -0.341 N 
ATOM      7  H   UNL A   1      33.446  24.545  25.633  1.00  0.00     0.346 HD
ATOM      8  H   UNL A   1      33.682  24.638  23.944  1.00  0.00     0.346 HD
BRANCH   6   9
ATOM      9  C   UNL A   1      32.329  25.934  24.659  1.00  0.00     0.179 C 
ATOM     10  C   UNL A   1      31.738  26.256  26.037  1.00  0.00     0.075 C 
BRANCH   9  11
ATOM     11  C   UNL A   1      33.290  27.050  24.200  1.00  0.00     0.067 C 
BRANCH  11  12
ATOM     12  C   UNL A   1      33.419  27.312  22.688  1.00  0.00     0.034 C 
BRANCH  12  13
ATOM     13  C   UNL A   1      32.463  26.560  21.768  1.00  0.00     0.156 C 
BRANCH  13  14
ATOM     14  O   UNL A   1      33.152  25.964  20.683  1.00  0.00    -0.396 OA
ATOM     15  H   UNL A   1      33.355  26.641  20.019  1.00  0.00     0.210 HD
ENDBRANCH  13  14
ENDBRANCH  12  13
ENDBRANCH  11  12
ENDBRANCH   9  11
ENDBRANCH   6   9
ENDBRANCH   4   6
ENDBRANCH   3   4
ENDBRANCH   1   3
BRANCH   1  16
ATOM     16  O   UNL A   1      35.446  22.441  23.874  1.00  0.00    -0.462 OA
BRANCH  16  17
ATOM     17  C   UNL A   1      35.262  21.838  25.170  1.00  0.00     0.274 C 
BRANCH  17  18
ATOM     18  C   UNL A   1      36.343  20.793  25.453  1.00  0.00     0.275 C 
BRANCH  18  19
ATOM     19  O   UNL A   1      37.619  21.210  24.934  1.00  0.00    -0.458 OA
BRANCH  19  20
ATOM     20  C   UNL A   1      38.690  20.870  25.688  1.00  0.00     0.338 C 
ATOM     21  O   UNL A   1      39.193  19.764  25.799  1.00  0.00    -0.246 OA
BRANCH  20  22
ATOM     22  C   UNL A   1      39.286  22.080  26.274  1.00  0.00     0.060 A 
ATOM     23  C   UNL A   1      38.832  23.315  25.814  1.00  0.00     0.016 A 
ATOM     24  C   UNL A   1      40.345  22.011  27.179  1.00  0.00     0.016 A 
ATOM     25  C   UNL A   1      39.443  24.492  26.230  1.00  0.00     0.010 A 
ATOM     26  C   UNL A   1      40.952  23.198  27.613  1.00  0.00     0.010 A 
ATOM     27  C   UNL A   1      40.516  24.444  27.125  1.00  0.00    -0.014 A 
BRANCH  27  28
ATOM     28  C   UNL A   1      41.215  25.705  27.478  1.00  0.00     0.031 A 
ATOM     29  C   UNL A   1      40.495  26.763  28.265  1.00  0.00     0.074 A 
ATOM     30  C   UNL A   1      42.510  25.868  27.150  1.00  0.00     0.049 A 
ATOM     31  N   UNL A   1      40.918  27.935  28.662  1.00  0.00    -0.248 NA
ATOM     32  C   UNL A   1      39.108  26.459  28.652  1.00  0.00     0.031 C 
ATOM     33  C   UNL A   1      43.325  24.890  26.427  1.00  0.00     0.029 A 
ATOM     34  N   UNL A   1      43.371  26.908  27.390  1.00  0.00    -0.354 N 
ATOM     35  C   UNL A   1      39.849  28.518  29.336  1.00  0.00     0.074 A 
ATOM     36  C   UNL A   1      38.749  27.578  29.263  1.00  0.00     0.031 C 
ATOM     37  C   UNL A   1      44.571  25.373  26.292  1.00  0.00     0.029 A 
ATOM     38  C   UNL A   1      44.632  26.708  26.882  1.00  0.00     0.049 A 
ATOM     39  H   UNL A   1      43.110  27.721  27.880  1.00  0.00     0.167 HD
ATOM     40  C   UNL A   1      39.794  29.722  29.960  1.00  0.00     0.034 A 
ATOM     41  C   UNL A   1      45.711  27.516  26.878  1.00  0.00     0.034 A 
ATOM     42  C   UNL A   1      40.899  30.649  30.021  1.00  0.00     0.049 A 
ATOM     43  C   UNL A   1      45.612  28.865  27.541  1.00  0.00     0.074 A 
ATOM     44  C   UNL A   1      40.948  31.901  30.612  1.00  0.00     0.029 A 
ATOM     45  N   UNL A   1      42.155  30.426  29.469  1.00  0.00    -0.354 N 
ATOM     46  N   UNL A   1      44.587  29.416  28.150  1.00  0.00    -0.248 NA
ATOM     47  C   UNL A   1      46.822  29.697  27.525  1.00  0.00     0.031 C 
ATOM     48  C   UNL A   1      42.213  32.454  30.372  1.00  0.00     0.029 A 
ATOM     49  C   UNL A   1      42.977  31.522  29.689  1.00  0.00     0.049 A 
ATOM     50  H   UNL A   1      42.423  29.608  28.991  1.00  0.00     0.167 HD
ATOM     51  C   UNL A   1      45.036  30.652  28.605  1.00  0.00     0.074 A 
ATOM     52  C   UNL A   1      46.430  30.753  28.220  1.00  0.00     0.031 C 
ATOM     53  C   UNL A   1      44.360  31.616  29.281  1.00  0.00     0.034 A 
BRANCH  40  54
ATOM     54  C   UNL A   1      38.470  30.117  30.570  1.00  0.00     0.023 A 
ATOM     55  C   UNL A   1      37.502  30.832  29.844  1.00  0.00     0.031 A 
ATOM     56  C   UNL A   1      38.195  29.819  31.917  1.00  0.00     0.131 A 
ATOM     57  C   UNL A   1      36.340  31.289  30.485  1.00  0.00     0.055 A 
ATOM     58  C   UNL A   1      37.002  30.209  32.529  1.00  0.00     0.041 A 
ATOM     59  F   UNL A   1      39.091  29.159  32.667  1.00  0.00    -0.206 F 
ATOM     60  C   UNL A   1      36.073  30.962  31.817  1.00  0.00     0.022 A 
BRANCH  57  61
ATOM     61  S   UNL A   1      35.252  32.438  29.599  1.00  0.00     0.124 S 
ATOM     62  O   UNL A   1      34.546  31.537  28.691  1.00  0.00    -0.237 OA
ATOM     63  O   UNL A   1      34.456  33.013  30.677  1.00  0.00    -0.237 OA
ATOM     64  O   UNL A   1      36.182  33.360  28.950  1.00  0.00    -0.744 OA
ENDBRANCH  57  61
ENDBRANCH  40  54
BRANCH  41  65
ATOM     65  C   UNL A   1      46.965  27.093  26.196  1.00  0.00     0.023 A 
ATOM     66  C   UNL A   1      48.018  26.500  26.909  1.00  0.00     0.031 A 
ATOM     67  C   UNL A   1      47.143  27.317  24.819  1.00  0.00     0.131 A 
ATOM     68  C   UNL A   1      49.218  26.187  26.252  1.00  0.00     0.055 A 
ATOM     69  C   UNL A   1      48.321  26.961  24.160  1.00  0.00     0.041 A 
ATOM     70  F   UNL A   1      46.165  27.879  24.091  1.00  0.00    -0.206 F 
ATOM     71  C   UNL A   1      49.372  26.404  24.881  1.00  0.00     0.022 A 
BRANCH  68  72
ATOM     72  S   UNL A   1      50.608  25.558  27.232  1.00  0.00     0.124 S 
ATOM     73  O   UNL A   1      50.772  26.610  28.228  1.00  0.00    -0.237 OA
ATOM     74  O   UNL A   1      50.083  24.288  27.721  1.00  0.00    -0.237 OA
ATOM     75  O   UNL A   1      51.690  25.447  26.256  1.00  0.00    -0.744 OA
ENDBRANCH  68  72
ENDBRANCH  41  65
BRANCH  53  76
ATOM     76  C   UNL A   1      45.145  32.845  29.670  1.00  0.00     0.023 A 
ATOM     77  C   UNL A   1      45.211  33.974  28.835  1.00  0.00     0.031 A 
ATOM     78  C   UNL A   1      45.872  32.867  30.874  1.00  0.00     0.131 A 
ATOM     79  C   UNL A   1      46.041  35.051  29.181  1.00  0.00     0.055 A 
ATOM     80  C   UNL A   1      46.652  33.965  31.240  1.00  0.00     0.041 A 
ATOM     81  F   UNL A   1      45.844  31.815  31.708  1.00  0.00    -0.206 F 
ATOM     82  C   UNL A   1      46.752  35.058  30.384  1.00  0.00     0.022 A 
BRANCH  79  83
ATOM     83  S   UNL A   1      46.268  36.396  27.985  1.00  0.00     0.124 S 
ATOM     84  O   UNL A   1      46.514  37.542  28.855  1.00  0.00    -0.237 OA
ATOM     85  O   UNL A   1      47.412  35.929  27.208  1.00  0.00    -0.237 OA
ATOM     86  O   UNL A   1      44.999  36.430  27.261  1.00  0.00    -0.744 OA
ENDBRANCH  79  83
ENDBRANCH  53  76
ENDBRANCH  27  28
ENDBRANCH  20  22
ENDBRANCH  19  20
ENDBRANCH  18  19
ENDBRANCH  17  18
ENDBRANCH  16  17
ENDBRANCH   1  16
TORSDOF 21
ENDMDL
MODEL 2
REMARK VINA RESULT:      -9.0      2.220      8.252
REMARK SMILES C[C@@H](CCCO)[NH2+][C@@H](C)CC(=O)OCCOC(=O)c1ccc(-c2c3nc(c(-c4cc(S(=O)(=O)[O-])ccc4F)c4ccc([nH]4)c(-c4cc(S(=O)(=O)[O-])ccc4F)c4nc(c(-c5cc(S(=O)(=O)[O-])ccc5F)c5ccc2[nH]5)C=C4)C=C3)cc1
REMARK SMILES IDX 11 1 12 2 10 3 8 4 9 5 7 6 2 9 1 10 3 11 4 12 5 13 6 14
REMARK SMILES IDX 13 16 14 17 15 18 16 19 17 20 18 21 19 22 20 23 81 24 21 25
REMARK SMILES IDX 80 26 22 27 23 28 24 29 74 30 25 31 79 32 73 33 75 34 26 35
REMARK SMILES IDX 78 36 72 37 71 38 27 40 59 41 39 42 58 43 40 44 43 45 57 46
REMARK SMILES IDX 76 47 41 48 42 49 56 51 77 52 44 53 28 54 29 55 37 56 30 57
REMARK SMILES IDX 36 58 38 59 35 60 31 61 32 62 33 63 34 64 60 65 61 66 69 67
REMARK SMILES IDX 62 68 68 69 70 70 67 71 63 72 64 73 65 74 66 75 45 76 46 77
REMARK SMILES IDX 54 78 47 79 53 80 55 81 52 82 48 83 49 84 50 85 51 86
REMARK H PARENT 7 7 7 8 6 15 75 39 43 50
REMARK Flexibility Score: inf
ROOT
ATOM      1  C   UNL A   1      35.323  23.112  24.177  1.00  0.00     0.311 C 
ATOM      2  O   UNL A   1      35.639  23.032  22.997  1.00  0.00    -0.252 OA
ENDROOT
BRANCH   1   3
ATOM      3  C   UNL A   1      34.893  24.410  24.819  1.00  0.00     0.187 C 
BRANCH   3   4
ATOM      4  C   UNL A   1      33.364  24.609  24.896  1.00  0.00     0.190 C 
ATOM      5  C   UNL A   1      32.880  24.409  26.339  1.00  0.00     0.076 C 
BRANCH   4   6
ATOM      6  N   UNL A   1      32.762  23.673  23.920  1.00  0.00    -0.341 N 
ATOM      7  H   UNL A   1      33.521  23.202  23.429  1.00  0.00     0.346 HD
ATOM      8  H   UNL A   1      32.171  23.044  24.464  1.00  0.00     0.346 HD
BRANCH   6   9
ATOM      9  C   UNL A   1      31.883  24.287  22.915  1.00  0.00     0.179 C 
ATOM     10  C   UNL A   1      30.426  24.189  23.386  1.00  0.00     0.075 C 
BRANCH   9  11
ATOM     11  C   UNL A   1      32.277  25.756  22.656  1.00  0.00     0.067 C 
BRANCH  11  12
ATOM     12  C   UNL A   1      32.122  26.300  21.224  1.00  0.00     0.034 C 
BRANCH  12  13
ATOM     13  C   UNL A   1      32.443  25.345  20.078  1.00  0.00     0.156 C 
BRANCH  13  14
ATOM     14  O   UNL A   1      31.624  25.599  18.950  1.00  0.00    -0.396 OA
ATOM     15  H   UNL A   1      32.023  25.192  18.165  1.00  0.00     0.210 HD
ENDBRANCH  13  14
ENDBRANCH  12  13
ENDBRANCH  11  12
ENDBRANCH   9  11
ENDBRANCH   6   9
ENDBRANCH   4   6
ENDBRANCH   3   4
ENDBRANCH   1   3
BRANCH   1  16
ATOM     16  O   UNL A   1      35.371  22.080  25.062  1.00  0.00    -0.462 OA
BRANCH  16  17
ATOM     17  C   UNL A   1      36.108  20.919  24.631  1.00  0.00     0.274 C 
BRANCH  17  18
ATOM     18  C   UNL A   1      37.617  21.152  24.729  1.00  0.00     0.275 C 
BRANCH  18  19
ATOM     19  O   UNL A   1      37.994  21.564  26.056  1.00  0.00    -0.458 OA
BRANCH  19  20
ATOM     20  C   UNL A   1      39.318  21.496  26.329  1.00  0.00     0.338 C 
ATOM     21  O   UNL A   1      40.085  20.594  26.038  1.00  0.00    -0.246 OA
BRANCH  20  22
ATOM     22  C   UNL A   1      39.766  22.765  26.922  1.00  0.00     0.060 A 
ATOM     23  C   UNL A   1      39.204  23.944  26.433  1.00  0.00     0.016 A 
ATOM     24  C   UNL A   1      40.794  22.811  27.863  1.00  0.00     0.016 A 
ATOM     25  C   UNL A   1      39.676  25.180  26.857  1.00  0.00     0.010 A 
ATOM     26  C   UNL A   1      41.260  24.057  28.305  1.00  0.00     0.010 A 
ATOM     27  C   UNL A   1      40.717  25.249  27.789  1.00  0.00    -0.014 A 
BRANCH  27  28
ATOM     28  C   UNL A   1      41.270  26.577  28.152  1.00  0.00     0.031 A 
ATOM     29  C   UNL A   1      42.676  26.934  27.757  1.00  0.00     0.074 A 
ATOM     30  C   UNL A   1      40.491  27.481  28.773  1.00  0.00     0.049 A 
ATOM     31  N   UNL A   1      43.350  28.031  27.987  1.00  0.00    -0.248 NA
ATOM     32  C   UNL A   1      43.422  25.913  27.006  1.00  0.00     0.031 C 
ATOM     33  C   UNL A   1      39.097  27.264  29.164  1.00  0.00     0.029 A 
ATOM     34  N   UNL A   1      40.754  28.766  29.175  1.00  0.00    -0.354 N 
ATOM     35  C   UNL A   1      44.605  27.833  27.421  1.00  0.00     0.074 A 
ATOM     36  C   UNL A   1      44.605  26.494  26.866  1.00  0.00     0.031 C 
ATOM     37  C   UNL A   1      38.624  28.381  29.741  1.00  0.00     0.029 A 
ATOM     38  C   UNL A   1      39.691  29.377  29.796  1.00  0.00     0.049 A 
ATOM     39  H   UNL A   1      41.622  29.207  29.033  1.00  0.00     0.167 HD
ATOM     40  C   UNL A   1      45.657  28.689  27.368  1.00  0.00     0.034 A 
ATOM     41  C   UNL A   1      39.592  30.597  30.359  1.00  0.00     0.034 A 
ATOM     42  C   UNL A   1      45.643  30.019  27.930  1.00  0.00     0.049 A 
ATOM     43  C   UNL A   1      40.787  31.514  30.324  1.00  0.00     0.074 A 
ATOM     44  C   UNL A   1      46.656  30.963  27.947  1.00  0.00     0.029 A 
ATOM     45  N   UNL A   1      44.557  30.596  28.579  1.00  0.00    -0.354 N 
ATOM     46  N   UNL A   1      41.978  31.304  29.811  1.00  0.00    -0.248 NA
ATOM     47  C   UNL A   1      40.619  32.839  30.935  1.00  0.00     0.031 C 
ATOM     48  C   UNL A   1      46.201  32.086  28.649  1.00  0.00     0.029 A 
ATOM     49  C   UNL A   1      44.882  31.872  29.014  1.00  0.00     0.049 A 
ATOM     50  H   UNL A   1      43.683  30.161  28.709  1.00  0.00     0.167 HD
ATOM     51  C   UNL A   1      42.695  32.478  30.022  1.00  0.00     0.074 A 
ATOM     52  C   UNL A   1      41.794  33.398  30.687  1.00  0.00     0.031 C 
ATOM     53  C   UNL A   1      43.979  32.771  29.695  1.00  0.00     0.034 A 
BRANCH  40  54
ATOM     54  C   UNL A   1      46.925  28.176  26.727  1.00  0.00     0.023 A 
ATOM     55  C   UNL A   1      47.138  28.249  25.339  1.00  0.00     0.031 A 
ATOM     56  C   UNL A   1      47.914  27.558  27.513  1.00  0.00     0.131 A 
ATOM     57  C   UNL A   1      48.272  27.648  24.772  1.00  0.00     0.055 A 
ATOM     58  C   UNL A   1      49.078  27.029  26.951  1.00  0.00     0.041 A 
ATOM     59  F   UNL A   1      47.756  27.438  28.840  1.00  0.00    -0.206 F 
ATOM     60  C   UNL A   1      49.255  27.059  25.571  1.00  0.00     0.022 A 
BRANCH  57  61
ATOM     61  S   UNL A   1      48.375  27.517  22.966  1.00  0.00     0.124 S 
ATOM     62  O   UNL A   1      47.147  28.191  22.549  1.00  0.00    -0.237 OA
ATOM     63  O   UNL A   1      49.620  28.217  22.669  1.00  0.00    -0.237 OA
ATOM     64  O   UNL A   1      48.398  26.076  22.727  1.00  0.00    -0.744 OA
ENDBRANCH  57  61
ENDBRANCH  40  54
BRANCH  41  65
ATOM     65  C   UNL A   1      38.334  31.014  31.038  1.00  0.00     0.023 A 
ATOM     66  C   UNL A   1      37.316  31.681  30.339  1.00  0.00     0.031 A 
ATOM     67  C   UNL A   1      38.151  30.784  32.413  1.00  0.00     0.131 A 
ATOM     68  C   UNL A   1      36.177  32.132  31.026  1.00  0.00     0.055 A 
ATOM     69  C   UNL A   1      36.996  31.192  33.081  1.00  0.00     0.041 A 
ATOM     70  F   UNL A   1      39.094  30.147  33.126  1.00  0.00    -0.206 F 
ATOM     71  C   UNL A   1      36.006  31.881  32.389  1.00  0.00     0.022 A 
BRANCH  68  72
ATOM     72  S   UNL A   1      34.950  33.116  30.123  1.00  0.00     0.124 S 
ATOM     73  O   UNL A   1      35.773  34.187  29.573  1.00  0.00    -0.237 OA
ATOM     74  O   UNL A   1      34.432  32.148  29.163  1.00  0.00    -0.237 OA
ATOM     75  O   UNL A   1      34.008  33.523  31.164  1.00  0.00    -0.744 OA
ENDBRANCH  68  72
ENDBRANCH  41  65
BRANCH  53  76
ATOM     76  C   UNL A   1      44.461  34.162  30.029  1.00  0.00     0.023 A 
ATOM     77  C   UNL A   1      45.070  34.455  31.261  1.00  0.00     0.031 A 
ATOM     78  C   UNL A   1      44.266  35.215  29.118  1.00  0.00     0.131 A 
ATOM     79  C   UNL A   1      45.403  35.781  31.578  1.00  0.00     0.055 A 
ATOM     80  C   UNL A   1      44.650  36.523  29.417  1.00  0.00     0.041 A 
ATOM     81  F   UNL A   1      43.689  34.990  27.927  1.00  0.00    -0.206 F 
ATOM     82  C   UNL A   1      45.206  36.815  30.658  1.00  0.00     0.022 A 
BRANCH  79  83
ATOM     83  S   UNL A   1      45.990  36.156  33.253  1.00  0.00     0.124 S 
ATOM     84  O   UNL A   1      44.889  35.669  34.080  1.00  0.00    -0.237 OA
ATOM     85  O   UNL A   1      47.229  35.390  33.326  1.00  0.00    -0.237 OA
ATOM     86  O   UNL A   1      46.159  37.608  33.241  1.00  0.00    -0.744 OA
ENDBRANCH  79  83
ENDBRANCH  53  76
ENDBRANCH  27  28
ENDBRANCH  20  22
ENDBRANCH  19  20
ENDBRANCH  18  19
ENDBRANCH  17  18
ENDBRANCH  16  17
ENDBRANCH   1  16
TORSDOF 21
ENDMDL
MODEL 3
REMARK VINA RESULT:      -8.9      1.929      2.294
REMARK SMILES C[C@@H](CCCO)[NH2+][C@@H](C)CC(=O)OCCOC(=O)c1ccc(-c2c3nc(c(-c4cc(S(=O)(=O)[O-])ccc4F)c4ccc([nH]4)c(-c4cc(S(=O)(=O)[O-])ccc4F)c4nc(c(-c5cc(S(=O)(=O)[O-])ccc5F)c5ccc2[nH]5)C=C4)C=C3)cc1
REMARK SMILES IDX 11 1 12 2 10 3 8 4 9 5 7 6 2 9 1 10 3 11 4 12 5 13 6 14
REMARK SMILES IDX 13 16 14 17 15 18 16 19 17 20 18 21 19 22 20 23 81 24 21 25
REMARK SMILES IDX 80 26 22 27 23 28 24 29 74 30 25 31 79 32 73 33 75 34 26 35
REMARK SMILES IDX 78 36 72 37 71 38 27 40 59 41 39 42 58 43 40 44 43 45 57 46
REMARK SMILES IDX 76 47 41 48 42 49 56 51 77 52 44 53 28 54 29 55 37 56 30 57
REMARK SMILES IDX 36 58 38 59 35 60 31 61 32 62 33 63 34 64 60 65 61 66 69 67
REMARK SMILES IDX 62 68 68 69 70 70 67 71 63 72 64 73 65 74 66 75 45 76 46 77
REMARK SMILES IDX 54 78 47 79 53 80 55 81 52 82 48 83 49 84 50 85 51 86
REMARK H PARENT 7 7 7 8 6 15 75 39 43 50
REMARK Flexibility Score: inf
ROOT
ATOM      1  C   UNL A   1      34.733  22.800  25.593  1.00  0.00     0.311 C 
ATOM      2  O   UNL A   1      34.037  23.456  26.357  1.00  0.00    -0.252 OA
ENDROOT
BRANCH   1   3
ATOM      3  C   UNL A   1      34.800  23.077  24.109  1.00  0.00     0.187 C 
BRANCH   3   4
ATOM      4  C   UNL A   1      33.495  23.641  23.506  1.00  0.00     0.190 C 
ATOM      5  C   UNL A   1      32.808  22.570  22.646  1.00  0.00     0.076 C 
BRANCH   4   6
ATOM      6  N   UNL A   1      33.862  24.868  22.765  1.00  0.00    -0.341 N 
ATOM      7  H   UNL A   1      34.834  25.088  22.984  1.00  0.00     0.346 HD
ATOM      8  H   UNL A   1      33.699  24.660  21.780  1.00  0.00     0.346 HD
BRANCH   6   9
ATOM      9  C   UNL A   1      33.050  26.055  23.068  1.00  0.00     0.179 C 
ATOM     10  C   UNL A   1      31.656  25.890  22.447  1.00  0.00     0.075 C 
BRANCH   9  11
ATOM     11  C   UNL A   1      32.948  26.285  24.590  1.00  0.00     0.067 C 
BRANCH  11  12
ATOM     12  C   UNL A   1      31.935  27.329  25.094  1.00  0.00     0.034 C 
BRANCH  12  13
ATOM     13  C   UNL A   1      31.081  26.945  26.297  1.00  0.00     0.156 C 
BRANCH  13  14
ATOM     14  O   UNL A   1      31.460  25.684  26.819  1.00  0.00    -0.396 OA
ATOM     15  H   UNL A   1      32.289  25.399  26.404  1.00  0.00     0.210 HD
ENDBRANCH  13  14
ENDBRANCH  12  13
ENDBRANCH  11  12
ENDBRANCH   9  11
ENDBRANCH   6   9
ENDBRANCH   4   6
ENDBRANCH   3   4
ENDBRANCH   1   3
BRANCH   1  16
ATOM     16  O   UNL A   1      35.478  21.721  25.959  1.00  0.00    -0.462 OA
BRANCH  16  17
ATOM     17  C   UNL A   1      35.565  20.663  24.985  1.00  0.00     0.274 C 
BRANCH  17  18
ATOM     18  C   UNL A   1      36.946  20.005  25.003  1.00  0.00     0.275 C 
BRANCH  18  19
ATOM     19  O   UNL A   1      37.993  20.994  25.004  1.00  0.00    -0.458 OA
BRANCH  19  20
ATOM     20  C   UNL A   1      39.051  20.715  25.801  1.00  0.00     0.338 C 
ATOM     21  O   UNL A   1      39.563  19.625  25.992  1.00  0.00    -0.246 OA
BRANCH  20  22
ATOM     22  C   UNL A   1      39.620  21.967  26.323  1.00  0.00     0.060 A 
ATOM     23  C   UNL A   1      39.056  23.166  25.889  1.00  0.00     0.016 A 
ATOM     24  C   UNL A   1      40.752  21.974  27.137  1.00  0.00     0.016 A 
ATOM     25  C   UNL A   1      39.628  24.383  26.240  1.00  0.00     0.010 A 
ATOM     26  C   UNL A   1      41.320  23.201  27.507  1.00  0.00     0.010 A 
ATOM     27  C   UNL A   1      40.772  24.412  27.044  1.00  0.00    -0.014 A 
BRANCH  27  28
ATOM     28  C   UNL A   1      41.421  25.717  27.324  1.00  0.00     0.031 A 
ATOM     29  C   UNL A   1      40.711  26.739  28.167  1.00  0.00     0.074 A 
ATOM     30  C   UNL A   1      42.669  25.954  26.878  1.00  0.00     0.049 A 
ATOM     31  N   UNL A   1      41.096  27.939  28.516  1.00  0.00    -0.248 NA
ATOM     32  C   UNL A   1      39.387  26.356  28.679  1.00  0.00     0.031 C 
ATOM     33  C   UNL A   1      43.474  25.019  26.091  1.00  0.00     0.029 A 
ATOM     34  N   UNL A   1      43.482  27.048  27.033  1.00  0.00    -0.354 N 
ATOM     35  C   UNL A   1      40.058  28.464  29.281  1.00  0.00     0.074 A 
ATOM     36  C   UNL A   1      39.015  27.458  29.314  1.00  0.00     0.031 C 
ATOM     37  C   UNL A   1      44.670  25.575  25.840  1.00  0.00     0.029 A 
ATOM     38  C   UNL A   1      44.702  26.918  26.413  1.00  0.00     0.049 A 
ATOM     39  H   UNL A   1      43.217  27.849  27.539  1.00  0.00     0.167 HD
ATOM     40  C   UNL A   1      39.986  29.669  29.900  1.00  0.00     0.034 A 
ATOM     41  C   UNL A   1      45.725  27.790  26.307  1.00  0.00     0.034 A 
ATOM     42  C   UNL A   1      41.033  30.662  29.854  1.00  0.00     0.049 A 
ATOM     43  C   UNL A   1      45.604  29.138  26.968  1.00  0.00     0.074 A 
ATOM     44  C   UNL A   1      41.058  31.921  30.430  1.00  0.00     0.029 A 
ATOM     45  N   UNL A   1      42.246  30.509  29.191  1.00  0.00    -0.354 N 
ATOM     46  N   UNL A   1      44.606  29.633  27.664  1.00  0.00    -0.248 NA
ATOM     47  C   UNL A   1      46.754  30.041  26.837  1.00  0.00     0.031 C 
ATOM     48  C   UNL A   1      42.260  32.547  30.073  1.00  0.00     0.029 A 
ATOM     49  C   UNL A   1      43.015  31.655  29.329  1.00  0.00     0.049 A 
ATOM     50  H   UNL A   1      42.519  29.703  28.696  1.00  0.00     0.167 HD
ATOM     51  C   UNL A   1      45.017  30.900  28.069  1.00  0.00     0.074 A 
ATOM     52  C   UNL A   1      46.362  31.080  27.559  1.00  0.00     0.031 C 
ATOM     53  C   UNL A   1      44.347  31.829  28.797  1.00  0.00     0.034 A 
BRANCH  40  54
ATOM     54  C   UNL A   1      38.701  29.991  30.625  1.00  0.00     0.023 A 
ATOM     55  C   UNL A   1      37.666  30.721  30.014  1.00  0.00     0.031 A 
ATOM     56  C   UNL A   1      38.530  29.605  31.966  1.00  0.00     0.131 A 
ATOM     57  C   UNL A   1      36.544  31.106  30.763  1.00  0.00     0.055 A 
ATOM     58  C   UNL A   1      37.376  29.925  32.684  1.00  0.00     0.041 A 
ATOM     59  F   UNL A   1      39.493  28.926  32.610  1.00  0.00    -0.206 F 
ATOM     60  C   UNL A   1      36.381  30.693  32.087  1.00  0.00     0.022 A 
BRANCH  57  61
ATOM     61  S   UNL A   1      35.368  32.276  30.028  1.00  0.00     0.124 S 
ATOM     62  O   UNL A   1      34.401  32.444  31.111  1.00  0.00    -0.237 OA
ATOM     63  O   UNL A   1      36.211  33.431  29.739  1.00  0.00    -0.237 OA
ATOM     64  O   UNL A   1      34.862  31.564  28.857  1.00  0.00    -0.744 OA
ENDBRANCH  57  61
ENDBRANCH  40  54
BRANCH  41  65
ATOM     65  C   UNL A   1      46.936  27.436  25.517  1.00  0.00     0.023 A 
ATOM     66  C   UNL A   1      47.062  27.811  24.170  1.00  0.00     0.031 A 
ATOM     67  C   UNL A   1      47.970  26.676  26.091  1.00  0.00     0.131 A 
ATOM     68  C   UNL A   1      48.180  27.392  23.430  1.00  0.00     0.055 A 
ATOM     69  C   UNL A   1      49.101  26.302  25.364  1.00  0.00     0.041 A 
ATOM     70  F   UNL A   1      47.898  26.294  27.376  1.00  0.00    -0.206 F 
ATOM     71  C   UNL A   1      49.204  26.650  24.021  1.00  0.00     0.022 A 
BRANCH  68  72
ATOM     72  S   UNL A   1      48.240  27.772  21.657  1.00  0.00     0.124 S 
ATOM     73  O   UNL A   1      49.260  28.812  21.609  1.00  0.00    -0.237 OA
ATOM     74  O   UNL A   1      48.610  26.483  21.084  1.00  0.00    -0.237 OA
ATOM     75  O   UNL A   1      46.880  28.217  21.359  1.00  0.00    -0.744 OA
ENDBRANCH  68  72
ENDBRANCH  41  65
BRANCH  53  76
ATOM     76  C   UNL A   1      45.087  33.107  29.106  1.00  0.00     0.023 A 
ATOM     77  C   UNL A   1      44.962  34.247  28.293  1.00  0.00     0.031 A 
ATOM     78  C   UNL A   1      45.963  33.168  30.204  1.00  0.00     0.131 A 
ATOM     79  C   UNL A   1      45.751  35.379  28.550  1.00  0.00     0.055 A 
ATOM     80  C   UNL A   1      46.704  34.317  30.488  1.00  0.00     0.041 A 
ATOM     81  F   UNL A   1      46.121  32.108  31.013  1.00  0.00    -0.206 F 
ATOM     82  C   UNL A   1      46.613  35.424  29.649  1.00  0.00     0.022 A 
BRANCH  79  83
ATOM     83  S   UNL A   1      45.722  36.750  27.363  1.00  0.00     0.124 S 
ATOM     84  O   UNL A   1      46.761  36.357  26.416  1.00  0.00    -0.237 OA
ATOM     85  O   UNL A   1      44.352  36.698  26.862  1.00  0.00    -0.237 OA
ATOM     86  O   UNL A   1      46.039  37.919  28.180  1.00  0.00    -0.744 OA
ENDBRANCH  79  83
ENDBRANCH  53  76
ENDBRANCH  27  28
ENDBRANCH  20  22
ENDBRANCH  19  20
ENDBRANCH  18  19
ENDBRANCH  17  18
ENDBRANCH  16  17
ENDBRANCH   1  16
TORSDOF 21
ENDMDL
