MODEL 1
REMARK VINA RESULT:     -10.6      0.000      0.000
REMARK SMILES CC[C@@H]1SC[C@H](C(=O)OCCOC(=O)c2ccc(-c3c4nc(c(-c5cc(S(=O)(=O)[O-])ccc5F)c5ccc([nH]5)c(-c5cc(S(=O)(=O)[O-])ccc5F)c5nc(c(-c6cc(S(=O)(=O)[O-])ccc6F)c6ccc3[nH]6)C=C5)C=C4)cc2)N1C(=O)[C@](C)([NH3+])C(F)(F)F
REMARK SMILES IDX 10 1 9 2 7 3 8 4 6 5 3 6 4 7 78 8 5 9 2 10 1 11 79 12 80 13
REMARK SMILES IDX 81 14 82 15 83 16 84 20 85 21 86 22 87 23 11 24 12 25 13 26
REMARK SMILES IDX 14 27 15 28 16 29 77 30 17 31 76 32 18 33 19 34 20 35 70 36
REMARK SMILES IDX 21 37 75 38 69 39 71 40 22 41 74 42 68 43 67 44 23 46 55 47
REMARK SMILES IDX 35 48 54 49 36 50 39 51 53 52 72 53 37 54 38 55 52 57 73 58
REMARK SMILES IDX 40 59 24 60 25 61 33 62 26 63 32 64 34 65 31 66 27 67 28 68
REMARK SMILES IDX 29 69 30 70 56 71 57 72 65 73 58 74 64 75 66 76 63 77 59 78
REMARK SMILES IDX 60 79 61 80 62 81 41 82 42 83 50 84 43 85 49 86 51 87 48 88
REMARK SMILES IDX 44 89 45 90 46 91 47 92
REMARK H PARENT 83 17 83 18 83 19 71 45 39 56
REMARK Flexibility Score: inf
ROOT
ATOM      1  C   UNL A   1      36.861  22.308  23.696  1.00  0.00     0.274 C 
ENDROOT
BRANCH   1   2
ATOM      2  O   UNL A   1      35.750  22.998  24.306  1.00  0.00    -0.461 OA
BRANCH   2   3
ATOM      3  C   UNL A   1      34.705  23.247  23.468  1.00  0.00     0.329 C 
ATOM      4  O   UNL A   1      34.821  23.790  22.374  1.00  0.00    -0.250 OA
BRANCH   3   5
ATOM      5  C   UNL A   1      33.357  22.720  24.000  1.00  0.00     0.206 C 
ATOM      6  C   UNL A   1      32.082  22.532  26.106  1.00  0.00     0.144 C 
ATOM      7  S   UNL A   1      32.216  20.834  25.477  1.00  0.00    -0.134 SA
ATOM      8  N   UNL A   1      32.765  23.428  25.169  1.00  0.00    -0.310 N 
ATOM      9  C   UNL A   1      33.483  21.224  24.267  1.00  0.00     0.109 C 
BRANCH   6  10
ATOM     10  C   UNL A   1      32.537  22.573  27.570  1.00  0.00     0.033 C 
ATOM     11  C   UNL A   1      34.003  22.272  27.835  1.00  0.00     0.007 C 
ENDBRANCH   6  10
BRANCH   8  12
ATOM     12  C   UNL A   1      32.528  24.782  24.960  1.00  0.00     0.294 C 
ATOM     13  O   UNL A   1      33.325  25.596  25.457  1.00  0.00    -0.267 OA
BRANCH  12  14
ATOM     14  C   UNL A   1      31.339  25.412  24.179  1.00  0.00     0.267 C 
ATOM     15  C   UNL A   1      30.573  24.519  23.209  1.00  0.00     0.100 C 
BRANCH  14  16
ATOM     16  N   UNL A   1      31.959  26.461  23.258  1.00  0.00    -0.337 N 
ATOM     17  H   UNL A   1      31.559  26.371  22.324  1.00  0.00     0.345 HD
ATOM     18  H   UNL A   1      32.967  26.319  23.211  1.00  0.00     0.345 HD
ATOM     19  H   UNL A   1      31.763  27.394  23.624  1.00  0.00     0.345 HD
ENDBRANCH  14  16
BRANCH  14  20
ATOM     20  C   UNL A   1      30.432  26.056  25.254  1.00  0.00     0.453 C 
ATOM     21  F   UNL A   1      29.122  25.975  24.912  1.00  0.00    -0.164 F 
ATOM     22  F   UNL A   1      30.549  25.463  26.461  1.00  0.00    -0.164 F 
ATOM     23  F   UNL A   1      30.710  27.369  25.438  1.00  0.00    -0.164 F 
ENDBRANCH  14  20
ENDBRANCH  12  14
ENDBRANCH   8  12
ENDBRANCH   3   5
ENDBRANCH   2   3
ENDBRANCH   1   2
BRANCH   1  24
ATOM     24  C   UNL A   1      37.365  21.098  24.503  1.00  0.00     0.275 C 
BRANCH  24  25
ATOM     25  O   UNL A   1      37.731  21.426  25.858  1.00  0.00    -0.458 OA
BRANCH  25  26
ATOM     26  C   UNL A   1      39.056  21.332  26.128  1.00  0.00     0.338 C 
ATOM     27  O   UNL A   1      39.784  20.391  25.857  1.00  0.00    -0.246 OA
BRANCH  26  28
ATOM     28  C   UNL A   1      39.580  22.608  26.647  1.00  0.00     0.060 A 
ATOM     29  C   UNL A   1      38.998  23.783  26.162  1.00  0.00     0.016 A 
ATOM     30  C   UNL A   1      40.683  22.673  27.499  1.00  0.00     0.016 A 
ATOM     31  C   UNL A   1      39.514  25.025  26.502  1.00  0.00     0.010 A 
ATOM     32  C   UNL A   1      41.203  23.928  27.848  1.00  0.00     0.010 A 
ATOM     33  C   UNL A   1      40.630  25.108  27.337  1.00  0.00    -0.014 A 
BRANCH  33  34
ATOM     34  C   UNL A   1      41.226  26.438  27.603  1.00  0.00     0.031 A 
ATOM     35  C   UNL A   1      42.610  26.742  27.110  1.00  0.00     0.074 A 
ATOM     36  C   UNL A   1      40.509  27.378  28.245  1.00  0.00     0.049 A 
ATOM     37  N   UNL A   1      43.338  27.813  27.288  1.00  0.00    -0.248 NA
ATOM     38  C   UNL A   1      43.261  25.692  26.314  1.00  0.00     0.031 C 
ATOM     39  C   UNL A   1      39.136  27.208  28.722  1.00  0.00     0.029 A 
ATOM     40  N   UNL A   1      40.838  28.657  28.613  1.00  0.00    -0.354 N 
ATOM     41  C   UNL A   1      44.546  27.561  26.648  1.00  0.00     0.074 A 
ATOM     42  C   UNL A   1      44.456  26.223  26.099  1.00  0.00     0.031 C 
ATOM     43  C   UNL A   1      38.747  28.336  29.339  1.00  0.00     0.029 A 
ATOM     44  C   UNL A   1      39.855  29.286  29.340  1.00  0.00     0.049 A 
ATOM     45  H   UNL A   1      41.693  29.083  28.379  1.00  0.00     0.167 HD
ATOM     46  C   UNL A   1      45.628  28.372  26.533  1.00  0.00     0.034 A 
ATOM     47  C   UNL A   1      39.865  30.476  29.971  1.00  0.00     0.034 A 
ATOM     48  C   UNL A   1      45.693  29.703  27.089  1.00  0.00     0.049 A 
ATOM     49  C   UNL A   1      41.096  31.338  29.885  1.00  0.00     0.074 A 
ATOM     50  C   UNL A   1      46.722  30.625  27.005  1.00  0.00     0.029 A 
ATOM     51  N   UNL A   1      44.692  30.298  27.849  1.00  0.00    -0.354 N 
ATOM     52  N   UNL A   1      42.233  31.093  29.276  1.00  0.00    -0.248 NA
ATOM     53  C   UNL A   1      41.042  32.638  30.565  1.00  0.00     0.031 C 
ATOM     54  C   UNL A   1      46.371  31.745  27.770  1.00  0.00     0.029 A 
ATOM     55  C   UNL A   1      45.094  31.556  28.272  1.00  0.00     0.049 A 
ATOM     56  H   UNL A   1      43.822  29.885  28.057  1.00  0.00     0.167 HD
ATOM     57  C   UNL A   1      43.028  32.215  29.489  1.00  0.00     0.074 A 
ATOM     58  C   UNL A   1      42.232  33.143  30.268  1.00  0.00     0.031 C 
ATOM     59  C   UNL A   1      44.298  32.458  29.073  1.00  0.00     0.034 A 
BRANCH  46  60
ATOM     60  C   UNL A   1      46.844  27.801  25.841  1.00  0.00     0.023 A 
ATOM     61  C   UNL A   1      47.165  28.123  24.510  1.00  0.00     0.031 A 
ATOM     62  C   UNL A   1      47.657  26.867  26.506  1.00  0.00     0.131 A 
ATOM     63  C   UNL A   1      48.212  27.451  23.861  1.00  0.00     0.055 A 
ATOM     64  C   UNL A   1      48.750  26.263  25.879  1.00  0.00     0.041 A 
ATOM     65  F   UNL A   1      47.389  26.503  27.769  1.00  0.00    -0.206 F 
ATOM     66  C   UNL A   1      49.021  26.539  24.543  1.00  0.00     0.022 A 
BRANCH  63  67
ATOM     67  S   UNL A   1      48.393  27.656  22.066  1.00  0.00     0.124 S 
ATOM     68  O   UNL A   1      48.653  26.283  21.636  1.00  0.00    -0.237 OA
ATOM     69  O   UNL A   1      47.101  28.212  21.681  1.00  0.00    -0.237 OA
ATOM     70  O   UNL A   1      49.529  28.565  21.938  1.00  0.00    -0.744 OA
ENDBRANCH  63  67
ENDBRANCH  46  60
BRANCH  47  71
ATOM     71  C   UNL A   1      38.694  30.883  30.797  1.00  0.00     0.023 A 
ATOM     72  C   UNL A   1      37.590  31.537  30.232  1.00  0.00     0.031 A 
ATOM     73  C   UNL A   1      38.675  30.620  32.179  1.00  0.00     0.131 A 
ATOM     74  C   UNL A   1      36.518  31.927  31.052  1.00  0.00     0.055 A 
ATOM     75  C   UNL A   1      37.590  30.972  32.982  1.00  0.00     0.041 A 
ATOM     76  F   UNL A   1      39.708  29.993  32.765  1.00  0.00    -0.206 F 
ATOM     77  C   UNL A   1      36.506  31.637  32.420  1.00  0.00     0.022 A 
BRANCH  74  78
ATOM     78  S   UNL A   1      35.150  32.859  30.312  1.00  0.00     0.124 S 
ATOM     79  O   UNL A   1      34.672  31.931  29.294  1.00  0.00    -0.237 OA
ATOM     80  O   UNL A   1      34.268  33.065  31.457  1.00  0.00    -0.237 OA
ATOM     81  O   UNL A   1      35.796  34.067  29.803  1.00  0.00    -0.744 OA
ENDBRANCH  74  78
ENDBRANCH  47  71
BRANCH  59  82
ATOM     82  C   UNL A   1      44.886  33.799  29.438  1.00  0.00     0.023 A 
ATOM     83  C   UNL A   1      44.641  34.948  28.666  1.00  0.00     0.031 A 
ATOM     84  C   UNL A   1      45.715  33.924  30.568  1.00  0.00     0.131 A 
ATOM     85  C   UNL A   1      45.259  36.162  29.006  1.00  0.00     0.055 A 
ATOM     86  C   UNL A   1      46.283  35.145  30.931  1.00  0.00     0.041 A 
ATOM     87  F   UNL A   1      45.984  32.857  31.337  1.00  0.00    -0.206 F 
ATOM     88  C   UNL A   1      46.066  36.271  30.142  1.00  0.00     0.022 A 
BRANCH  85  89
ATOM     89  S   UNL A   1      45.064  37.582  27.894  1.00  0.00     0.124 S 
ATOM     90  O   UNL A   1      45.160  38.708  28.818  1.00  0.00    -0.237 OA
ATOM     91  O   UNL A   1      46.183  37.414  26.973  1.00  0.00    -0.237 OA
ATOM     92  O   UNL A   1      43.741  37.376  27.305  1.00  0.00    -0.744 OA
ENDBRANCH  85  89
ENDBRANCH  59  82
ENDBRANCH  33  34
ENDBRANCH  26  28
ENDBRANCH  25  26
ENDBRANCH  24  25
ENDBRANCH   1  24
TORSDOF 19
ENDMDL
MODEL 2
REMARK VINA RESULT:     -10.5      1.576      7.759
REMARK SMILES CC[C@@H]1SC[C@H](C(=O)OCCOC(=O)c2ccc(-c3c4nc(c(-c5cc(S(=O)(=O)[O-])ccc5F)c5ccc([nH]5)c(-c5cc(S(=O)(=O)[O-])ccc5F)c5nc(c(-c6cc(S(=O)(=O)[O-])ccc6F)c6ccc3[nH]6)C=C5)C=C4)cc2)N1C(=O)[C@](C)([NH3+])C(F)(F)F
REMARK SMILES IDX 10 1 9 2 7 3 8 4 6 5 3 6 4 7 78 8 5 9 2 10 1 11 79 12 80 13
REMARK SMILES IDX 81 14 82 15 83 16 84 20 85 21 86 22 87 23 11 24 12 25 13 26
REMARK SMILES IDX 14 27 15 28 16 29 77 30 17 31 76 32 18 33 19 34 20 35 70 36
REMARK SMILES IDX 21 37 75 38 69 39 71 40 22 41 74 42 68 43 67 44 23 46 55 47
REMARK SMILES IDX 35 48 54 49 36 50 39 51 53 52 72 53 37 54 38 55 52 57 73 58
REMARK SMILES IDX 40 59 24 60 25 61 33 62 26 63 32 64 34 65 31 66 27 67 28 68
REMARK SMILES IDX 29 69 30 70 56 71 57 72 65 73 58 74 64 75 66 76 63 77 59 78
REMARK SMILES IDX 60 79 61 80 62 81 41 82 42 83 50 84 43 85 49 86 51 87 48 88
REMARK SMILES IDX 44 89 45 90 46 91 47 92
REMARK H PARENT 83 17 83 18 83 19 71 45 39 56
REMARK Flexibility Score: inf
ROOT
ATOM      1  C   UNL A   1      36.178  22.917  24.079  1.00  0.00     0.274 C 
ENDROOT
BRANCH   1   2
ATOM      2  O   UNL A   1      35.301  22.816  22.938  1.00  0.00    -0.461 OA
BRANCH   2   3
ATOM      3  C   UNL A   1      34.193  23.607  22.998  1.00  0.00     0.329 C 
ATOM      4  O   UNL A   1      34.113  24.712  22.472  1.00  0.00    -0.250 OA
BRANCH   3   5
ATOM      5  C   UNL A   1      33.014  22.949  23.742  1.00  0.00     0.206 C 
ATOM      6  C   UNL A   1      32.248  22.452  26.037  1.00  0.00     0.144 C 
ATOM      7  S   UNL A   1      32.284  20.848  25.188  1.00  0.00    -0.134 SA
ATOM      8  N   UNL A   1      32.679  23.486  25.092  1.00  0.00    -0.310 N 
ATOM      9  C   UNL A   1      33.236  21.442  23.788  1.00  0.00     0.109 C 
BRANCH   6  10
ATOM     10  C   UNL A   1      33.019  22.349  27.359  1.00  0.00     0.033 C 
ATOM     11  C   UNL A   1      34.484  22.751  27.325  1.00  0.00     0.007 C 
ENDBRANCH   6  10
BRANCH   8  12
ATOM     12  C   UNL A   1      32.365  24.840  25.110  1.00  0.00     0.294 C 
ATOM     13  O   UNL A   1      33.080  25.595  25.790  1.00  0.00    -0.267 OA
BRANCH  12  14
ATOM     14  C   UNL A   1      31.179  25.533  24.379  1.00  0.00     0.267 C 
ATOM     15  C   UNL A   1      30.509  24.777  23.237  1.00  0.00     0.100 C 
BRANCH  14  16
ATOM     16  N   UNL A   1      31.780  26.748  23.675  1.00  0.00    -0.337 N 
ATOM     17  H   UNL A   1      31.041  27.262  23.195  1.00  0.00     0.345 HD
ATOM     18  H   UNL A   1      32.475  26.438  22.996  1.00  0.00     0.345 HD
ATOM     19  H   UNL A   1      32.224  27.355  24.364  1.00  0.00     0.345 HD
ENDBRANCH  14  16
BRANCH  14  20
ATOM     20  C   UNL A   1      30.190  25.947  25.494  1.00  0.00     0.453 C 
ATOM     21  F   UNL A   1      28.947  26.167  24.999  1.00  0.00    -0.164 F 
ATOM     22  F   UNL A   1      30.058  25.004  26.452  1.00  0.00    -0.164 F 
ATOM     23  F   UNL A   1      30.573  27.085  26.120  1.00  0.00    -0.164 F 
ENDBRANCH  14  20
ENDBRANCH  12  14
ENDBRANCH   8  12
ENDBRANCH   3   5
ENDBRANCH   2   3
ENDBRANCH   1   2
BRANCH   1  24
ATOM     24  C   UNL A   1      36.921  21.612  24.414  1.00  0.00     0.275 C 
BRANCH  24  25
ATOM     25  O   UNL A   1      37.346  21.533  25.789  1.00  0.00    -0.458 OA
BRANCH  25  26
ATOM     26  C   UNL A   1      38.670  21.297  25.962  1.00  0.00     0.338 C 
ATOM     27  O   UNL A   1      39.291  20.328  25.556  1.00  0.00    -0.246 OA
BRANCH  26  28
ATOM     28  C   UNL A   1      39.338  22.464  26.565  1.00  0.00     0.060 A 
ATOM     29  C   UNL A   1      38.905  23.729  26.159  1.00  0.00     0.016 A 
ATOM     30  C   UNL A   1      40.434  22.339  27.421  1.00  0.00     0.016 A 
ATOM     31  C   UNL A   1      39.564  24.875  26.582  1.00  0.00     0.010 A 
ATOM     32  C   UNL A   1      41.097  23.497  27.853  1.00  0.00     0.010 A 
ATOM     33  C   UNL A   1      40.675  24.768  27.421  1.00  0.00    -0.014 A 
BRANCH  33  34
ATOM     34  C   UNL A   1      41.423  25.997  27.776  1.00  0.00     0.031 A 
ATOM     35  C   UNL A   1      40.726  27.101  28.516  1.00  0.00     0.074 A 
ATOM     36  C   UNL A   1      42.730  26.098  27.472  1.00  0.00     0.049 A 
ATOM     37  N   UNL A   1      41.175  28.278  28.866  1.00  0.00    -0.248 NA
ATOM     38  C   UNL A   1      39.334  26.841  28.910  1.00  0.00     0.031 C 
ATOM     39  C   UNL A   1      43.519  25.065  26.800  1.00  0.00     0.029 A 
ATOM     40  N   UNL A   1      43.619  27.120  27.681  1.00  0.00    -0.354 N 
ATOM     41  C   UNL A   1      40.114  28.914  29.500  1.00  0.00     0.074 A 
ATOM     42  C   UNL A   1      38.994  27.996  29.463  1.00  0.00     0.031 C 
ATOM     43  C   UNL A   1      44.773  25.516  26.632  1.00  0.00     0.029 A 
ATOM     44  C   UNL A   1      44.861  26.881  27.143  1.00  0.00     0.049 A 
ATOM     45  H   UNL A   1      43.390  27.944  28.167  1.00  0.00     0.167 HD
ATOM     46  C   UNL A   1      40.082  30.150  30.058  1.00  0.00     0.034 A 
ATOM     47  C   UNL A   1      45.935  27.687  27.037  1.00  0.00     0.034 A 
ATOM     48  C   UNL A   1      41.213  31.047  30.083  1.00  0.00     0.049 A 
ATOM     49  C   UNL A   1      45.862  29.078  27.608  1.00  0.00     0.074 A 
ATOM     50  C   UNL A   1      41.305  32.307  30.650  1.00  0.00     0.029 A 
ATOM     51  N   UNL A   1      42.448  30.787  29.500  1.00  0.00    -0.354 N 
ATOM     52  N   UNL A   1      44.856  29.672  28.208  1.00  0.00    -0.248 NA
ATOM     53  C   UNL A   1      47.070  29.904  27.493  1.00  0.00     0.031 C 
ATOM     54  C   UNL A   1      42.568  32.833  30.351  1.00  0.00     0.029 A 
ATOM     55  C   UNL A   1      43.293  31.875  29.660  1.00  0.00     0.049 A 
ATOM     56  H   UNL A   1      42.688  29.949  29.041  1.00  0.00     0.167 HD
ATOM     57  C   UNL A   1      45.314  30.939  28.554  1.00  0.00     0.074 A 
ATOM     58  C   UNL A   1      46.693  31.016  28.110  1.00  0.00     0.031 C 
ATOM     59  C   UNL A   1      44.657  31.946  29.186  1.00  0.00     0.034 A 
BRANCH  46  60
ATOM     60  C   UNL A   1      38.757  30.618  30.615  1.00  0.00     0.023 A 
ATOM     61  C   UNL A   1      37.792  31.253  29.814  1.00  0.00     0.031 A 
ATOM     62  C   UNL A   1      38.486  30.482  31.988  1.00  0.00     0.131 A 
ATOM     63  C   UNL A   1      36.647  31.808  30.405  1.00  0.00     0.055 A 
ATOM     64  C   UNL A   1      37.304  30.963  32.557  1.00  0.00     0.041 A 
ATOM     65  F   UNL A   1      39.376  29.904  32.808  1.00  0.00    -0.206 F 
ATOM     66  C   UNL A   1      36.385  31.647  31.768  1.00  0.00     0.022 A 
BRANCH  63  67
ATOM     67  S   UNL A   1      35.590  32.890  29.402  1.00  0.00     0.124 S 
ATOM     68  O   UNL A   1      36.312  34.158  29.472  1.00  0.00    -0.237 OA
ATOM     69  O   UNL A   1      35.596  32.222  28.106  1.00  0.00    -0.237 OA
ATOM     70  O   UNL A   1      34.311  32.872  30.109  1.00  0.00    -0.744 OA
ENDBRANCH  63  67
ENDBRANCH  46  60
BRANCH  47  71
ATOM     71  C   UNL A   1      47.141  27.218  26.300  1.00  0.00     0.023 A 
ATOM     72  C   UNL A   1      48.182  26.540  26.950  1.00  0.00     0.031 A 
ATOM     73  C   UNL A   1      47.263  27.453  24.917  1.00  0.00     0.131 A 
ATOM     74  C   UNL A   1      49.313  26.138  26.222  1.00  0.00     0.055 A 
ATOM     75  C   UNL A   1      48.370  27.015  24.190  1.00  0.00     0.041 A 
ATOM     76  F   UNL A   1      46.291  28.095  24.250  1.00  0.00    -0.206 F 
ATOM     77  C   UNL A   1      49.407  26.359  24.844  1.00  0.00     0.022 A 
BRANCH  74  78
ATOM     78  S   UNL A   1      50.686  25.353  27.108  1.00  0.00     0.124 S 
ATOM     79  O   UNL A   1      51.210  26.466  27.893  1.00  0.00    -0.237 OA
ATOM     80  O   UNL A   1      50.004  24.304  27.859  1.00  0.00    -0.237 OA
ATOM     81  O   UNL A   1      51.558  24.880  26.036  1.00  0.00    -0.744 OA
ENDBRANCH  74  78
ENDBRANCH  47  71
BRANCH  59  82
ATOM     82  C   UNL A   1      45.443  33.206  29.454  1.00  0.00     0.023 A 
ATOM     83  C   UNL A   1      45.438  34.286  28.553  1.00  0.00     0.031 A 
ATOM     84  C   UNL A   1      46.217  33.322  30.622  1.00  0.00     0.131 A 
ATOM     85  C   UNL A   1      46.233  35.414  28.812  1.00  0.00     0.055 A 
ATOM     86  C   UNL A   1      46.962  34.468  30.900  1.00  0.00     0.041 A 
ATOM     87  F   UNL A   1      46.259  32.319  31.514  1.00  0.00    -0.206 F 
ATOM     88  C   UNL A   1      46.982  35.517  29.986  1.00  0.00     0.022 A 
BRANCH  85  89
ATOM     89  S   UNL A   1      46.341  36.712  27.549  1.00  0.00     0.124 S 
ATOM     90  O   UNL A   1      46.471  35.933  26.322  1.00  0.00    -0.237 OA
ATOM     91  O   UNL A   1      45.079  37.424  27.723  1.00  0.00    -0.237 OA
ATOM     92  O   UNL A   1      47.534  37.465  27.934  1.00  0.00    -0.744 OA
ENDBRANCH  85  89
ENDBRANCH  59  82
ENDBRANCH  33  34
ENDBRANCH  26  28
ENDBRANCH  25  26
ENDBRANCH  24  25
ENDBRANCH   1  24
TORSDOF 19
ENDMDL
MODEL 3
REMARK VINA RESULT:     -10.4      5.172      7.697
REMARK SMILES CC[C@@H]1SC[C@H](C(=O)OCCOC(=O)c2ccc(-c3c4nc(c(-c5cc(S(=O)(=O)[O-])ccc5F)c5ccc([nH]5)c(-c5cc(S(=O)(=O)[O-])ccc5F)c5nc(c(-c6cc(S(=O)(=O)[O-])ccc6F)c6ccc3[nH]6)C=C5)C=C4)cc2)N1C(=O)[C@](C)([NH3+])C(F)(F)F
REMARK SMILES IDX 10 1 9 2 7 3 8 4 6 5 3 6 4 7 78 8 5 9 2 10 1 11 79 12 80 13
REMARK SMILES IDX 81 14 82 15 83 16 84 20 85 21 86 22 87 23 11 24 12 25 13 26
REMARK SMILES IDX 14 27 15 28 16 29 77 30 17 31 76 32 18 33 19 34 20 35 70 36
REMARK SMILES IDX 21 37 75 38 69 39 71 40 22 41 74 42 68 43 67 44 23 46 55 47
REMARK SMILES IDX 35 48 54 49 36 50 39 51 53 52 72 53 37 54 38 55 52 57 73 58
REMARK SMILES IDX 40 59 24 60 25 61 33 62 26 63 32 64 34 65 31 66 27 67 28 68
REMARK SMILES IDX 29 69 30 70 56 71 57 72 65 73 58 74 64 75 66 76 63 77 59 78
REMARK SMILES IDX 60 79 61 80 62 81 41 82 42 83 50 84 43 85 49 86 51 87 48 88
REMARK SMILES IDX 44 89 45 90 46 91 47 92
REMARK H PARENT 83 17 83 18 83 19 71 45 39 56
REMARK Flexibility Score: inf
ROOT
ATOM      1  C   UNL A   1      31.565  29.373  27.213  1.00  0.00     0.274 C 
ENDROOT
BRANCH   1   2
ATOM      2  O   UNL A   1      32.683  28.487  26.991  1.00  0.00    -0.461 OA
BRANCH   2   3
ATOM      3  C   UNL A   1      32.902  28.161  25.687  1.00  0.00     0.329 C 
ATOM      4  O   UNL A   1      34.017  28.009  25.199  1.00  0.00    -0.250 OA
BRANCH   3   5
ATOM      5  C   UNL A   1      31.603  27.934  24.889  1.00  0.00     0.206 C 
ATOM      6  C   UNL A   1      30.648  26.405  23.201  1.00  0.00     0.144 C 
ATOM      7  S   UNL A   1      30.510  28.063  22.475  1.00  0.00    -0.134 SA
ATOM      8  N   UNL A   1      31.270  26.528  24.522  1.00  0.00    -0.310 N 
ATOM      9  C   UNL A   1      31.613  28.837  23.660  1.00  0.00     0.109 C 
BRANCH   6  10
ATOM     10  C   UNL A   1      31.321  25.460  22.196  1.00  0.00     0.033 C 
ATOM     11  C   UNL A   1      32.647  25.921  21.614  1.00  0.00     0.007 C 
ENDBRANCH   6  10
BRANCH   8  12
ATOM     12  C   UNL A   1      31.145  25.666  25.605  1.00  0.00     0.294 C 
ATOM     13  O   UNL A   1      30.525  26.071  26.603  1.00  0.00    -0.267 OA
BRANCH  12  14
ATOM     14  C   UNL A   1      31.725  24.227  25.725  1.00  0.00     0.267 C 
ATOM     15  C   UNL A   1      31.205  23.168  24.759  1.00  0.00     0.100 C 
BRANCH  14  16
ATOM     16  N   UNL A   1      31.261  23.706  27.084  1.00  0.00    -0.337 N 
ATOM     17  H   UNL A   1      31.093  24.494  27.710  1.00  0.00     0.345 HD
ATOM     18  H   UNL A   1      31.981  23.104  27.481  1.00  0.00     0.345 HD
ATOM     19  H   UNL A   1      30.398  23.174  26.967  1.00  0.00     0.345 HD
ENDBRANCH  14  16
BRANCH  14  20
ATOM     20  C   UNL A   1      33.262  24.395  25.670  1.00  0.00     0.453 C 
ATOM     21  F   UNL A   1      33.693  25.319  26.563  1.00  0.00    -0.164 F 
ATOM     22  F   UNL A   1      33.923  23.252  25.952  1.00  0.00    -0.164 F 
ATOM     23  F   UNL A   1      33.688  24.799  24.449  1.00  0.00    -0.164 F 
ENDBRANCH  14  20
ENDBRANCH  12  14
ENDBRANCH   8  12
ENDBRANCH   3   5
ENDBRANCH   2   3
ENDBRANCH   1   2
BRANCH   1  24
ATOM     24  C   UNL A   1      31.848  30.841  26.849  1.00  0.00     0.275 C 
BRANCH  24  25
ATOM     25  O   UNL A   1      33.242  31.111  26.605  1.00  0.00    -0.458 OA
BRANCH  25  26
ATOM     26  C   UNL A   1      33.792  32.047  27.417  1.00  0.00     0.338 C 
ATOM     27  O   UNL A   1      33.241  33.052  27.839  1.00  0.00    -0.246 OA
BRANCH  26  28
ATOM     28  C   UNL A   1      35.117  31.616  27.897  1.00  0.00     0.060 A 
ATOM     29  C   UNL A   1      35.232  30.304  28.364  1.00  0.00     0.016 A 
ATOM     30  C   UNL A   1      36.198  32.493  27.996  1.00  0.00     0.016 A 
ATOM     31  C   UNL A   1      36.410  29.858  28.947  1.00  0.00     0.010 A 
ATOM     32  C   UNL A   1      37.390  32.042  28.581  1.00  0.00     0.010 A 
ATOM     33  C   UNL A   1      37.495  30.728  29.074  1.00  0.00    -0.014 A 
BRANCH  33  34
ATOM     34  C   UNL A   1      38.704  30.262  29.792  1.00  0.00     0.031 A 
ATOM     35  C   UNL A   1      39.595  29.236  29.155  1.00  0.00     0.074 A 
ATOM     36  C   UNL A   1      39.020  30.791  30.989  1.00  0.00     0.049 A 
ATOM     37  N   UNL A   1      40.660  28.649  29.634  1.00  0.00    -0.248 NA
ATOM     38  C   UNL A   1      39.230  28.814  27.795  1.00  0.00     0.031 C 
ATOM     39  C   UNL A   1      38.253  31.830  31.677  1.00  0.00     0.029 A 
ATOM     40  N   UNL A   1      40.060  30.520  31.838  1.00  0.00    -0.354 N 
ATOM     41  C   UNL A   1      41.083  27.766  28.647  1.00  0.00     0.074 A 
ATOM     42  C   UNL A   1      40.140  27.883  27.552  1.00  0.00     0.031 C 
ATOM     43  C   UNL A   1      38.840  32.094  32.856  1.00  0.00     0.029 A 
ATOM     44  C   UNL A   1      39.993  31.214  33.023  1.00  0.00     0.049 A 
ATOM     45  H   UNL A   1      40.785  29.890  31.622  1.00  0.00     0.167 HD
ATOM     46  C   UNL A   1      42.156  26.937  28.657  1.00  0.00     0.034 A 
ATOM     47  C   UNL A   1      40.749  31.119  34.133  1.00  0.00     0.034 A 
ATOM     48  C   UNL A   1      43.082  26.840  29.761  1.00  0.00     0.049 A 
ATOM     49  C   UNL A   1      41.901  30.149  34.151  1.00  0.00     0.074 A 
ATOM     50  C   UNL A   1      44.222  26.061  29.867  1.00  0.00     0.029 A 
ATOM     51  N   UNL A   1      42.966  27.534  30.961  1.00  0.00    -0.354 N 
ATOM     52  N   UNL A   1      42.295  29.320  33.212  1.00  0.00    -0.248 NA
ATOM     53  C   UNL A   1      42.711  30.108  35.374  1.00  0.00     0.031 C 
ATOM     54  C   UNL A   1      44.753  26.232  31.152  1.00  0.00     0.029 A 
ATOM     55  C   UNL A   1      43.988  27.173  31.825  1.00  0.00     0.049 A 
ATOM     56  H   UNL A   1      42.259  28.188  31.166  1.00  0.00     0.167 HD
ATOM     57  C   UNL A   1      43.409  28.665  33.728  1.00  0.00     0.074 A 
ATOM     58  C   UNL A   1      43.633  29.210  35.052  1.00  0.00     0.031 C 
ATOM     59  C   UNL A   1      44.181  27.705  33.155  1.00  0.00     0.034 A 
BRANCH  46  60
ATOM     60  C   UNL A   1      42.331  26.024  27.465  1.00  0.00     0.023 A 
ATOM     61  C   UNL A   1      41.786  24.729  27.431  1.00  0.00     0.031 A 
ATOM     62  C   UNL A   1      43.113  26.438  26.373  1.00  0.00     0.131 A 
ATOM     63  C   UNL A   1      42.105  23.863  26.373  1.00  0.00     0.055 A 
ATOM     64  C   UNL A   1      43.357  25.600  25.282  1.00  0.00     0.041 A 
ATOM     65  F   UNL A   1      43.677  27.655  26.357  1.00  0.00    -0.206 F 
ATOM     66  C   UNL A   1      42.868  24.298  25.287  1.00  0.00     0.022 A 
BRANCH  63  67
ATOM     67  S   UNL A   1      41.652  22.111  26.518  1.00  0.00     0.124 S 
ATOM     68  O   UNL A   1      42.628  21.479  25.634  1.00  0.00    -0.237 OA
ATOM     69  O   UNL A   1      41.825  21.860  27.944  1.00  0.00    -0.237 OA
ATOM     70  O   UNL A   1      40.273  22.073  26.038  1.00  0.00    -0.744 OA
ENDBRANCH  63  67
ENDBRANCH  46  60
BRANCH  47  71
ATOM     71  C   UNL A   1      40.393  31.916  35.340  1.00  0.00     0.023 A 
ATOM     72  C   UNL A   1      39.332  31.545  36.178  1.00  0.00     0.031 A 
ATOM     73  C   UNL A   1      41.122  33.075  35.665  1.00  0.00     0.131 A 
ATOM     74  C   UNL A   1      39.014  32.340  37.291  1.00  0.00     0.055 A 
ATOM     75  C   UNL A   1      40.829  33.838  36.795  1.00  0.00     0.041 A 
ATOM     76  F   UNL A   1      42.150  33.469  34.895  1.00  0.00    -0.206 F 
ATOM     77  C   UNL A   1      39.764  33.475  37.612  1.00  0.00     0.022 A 
BRANCH  74  78
ATOM     78  S   UNL A   1      37.574  31.892  38.299  1.00  0.00     0.124 S 
ATOM     79  O   UNL A   1      36.619  32.932  37.935  1.00  0.00    -0.237 OA
ATOM     80  O   UNL A   1      37.272  30.548  37.817  1.00  0.00    -0.237 OA
ATOM     81  O   UNL A   1      38.081  31.960  39.667  1.00  0.00    -0.744 OA
ENDBRANCH  74  78
ENDBRANCH  47  71
BRANCH  59  82
ATOM     82  C   UNL A   1      45.356  27.208  33.961  1.00  0.00     0.023 A 
ATOM     83  C   UNL A   1      45.244  26.107  34.828  1.00  0.00     0.031 A 
ATOM     84  C   UNL A   1      46.601  27.855  33.868  1.00  0.00     0.131 A 
ATOM     85  C   UNL A   1      46.346  25.718  35.607  1.00  0.00     0.055 A 
ATOM     86  C   UNL A   1      47.707  27.429  34.604  1.00  0.00     0.041 A 
ATOM     87  F   UNL A   1      46.761  28.914  33.058  1.00  0.00    -0.206 F 
ATOM     88  C   UNL A   1      47.580  26.362  35.488  1.00  0.00     0.022 A 
BRANCH  85  89
ATOM     89  S   UNL A   1      46.121  24.407  36.842  1.00  0.00     0.124 S 
ATOM     90  O   UNL A   1      46.690  23.248  36.162  1.00  0.00    -0.237 OA
ATOM     91  O   UNL A   1      46.880  24.917  37.979  1.00  0.00    -0.237 OA
ATOM     92  O   UNL A   1      44.672  24.363  37.034  1.00  0.00    -0.744 OA
ENDBRANCH  85  89
ENDBRANCH  59  82
ENDBRANCH  33  34
ENDBRANCH  26  28
ENDBRANCH  25  26
ENDBRANCH  24  25
ENDBRANCH   1  24
TORSDOF 19
ENDMDL
