MODEL 1
REMARK VINA RESULT:     -13.6      0.000      0.000
REMARK SMILES Cc1c(NC(=O)c2ccc(-c3cccc(Cl)c3)o2)cccc1C(=O)OCCOC(=O)c1ccc(-c2c3nc(c(-c4cc(S(=O)(=O)[O-])ccc4F)c4ccc([nH]4)c(-c4cc(S(=O)(=O)[O-])ccc4F)c4nc(c(-c5cc(S(=O)(=O)[O-])ccc5F)c5ccc2[nH]5)C=C4)C=C3)cc1
REMARK SMILES IDX 26 1 25 2 23 3 24 4 22 5 1 6 2 7 3 8 19 9 21 10 20 11 4 12
REMARK SMILES IDX 5 13 6 15 7 16 8 17 18 18 9 19 10 20 11 21 12 22 17 23 13 24
REMARK SMILES IDX 15 25 14 26 16 27 27 28 28 29 29 30 30 31 31 32 32 33 93 34
REMARK SMILES IDX 33 35 92 36 34 37 35 38 36 39 86 40 37 41 91 42 85 43 87 44
REMARK SMILES IDX 38 45 90 46 84 47 83 48 39 50 71 51 51 52 70 53 52 54 55 55
REMARK SMILES IDX 69 56 88 57 53 58 54 59 68 61 89 62 56 63 40 64 41 65 49 66
REMARK SMILES IDX 42 67 48 68 50 69 47 70 43 71 44 72 45 73 46 74 72 75 73 76
REMARK SMILES IDX 81 77 74 78 80 79 82 80 79 81 75 82 76 83 77 84 78 85 57 86
REMARK SMILES IDX 58 87 66 88 59 89 65 90 67 91 64 92 60 93 61 94 62 95 63 96
REMARK H PARENT 4 14 87 49 55 60
REMARK Flexibility Score: inf
ROOT
ATOM      1  C   UNL A   1      33.105  30.373  27.100  1.00  0.00     0.275 C 
ENDROOT
BRANCH   1   2
ATOM      2  O   UNL A   1      33.046  29.695  25.835  1.00  0.00    -0.458 OA
BRANCH   2   3
ATOM      3  C   UNL A   1      31.776  29.646  25.358  1.00  0.00     0.338 C 
ATOM      4  O   UNL A   1      31.013  30.598  25.299  1.00  0.00    -0.246 OA
BRANCH   3   5
ATOM      5  C   UNL A   1      31.330  28.303  24.927  1.00  0.00     0.065 A 
ATOM      6  C   UNL A   1      31.413  27.511  27.342  1.00  0.00     0.047 C 
ATOM      7  C   UNL A   1      30.981  27.347  25.905  1.00  0.00    -0.013 A 
ATOM      8  C   UNL A   1      30.271  26.199  25.499  1.00  0.00     0.045 A 
ATOM      9  C   UNL A   1      29.755  26.147  24.201  1.00  0.00     0.026 A 
ATOM     10  C   UNL A   1      31.044  28.071  23.578  1.00  0.00     0.016 A 
ATOM     11  C   UNL A   1      30.188  27.037  23.225  1.00  0.00     0.003 A 
BRANCH   8  12
ATOM     12  N   UNL A   1      30.116  25.141  26.418  1.00  0.00    -0.319 N 
ATOM     13  C   UNL A   1      30.642  23.863  26.450  1.00  0.00     0.291 C 
ATOM     14  H   UNL A   1      29.524  25.350  27.176  1.00  0.00     0.170 HD
ATOM     15  O   UNL A   1      30.280  23.128  27.372  1.00  0.00    -0.265 OA
BRANCH  13  16
ATOM     16  C   UNL A   1      31.628  23.458  25.478  1.00  0.00     0.192 A 
ATOM     17  C   UNL A   1      31.540  23.073  24.150  1.00  0.00     0.057 A 
ATOM     18  O   UNL A   1      32.927  23.369  25.892  1.00  0.00    -0.451 OA
ATOM     19  C   UNL A   1      32.835  22.647  23.767  1.00  0.00     0.052 A 
ATOM     20  C   UNL A   1      33.651  22.865  24.856  1.00  0.00     0.135 A 
BRANCH  20  21
ATOM     21  C   UNL A   1      35.071  22.703  25.095  1.00  0.00     0.019 A 
ATOM     22  C   UNL A   1      35.819  23.798  25.551  1.00  0.00     0.012 A 
ATOM     23  C   UNL A   1      35.711  21.474  24.887  1.00  0.00     0.032 A 
ATOM     24  C   UNL A   1      37.184  23.670  25.805  1.00  0.00     0.002 A 
ATOM     25  C   UNL A   1      37.078  21.355  25.131  1.00  0.00     0.041 A 
ATOM     26  C   UNL A   1      37.815  22.447  25.592  1.00  0.00     0.020 A 
ATOM     27  Cl  UNL A   1      37.873  19.852  24.866  1.00  0.00    -0.084 Cl
ENDBRANCH  20  21
ENDBRANCH  13  16
ENDBRANCH   8  12
ENDBRANCH   3   5
ENDBRANCH   2   3
ENDBRANCH   1   2
BRANCH   1  28
ATOM     28  C   UNL A   1      34.502  30.869  27.494  1.00  0.00     0.275 C 
BRANCH  28  29
ATOM     29  O   UNL A   1      35.552  29.952  27.897  1.00  0.00    -0.458 OA
BRANCH  29  30
ATOM     30  C   UNL A   1      36.447  30.238  28.871  1.00  0.00     0.338 C 
ATOM     31  O   UNL A   1      36.201  31.010  29.796  1.00  0.00    -0.246 OA
BRANCH  30  32
ATOM     32  C   UNL A   1      37.676  29.417  28.816  1.00  0.00     0.060 A 
ATOM     33  C   UNL A   1      38.632  29.681  27.820  1.00  0.00     0.016 A 
ATOM     34  C   UNL A   1      37.981  28.579  29.883  1.00  0.00     0.016 A 
ATOM     35  C   UNL A   1      39.937  29.237  27.965  1.00  0.00     0.010 A 
ATOM     36  C   UNL A   1      39.294  28.273  30.118  1.00  0.00     0.010 A 
ATOM     37  C   UNL A   1      40.253  28.557  29.136  1.00  0.00    -0.014 A 
BRANCH  37  38
ATOM     38  C   UNL A   1      41.433  27.727  29.263  1.00  0.00     0.031 A 
ATOM     39  C   UNL A   1      41.441  26.336  28.800  1.00  0.00     0.074 A 
ATOM     40  C   UNL A   1      42.466  28.470  29.726  1.00  0.00     0.049 A 
ATOM     41  N   UNL A   1      42.284  25.455  29.196  1.00  0.00    -0.248 NA
ATOM     42  C   UNL A   1      40.454  25.770  27.882  1.00  0.00     0.031 C 
ATOM     43  C   UNL A   1      43.894  28.249  29.790  1.00  0.00     0.029 A 
ATOM     44  N   UNL A   1      42.296  29.661  30.438  1.00  0.00    -0.354 N 
ATOM     45  C   UNL A   1      42.204  24.379  28.330  1.00  0.00     0.074 A 
ATOM     46  C   UNL A   1      40.950  24.548  27.650  1.00  0.00     0.031 C 
ATOM     47  C   UNL A   1      44.406  29.071  30.735  1.00  0.00     0.029 A 
ATOM     48  C   UNL A   1      43.289  29.751  31.393  1.00  0.00     0.049 A 
ATOM     49  H   UNL A   1      41.585  30.326  30.285  1.00  0.00     0.167 HD
ATOM     50  C   UNL A   1      43.319  23.608  28.175  1.00  0.00     0.034 A 
ATOM     51  C   UNL A   1      42.885  29.569  32.688  1.00  0.00     0.034 A 
ATOM     52  C   UNL A   1      44.346  24.083  29.102  1.00  0.00     0.049 A 
ATOM     53  C   UNL A   1      43.401  28.235  33.177  1.00  0.00     0.074 A 
ATOM     54  C   UNL A   1      45.395  24.972  28.934  1.00  0.00     0.029 A 
ATOM     55  N   UNL A   1      44.110  23.993  30.467  1.00  0.00    -0.354 N 
ATOM     56  N   UNL A   1      43.522  27.163  32.435  1.00  0.00    -0.248 NA
ATOM     57  C   UNL A   1      43.977  28.088  34.505  1.00  0.00     0.031 C 
ATOM     58  C   UNL A   1      45.696  25.515  30.214  1.00  0.00     0.029 A 
ATOM     59  C   UNL A   1      44.839  24.948  31.146  1.00  0.00     0.049 A 
ATOM     60  H   UNL A   1      43.507  23.340  30.890  1.00  0.00     0.167 HD
ATOM     61  C   UNL A   1      44.279  26.242  33.114  1.00  0.00     0.074 A 
ATOM     62  C   UNL A   1      44.521  26.866  34.409  1.00  0.00     0.031 C 
ATOM     63  C   UNL A   1      44.721  25.057  32.588  1.00  0.00     0.034 A 
BRANCH  50  64
ATOM     64  C   UNL A   1      43.646  22.662  27.038  1.00  0.00     0.023 A 
ATOM     65  C   UNL A   1      43.004  21.400  27.030  1.00  0.00     0.031 A 
ATOM     66  C   UNL A   1      44.569  22.864  25.995  1.00  0.00     0.131 A 
ATOM     67  C   UNL A   1      43.319  20.405  26.087  1.00  0.00     0.055 A 
ATOM     68  C   UNL A   1      44.887  21.870  25.052  1.00  0.00     0.041 A 
ATOM     69  F   UNL A   1      45.198  24.031  25.815  1.00  0.00    -0.206 F 
ATOM     70  C   UNL A   1      44.268  20.630  25.099  1.00  0.00     0.022 A 
BRANCH  67  71
ATOM     71  S   UNL A   1      42.476  18.803  26.197  1.00  0.00     0.124 S 
ATOM     72  O   UNL A   1      43.274  17.972  25.300  1.00  0.00    -0.237 OA
ATOM     73  O   UNL A   1      42.572  18.496  27.620  1.00  0.00    -0.237 OA
ATOM     74  O   UNL A   1      41.124  19.097  25.722  1.00  0.00    -0.744 OA
ENDBRANCH  67  71
ENDBRANCH  50  64
BRANCH  51  75
ATOM     75  C   UNL A   1      41.552  30.199  33.027  1.00  0.00     0.023 A 
ATOM     76  C   UNL A   1      41.450  31.612  32.937  1.00  0.00     0.031 A 
ATOM     77  C   UNL A   1      40.350  29.495  33.173  1.00  0.00     0.131 A 
ATOM     78  C   UNL A   1      40.202  32.255  32.846  1.00  0.00     0.055 A 
ATOM     79  C   UNL A   1      39.100  30.149  33.154  1.00  0.00     0.041 A 
ATOM     80  F   UNL A   1      40.342  28.157  33.253  1.00  0.00    -0.206 F 
ATOM     81  C   UNL A   1      39.020  31.529  32.956  1.00  0.00     0.022 A 
BRANCH  78  82
ATOM     82  S   UNL A   1      40.163  33.997  32.314  1.00  0.00     0.124 S 
ATOM     83  O   UNL A   1      40.219  34.707  33.587  1.00  0.00    -0.237 OA
ATOM     84  O   UNL A   1      41.354  34.097  31.472  1.00  0.00    -0.237 OA
ATOM     85  O   UNL A   1      38.901  34.104  31.589  1.00  0.00    -0.744 OA
ENDBRANCH  78  82
ENDBRANCH  51  75
BRANCH  63  86
ATOM     86  C   UNL A   1      45.182  23.894  33.429  1.00  0.00     0.023 A 
ATOM     87  C   UNL A   1      46.467  23.849  33.971  1.00  0.00     0.031 A 
ATOM     88  C   UNL A   1      44.317  22.838  33.806  1.00  0.00     0.131 A 
ATOM     89  C   UNL A   1      46.909  22.737  34.689  1.00  0.00     0.055 A 
ATOM     90  C   UNL A   1      44.717  21.802  34.652  1.00  0.00     0.041 A 
ATOM     91  F   UNL A   1      43.047  22.767  33.383  1.00  0.00    -0.206 F 
ATOM     92  C   UNL A   1      46.036  21.725  35.070  1.00  0.00     0.022 A 
BRANCH  89  93
ATOM     93  S   UNL A   1      48.690  22.593  34.954  1.00  0.00     0.124 S 
ATOM     94  O   UNL A   1      49.197  23.698  34.142  1.00  0.00    -0.237 OA
ATOM     95  O   UNL A   1      48.809  22.765  36.398  1.00  0.00    -0.237 OA
ATOM     96  O   UNL A   1      49.004  21.257  34.453  1.00  0.00    -0.744 OA
ENDBRANCH  89  93
ENDBRANCH  63  86
ENDBRANCH  37  38
ENDBRANCH  30  32
ENDBRANCH  29  30
ENDBRANCH  28  29
ENDBRANCH   1  28
TORSDOF 17
ENDMDL
MODEL 2
REMARK VINA RESULT:     -13.5      4.262     10.458
REMARK SMILES Cc1c(NC(=O)c2ccc(-c3cccc(Cl)c3)o2)cccc1C(=O)OCCOC(=O)c1ccc(-c2c3nc(c(-c4cc(S(=O)(=O)[O-])ccc4F)c4ccc([nH]4)c(-c4cc(S(=O)(=O)[O-])ccc4F)c4nc(c(-c5cc(S(=O)(=O)[O-])ccc5F)c5ccc2[nH]5)C=C4)C=C3)cc1
REMARK SMILES IDX 26 1 25 2 23 3 24 4 22 5 1 6 2 7 3 8 19 9 21 10 20 11 4 12
REMARK SMILES IDX 5 13 6 15 7 16 8 17 18 18 9 19 10 20 11 21 12 22 17 23 13 24
REMARK SMILES IDX 15 25 14 26 16 27 27 28 28 29 29 30 30 31 31 32 32 33 93 34
REMARK SMILES IDX 33 35 92 36 34 37 35 38 36 39 86 40 37 41 91 42 85 43 87 44
REMARK SMILES IDX 38 45 90 46 84 47 83 48 39 50 71 51 51 52 70 53 52 54 55 55
REMARK SMILES IDX 69 56 88 57 53 58 54 59 68 61 89 62 56 63 40 64 41 65 49 66
REMARK SMILES IDX 42 67 48 68 50 69 47 70 43 71 44 72 45 73 46 74 72 75 73 76
REMARK SMILES IDX 81 77 74 78 80 79 82 80 79 81 75 82 76 83 77 84 78 85 57 86
REMARK SMILES IDX 58 87 66 88 59 89 65 90 67 91 64 92 60 93 61 94 62 95 63 96
REMARK H PARENT 4 14 87 49 55 60
REMARK Flexibility Score: inf
ROOT
ATOM      1  C   UNL A   1      36.649  21.211  25.742  1.00  0.00     0.275 C 
ENDROOT
BRANCH   1   2
ATOM      2  O   UNL A   1      35.362  21.449  25.152  1.00  0.00    -0.458 OA
BRANCH   2   3
ATOM      3  C   UNL A   1      34.712  22.465  25.773  1.00  0.00     0.338 C 
ATOM      4  O   UNL A   1      34.968  22.879  26.894  1.00  0.00    -0.246 OA
BRANCH   3   5
ATOM      5  C   UNL A   1      33.594  23.048  24.999  1.00  0.00     0.065 A 
ATOM      6  C   UNL A   1      35.163  23.421  23.032  1.00  0.00     0.047 C 
ATOM      7  C   UNL A   1      33.779  23.328  23.628  1.00  0.00    -0.013 A 
ATOM      8  C   UNL A   1      32.641  23.584  22.835  1.00  0.00     0.045 A 
ATOM      9  C   UNL A   1      31.374  23.343  23.373  1.00  0.00     0.026 A 
ATOM     10  C   UNL A   1      32.317  23.102  25.566  1.00  0.00     0.016 A 
ATOM     11  C   UNL A   1      31.201  23.168  24.741  1.00  0.00     0.003 A 
BRANCH   8  12
ATOM     12  N   UNL A   1      32.827  24.082  21.529  1.00  0.00    -0.319 N 
ATOM     13  C   UNL A   1      32.703  25.353  21.001  1.00  0.00     0.291 C 
ATOM     14  H   UNL A   1      33.092  23.399  20.872  1.00  0.00     0.170 HD
ATOM     15  O   UNL A   1      32.884  25.479  19.787  1.00  0.00    -0.265 OA
BRANCH  13  16
ATOM     16  C   UNL A   1      32.449  26.479  21.867  1.00  0.00     0.192 A 
ATOM     17  C   UNL A   1      33.220  27.133  22.815  1.00  0.00     0.057 A 
ATOM     18  O   UNL A   1      31.202  27.036  21.834  1.00  0.00    -0.451 OA
ATOM     19  C   UNL A   1      32.372  28.073  23.446  1.00  0.00     0.052 A 
ATOM     20  C   UNL A   1      31.156  27.991  22.801  1.00  0.00     0.135 A 
BRANCH  20  21
ATOM     21  C   UNL A   1      29.905  28.714  22.919  1.00  0.00     0.019 A 
ATOM     22  C   UNL A   1      28.704  27.996  23.002  1.00  0.00     0.012 A 
ATOM     23  C   UNL A   1      29.872  30.114  22.960  1.00  0.00     0.032 A 
ATOM     24  C   UNL A   1      27.486  28.662  23.133  1.00  0.00     0.002 A 
ATOM     25  C   UNL A   1      28.651  30.775  23.078  1.00  0.00     0.041 A 
ATOM     26  C   UNL A   1      27.459  30.054  23.169  1.00  0.00     0.020 A 
ATOM     27  Cl  UNL A   1      28.602  32.494  23.118  1.00  0.00    -0.084 Cl
ENDBRANCH  20  21
ENDBRANCH  13  16
ENDBRANCH   8  12
ENDBRANCH   3   5
ENDBRANCH   2   3
ENDBRANCH   1   2
BRANCH   1  28
ATOM     28  C   UNL A   1      37.760  22.150  25.253  1.00  0.00     0.275 C 
BRANCH  28  29
ATOM     29  O   UNL A   1      38.208  23.280  26.044  1.00  0.00    -0.458 OA
BRANCH  29  30
ATOM     30  C   UNL A   1      39.482  23.419  26.478  1.00  0.00     0.338 C 
ATOM     31  O   UNL A   1      40.377  22.629  26.178  1.00  0.00    -0.246 OA
BRANCH  30  32
ATOM     32  C   UNL A   1      39.737  24.684  27.200  1.00  0.00     0.060 A 
ATOM     33  C   UNL A   1      40.244  25.787  26.492  1.00  0.00     0.016 A 
ATOM     34  C   UNL A   1      39.244  24.840  28.491  1.00  0.00     0.016 A 
ATOM     35  C   UNL A   1      40.120  27.068  27.006  1.00  0.00     0.010 A 
ATOM     36  C   UNL A   1      38.970  26.104  28.936  1.00  0.00     0.010 A 
ATOM     37  C   UNL A   1      39.455  27.206  28.218  1.00  0.00    -0.014 A 
BRANCH  37  38
ATOM     38  C   UNL A   1      39.572  28.391  29.043  1.00  0.00     0.031 A 
ATOM     39  C   UNL A   1      38.624  29.503  28.921  1.00  0.00     0.074 A 
ATOM     40  C   UNL A   1      40.558  28.218  29.954  1.00  0.00     0.049 A 
ATOM     41  N   UNL A   1      38.862  30.695  29.329  1.00  0.00    -0.248 NA
ATOM     42  C   UNL A   1      37.321  29.402  28.266  1.00  0.00     0.031 C 
ATOM     43  C   UNL A   1      40.929  28.926  31.160  1.00  0.00     0.029 A 
ATOM     44  N   UNL A   1      41.602  27.302  29.790  1.00  0.00    -0.354 N 
ATOM     45  C   UNL A   1      37.659  31.377  29.353  1.00  0.00     0.074 A 
ATOM     46  C   UNL A   1      36.778  30.598  28.529  1.00  0.00     0.031 C 
ATOM     47  C   UNL A   1      42.222  28.642  31.436  1.00  0.00     0.029 A 
ATOM     48  C   UNL A   1      42.752  27.840  30.332  1.00  0.00     0.049 A 
ATOM     49  H   UNL A   1      41.529  26.419  29.360  1.00  0.00     0.167 HD
ATOM     50  C   UNL A   1      37.534  32.406  30.241  1.00  0.00     0.034 A 
ATOM     51  C   UNL A   1      43.703  28.237  29.430  1.00  0.00     0.034 A 
ATOM     52  C   UNL A   1      38.820  32.604  30.909  1.00  0.00     0.049 A 
ATOM     53  C   UNL A   1      43.753  29.748  29.408  1.00  0.00     0.074 A 
ATOM     54  C   UNL A   1      39.316  32.123  32.109  1.00  0.00     0.029 A 
ATOM     55  N   UNL A   1      39.915  32.998  30.151  1.00  0.00    -0.354 N 
ATOM     56  N   UNL A   1      42.717  30.533  29.566  1.00  0.00    -0.248 NA
ATOM     57  C   UNL A   1      45.020  30.461  29.380  1.00  0.00     0.031 C 
ATOM     58  C   UNL A   1      40.735  32.112  32.006  1.00  0.00     0.029 A 
ATOM     59  C   UNL A   1      41.089  32.593  30.753  1.00  0.00     0.049 A 
ATOM     60  H   UNL A   1      39.860  33.495  29.304  1.00  0.00     0.167 HD
ATOM     61  C   UNL A   1      43.163  31.812  29.779  1.00  0.00     0.074 A 
ATOM     62  C   UNL A   1      44.610  31.713  29.634  1.00  0.00     0.031 C 
ATOM     63  C   UNL A   1      42.361  32.871  30.115  1.00  0.00     0.034 A 
BRANCH  50  64
ATOM     64  C   UNL A   1      36.259  33.035  30.764  1.00  0.00     0.023 A 
ATOM     65  C   UNL A   1      35.485  33.799  29.857  1.00  0.00     0.031 A 
ATOM     66  C   UNL A   1      35.764  32.999  32.081  1.00  0.00     0.131 A 
ATOM     67  C   UNL A   1      34.347  34.518  30.263  1.00  0.00     0.055 A 
ATOM     68  C   UNL A   1      34.626  33.718  32.490  1.00  0.00     0.041 A 
ATOM     69  F   UNL A   1      36.332  32.256  33.037  1.00  0.00    -0.206 F 
ATOM     70  C   UNL A   1      33.916  34.490  31.583  1.00  0.00     0.022 A 
BRANCH  67  71
ATOM     71  S   UNL A   1      33.456  35.509  29.032  1.00  0.00     0.124 S 
ATOM     72  O   UNL A   1      32.846  36.549  29.856  1.00  0.00    -0.237 OA
ATOM     73  O   UNL A   1      34.529  35.936  28.141  1.00  0.00    -0.237 OA
ATOM     74  O   UNL A   1      32.513  34.557  28.447  1.00  0.00    -0.744 OA
ENDBRANCH  67  71
ENDBRANCH  50  64
BRANCH  51  75
ATOM     75  C   UNL A   1      43.873  27.313  28.244  1.00  0.00     0.023 A 
ATOM     76  C   UNL A   1      44.122  25.941  28.510  1.00  0.00     0.031 A 
ATOM     77  C   UNL A   1      43.553  27.644  26.921  1.00  0.00     0.131 A 
ATOM     78  C   UNL A   1      43.911  24.952  27.532  1.00  0.00     0.055 A 
ATOM     79  C   UNL A   1      43.412  26.658  25.923  1.00  0.00     0.041 A 
ATOM     80  F   UNL A   1      43.288  28.911  26.575  1.00  0.00    -0.206 F 
ATOM     81  C   UNL A   1      43.557  25.303  26.232  1.00  0.00     0.022 A 
BRANCH  78  82
ATOM     82  S   UNL A   1      43.843  23.211  28.062  1.00  0.00     0.124 S 
ATOM     83  O   UNL A   1      44.822  23.182  29.144  1.00  0.00    -0.237 OA
ATOM     84  O   UNL A   1      42.445  23.055  28.459  1.00  0.00    -0.237 OA
ATOM     85  O   UNL A   1      44.214  22.473  26.859  1.00  0.00    -0.744 OA
ENDBRANCH  78  82
ENDBRANCH  51  75
BRANCH  63  86
ATOM     86  C   UNL A   1      42.772  34.312  29.947  1.00  0.00     0.023 A 
ATOM     87  C   UNL A   1      42.642  34.969  28.724  1.00  0.00     0.031 A 
ATOM     88  C   UNL A   1      43.210  35.109  31.032  1.00  0.00     0.131 A 
ATOM     89  C   UNL A   1      43.091  36.281  28.558  1.00  0.00     0.055 A 
ATOM     90  C   UNL A   1      43.512  36.466  30.897  1.00  0.00     0.041 A 
ATOM     91  F   UNL A   1      43.353  34.617  32.271  1.00  0.00    -0.206 F 
ATOM     92  C   UNL A   1      43.491  37.053  29.642  1.00  0.00     0.022 A 
BRANCH  89  93
ATOM     93  S   UNL A   1      43.283  36.869  26.861  1.00  0.00     0.124 S 
ATOM     94  O   UNL A   1      44.732  37.040  26.773  1.00  0.00    -0.237 OA
ATOM     95  O   UNL A   1      42.731  35.767  26.080  1.00  0.00    -0.237 OA
ATOM     96  O   UNL A   1      42.508  38.106  26.837  1.00  0.00    -0.744 OA
ENDBRANCH  89  93
ENDBRANCH  63  86
ENDBRANCH  37  38
ENDBRANCH  30  32
ENDBRANCH  29  30
ENDBRANCH  28  29
ENDBRANCH   1  28
TORSDOF 17
ENDMDL
MODEL 3
REMARK VINA RESULT:     -13.3      4.387     10.662
REMARK SMILES Cc1c(NC(=O)c2ccc(-c3cccc(Cl)c3)o2)cccc1C(=O)OCCOC(=O)c1ccc(-c2c3nc(c(-c4cc(S(=O)(=O)[O-])ccc4F)c4ccc([nH]4)c(-c4cc(S(=O)(=O)[O-])ccc4F)c4nc(c(-c5cc(S(=O)(=O)[O-])ccc5F)c5ccc2[nH]5)C=C4)C=C3)cc1
REMARK SMILES IDX 26 1 25 2 23 3 24 4 22 5 1 6 2 7 3 8 19 9 21 10 20 11 4 12
REMARK SMILES IDX 5 13 6 15 7 16 8 17 18 18 9 19 10 20 11 21 12 22 17 23 13 24
REMARK SMILES IDX 15 25 14 26 16 27 27 28 28 29 29 30 30 31 31 32 32 33 93 34
REMARK SMILES IDX 33 35 92 36 34 37 35 38 36 39 86 40 37 41 91 42 85 43 87 44
REMARK SMILES IDX 38 45 90 46 84 47 83 48 39 50 71 51 51 52 70 53 52 54 55 55
REMARK SMILES IDX 69 56 88 57 53 58 54 59 68 61 89 62 56 63 40 64 41 65 49 66
REMARK SMILES IDX 42 67 48 68 50 69 47 70 43 71 44 72 45 73 46 74 72 75 73 76
REMARK SMILES IDX 81 77 74 78 80 79 82 80 79 81 75 82 76 83 77 84 78 85 57 86
REMARK SMILES IDX 58 87 66 88 59 89 65 90 67 91 64 92 60 93 61 94 62 95 63 96
REMARK H PARENT 4 14 87 49 55 60
REMARK Flexibility Score: inf
ROOT
ATOM      1  C   UNL A   1      38.277  21.678  25.676  1.00  0.00     0.275 C 
ENDROOT
BRANCH   1   2
ATOM      2  O   UNL A   1      36.884  21.861  25.972  1.00  0.00    -0.458 OA
BRANCH   2   3
ATOM      3  C   UNL A   1      36.107  21.023  25.241  1.00  0.00     0.338 C 
ATOM      4  O   UNL A   1      36.405  19.878  24.936  1.00  0.00    -0.246 OA
BRANCH   3   5
ATOM      5  C   UNL A   1      34.832  21.612  24.774  1.00  0.00     0.065 A 
ATOM      6  C   UNL A   1      36.109  23.003  23.071  1.00  0.00     0.047 C 
ATOM      7  C   UNL A   1      34.829  22.415  23.613  1.00  0.00    -0.013 A 
ATOM      8  C   UNL A   1      33.593  22.711  23.004  1.00  0.00     0.045 A 
ATOM      9  C   UNL A   1      32.448  22.034  23.435  1.00  0.00     0.026 A 
ATOM     10  C   UNL A   1      33.627  21.190  25.345  1.00  0.00     0.016 A 
ATOM     11  C   UNL A   1      32.444  21.330  24.634  1.00  0.00     0.003 A 
BRANCH   8  12
ATOM     12  N   UNL A   1      33.557  23.687  21.987  1.00  0.00    -0.319 N 
ATOM     13  C   UNL A   1      32.932  24.918  21.911  1.00  0.00     0.291 C 
ATOM     14  H   UNL A   1      34.071  23.448  21.183  1.00  0.00     0.170 HD
ATOM     15  O   UNL A   1      33.042  25.541  20.853  1.00  0.00    -0.265 OA
BRANCH  13  16
ATOM     16  C   UNL A   1      32.252  25.460  23.062  1.00  0.00     0.192 A 
ATOM     17  C   UNL A   1      31.019  25.198  23.639  1.00  0.00     0.057 A 
ATOM     18  O   UNL A   1      32.867  26.472  23.744  1.00  0.00    -0.451 OA
ATOM     19  C   UNL A   1      30.843  26.156  24.666  1.00  0.00     0.052 A 
ATOM     20  C   UNL A   1      32.004  26.898  24.705  1.00  0.00     0.135 A 
BRANCH  20  21
ATOM     21  C   UNL A   1      32.481  27.973  25.553  1.00  0.00     0.019 A 
ATOM     22  C   UNL A   1      33.658  27.793  26.292  1.00  0.00     0.012 A 
ATOM     23  C   UNL A   1      31.793  29.190  25.645  1.00  0.00     0.032 A 
ATOM     24  C   UNL A   1      34.151  28.813  27.104  1.00  0.00     0.002 A 
ATOM     25  C   UNL A   1      32.283  30.202  26.468  1.00  0.00     0.041 A 
ATOM     26  C   UNL A   1      33.461  30.020  27.194  1.00  0.00     0.020 A 
ATOM     27  Cl  UNL A   1      31.437  31.696  26.594  1.00  0.00    -0.084 Cl
ENDBRANCH  20  21
ENDBRANCH  13  16
ENDBRANCH   8  12
ENDBRANCH   3   5
ENDBRANCH   2   3
ENDBRANCH   1   2
BRANCH   1  28
ATOM     28  C   UNL A   1      39.231  22.498  26.554  1.00  0.00     0.275 C 
BRANCH  28  29
ATOM     29  O   UNL A   1      39.223  23.949  26.541  1.00  0.00    -0.458 OA
BRANCH  29  30
ATOM     30  C   UNL A   1      40.348  24.693  26.647  1.00  0.00     0.338 C 
ATOM     31  O   UNL A   1      41.401  24.395  26.083  1.00  0.00    -0.246 OA
BRANCH  30  32
ATOM     32  C   UNL A   1      40.156  25.975  27.360  1.00  0.00     0.060 A 
ATOM     33  C   UNL A   1      39.771  25.955  28.711  1.00  0.00     0.016 A 
ATOM     34  C   UNL A   1      40.594  27.153  26.767  1.00  0.00     0.016 A 
ATOM     35  C   UNL A   1      39.968  27.069  29.513  1.00  0.00     0.010 A 
ATOM     36  C   UNL A   1      40.942  28.201  27.576  1.00  0.00     0.010 A 
ATOM     37  C   UNL A   1      40.580  28.173  28.930  1.00  0.00    -0.014 A 
BRANCH  37  38
ATOM     38  C   UNL A   1      40.512  29.499  29.508  1.00  0.00     0.031 A 
ATOM     39  C   UNL A   1      39.347  30.365  29.299  1.00  0.00     0.074 A 
ATOM     40  C   UNL A   1      41.580  29.701  30.315  1.00  0.00     0.049 A 
ATOM     41  N   UNL A   1      39.363  31.637  29.454  1.00  0.00    -0.248 NA
ATOM     42  C   UNL A   1      38.047  29.890  28.828  1.00  0.00     0.031 C 
ATOM     43  C   UNL A   1      41.888  30.693  31.322  1.00  0.00     0.029 A 
ATOM     44  N   UNL A   1      42.775  28.985  30.200  1.00  0.00    -0.354 N 
ATOM     45  C   UNL A   1      38.050  32.071  29.494  1.00  0.00     0.074 A 
ATOM     46  C   UNL A   1      37.289  30.990  28.933  1.00  0.00     0.031 C 
ATOM     47  C   UNL A   1      43.229  30.719  31.493  1.00  0.00     0.029 A 
ATOM     48  C   UNL A   1      43.827  29.828  30.498  1.00  0.00     0.049 A 
ATOM     49  H   UNL A   1      42.854  28.036  29.947  1.00  0.00     0.167 HD
ATOM     50  C   UNL A   1      37.783  33.213  30.191  1.00  0.00     0.034 A 
ATOM     51  C   UNL A   1      44.602  30.209  29.436  1.00  0.00     0.034 A 
ATOM     52  C   UNL A   1      39.048  33.780  30.659  1.00  0.00     0.049 A 
ATOM     53  C   UNL A   1      44.335  31.666  29.136  1.00  0.00     0.074 A 
ATOM     54  C   UNL A   1      39.724  33.652  31.860  1.00  0.00     0.029 A 
ATOM     55  N   UNL A   1      39.975  34.214  29.721  1.00  0.00    -0.354 N 
ATOM     56  N   UNL A   1      43.174  32.257  29.269  1.00  0.00    -0.248 NA
ATOM     57  C   UNL A   1      45.421  32.586  28.833  1.00  0.00     0.031 C 
ATOM     58  C   UNL A   1      41.102  33.888  31.597  1.00  0.00     0.029 A 
ATOM     59  C   UNL A   1      41.250  34.167  30.246  1.00  0.00     0.049 A 
ATOM     60  H   UNL A   1      39.753  34.513  28.809  1.00  0.00     0.167 HD
ATOM     61  C   UNL A   1      43.360  33.614  29.195  1.00  0.00     0.074 A 
ATOM     62  C   UNL A   1      44.780  33.762  28.903  1.00  0.00     0.031 C 
ATOM     63  C   UNL A   1      42.384  34.547  29.425  1.00  0.00     0.034 A 
BRANCH  50  64
ATOM     64  C   UNL A   1      36.450  33.682  30.736  1.00  0.00     0.023 A 
ATOM     65  C   UNL A   1      35.532  34.253  29.821  1.00  0.00     0.031 A 
ATOM     66  C   UNL A   1      36.020  33.669  32.076  1.00  0.00     0.131 A 
ATOM     67  C   UNL A   1      34.315  34.822  30.236  1.00  0.00     0.055 A 
ATOM     68  C   UNL A   1      34.804  34.239  32.494  1.00  0.00     0.041 A 
ATOM     69  F   UNL A   1      36.734  33.092  33.049  1.00  0.00    -0.206 F 
ATOM     70  C   UNL A   1      33.947  34.826  31.575  1.00  0.00     0.022 A 
BRANCH  67  71
ATOM     71  S   UNL A   1      33.234  35.575  28.990  1.00  0.00     0.124 S 
ATOM     72  O   UNL A   1      32.331  36.378  29.809  1.00  0.00    -0.237 OA
ATOM     73  O   UNL A   1      34.181  36.310  28.159  1.00  0.00    -0.237 OA
ATOM     74  O   UNL A   1      32.611  34.422  28.339  1.00  0.00    -0.744 OA
ENDBRANCH  67  71
ENDBRANCH  50  64
BRANCH  51  75
ATOM     75  C   UNL A   1      44.868  29.116  28.425  1.00  0.00     0.023 A 
ATOM     76  C   UNL A   1      45.569  27.964  28.870  1.00  0.00     0.031 A 
ATOM     77  C   UNL A   1      44.264  29.029  27.163  1.00  0.00     0.131 A 
ATOM     78  C   UNL A   1      45.529  26.755  28.151  1.00  0.00     0.055 A 
ATOM     79  C   UNL A   1      44.286  27.837  26.410  1.00  0.00     0.041 A 
ATOM     80  F   UNL A   1      43.569  30.060  26.663  1.00  0.00    -0.206 F 
ATOM     81  C   UNL A   1      44.890  26.684  26.917  1.00  0.00     0.022 A 
BRANCH  78  82
ATOM     82  S   UNL A   1      46.088  25.235  28.984  1.00  0.00     0.124 S 
ATOM     83  O   UNL A   1      45.088  24.264  28.554  1.00  0.00    -0.237 OA
ATOM     84  O   UNL A   1      47.433  25.053  28.441  1.00  0.00    -0.237 OA
ATOM     85  O   UNL A   1      46.052  25.589  30.400  1.00  0.00    -0.744 OA
ENDBRANCH  78  82
ENDBRANCH  51  75
BRANCH  63  86
ATOM     86  C   UNL A   1      42.472  35.977  28.953  1.00  0.00     0.023 A 
ATOM     87  C   UNL A   1      43.214  36.931  29.650  1.00  0.00     0.031 A 
ATOM     88  C   UNL A   1      41.903  36.410  27.731  1.00  0.00     0.131 A 
ATOM     89  C   UNL A   1      43.233  38.267  29.246  1.00  0.00     0.055 A 
ATOM     90  C   UNL A   1      42.053  37.713  27.251  1.00  0.00     0.041 A 
ATOM     91  F   UNL A   1      41.189  35.593  26.944  1.00  0.00    -0.206 F 
ATOM     92  C   UNL A   1      42.691  38.664  28.030  1.00  0.00     0.022 A 
BRANCH  89  93
ATOM     93  S   UNL A   1      43.842  39.473  30.445  1.00  0.00     0.124 S 
ATOM     94  O   UNL A   1      45.054  39.955  29.786  1.00  0.00    -0.237 OA
ATOM     95  O   UNL A   1      42.741  40.429  30.518  1.00  0.00    -0.237 OA
ATOM     96  O   UNL A   1      44.062  38.677  31.649  1.00  0.00    -0.744 OA
ENDBRANCH  89  93
ENDBRANCH  63  86
ENDBRANCH  37  38
ENDBRANCH  30  32
ENDBRANCH  29  30
ENDBRANCH  28  29
ENDBRANCH   1  28
TORSDOF 17
ENDMDL
