MODEL 1
REMARK VINA RESULT:     -11.3      0.000      0.000
REMARK SMILES [NH3+][C@H]1C=C[C@@H](C(=O)NC2(CC(=O)OCCOC(=O)c3ccc(-c4c5nc(c(-c6cc(S(=O)(=O)[O-])ccc6F)c6ccc([nH]6)c(-c6cc(S(=O)(=O)[O-])ccc6F)c6nc(c(-c7cc(S(=O)(=O)[O-])ccc7F)c7ccc4[nH]7)C=C6)C=C5)cc3)CCC2)C1
REMARK SMILES IDX 14 1 13 2 11 3 12 4 10 5 9 6 82 7 84 8 83 9 8 10 6 11 7 12
REMARK SMILES IDX 5 14 2 15 3 16 85 17 4 18 1 19 15 23 16 24 17 25 18 26 19 27
REMARK SMILES IDX 20 28 81 29 21 30 80 31 22 32 23 33 24 34 74 35 25 36 79 37
REMARK SMILES IDX 73 38 75 39 26 40 78 41 72 42 71 43 27 45 59 46 39 47 58 48
REMARK SMILES IDX 40 49 43 50 57 51 76 52 41 53 42 54 56 56 77 57 44 58 28 59
REMARK SMILES IDX 29 60 37 61 30 62 36 63 38 64 35 65 31 66 32 67 33 68 34 69
REMARK SMILES IDX 60 70 61 71 69 72 62 73 68 74 70 75 67 76 63 77 64 78 65 79
REMARK SMILES IDX 66 80 45 81 46 82 54 83 47 84 53 85 55 86 52 87 48 88 49 89
REMARK SMILES IDX 50 90 51 91
REMARK H PARENT 8 13 1 20 1 21 1 22 75 44 43 55
REMARK Flexibility Score: inf
ROOT
ATOM      1  C   UNL A   1      34.881  21.745  24.625  1.00  0.00     0.274 C 
ENDROOT
BRANCH   1   2
ATOM      2  O   UNL A   1      34.759  22.925  25.444  1.00  0.00    -0.462 OA
BRANCH   2   3
ATOM      3  C   UNL A   1      34.606  24.098  24.780  1.00  0.00     0.308 C 
ATOM      4  O   UNL A   1      34.815  24.250  23.582  1.00  0.00    -0.252 OA
BRANCH   3   5
ATOM      5  C   UNL A   1      34.290  25.254  25.689  1.00  0.00     0.151 C 
BRANCH   5   6
ATOM      6  C   UNL A   1      33.298  26.324  25.222  1.00  0.00     0.051 C 
ATOM      7  C   UNL A   1      33.831  27.788  25.301  1.00  0.00     0.029 C 
ATOM      8  C   UNL A   1      32.275  26.781  26.332  1.00  0.00     0.029 C 
ATOM      9  C   UNL A   1      33.276  27.878  26.732  1.00  0.00     0.005 C 
BRANCH   6  10
ATOM     10  N   UNL A   1      32.586  25.985  23.967  1.00  0.00    -0.350 N 
ATOM     11  C   UNL A   1      31.446  26.402  23.344  1.00  0.00     0.227 C 
ATOM     12  O   UNL A   1      31.059  25.688  22.409  1.00  0.00    -0.274 OA
ATOM     13  H   UNL A   1      33.052  25.284  23.456  1.00  0.00     0.164 HD
BRANCH  11  14
ATOM     14  C   UNL A   1      30.621  27.647  23.691  1.00  0.00     0.107 C 
ATOM     15  C   UNL A   1      29.894  29.805  22.794  1.00  0.00     0.205 C 
ATOM     16  C   UNL A   1      28.781  28.815  22.828  1.00  0.00     0.033 C 
ATOM     17  C   UNL A   1      31.142  28.955  23.086  1.00  0.00     0.087 C 
ATOM     18  C   UNL A   1      29.172  27.643  23.339  1.00  0.00    -0.012 C 
BRANCH  15  19
ATOM     19  N   UNL A   1      29.950  30.494  21.515  1.00  0.00    -0.352 N 
ATOM     20  H   UNL A   1      29.310  31.288  21.529  1.00  0.00     0.345 HD
ATOM     21  H   UNL A   1      29.679  29.852  20.771  1.00  0.00     0.345 HD
ATOM     22  H   UNL A   1      30.901  30.826  21.349  1.00  0.00     0.345 HD
ENDBRANCH  15  19
ENDBRANCH  11  14
ENDBRANCH   6  10
ENDBRANCH   5   6
ENDBRANCH   3   5
ENDBRANCH   2   3
ENDBRANCH   1   2
BRANCH   1  23
ATOM     23  C   UNL A   1      36.304  21.191  24.637  1.00  0.00     0.275 C 
BRANCH  23  24
ATOM     24  O   UNL A   1      36.993  21.547  25.847  1.00  0.00    -0.458 OA
BRANCH  24  25
ATOM     25  C   UNL A   1      38.333  21.356  25.815  1.00  0.00     0.338 C 
ATOM     26  O   UNL A   1      38.926  20.425  25.297  1.00  0.00    -0.246 OA
BRANCH  25  27
ATOM     27  C   UNL A   1      39.000  22.512  26.435  1.00  0.00     0.060 A 
ATOM     28  C   UNL A   1      38.515  23.789  26.159  1.00  0.00     0.016 A 
ATOM     29  C   UNL A   1      40.166  22.349  27.183  1.00  0.00     0.016 A 
ATOM     30  C   UNL A   1      39.236  24.912  26.562  1.00  0.00     0.010 A 
ATOM     31  C   UNL A   1      40.847  23.481  27.650  1.00  0.00     0.010 A 
ATOM     32  C   UNL A   1      40.407  24.776  27.320  1.00  0.00    -0.014 A 
BRANCH  32  33
ATOM     33  C   UNL A   1      41.189  25.981  27.725  1.00  0.00     0.031 A 
ATOM     34  C   UNL A   1      40.546  27.052  28.571  1.00  0.00     0.074 A 
ATOM     35  C   UNL A   1      42.481  26.117  27.361  1.00  0.00     0.049 A 
ATOM     36  N   UNL A   1      40.981  28.253  28.859  1.00  0.00    -0.248 NA
ATOM     37  C   UNL A   1      39.239  26.729  29.162  1.00  0.00     0.031 C 
ATOM     38  C   UNL A   1      43.256  25.133  26.603  1.00  0.00     0.029 A 
ATOM     39  N   UNL A   1      43.375  27.138  27.582  1.00  0.00    -0.354 N 
ATOM     40  C   UNL A   1      39.984  28.848  29.626  1.00  0.00     0.074 A 
ATOM     41  C   UNL A   1      38.918  27.875  29.750  1.00  0.00     0.031 C 
ATOM     42  C   UNL A   1      44.512  25.582  26.451  1.00  0.00     0.029 A 
ATOM     43  C   UNL A   1      44.611  26.924  27.015  1.00  0.00     0.049 A 
ATOM     44  H   UNL A   1      43.151  27.946  28.097  1.00  0.00     0.167 HD
ATOM     45  C   UNL A   1      39.960  30.090  30.172  1.00  0.00     0.034 A 
ATOM     46  C   UNL A   1      45.687  27.729  26.913  1.00  0.00     0.034 A 
ATOM     47  C   UNL A   1      41.044  31.040  30.077  1.00  0.00     0.049 A 
ATOM     48  C   UNL A   1      45.614  29.126  27.477  1.00  0.00     0.074 A 
ATOM     49  C   UNL A   1      41.108  32.331  30.577  1.00  0.00     0.029 A 
ATOM     50  N   UNL A   1      42.262  30.797  29.458  1.00  0.00    -0.354 N 
ATOM     51  N   UNL A   1      44.623  29.711  28.109  1.00  0.00    -0.248 NA
ATOM     52  C   UNL A   1      46.800  29.975  27.300  1.00  0.00     0.031 C 
ATOM     53  C   UNL A   1      42.346  32.881  30.224  1.00  0.00     0.029 A 
ATOM     54  C   UNL A   1      43.078  31.914  29.555  1.00  0.00     0.049 A 
ATOM     55  H   UNL A   1      42.511  29.954  29.014  1.00  0.00     0.167 HD
ATOM     56  C   UNL A   1      45.076  30.989  28.418  1.00  0.00     0.074 A 
ATOM     57  C   UNL A   1      46.433  31.084  27.923  1.00  0.00     0.031 C 
ATOM     58  C   UNL A   1      44.427  31.999  29.051  1.00  0.00     0.034 A 
BRANCH  45  59
ATOM     59  C   UNL A   1      38.696  30.517  30.876  1.00  0.00     0.023 A 
ATOM     60  C   UNL A   1      37.645  31.158  30.198  1.00  0.00     0.031 A 
ATOM     61  C   UNL A   1      38.544  30.272  32.253  1.00  0.00     0.131 A 
ATOM     62  C   UNL A   1      36.509  31.577  30.909  1.00  0.00     0.055 A 
ATOM     63  C   UNL A   1      37.384  30.633  32.942  1.00  0.00     0.041 A 
ATOM     64  F   UNL A   1      39.523  29.677  32.954  1.00  0.00    -0.206 F 
ATOM     65  C   UNL A   1      36.362  31.297  32.272  1.00  0.00     0.022 A 
BRANCH  62  66
ATOM     66  S   UNL A   1      35.260  32.573  30.052  1.00  0.00     0.124 S 
ATOM     67  O   UNL A   1      34.321  32.864  31.131  1.00  0.00    -0.237 OA
ATOM     68  O   UNL A   1      36.037  33.703  29.560  1.00  0.00    -0.237 OA
ATOM     69  O   UNL A   1      34.751  31.672  29.019  1.00  0.00    -0.744 OA
ENDBRANCH  62  66
ENDBRANCH  45  59
BRANCH  46  70
ATOM     70  C   UNL A   1      46.907  27.279  26.182  1.00  0.00     0.023 A 
ATOM     71  C   UNL A   1      47.162  27.702  24.868  1.00  0.00     0.031 A 
ATOM     72  C   UNL A   1      47.800  26.361  26.764  1.00  0.00     0.131 A 
ATOM     73  C   UNL A   1      48.253  27.172  24.162  1.00  0.00     0.055 A 
ATOM     74  C   UNL A   1      48.917  25.882  26.078  1.00  0.00     0.041 A 
ATOM     75  F   UNL A   1      47.600  25.918  28.015  1.00  0.00    -0.206 F 
ATOM     76  C   UNL A   1      49.140  26.276  24.764  1.00  0.00     0.022 A 
BRANCH  73  77
ATOM     77  S   UNL A   1      48.436  27.588  22.406  1.00  0.00     0.124 S 
ATOM     78  O   UNL A   1      48.510  26.267  21.793  1.00  0.00    -0.237 OA
ATOM     79  O   UNL A   1      47.218  28.348  22.147  1.00  0.00    -0.237 OA
ATOM     80  O   UNL A   1      49.673  28.364  22.367  1.00  0.00    -0.744 OA
ENDBRANCH  73  77
ENDBRANCH  46  70
BRANCH  58  81
ATOM     81  C   UNL A   1      45.206  33.267  29.283  1.00  0.00     0.023 A 
ATOM     82  C   UNL A   1      45.174  34.331  28.365  1.00  0.00     0.031 A 
ATOM     83  C   UNL A   1      46.017  33.399  30.424  1.00  0.00     0.131 A 
ATOM     84  C   UNL A   1      45.981  35.460  28.577  1.00  0.00     0.055 A 
ATOM     85  C   UNL A   1      46.780  34.544  30.654  1.00  0.00     0.041 A 
ATOM     86  F   UNL A   1      46.083  32.411  31.331  1.00  0.00    -0.206 F 
ATOM     87  C   UNL A   1      46.774  35.577  29.721  1.00  0.00     0.022 A 
BRANCH  84  88
ATOM     88  S   UNL A   1      46.042  36.743  27.295  1.00  0.00     0.124 S 
ATOM     89  O   UNL A   1      46.102  35.950  26.072  1.00  0.00    -0.237 OA
ATOM     90  O   UNL A   1      44.797  37.471  27.522  1.00  0.00    -0.237 OA
ATOM     91  O   UNL A   1      47.260  37.488  27.612  1.00  0.00    -0.744 OA
ENDBRANCH  84  88
ENDBRANCH  58  81
ENDBRANCH  32  33
ENDBRANCH  25  27
ENDBRANCH  24  25
ENDBRANCH  23  24
ENDBRANCH   1  23
TORSDOF 18
ENDMDL
MODEL 2
REMARK VINA RESULT:     -11.3      1.419      2.015
REMARK SMILES [NH3+][C@H]1C=C[C@@H](C(=O)NC2(CC(=O)OCCOC(=O)c3ccc(-c4c5nc(c(-c6cc(S(=O)(=O)[O-])ccc6F)c6ccc([nH]6)c(-c6cc(S(=O)(=O)[O-])ccc6F)c6nc(c(-c7cc(S(=O)(=O)[O-])ccc7F)c7ccc4[nH]7)C=C6)C=C5)cc3)CCC2)C1
REMARK SMILES IDX 14 1 13 2 11 3 12 4 10 5 9 6 82 7 84 8 83 9 8 10 6 11 7 12
REMARK SMILES IDX 5 14 2 15 3 16 85 17 4 18 1 19 15 23 16 24 17 25 18 26 19 27
REMARK SMILES IDX 20 28 81 29 21 30 80 31 22 32 23 33 24 34 74 35 25 36 79 37
REMARK SMILES IDX 73 38 75 39 26 40 78 41 72 42 71 43 27 45 59 46 39 47 58 48
REMARK SMILES IDX 40 49 43 50 57 51 76 52 41 53 42 54 56 56 77 57 44 58 28 59
REMARK SMILES IDX 29 60 37 61 30 62 36 63 38 64 35 65 31 66 32 67 33 68 34 69
REMARK SMILES IDX 60 70 61 71 69 72 62 73 68 74 70 75 67 76 63 77 64 78 65 79
REMARK SMILES IDX 66 80 45 81 46 82 54 83 47 84 53 85 55 86 52 87 48 88 49 89
REMARK SMILES IDX 50 90 51 91
REMARK H PARENT 8 13 1 20 1 21 1 22 75 44 43 55
REMARK Flexibility Score: inf
ROOT
ATOM      1  C   UNL A   1      36.671  22.584  23.481  1.00  0.00     0.274 C 
ENDROOT
BRANCH   1   2
ATOM      2  O   UNL A   1      36.064  23.680  24.197  1.00  0.00    -0.462 OA
BRANCH   2   3
ATOM      3  C   UNL A   1      34.750  23.901  23.944  1.00  0.00     0.308 C 
ATOM      4  O   UNL A   1      34.314  24.369  22.898  1.00  0.00    -0.252 OA
BRANCH   3   5
ATOM      5  C   UNL A   1      33.870  23.652  25.137  1.00  0.00     0.151 C 
BRANCH   5   6
ATOM      6  C   UNL A   1      32.398  24.070  25.082  1.00  0.00     0.051 C 
ATOM      7  C   UNL A   1      31.608  23.859  26.411  1.00  0.00     0.029 C 
ATOM      8  C   UNL A   1      31.436  22.965  24.496  1.00  0.00     0.029 C 
ATOM      9  C   UNL A   1      31.239  22.447  25.929  1.00  0.00     0.005 C 
BRANCH   6  10
ATOM     10  N   UNL A   1      32.162  25.372  24.415  1.00  0.00    -0.350 N 
ATOM     11  C   UNL A   1      32.073  26.674  24.812  1.00  0.00     0.227 C 
ATOM     12  O   UNL A   1      31.618  27.458  23.967  1.00  0.00    -0.274 OA
ATOM     13  H   UNL A   1      32.039  25.272  23.443  1.00  0.00     0.164 HD
BRANCH  11  14
ATOM     14  C   UNL A   1      32.476  27.240  26.178  1.00  0.00     0.107 C 
ATOM     15  C   UNL A   1      33.947  28.883  27.240  1.00  0.00     0.205 C 
ATOM     16  C   UNL A   1      32.523  29.320  27.259  1.00  0.00     0.033 C 
ATOM     17  C   UNL A   1      33.942  27.675  26.289  1.00  0.00     0.087 C 
ATOM     18  C   UNL A   1      31.716  28.413  26.699  1.00  0.00    -0.012 C 
BRANCH  15  19
ATOM     19  N   UNL A   1      34.825  29.958  26.805  1.00  0.00    -0.352 N 
ATOM     20  H   UNL A   1      34.497  30.842  27.196  1.00  0.00     0.345 HD
ATOM     21  H   UNL A   1      34.816  30.012  25.787  1.00  0.00     0.345 HD
ATOM     22  H   UNL A   1      35.774  29.773  27.129  1.00  0.00     0.345 HD
ENDBRANCH  15  19
ENDBRANCH  11  14
ENDBRANCH   6  10
ENDBRANCH   5   6
ENDBRANCH   3   5
ENDBRANCH   2   3
ENDBRANCH   1   2
BRANCH   1  23
ATOM     23  C   UNL A   1      37.131  21.476  24.425  1.00  0.00     0.275 C 
BRANCH  23  24
ATOM     24  O   UNL A   1      37.511  22.005  25.706  1.00  0.00    -0.458 OA
BRANCH  24  25
ATOM     25  C   UNL A   1      38.785  21.734  26.077  1.00  0.00     0.338 C 
ATOM     26  O   UNL A   1      39.403  20.703  25.869  1.00  0.00    -0.246 OA
BRANCH  25  27
ATOM     27  C   UNL A   1      39.368  22.928  26.711  1.00  0.00     0.060 A 
ATOM     28  C   UNL A   1      38.831  24.176  26.399  1.00  0.00     0.016 A 
ATOM     29  C   UNL A   1      40.508  22.830  27.508  1.00  0.00     0.016 A 
ATOM     30  C   UNL A   1      39.478  25.337  26.818  1.00  0.00     0.010 A 
ATOM     31  C   UNL A   1      41.111  24.000  27.989  1.00  0.00     0.010 A 
ATOM     32  C   UNL A   1      40.622  25.268  27.625  1.00  0.00    -0.014 A 
BRANCH  32  33
ATOM     33  C   UNL A   1      41.326  26.515  28.048  1.00  0.00     0.031 A 
ATOM     34  C   UNL A   1      40.591  27.569  28.837  1.00  0.00     0.074 A 
ATOM     35  C   UNL A   1      42.628  26.704  27.750  1.00  0.00     0.049 A 
ATOM     36  N   UNL A   1      40.955  28.794  29.124  1.00  0.00    -0.248 NA
ATOM     37  C   UNL A   1      39.269  27.196  29.364  1.00  0.00     0.031 C 
ATOM     38  C   UNL A   1      43.487  25.743  27.054  1.00  0.00     0.029 A 
ATOM     39  N   UNL A   1      43.462  27.768  27.998  1.00  0.00    -0.354 N 
ATOM     40  C   UNL A   1      39.892  29.355  29.825  1.00  0.00     0.074 A 
ATOM     41  C   UNL A   1      38.866  28.336  29.911  1.00  0.00     0.031 C 
ATOM     42  C   UNL A   1      44.727  26.248  26.960  1.00  0.00     0.029 A 
ATOM     43  C   UNL A   1      44.736  27.602  27.502  1.00  0.00     0.049 A 
ATOM     44  H   UNL A   1      43.175  28.574  28.485  1.00  0.00     0.167 HD
ATOM     45  C   UNL A   1      39.782  30.604  30.345  1.00  0.00     0.034 A 
ATOM     46  C   UNL A   1      45.778  28.454  27.442  1.00  0.00     0.034 A 
ATOM     47  C   UNL A   1      40.825  31.601  30.288  1.00  0.00     0.049 A 
ATOM     48  C   UNL A   1      45.611  29.855  27.973  1.00  0.00     0.074 A 
ATOM     49  C   UNL A   1      40.804  32.902  30.766  1.00  0.00     0.029 A 
ATOM     50  N   UNL A   1      42.086  31.404  29.740  1.00  0.00    -0.354 N 
ATOM     51  N   UNL A   1      44.562  30.405  28.540  1.00  0.00    -0.248 NA
ATOM     52  C   UNL A   1      46.765  30.755  27.843  1.00  0.00     0.031 C 
ATOM     53  C   UNL A   1      42.034  33.503  30.468  1.00  0.00     0.029 A 
ATOM     54  C   UNL A   1      42.844  32.559  29.859  1.00  0.00     0.049 A 
ATOM     55  H   UNL A   1      42.396  30.566  29.327  1.00  0.00     0.167 HD
ATOM     56  C   UNL A   1      44.939  31.708  28.848  1.00  0.00     0.074 A 
ATOM     57  C   UNL A   1      46.316  31.857  28.424  1.00  0.00     0.031 C 
ATOM     58  C   UNL A   1      44.213  32.698  29.425  1.00  0.00     0.034 A 
BRANCH  45  59
ATOM     59  C   UNL A   1      38.464  30.984  30.971  1.00  0.00     0.023 A 
ATOM     60  C   UNL A   1      37.434  31.591  30.233  1.00  0.00     0.031 A 
ATOM     61  C   UNL A   1      38.238  30.729  32.336  1.00  0.00     0.131 A 
ATOM     62  C   UNL A   1      36.244  31.967  30.875  1.00  0.00     0.055 A 
ATOM     63  C   UNL A   1      37.027  31.047  32.955  1.00  0.00     0.041 A 
ATOM     64  F   UNL A   1      39.193  30.166  33.094  1.00  0.00    -0.206 F 
ATOM     65  C   UNL A   1      36.025  31.677  32.226  1.00  0.00     0.022 A 
BRANCH  62  66
ATOM     66  S   UNL A   1      35.014  32.922  29.945  1.00  0.00     0.124 S 
ATOM     67  O   UNL A   1      34.516  31.925  29.002  1.00  0.00    -0.237 OA
ATOM     68  O   UNL A   1      34.082  33.339  30.985  1.00  0.00    -0.237 OA
ATOM     69  O   UNL A   1      35.798  34.000  29.344  1.00  0.00    -0.744 OA
ENDBRANCH  62  66
ENDBRANCH  45  59
BRANCH  46  70
ATOM     70  C   UNL A   1      47.055  28.048  26.786  1.00  0.00     0.023 A 
ATOM     71  C   UNL A   1      47.196  28.087  25.390  1.00  0.00     0.031 A 
ATOM     72  C   UNL A   1      48.129  27.547  27.543  1.00  0.00     0.131 A 
ATOM     73  C   UNL A   1      48.364  27.589  24.791  1.00  0.00     0.055 A 
ATOM     74  C   UNL A   1      49.311  27.108  26.947  1.00  0.00     0.041 A 
ATOM     75  F   UNL A   1      48.044  27.481  28.881  1.00  0.00    -0.206 F 
ATOM     76  C   UNL A   1      49.428  27.114  25.561  1.00  0.00     0.022 A 
BRANCH  73  77
ATOM     77  S   UNL A   1      48.430  27.471  22.982  1.00  0.00     0.124 S 
ATOM     78  O   UNL A   1      48.396  26.028  22.776  1.00  0.00    -0.237 OA
ATOM     79  O   UNL A   1      47.232  28.205  22.587  1.00  0.00    -0.237 OA
ATOM     80  O   UNL A   1      49.696  28.119  22.645  1.00  0.00    -0.744 OA
ENDBRANCH  73  77
ENDBRANCH  46  70
BRANCH  58  81
ATOM     81  C   UNL A   1      44.920  34.004  29.674  1.00  0.00     0.023 A 
ATOM     82  C   UNL A   1      44.899  35.046  28.729  1.00  0.00     0.031 A 
ATOM     83  C   UNL A   1      45.652  34.196  30.858  1.00  0.00     0.131 A 
ATOM     84  C   UNL A   1      45.641  36.214  28.962  1.00  0.00     0.055 A 
ATOM     85  C   UNL A   1      46.349  35.379  31.106  1.00  0.00     0.041 A 
ATOM     86  F   UNL A   1      45.705  33.232  31.791  1.00  0.00    -0.206 F 
ATOM     87  C   UNL A   1      46.356  36.391  30.150  1.00  0.00     0.022 A 
BRANCH  84  88
ATOM     88  S   UNL A   1      45.725  37.470  27.656  1.00  0.00     0.124 S 
ATOM     89  O   UNL A   1      44.337  37.544  27.213  1.00  0.00    -0.237 OA
ATOM     90  O   UNL A   1      46.227  38.636  28.376  1.00  0.00    -0.237 OA
ATOM     91  O   UNL A   1      46.656  36.895  26.686  1.00  0.00    -0.744 OA
ENDBRANCH  84  88
ENDBRANCH  58  81
ENDBRANCH  32  33
ENDBRANCH  25  27
ENDBRANCH  24  25
ENDBRANCH  23  24
ENDBRANCH   1  23
TORSDOF 18
ENDMDL
MODEL 3
REMARK VINA RESULT:     -11.2      5.178      9.896
REMARK SMILES [NH3+][C@H]1C=C[C@@H](C(=O)NC2(CC(=O)OCCOC(=O)c3ccc(-c4c5nc(c(-c6cc(S(=O)(=O)[O-])ccc6F)c6ccc([nH]6)c(-c6cc(S(=O)(=O)[O-])ccc6F)c6nc(c(-c7cc(S(=O)(=O)[O-])ccc7F)c7ccc4[nH]7)C=C6)C=C5)cc3)CCC2)C1
REMARK SMILES IDX 14 1 13 2 11 3 12 4 10 5 9 6 82 7 84 8 83 9 8 10 6 11 7 12
REMARK SMILES IDX 5 14 2 15 3 16 85 17 4 18 1 19 15 23 16 24 17 25 18 26 19 27
REMARK SMILES IDX 20 28 81 29 21 30 80 31 22 32 23 33 24 34 74 35 25 36 79 37
REMARK SMILES IDX 73 38 75 39 26 40 78 41 72 42 71 43 27 45 59 46 39 47 58 48
REMARK SMILES IDX 40 49 43 50 57 51 76 52 41 53 42 54 56 56 77 57 44 58 28 59
REMARK SMILES IDX 29 60 37 61 30 62 36 63 38 64 35 65 31 66 32 67 33 68 34 69
REMARK SMILES IDX 60 70 61 71 69 72 62 73 68 74 70 75 67 76 63 77 64 78 65 79
REMARK SMILES IDX 66 80 45 81 46 82 54 83 47 84 53 85 55 86 52 87 48 88 49 89
REMARK SMILES IDX 50 90 51 91
REMARK H PARENT 8 13 1 20 1 21 1 22 75 44 43 55
REMARK Flexibility Score: inf
ROOT
ATOM      1  C   UNL A   1      31.709  28.224  27.571  1.00  0.00     0.274 C 
ENDROOT
BRANCH   1   2
ATOM      2  O   UNL A   1      32.526  27.431  26.687  1.00  0.00    -0.462 OA
BRANCH   2   3
ATOM      3  C   UNL A   1      31.931  26.338  26.147  1.00  0.00     0.308 C 
ATOM      4  O   UNL A   1      31.223  25.554  26.769  1.00  0.00    -0.252 OA
BRANCH   3   5
ATOM      5  C   UNL A   1      32.341  26.087  24.722  1.00  0.00     0.151 C 
BRANCH   5   6
ATOM      6  C   UNL A   1      31.461  25.203  23.834  1.00  0.00     0.051 C 
ATOM      7  C   UNL A   1      31.893  23.705  23.770  1.00  0.00     0.029 C 
ATOM      8  C   UNL A   1      31.848  25.238  22.305  1.00  0.00     0.029 C 
ATOM      9  C   UNL A   1      32.786  24.049  22.566  1.00  0.00     0.005 C 
BRANCH   6  10
ATOM     10  N   UNL A   1      30.007  25.427  24.007  1.00  0.00    -0.350 N 
ATOM     11  C   UNL A   1      29.151  26.478  23.843  1.00  0.00     0.227 C 
ATOM     12  O   UNL A   1      28.023  26.327  24.333  1.00  0.00    -0.274 OA
ATOM     13  H   UNL A   1      29.542  24.616  24.317  1.00  0.00     0.164 HD
BRANCH  11  14
ATOM     14  C   UNL A   1      29.455  27.797  23.124  1.00  0.00     0.107 C 
ATOM     15  C   UNL A   1      28.658  30.098  22.874  1.00  0.00     0.205 C 
ATOM     16  C   UNL A   1      29.902  30.028  23.690  1.00  0.00     0.033 C 
ATOM     17  C   UNL A   1      28.221  28.628  22.754  1.00  0.00     0.087 C 
ATOM     18  C   UNL A   1      30.351  28.774  23.809  1.00  0.00    -0.012 C 
BRANCH  15  19
ATOM     19  N   UNL A   1      27.660  30.948  23.503  1.00  0.00    -0.352 N 
ATOM     20  H   UNL A   1      26.810  30.946  22.939  1.00  0.00     0.345 HD
ATOM     21  H   UNL A   1      28.020  31.900  23.572  1.00  0.00     0.345 HD
ATOM     22  H   UNL A   1      27.451  30.593  24.436  1.00  0.00     0.345 HD
ENDBRANCH  15  19
ENDBRANCH  11  14
ENDBRANCH   6  10
ENDBRANCH   5   6
ENDBRANCH   3   5
ENDBRANCH   2   3
ENDBRANCH   1   2
BRANCH   1  23
ATOM     23  C   UNL A   1      31.660  29.688  27.138  1.00  0.00     0.275 C 
BRANCH  23  24
ATOM     24  O   UNL A   1      32.919  30.113  26.590  1.00  0.00    -0.458 OA
BRANCH  24  25
ATOM     25  C   UNL A   1      33.425  31.242  27.139  1.00  0.00     0.338 C 
ATOM     26  O   UNL A   1      32.857  32.314  27.260  1.00  0.00    -0.246 OA
BRANCH  25  27
ATOM     27  C   UNL A   1      34.771  30.962  27.666  1.00  0.00     0.060 A 
ATOM     28  C   UNL A   1      35.111  29.642  27.955  1.00  0.00     0.016 A 
ATOM     29  C   UNL A   1      35.644  32.001  27.987  1.00  0.00     0.016 A 
ATOM     30  C   UNL A   1      36.293  29.360  28.639  1.00  0.00     0.010 A 
ATOM     31  C   UNL A   1      36.866  31.705  28.607  1.00  0.00     0.010 A 
ATOM     32  C   UNL A   1      37.191  30.384  28.967  1.00  0.00    -0.014 A 
BRANCH  32  33
ATOM     33  C   UNL A   1      38.442  30.080  29.724  1.00  0.00     0.031 A 
ATOM     34  C   UNL A   1      39.475  29.150  29.135  1.00  0.00     0.074 A 
ATOM     35  C   UNL A   1      38.674  30.645  30.926  1.00  0.00     0.049 A 
ATOM     36  N   UNL A   1      40.520  28.605  29.706  1.00  0.00    -0.248 NA
ATOM     37  C   UNL A   1      39.302  28.781  27.722  1.00  0.00     0.031 C 
ATOM     38  C   UNL A   1      37.801  31.616  31.589  1.00  0.00     0.029 A 
ATOM     39  N   UNL A   1      39.718  30.490  31.806  1.00  0.00    -0.354 N 
ATOM     40  C   UNL A   1      41.104  27.793  28.739  1.00  0.00     0.074 A 
ATOM     41  C   UNL A   1      40.290  27.913  27.547  1.00  0.00     0.031 C 
ATOM     42  C   UNL A   1      38.359  31.990  32.751  1.00  0.00     0.029 A 
ATOM     43  C   UNL A   1      39.580  31.221  32.965  1.00  0.00     0.049 A 
ATOM     44  H   UNL A   1      40.492  29.908  31.626  1.00  0.00     0.167 HD
ATOM     45  C   UNL A   1      42.214  27.019  28.838  1.00  0.00     0.034 A 
ATOM     46  C   UNL A   1      40.319  31.239  34.091  1.00  0.00     0.034 A 
ATOM     47  C   UNL A   1      43.043  26.935  30.018  1.00  0.00     0.049 A 
ATOM     48  C   UNL A   1      41.514  30.325  34.199  1.00  0.00     0.074 A 
ATOM     49  C   UNL A   1      44.176  26.164  30.225  1.00  0.00     0.029 A 
ATOM     50  N   UNL A   1      42.844  27.663  31.183  1.00  0.00    -0.354 N 
ATOM     51  N   UNL A   1      41.993  29.484  33.312  1.00  0.00    -0.248 NA
ATOM     52  C   UNL A   1      42.258  30.354  35.465  1.00  0.00     0.031 C 
ATOM     53  C   UNL A   1      44.634  26.393  31.529  1.00  0.00     0.029 A 
ATOM     54  C   UNL A   1      43.824  27.352  32.114  1.00  0.00     0.049 A 
ATOM     55  H   UNL A   1      42.113  28.306  31.328  1.00  0.00     0.167 HD
ATOM     56  C   UNL A   1      43.105  28.899  33.911  1.00  0.00     0.074 A 
ATOM     57  C   UNL A   1      43.237  29.495  35.223  1.00  0.00     0.031 C 
ATOM     58  C   UNL A   1      43.941  27.948  33.422  1.00  0.00     0.034 A 
BRANCH  45  59
ATOM     59  C   UNL A   1      42.567  26.153  27.654  1.00  0.00     0.023 A 
ATOM     60  C   UNL A   1      42.087  24.839  27.522  1.00  0.00     0.031 A 
ATOM     61  C   UNL A   1      43.400  26.659  26.639  1.00  0.00     0.131 A 
ATOM     62  C   UNL A   1      42.483  24.059  26.424  1.00  0.00     0.055 A 
ATOM     63  C   UNL A   1      43.738  25.900  25.517  1.00  0.00     0.041 A 
ATOM     64  F   UNL A   1      43.901  27.902  26.722  1.00  0.00    -0.206 F 
ATOM     65  C   UNL A   1      43.286  24.589  25.409  1.00  0.00     0.022 A 
BRANCH  62  66
ATOM     66  S   UNL A   1      42.009  22.309  26.379  1.00  0.00     0.124 S 
ATOM     67  O   UNL A   1      42.664  21.856  25.156  1.00  0.00    -0.237 OA
ATOM     68  O   UNL A   1      42.562  21.798  27.627  1.00  0.00    -0.237 OA
ATOM     69  O   UNL A   1      40.548  22.350  26.317  1.00  0.00    -0.744 OA
ENDBRANCH  62  66
ENDBRANCH  45  59
BRANCH  46  70
ATOM     70  C   UNL A   1      39.918  32.087  35.251  1.00  0.00     0.023 A 
ATOM     71  C   UNL A   1      39.088  31.583  36.264  1.00  0.00     0.031 A 
ATOM     72  C   UNL A   1      40.302  33.439  35.324  1.00  0.00     0.131 A 
ATOM     73  C   UNL A   1      38.629  32.436  37.281  1.00  0.00     0.055 A 
ATOM     74  C   UNL A   1      39.891  34.267  36.369  1.00  0.00     0.041 A 
ATOM     75  F   UNL A   1      41.089  33.974  34.378  1.00  0.00    -0.206 F 
ATOM     76  C   UNL A   1      39.038  33.770  37.348  1.00  0.00     0.022 A 
BRANCH  73  77
ATOM     77  S   UNL A   1      37.402  31.803  38.458  1.00  0.00     0.124 S 
ATOM     78  O   UNL A   1      36.284  32.713  38.240  1.00  0.00    -0.237 OA
ATOM     79  O   UNL A   1      37.215  30.434  37.991  1.00  0.00    -0.237 OA
ATOM     80  O   UNL A   1      38.071  31.935  39.750  1.00  0.00    -0.744 OA
ENDBRANCH  73  77
ENDBRANCH  46  70
BRANCH  58  81
ATOM     81  C   UNL A   1      45.096  27.543  34.300  1.00  0.00     0.023 A 
ATOM     82  C   UNL A   1      44.987  26.487  35.222  1.00  0.00     0.031 A 
ATOM     83  C   UNL A   1      46.312  28.244  34.234  1.00  0.00     0.131 A 
ATOM     84  C   UNL A   1      46.059  26.197  36.080  1.00  0.00     0.055 A 
ATOM     85  C   UNL A   1      47.392  27.920  35.056  1.00  0.00     0.041 A 
ATOM     86  F   UNL A   1      46.467  29.261  33.371  1.00  0.00    -0.206 F 
ATOM     87  C   UNL A   1      47.264  26.900  35.994  1.00  0.00     0.022 A 
BRANCH  84  88
ATOM     88  S   UNL A   1      45.831  24.939  37.368  1.00  0.00     0.124 S 
ATOM     89  O   UNL A   1      46.779  23.908  36.958  1.00  0.00    -0.237 OA
ATOM     90  O   UNL A   1      46.174  25.671  38.584  1.00  0.00    -0.237 OA
ATOM     91  O   UNL A   1      44.422  24.572  37.244  1.00  0.00    -0.744 OA
ENDBRANCH  84  88
ENDBRANCH  58  81
ENDBRANCH  32  33
ENDBRANCH  25  27
ENDBRANCH  24  25
ENDBRANCH  23  24
ENDBRANCH   1  23
TORSDOF 18
ENDMDL
