MODEL 1
REMARK VINA RESULT:     -10.7      0.000      0.000
REMARK SMILES O=C(Cc1ccc(=O)n(C(F)F)c1)OCCOC(=O)c1ccc(-c2c3nc(c(-c4cc(S(=O)(=O)[O-])ccc4F)c4ccc([nH]4)c(-c4cc(S(=O)(=O)[O-])ccc4F)c4nc(c(-c5cc(S(=O)(=O)[O-])ccc5F)c5ccc2[nH]5)C=C4)C=C3)cc1
REMARK SMILES IDX 16 1 15 2 14 3 2 4 1 5 3 6 4 7 5 8 13 9 6 10 9 11 7 12 8 13
REMARK SMILES IDX 10 14 11 15 12 16 17 17 18 18 19 19 20 20 21 21 82 22 22 23
REMARK SMILES IDX 81 24 23 25 24 26 25 27 75 28 26 29 80 30 74 31 76 32 27 33
REMARK SMILES IDX 79 34 73 35 72 36 28 38 60 39 40 40 59 41 41 42 44 43 58 44
REMARK SMILES IDX 77 45 42 46 43 47 57 49 78 50 45 51 29 52 30 53 38 54 31 55
REMARK SMILES IDX 37 56 39 57 36 58 32 59 33 60 34 61 35 62 61 63 62 64 70 65
REMARK SMILES IDX 63 66 69 67 71 68 68 69 64 70 65 71 66 72 67 73 46 74 47 75
REMARK SMILES IDX 55 76 48 77 54 78 56 79 53 80 49 81 50 82 51 83 52 84
REMARK H PARENT 76 37 44 48
REMARK Flexibility Score: inf
ROOT
ATOM      1  C   UNL A   1      31.899  30.247  26.917  1.00  0.00     0.275 C 
ENDROOT
BRANCH   1   2
ATOM      2  C   UNL A   1      31.876  28.738  26.662  1.00  0.00     0.274 C 
BRANCH   2   3
ATOM      3  O   UNL A   1      32.933  28.308  25.781  1.00  0.00    -0.462 OA
BRANCH   3   4
ATOM      4  C   UNL A   1      32.652  27.527  24.703  1.00  0.00     0.310 C 
ATOM      5  O   UNL A   1      32.946  26.336  24.698  1.00  0.00    -0.252 OA
BRANCH   4   6
ATOM      6  C   UNL A   1      32.110  28.243  23.474  1.00  0.00     0.159 C 
BRANCH   6   7
ATOM      7  C   UNL A   1      30.620  28.442  23.485  1.00  0.00    -0.020 A 
ATOM      8  C   UNL A   1      29.760  27.282  23.612  1.00  0.00     0.011 A 
ATOM      9  C   UNL A   1      30.053  29.639  23.262  1.00  0.00     0.099 A 
ATOM     10  C   UNL A   1      28.430  27.398  23.497  1.00  0.00     0.072 A 
ATOM     11  N   UNL A   1      28.684  29.795  23.176  1.00  0.00    -0.258 N 
ATOM     12  C   UNL A   1      27.803  28.731  23.270  1.00  0.00     0.254 A 
ATOM     13  O   UNL A   1      26.583  28.813  23.183  1.00  0.00    -0.269 OA
BRANCH  11  14
ATOM     14  C   UNL A   1      28.119  31.100  22.955  1.00  0.00     0.451 C 
ATOM     15  F   UNL A   1      27.500  31.178  21.753  1.00  0.00    -0.185 F 
ATOM     16  F   UNL A   1      27.221  31.423  23.918  1.00  0.00    -0.185 F 
ENDBRANCH  11  14
ENDBRANCH   6   7
ENDBRANCH   4   6
ENDBRANCH   3   4
ENDBRANCH   2   3
ENDBRANCH   1   2
BRANCH   1  17
ATOM     17  O   UNL A   1      33.171  30.798  26.544  1.00  0.00    -0.458 OA
BRANCH  17  18
ATOM     18  C   UNL A   1      33.626  31.788  27.359  1.00  0.00     0.338 C 
ATOM     19  O   UNL A   1      33.016  32.785  27.694  1.00  0.00    -0.246 OA
BRANCH  18  20
ATOM     20  C   UNL A   1      34.904  31.351  27.968  1.00  0.00     0.060 A 
ATOM     21  C   UNL A   1      36.018  32.195  28.041  1.00  0.00     0.016 A 
ATOM     22  C   UNL A   1      34.991  30.029  28.419  1.00  0.00     0.016 A 
ATOM     23  C   UNL A   1      37.220  31.710  28.568  1.00  0.00     0.010 A 
ATOM     24  C   UNL A   1      36.193  29.545  28.935  1.00  0.00     0.010 A 
ATOM     25  C   UNL A   1      37.313  30.383  29.019  1.00  0.00    -0.014 A 
BRANCH  25  26
ATOM     26  C   UNL A   1      38.532  29.915  29.719  1.00  0.00     0.031 A 
ATOM     27  C   UNL A   1      38.931  30.449  31.059  1.00  0.00     0.074 A 
ATOM     28  C   UNL A   1      39.314  29.018  29.092  1.00  0.00     0.049 A 
ATOM     29  N   UNL A   1      39.940  30.095  31.810  1.00  0.00    -0.248 NA
ATOM     30  C   UNL A   1      38.097  31.516  31.629  1.00  0.00     0.031 C 
ATOM     31  C   UNL A   1      39.036  28.459  27.770  1.00  0.00     0.029 A 
ATOM     32  N   UNL A   1      40.498  28.434  29.465  1.00  0.00    -0.354 N 
ATOM     33  C   UNL A   1      39.860  30.879  32.953  1.00  0.00     0.074 A 
ATOM     34  C   UNL A   1      38.724  31.760  32.775  1.00  0.00     0.031 C 
ATOM     35  C   UNL A   1      40.025  27.618  27.437  1.00  0.00     0.029 A 
ATOM     36  C   UNL A   1      41.019  27.596  28.510  1.00  0.00     0.049 A 
ATOM     37  H   UNL A   1      40.932  28.600  30.333  1.00  0.00     0.167 HD
ATOM     38  C   UNL A   1      40.657  30.848  34.049  1.00  0.00     0.034 A 
ATOM     39  C   UNL A   1      42.169  26.891  28.487  1.00  0.00     0.034 A 
ATOM     40  C   UNL A   1      41.791  29.968  34.198  1.00  0.00     0.049 A 
ATOM     41  C   UNL A   1      43.063  26.906  29.698  1.00  0.00     0.074 A 
ATOM     42  C   UNL A   1      42.590  29.791  35.314  1.00  0.00     0.029 A 
ATOM     43  N   UNL A   1      42.308  29.146  33.207  1.00  0.00    -0.354 N 
ATOM     44  N   UNL A   1      42.895  27.540  30.833  1.00  0.00    -0.248 NA
ATOM     45  C   UNL A   1      44.291  26.101  29.638  1.00  0.00     0.031 C 
ATOM     46  C   UNL A   1      43.634  28.929  34.975  1.00  0.00     0.029 A 
ATOM     47  C   UNL A   1      43.445  28.502  33.669  1.00  0.00     0.049 A 
ATOM     48  H   UNL A   1      41.924  29.036  32.307  1.00  0.00     0.167 HD
ATOM     49  C   UNL A   1      43.980  27.193  31.633  1.00  0.00     0.074 A 
ATOM     50  C   UNL A   1      44.794  26.283  30.854  1.00  0.00     0.031 C 
ATOM     51  C   UNL A   1      44.265  27.594  32.899  1.00  0.00     0.034 A 
BRANCH  38  52
ATOM     52  C   UNL A   1      40.340  31.765  35.203  1.00  0.00     0.023 A 
ATOM     53  C   UNL A   1      39.355  31.403  36.142  1.00  0.00     0.031 A 
ATOM     54  C   UNL A   1      40.895  33.055  35.286  1.00  0.00     0.131 A 
ATOM     55  C   UNL A   1      38.934  32.331  37.104  1.00  0.00     0.055 A 
ATOM     56  C   UNL A   1      40.497  33.963  36.267  1.00  0.00     0.041 A 
ATOM     57  F   UNL A   1      41.832  33.450  34.408  1.00  0.00    -0.206 F 
ATOM     58  C   UNL A   1      39.502  33.607  37.173  1.00  0.00     0.022 A 
BRANCH  55  59
ATOM     59  S   UNL A   1      37.581  31.945  38.250  1.00  0.00     0.124 S 
ATOM     60  O   UNL A   1      36.611  32.987  37.922  1.00  0.00    -0.237 OA
ATOM     61  O   UNL A   1      37.208  30.594  37.842  1.00  0.00    -0.237 OA
ATOM     62  O   UNL A   1      38.194  32.060  39.568  1.00  0.00    -0.744 OA
ENDBRANCH  55  59
ENDBRANCH  38  52
BRANCH  39  63
ATOM     63  C   UNL A   1      42.464  26.067  27.283  1.00  0.00     0.023 A 
ATOM     64  C   UNL A   1      42.015  24.735  27.201  1.00  0.00     0.031 A 
ATOM     65  C   UNL A   1      43.340  26.537  26.293  1.00  0.00     0.131 A 
ATOM     66  C   UNL A   1      42.519  23.896  26.201  1.00  0.00     0.055 A 
ATOM     67  C   UNL A   1      43.783  25.716  25.255  1.00  0.00     0.041 A 
ATOM     68  F   UNL A   1      43.805  27.795  26.344  1.00  0.00    -0.206 F 
ATOM     69  C   UNL A   1      43.388  24.381  25.218  1.00  0.00     0.022 A 
BRANCH  66  70
ATOM     70  S   UNL A   1      42.185  22.112  26.233  1.00  0.00     0.124 S 
ATOM     71  O   UNL A   1      40.738  22.067  26.046  1.00  0.00    -0.237 OA
ATOM     72  O   UNL A   1      42.982  21.644  25.101  1.00  0.00    -0.237 OA
ATOM     73  O   UNL A   1      42.664  21.696  27.546  1.00  0.00    -0.744 OA
ENDBRANCH  66  70
ENDBRANCH  39  63
BRANCH  51  74
ATOM     74  C   UNL A   1      45.518  27.075  33.563  1.00  0.00     0.023 A 
ATOM     75  C   UNL A   1      45.466  25.913  34.357  1.00  0.00     0.031 A 
ATOM     76  C   UNL A   1      46.712  27.816  33.550  1.00  0.00     0.131 A 
ATOM     77  C   UNL A   1      46.565  25.558  35.150  1.00  0.00     0.055 A 
ATOM     78  C   UNL A   1      47.822  27.431  34.306  1.00  0.00     0.041 A 
ATOM     79  F   UNL A   1      46.812  28.934  32.813  1.00  0.00    -0.206 F 
ATOM     80  C   UNL A   1      47.745  26.306  35.123  1.00  0.00     0.022 A 
BRANCH  77  81
ATOM     81  S   UNL A   1      46.473  24.164  36.310  1.00  0.00     0.124 S 
ATOM     82  O   UNL A   1      45.295  24.507  37.104  1.00  0.00    -0.237 OA
ATOM     83  O   UNL A   1      46.306  23.026  35.409  1.00  0.00    -0.237 OA
ATOM     84  O   UNL A   1      47.743  24.218  37.026  1.00  0.00    -0.744 OA
ENDBRANCH  77  81
ENDBRANCH  51  74
ENDBRANCH  25  26
ENDBRANCH  18  20
ENDBRANCH  17  18
ENDBRANCH   1  17
TORSDOF 16
ENDMDL
MODEL 2
REMARK VINA RESULT:     -10.7      2.548      8.311
REMARK SMILES O=C(Cc1ccc(=O)n(C(F)F)c1)OCCOC(=O)c1ccc(-c2c3nc(c(-c4cc(S(=O)(=O)[O-])ccc4F)c4ccc([nH]4)c(-c4cc(S(=O)(=O)[O-])ccc4F)c4nc(c(-c5cc(S(=O)(=O)[O-])ccc5F)c5ccc2[nH]5)C=C4)C=C3)cc1
REMARK SMILES IDX 16 1 15 2 14 3 2 4 1 5 3 6 4 7 5 8 13 9 6 10 9 11 7 12 8 13
REMARK SMILES IDX 10 14 11 15 12 16 17 17 18 18 19 19 20 20 21 21 82 22 22 23
REMARK SMILES IDX 81 24 23 25 24 26 25 27 75 28 26 29 80 30 74 31 76 32 27 33
REMARK SMILES IDX 79 34 73 35 72 36 28 38 60 39 40 40 59 41 41 42 44 43 58 44
REMARK SMILES IDX 77 45 42 46 43 47 57 49 78 50 45 51 29 52 30 53 38 54 31 55
REMARK SMILES IDX 37 56 39 57 36 58 32 59 33 60 34 61 35 62 61 63 62 64 70 65
REMARK SMILES IDX 63 66 69 67 71 68 68 69 64 70 65 71 66 72 67 73 46 74 47 75
REMARK SMILES IDX 55 76 48 77 54 78 56 79 53 80 49 81 50 82 51 83 52 84
REMARK H PARENT 76 37 44 48
REMARK Flexibility Score: inf
ROOT
ATOM      1  C   UNL A   1      32.031  32.309  27.107  1.00  0.00     0.275 C 
ENDROOT
BRANCH   1   2
ATOM      2  C   UNL A   1      32.614  30.918  26.848  1.00  0.00     0.274 C 
BRANCH   2   3
ATOM      3  O   UNL A   1      31.716  29.859  27.235  1.00  0.00    -0.462 OA
BRANCH   3   4
ATOM      4  C   UNL A   1      32.122  28.562  27.182  1.00  0.00     0.310 C 
ATOM      5  O   UNL A   1      31.394  27.660  27.586  1.00  0.00    -0.252 OA
BRANCH   4   6
ATOM      6  C   UNL A   1      33.561  28.322  26.748  1.00  0.00     0.159 C 
BRANCH   6   7
ATOM      7  C   UNL A   1      33.698  27.721  25.376  1.00  0.00    -0.020 A 
ATOM      8  C   UNL A   1      33.595  28.589  24.219  1.00  0.00     0.011 A 
ATOM      9  C   UNL A   1      33.793  26.397  25.177  1.00  0.00     0.099 A 
ATOM     10  C   UNL A   1      33.581  28.080  22.979  1.00  0.00     0.072 A 
ATOM     11  N   UNL A   1      33.819  25.846  23.911  1.00  0.00    -0.258 N 
ATOM     12  C   UNL A   1      33.707  26.611  22.762  1.00  0.00     0.254 A 
ATOM     13  O   UNL A   1      33.708  26.172  21.617  1.00  0.00    -0.269 OA
BRANCH  11  14
ATOM     14  C   UNL A   1      33.942  24.422  23.744  1.00  0.00     0.451 C 
ATOM     15  F   UNL A   1      35.159  23.978  24.138  1.00  0.00    -0.185 F 
ATOM     16  F   UNL A   1      32.996  23.756  24.450  1.00  0.00    -0.185 F 
ENDBRANCH  11  14
ENDBRANCH   6   7
ENDBRANCH   4   6
ENDBRANCH   3   4
ENDBRANCH   2   3
ENDBRANCH   1   2
BRANCH   1  17
ATOM     17  O   UNL A   1      33.046  33.313  26.959  1.00  0.00    -0.458 OA
BRANCH  17  18
ATOM     18  C   UNL A   1      33.406  33.936  28.113  1.00  0.00     0.338 C 
ATOM     19  O   UNL A   1      32.763  34.777  28.711  1.00  0.00    -0.246 OA
BRANCH  18  20
ATOM     20  C   UNL A   1      34.604  33.261  28.663  1.00  0.00     0.060 A 
ATOM     21  C   UNL A   1      35.895  33.552  28.207  1.00  0.00     0.016 A 
ATOM     22  C   UNL A   1      34.405  32.260  29.621  1.00  0.00     0.016 A 
ATOM     23  C   UNL A   1      36.986  32.839  28.714  1.00  0.00     0.010 A 
ATOM     24  C   UNL A   1      35.494  31.543  30.118  1.00  0.00     0.010 A 
ATOM     25  C   UNL A   1      36.791  31.831  29.673  1.00  0.00    -0.014 A 
BRANCH  25  26
ATOM     26  C   UNL A   1      37.954  31.185  30.326  1.00  0.00     0.031 A 
ATOM     27  C   UNL A   1      38.728  30.090  29.661  1.00  0.00     0.074 A 
ATOM     28  C   UNL A   1      38.276  31.575  31.572  1.00  0.00     0.049 A 
ATOM     29  N   UNL A   1      39.796  29.470  30.090  1.00  0.00    -0.248 NA
ATOM     30  C   UNL A   1      38.246  29.629  28.352  1.00  0.00     0.031 C 
ATOM     31  C   UNL A   1      37.565  32.609  32.324  1.00  0.00     0.029 A 
ATOM     32  N   UNL A   1      39.258  31.147  32.428  1.00  0.00    -0.354 N 
ATOM     33  C   UNL A   1      40.131  28.555  29.102  1.00  0.00     0.074 A 
ATOM     34  C   UNL A   1      39.123  28.672  28.066  1.00  0.00     0.031 C 
ATOM     35  C   UNL A   1      38.129  32.730  33.534  1.00  0.00     0.029 A 
ATOM     36  C   UNL A   1      39.224  31.769  33.652  1.00  0.00     0.049 A 
ATOM     37  H   UNL A   1      39.922  30.461  32.188  1.00  0.00     0.167 HD
ATOM     38  C   UNL A   1      41.190  27.710  29.063  1.00  0.00     0.034 A 
ATOM     39  C   UNL A   1      39.981  31.587  34.754  1.00  0.00     0.034 A 
ATOM     40  C   UNL A   1      42.175  27.603  30.113  1.00  0.00     0.049 A 
ATOM     41  C   UNL A   1      41.126  30.611  34.707  1.00  0.00     0.074 A 
ATOM     42  C   UNL A   1      43.339  26.855  30.115  1.00  0.00     0.029 A 
ATOM     43  N   UNL A   1      42.105  28.229  31.350  1.00  0.00    -0.354 N 
ATOM     44  N   UNL A   1      41.521  29.859  33.708  1.00  0.00    -0.248 NA
ATOM     45  C   UNL A   1      41.939  30.467  35.922  1.00  0.00     0.031 C 
ATOM     46  C   UNL A   1      43.928  26.962  31.376  1.00  0.00     0.029 A 
ATOM     47  C   UNL A   1      43.176  27.841  32.140  1.00  0.00     0.049 A 
ATOM     48  H   UNL A   1      41.397  28.855  31.627  1.00  0.00     0.167 HD
ATOM     49  C   UNL A   1      42.642  29.171  34.162  1.00  0.00     0.074 A 
ATOM     50  C   UNL A   1      42.869  29.606  35.525  1.00  0.00     0.031 C 
ATOM     51  C   UNL A   1      43.409  28.267  33.501  1.00  0.00     0.034 A 
BRANCH  38  52
ATOM     52  C   UNL A   1      41.381  26.839  27.848  1.00  0.00     0.023 A 
ATOM     53  C   UNL A   1      41.043  25.473  27.900  1.00  0.00     0.031 A 
ATOM     54  C   UNL A   1      42.038  27.318  26.701  1.00  0.00     0.131 A 
ATOM     55  C   UNL A   1      41.389  24.628  26.837  1.00  0.00     0.055 A 
ATOM     56  C   UNL A   1      42.351  26.480  25.631  1.00  0.00     0.041 A 
ATOM     57  F   UNL A   1      42.390  28.611  26.609  1.00  0.00    -0.206 F 
ATOM     58  C   UNL A   1      42.038  25.125  25.702  1.00  0.00     0.022 A 
BRANCH  55  59
ATOM     59  S   UNL A   1      41.082  22.842  26.919  1.00  0.00     0.124 S 
ATOM     60  O   UNL A   1      39.626  22.788  26.824  1.00  0.00    -0.237 OA
ATOM     61  O   UNL A   1      41.803  22.351  25.749  1.00  0.00    -0.237 OA
ATOM     62  O   UNL A   1      41.636  22.450  28.211  1.00  0.00    -0.744 OA
ENDBRANCH  55  59
ENDBRANCH  38  52
BRANCH  39  63
ATOM     63  C   UNL A   1      39.690  32.423  35.952  1.00  0.00     0.023 A 
ATOM     64  C   UNL A   1      38.862  31.936  36.981  1.00  0.00     0.031 A 
ATOM     65  C   UNL A   1      40.084  33.769  35.995  1.00  0.00     0.131 A 
ATOM     66  C   UNL A   1      38.383  32.815  37.958  1.00  0.00     0.055 A 
ATOM     67  C   UNL A   1      39.662  34.624  37.014  1.00  0.00     0.041 A 
ATOM     68  F   UNL A   1      40.859  34.279  35.025  1.00  0.00    -0.206 F 
ATOM     69  C   UNL A   1      38.789  34.153  37.991  1.00  0.00     0.022 A 
BRANCH  66  70
ATOM     70  S   UNL A   1      37.097  32.289  39.127  1.00  0.00     0.124 S 
ATOM     71  O   UNL A   1      37.526  32.934  40.365  1.00  0.00    -0.237 OA
ATOM     72  O   UNL A   1      35.895  32.844  38.509  1.00  0.00    -0.237 OA
ATOM     73  O   UNL A   1      37.191  30.834  39.110  1.00  0.00    -0.744 OA
ENDBRANCH  66  70
ENDBRANCH  39  63
BRANCH  51  74
ATOM     74  C   UNL A   1      44.586  27.648  34.218  1.00  0.00     0.023 A 
ATOM     75  C   UNL A   1      44.401  26.503  35.017  1.00  0.00     0.031 A 
ATOM     76  C   UNL A   1      45.839  28.282  34.248  1.00  0.00     0.131 A 
ATOM     77  C   UNL A   1      45.434  26.062  35.856  1.00  0.00     0.055 A 
ATOM     78  C   UNL A   1      46.882  27.810  35.049  1.00  0.00     0.041 A 
ATOM     79  F   UNL A   1      46.065  29.379  33.507  1.00  0.00    -0.206 F 
ATOM     80  C   UNL A   1      46.675  26.705  35.871  1.00  0.00     0.022 A 
BRANCH  77  81
ATOM     81  S   UNL A   1      45.176  24.694  37.020  1.00  0.00     0.124 S 
ATOM     82  O   UNL A   1      46.413  24.718  37.797  1.00  0.00    -0.237 OA
ATOM     83  O   UNL A   1      43.980  25.125  37.740  1.00  0.00    -0.237 OA
ATOM     84  O   UNL A   1      45.005  23.527  36.161  1.00  0.00    -0.744 OA
ENDBRANCH  77  81
ENDBRANCH  51  74
ENDBRANCH  25  26
ENDBRANCH  18  20
ENDBRANCH  17  18
ENDBRANCH   1  17
TORSDOF 16
ENDMDL
MODEL 3
REMARK VINA RESULT:     -10.7      6.547     10.622
REMARK SMILES O=C(Cc1ccc(=O)n(C(F)F)c1)OCCOC(=O)c1ccc(-c2c3nc(c(-c4cc(S(=O)(=O)[O-])ccc4F)c4ccc([nH]4)c(-c4cc(S(=O)(=O)[O-])ccc4F)c4nc(c(-c5cc(S(=O)(=O)[O-])ccc5F)c5ccc2[nH]5)C=C4)C=C3)cc1
REMARK SMILES IDX 16 1 15 2 14 3 2 4 1 5 3 6 4 7 5 8 13 9 6 10 9 11 7 12 8 13
REMARK SMILES IDX 10 14 11 15 12 16 17 17 18 18 19 19 20 20 21 21 82 22 22 23
REMARK SMILES IDX 81 24 23 25 24 26 25 27 75 28 26 29 80 30 74 31 76 32 27 33
REMARK SMILES IDX 79 34 73 35 72 36 28 38 60 39 40 40 59 41 41 42 44 43 58 44
REMARK SMILES IDX 77 45 42 46 43 47 57 49 78 50 45 51 29 52 30 53 38 54 31 55
REMARK SMILES IDX 37 56 39 57 36 58 32 59 33 60 34 61 35 62 61 63 62 64 70 65
REMARK SMILES IDX 63 66 69 67 71 68 68 69 64 70 65 71 66 72 67 73 46 74 47 75
REMARK SMILES IDX 55 76 48 77 54 78 56 79 53 80 49 81 50 82 51 83 52 84
REMARK H PARENT 76 37 44 48
REMARK Flexibility Score: inf
ROOT
ATOM      1  C   UNL A   1      41.614  20.682  26.176  1.00  0.00     0.275 C 
ENDROOT
BRANCH   1   2
ATOM      2  C   UNL A   1      41.881  19.176  26.230  1.00  0.00     0.274 C 
BRANCH   2   3
ATOM      3  O   UNL A   1      43.283  18.865  26.346  1.00  0.00    -0.462 OA
BRANCH   3   4
ATOM      4  C   UNL A   1      44.072  18.832  25.238  1.00  0.00     0.310 C 
ATOM      5  O   UNL A   1      43.796  18.099  24.293  1.00  0.00    -0.252 OA
BRANCH   4   6
ATOM      6  C   UNL A   1      45.370  19.623  25.310  1.00  0.00     0.159 C 
BRANCH   6   7
ATOM      7  C   UNL A   1      45.190  21.113  25.212  1.00  0.00    -0.020 A 
ATOM      8  C   UNL A   1      44.572  21.666  24.024  1.00  0.00     0.011 A 
ATOM      9  C   UNL A   1      45.687  21.958  26.129  1.00  0.00     0.099 A 
ATOM     10  C   UNL A   1      44.509  22.992  23.837  1.00  0.00     0.072 A 
ATOM     11  N   UNL A   1      45.603  23.329  25.982  1.00  0.00    -0.258 N 
ATOM     12  C   UNL A   1      45.043  23.928  24.866  1.00  0.00     0.254 A 
ATOM     13  O   UNL A   1      44.959  25.136  24.679  1.00  0.00    -0.269 OA
BRANCH  11  14
ATOM     14  C   UNL A   1      46.132  24.198  27.000  1.00  0.00     0.451 C 
ATOM     15  F   UNL A   1      45.871  23.727  28.242  1.00  0.00    -0.185 F 
ATOM     16  F   UNL A   1      47.473  24.352  26.876  1.00  0.00    -0.185 F 
ENDBRANCH  11  14
ENDBRANCH   6   7
ENDBRANCH   4   6
ENDBRANCH   3   4
ENDBRANCH   2   3
ENDBRANCH   1   2
BRANCH   1  17
ATOM     17  O   UNL A   1      40.578  21.041  27.103  1.00  0.00    -0.458 OA
BRANCH  17  18
ATOM     18  C   UNL A   1      39.674  21.941  26.629  1.00  0.00     0.338 C 
ATOM     19  O   UNL A   1      38.612  21.685  26.095  1.00  0.00    -0.246 OA
BRANCH  18  20
ATOM     20  C   UNL A   1      40.076  23.296  27.072  1.00  0.00     0.060 A 
ATOM     21  C   UNL A   1      40.844  23.502  28.224  1.00  0.00     0.016 A 
ATOM     22  C   UNL A   1      39.606  24.388  26.334  1.00  0.00     0.016 A 
ATOM     23  C   UNL A   1      41.140  24.806  28.633  1.00  0.00     0.010 A 
ATOM     24  C   UNL A   1      39.895  25.688  26.749  1.00  0.00     0.010 A 
ATOM     25  C   UNL A   1      40.669  25.906  27.897  1.00  0.00    -0.014 A 
BRANCH  25  26
ATOM     26  C   UNL A   1      41.111  27.279  28.237  1.00  0.00     0.031 A 
ATOM     27  C   UNL A   1      40.169  28.300  28.796  1.00  0.00     0.074 A 
ATOM     28  C   UNL A   1      42.389  27.611  27.983  1.00  0.00     0.049 A 
ATOM     29  N   UNL A   1      40.427  29.520  29.186  1.00  0.00    -0.248 NA
ATOM     30  C   UNL A   1      38.760  27.906  28.932  1.00  0.00     0.031 C 
ATOM     31  C   UNL A   1      43.381  26.703  27.407  1.00  0.00     0.029 A 
ATOM     32  N   UNL A   1      43.068  28.790  28.155  1.00  0.00    -0.354 N 
ATOM     33  C   UNL A   1      39.221  30.042  29.633  1.00  0.00     0.074 A 
ATOM     34  C   UNL A   1      38.220  29.016  29.424  1.00  0.00     0.031 C 
ATOM     35  C   UNL A   1      44.540  27.360  27.265  1.00  0.00     0.029 A 
ATOM     36  C   UNL A   1      44.369  28.741  27.716  1.00  0.00     0.049 A 
ATOM     37  H   UNL A   1      42.661  29.594  28.552  1.00  0.00     0.167 HD
ATOM     38  C   UNL A   1      38.985  31.260  30.178  1.00  0.00     0.034 A 
ATOM     39  C   UNL A   1      45.321  29.695  27.673  1.00  0.00     0.034 A 
ATOM     40  C   UNL A   1      39.998  32.271  30.366  1.00  0.00     0.049 A 
ATOM     41  C   UNL A   1      45.025  31.056  28.243  1.00  0.00     0.074 A 
ATOM     42  C   UNL A   1      39.874  33.491  31.007  1.00  0.00     0.029 A 
ATOM     43  N   UNL A   1      41.302  32.202  29.894  1.00  0.00    -0.354 N 
ATOM     44  N   UNL A   1      43.919  31.488  28.800  1.00  0.00    -0.248 NA
ATOM     45  C   UNL A   1      46.101  32.055  28.199  1.00  0.00     0.031 C 
ATOM     46  C   UNL A   1      41.072  34.191  30.853  1.00  0.00     0.029 A 
ATOM     47  C   UNL A   1      41.974  33.379  30.183  1.00  0.00     0.049 A 
ATOM     48  H   UNL A   1      41.691  31.430  29.423  1.00  0.00     0.167 HD
ATOM     49  C   UNL A   1      44.171  32.798  29.195  1.00  0.00     0.074 A 
ATOM     50  C   UNL A   1      45.542  33.085  28.823  1.00  0.00     0.031 C 
ATOM     51  C   UNL A   1      43.340  33.675  29.814  1.00  0.00     0.034 A 
BRANCH  38  52
ATOM     52  C   UNL A   1      37.590  31.588  30.646  1.00  0.00     0.023 A 
ATOM     53  C   UNL A   1      36.719  32.315  29.811  1.00  0.00     0.031 A 
ATOM     54  C   UNL A   1      37.179  31.323  31.965  1.00  0.00     0.131 A 
ATOM     55  C   UNL A   1      35.495  32.775  30.313  1.00  0.00     0.055 A 
ATOM     56  C   UNL A   1      35.945  31.755  32.449  1.00  0.00     0.041 A 
ATOM     57  F   UNL A   1      37.979  30.643  32.802  1.00  0.00    -0.206 F 
ATOM     58  C   UNL A   1      35.102  32.497  31.626  1.00  0.00     0.022 A 
BRANCH  55  59
ATOM     59  S   UNL A   1      34.402  33.819  29.309  1.00  0.00     0.124 S 
ATOM     60  O   UNL A   1      33.816  32.840  28.395  1.00  0.00    -0.237 OA
ATOM     61  O   UNL A   1      33.489  34.362  30.310  1.00  0.00    -0.237 OA
ATOM     62  O   UNL A   1      35.306  34.782  28.691  1.00  0.00    -0.744 OA
ENDBRANCH  55  59
ENDBRANCH  38  52
BRANCH  39  63
ATOM     63  C   UNL A   1      46.657  29.330  27.124  1.00  0.00     0.023 A 
ATOM     64  C   UNL A   1      46.793  28.928  25.782  1.00  0.00     0.031 A 
ATOM     65  C   UNL A   1      47.767  29.206  27.972  1.00  0.00     0.131 A 
ATOM     66  C   UNL A   1      47.987  28.337  25.354  1.00  0.00     0.055 A 
ATOM     67  C   UNL A   1      48.980  28.683  27.521  1.00  0.00     0.041 A 
ATOM     68  F   UNL A   1      47.675  29.562  29.263  1.00  0.00    -0.206 F 
ATOM     69  C   UNL A   1      49.087  28.226  26.211  1.00  0.00     0.022 A 
BRANCH  66  70
ATOM     70  S   UNL A   1      48.101  27.554  23.720  1.00  0.00     0.124 S 
ATOM     71  O   UNL A   1      47.764  26.166  24.022  1.00  0.00    -0.237 OA
ATOM     72  O   UNL A   1      47.095  28.299  22.968  1.00  0.00    -0.237 OA
ATOM     73  O   UNL A   1      49.482  27.794  23.320  1.00  0.00    -0.744 OA
ENDBRANCH  66  70
ENDBRANCH  39  63
BRANCH  51  74
ATOM     74  C   UNL A   1      43.851  35.058  30.141  1.00  0.00     0.023 A 
ATOM     75  C   UNL A   1      43.639  36.120  29.240  1.00  0.00     0.031 A 
ATOM     76  C   UNL A   1      44.686  35.285  31.248  1.00  0.00     0.131 A 
ATOM     77  C   UNL A   1      44.299  37.340  29.430  1.00  0.00     0.055 A 
ATOM     78  C   UNL A   1      45.304  36.520  31.459  1.00  0.00     0.041 A 
ATOM     79  F   UNL A   1      44.924  34.304  32.134  1.00  0.00    -0.206 F 
ATOM     80  C   UNL A   1      45.125  37.549  30.538  1.00  0.00     0.022 A 
BRANCH  77  81
ATOM     81  S   UNL A   1      44.180  38.671  28.201  1.00  0.00     0.124 S 
ATOM     82  O   UNL A   1      42.792  39.103  28.354  1.00  0.00    -0.237 OA
ATOM     83  O   UNL A   1      45.183  39.620  28.679  1.00  0.00    -0.237 OA
ATOM     84  O   UNL A   1      44.490  38.012  26.937  1.00  0.00    -0.744 OA
ENDBRANCH  77  81
ENDBRANCH  51  74
ENDBRANCH  25  26
ENDBRANCH  18  20
ENDBRANCH  17  18
ENDBRANCH   1  17
TORSDOF 16
ENDMDL
