MODEL 1
REMARK VINA RESULT:     -12.1      0.000      0.000
REMARK SMILES O=C(CSc1nnc(Cc2ccncc2)n1-c1ccccc1Cl)OCCOC(=O)c1ccc(-c2c3nc(c(-c4cc(S(=O)(=O)[O-])ccc4F)c4ccc([nH]4)c(-c4cc(S(=O)(=O)[O-])ccc4F)c4nc(c(-c5cc(S(=O)(=O)[O-])ccc5F)c5ccc2[nH]5)C=C4)C=C3)cc1
REMARK SMILES IDX 25 1 24 2 2 3 1 4 3 5 4 6 5 7 6 8 16 9 7 10 8 11 17 12 18 13
REMARK SMILES IDX 22 14 19 15 21 16 23 17 20 18 9 19 10 20 11 21 15 22 12 23
REMARK SMILES IDX 14 24 13 25 26 26 27 27 28 28 29 29 30 30 31 31 92 32 32 33
REMARK SMILES IDX 91 34 33 35 34 36 35 37 85 38 36 39 90 40 84 41 86 42 37 43
REMARK SMILES IDX 89 44 83 45 82 46 38 48 70 49 50 50 69 51 51 52 54 53 68 54
REMARK SMILES IDX 87 55 52 56 53 57 67 59 88 60 55 61 39 62 40 63 48 64 41 65
REMARK SMILES IDX 47 66 49 67 46 68 42 69 43 70 44 71 45 72 71 73 72 74 80 75
REMARK SMILES IDX 73 76 79 77 81 78 78 79 74 80 75 81 76 82 77 83 56 84 57 85
REMARK SMILES IDX 65 86 58 87 64 88 66 89 63 90 59 91 60 92 61 93 62 94
REMARK H PARENT 86 47 54 58
REMARK Flexibility Score: inf
ROOT
ATOM      1  C   UNL A   1      33.541  30.654  27.228  1.00  0.00     0.274 C 
ENDROOT
BRANCH   1   2
ATOM      2  O   UNL A   1      32.548  30.297  26.244  1.00  0.00    -0.461 OA
BRANCH   2   3
ATOM      3  C   UNL A   1      32.636  29.274  25.361  1.00  0.00     0.316 C 
ATOM      4  O   UNL A   1      33.285  29.412  24.326  1.00  0.00    -0.251 OA
BRANCH   3   5
ATOM      5  C   UNL A   1      31.952  27.963  25.672  1.00  0.00     0.200 C 
BRANCH   5   6
ATOM      6  S   UNL A   1      32.660  26.560  24.791  1.00  0.00    -0.074 SA
BRANCH   6   7
ATOM      7  C   UNL A   1      32.520  25.286  25.953  1.00  0.00     0.196 A 
ATOM      8  N   UNL A   1      31.460  25.103  26.705  1.00  0.00    -0.123 NA
ATOM      9  N   UNL A   1      33.385  24.218  26.076  1.00  0.00    -0.272 N 
ATOM     10  N   UNL A   1      31.584  23.881  27.309  1.00  0.00    -0.134 NA
ATOM     11  C   UNL A   1      32.720  23.337  26.910  1.00  0.00     0.142 A 
BRANCH   9  12
ATOM     12  C   UNL A   1      34.502  23.923  25.269  1.00  0.00     0.068 A 
ATOM     13  C   UNL A   1      35.778  24.078  25.827  1.00  0.00     0.028 A 
ATOM     14  C   UNL A   1      34.346  23.479  23.953  1.00  0.00     0.065 A 
ATOM     15  C   UNL A   1      36.902  23.754  25.068  1.00  0.00     0.002 A 
ATOM     16  C   UNL A   1      35.476  23.124  23.214  1.00  0.00     0.023 A 
ATOM     17  Cl  UNL A   1      32.814  23.405  23.169  1.00  0.00    -0.082 Cl
ATOM     18  C   UNL A   1      36.751  23.261  23.771  1.00  0.00     0.002 A 
ENDBRANCH   9  12
BRANCH  11  19
ATOM     19  C   UNL A   1      33.190  21.968  27.260  1.00  0.00     0.113 C 
BRANCH  19  20
ATOM     20  C   UNL A   1      33.228  21.036  26.075  1.00  0.00    -0.037 A 
ATOM     21  C   UNL A   1      32.092  20.845  25.282  1.00  0.00     0.024 A 
ATOM     22  C   UNL A   1      34.392  20.339  25.746  1.00  0.00     0.024 A 
ATOM     23  C   UNL A   1      32.172  19.987  24.198  1.00  0.00     0.111 A 
ATOM     24  C   UNL A   1      34.374  19.507  24.636  1.00  0.00     0.111 A 
ATOM     25  N   UNL A   1      33.294  19.327  23.846  1.00  0.00    -0.265 NA
ENDBRANCH  19  20
ENDBRANCH  11  19
ENDBRANCH   6   7
ENDBRANCH   5   6
ENDBRANCH   3   5
ENDBRANCH   2   3
ENDBRANCH   1   2
BRANCH   1  26
ATOM     26  C   UNL A   1      34.643  29.605  27.319  1.00  0.00     0.275 C 
BRANCH  26  27
ATOM     27  O   UNL A   1      35.902  30.230  27.563  1.00  0.00    -0.458 OA
BRANCH  27  28
ATOM     28  C   UNL A   1      36.527  29.955  28.731  1.00  0.00     0.338 C 
ATOM     29  O   UNL A   1      36.191  30.307  29.845  1.00  0.00    -0.246 OA
BRANCH  28  30
ATOM     30  C   UNL A   1      37.713  29.149  28.403  1.00  0.00     0.060 A 
ATOM     31  C   UNL A   1      38.126  28.182  29.321  1.00  0.00     0.016 A 
ATOM     32  C   UNL A   1      38.491  29.473  27.278  1.00  0.00     0.016 A 
ATOM     33  C   UNL A   1      39.413  27.688  29.220  1.00  0.00     0.010 A 
ATOM     34  C   UNL A   1      39.775  28.990  27.185  1.00  0.00     0.010 A 
ATOM     35  C   UNL A   1      40.246  28.170  28.203  1.00  0.00    -0.014 A 
BRANCH  35  36
ATOM     36  C   UNL A   1      41.652  27.819  28.231  1.00  0.00     0.031 A 
ATOM     37  C   UNL A   1      41.999  26.568  27.526  1.00  0.00     0.074 A 
ATOM     38  C   UNL A   1      42.576  28.650  28.748  1.00  0.00     0.049 A 
ATOM     39  N   UNL A   1      42.450  25.472  28.034  1.00  0.00    -0.248 NA
ATOM     40  C   UNL A   1      41.688  26.478  26.093  1.00  0.00     0.031 C 
ATOM     41  C   UNL A   1      42.403  30.036  29.192  1.00  0.00     0.029 A 
ATOM     42  N   UNL A   1      43.913  28.447  28.886  1.00  0.00    -0.354 N 
ATOM     43  C   UNL A   1      42.677  24.615  26.963  1.00  0.00     0.074 A 
ATOM     44  C   UNL A   1      42.028  25.216  25.829  1.00  0.00     0.031 C 
ATOM     45  C   UNL A   1      43.620  30.610  29.339  1.00  0.00     0.029 A 
ATOM     46  C   UNL A   1      44.646  29.599  29.136  1.00  0.00     0.049 A 
ATOM     47  H   UNL A   1      44.327  27.556  28.813  1.00  0.00     0.167 HD
ATOM     48  C   UNL A   1      43.559  23.583  27.056  1.00  0.00     0.034 A 
ATOM     49  C   UNL A   1      45.999  29.723  29.103  1.00  0.00     0.034 A 
ATOM     50  C   UNL A   1      43.864  23.282  28.436  1.00  0.00     0.049 A 
ATOM     51  C   UNL A   1      46.559  28.358  29.285  1.00  0.00     0.074 A 
ATOM     52  C   UNL A   1      43.110  22.881  29.523  1.00  0.00     0.029 A 
ATOM     53  N   UNL A   1      45.048  23.749  28.961  1.00  0.00    -0.354 N 
ATOM     54  N   UNL A   1      46.412  27.663  30.382  1.00  0.00    -0.248 NA
ATOM     55  C   UNL A   1      46.854  27.571  28.096  1.00  0.00     0.031 C 
ATOM     56  C   UNL A   1      43.656  23.594  30.630  1.00  0.00     0.029 A 
ATOM     57  C   UNL A   1      44.752  24.330  30.171  1.00  0.00     0.049 A 
ATOM     58  H   UNL A   1      45.938  23.679  28.548  1.00  0.00     0.167 HD
ATOM     59  C   UNL A   1      46.172  26.364  29.961  1.00  0.00     0.074 A 
ATOM     60  C   UNL A   1      46.552  26.350  28.550  1.00  0.00     0.031 C 
ATOM     61  C   UNL A   1      45.430  25.495  30.709  1.00  0.00     0.034 A 
BRANCH  48  62
ATOM     62  C   UNL A   1      44.392  23.052  25.913  1.00  0.00     0.023 A 
ATOM     63  C   UNL A   1      44.354  21.664  25.676  1.00  0.00     0.031 A 
ATOM     64  C   UNL A   1      45.409  23.763  25.237  1.00  0.00     0.131 A 
ATOM     65  C   UNL A   1      45.337  21.039  24.889  1.00  0.00     0.055 A 
ATOM     66  C   UNL A   1      46.341  23.146  24.397  1.00  0.00     0.041 A 
ATOM     67  F   UNL A   1      45.625  25.071  25.418  1.00  0.00    -0.206 F 
ATOM     68  C   UNL A   1      46.329  21.771  24.245  1.00  0.00     0.022 A 
BRANCH  65  69
ATOM     69  S   UNL A   1      45.404  19.228  24.878  1.00  0.00     0.124 S 
ATOM     70  O   UNL A   1      46.531  18.968  25.767  1.00  0.00    -0.237 OA
ATOM     71  O   UNL A   1      44.084  18.878  25.389  1.00  0.00    -0.237 OA
ATOM     72  O   UNL A   1      45.635  18.909  23.471  1.00  0.00    -0.744 OA
ENDBRANCH  65  69
ENDBRANCH  48  62
BRANCH  49  73
ATOM     73  C   UNL A   1      46.764  30.872  28.542  1.00  0.00     0.023 A 
ATOM     74  C   UNL A   1      46.242  31.741  27.563  1.00  0.00     0.031 A 
ATOM     75  C   UNL A   1      47.977  31.266  29.155  1.00  0.00     0.131 A 
ATOM     76  C   UNL A   1      46.932  32.933  27.229  1.00  0.00     0.055 A 
ATOM     77  C   UNL A   1      48.655  32.438  28.818  1.00  0.00     0.041 A 
ATOM     78  F   UNL A   1      48.505  30.560  30.169  1.00  0.00    -0.206 F 
ATOM     79  C   UNL A   1      48.130  33.282  27.855  1.00  0.00     0.022 A 
BRANCH  76  80
ATOM     80  S   UNL A   1      46.226  34.102  26.021  1.00  0.00     0.124 S 
ATOM     81  O   UNL A   1      45.271  33.266  25.303  1.00  0.00    -0.237 OA
ATOM     82  O   UNL A   1      45.665  35.138  26.880  1.00  0.00    -0.237 OA
ATOM     83  O   UNL A   1      47.386  34.523  25.234  1.00  0.00    -0.744 OA
ENDBRANCH  76  80
ENDBRANCH  49  73
BRANCH  61  84
ATOM     84  C   UNL A   1      45.092  25.872  32.139  1.00  0.00     0.023 A 
ATOM     85  C   UNL A   1      43.898  26.512  32.543  1.00  0.00     0.031 A 
ATOM     86  C   UNL A   1      45.960  25.416  33.147  1.00  0.00     0.131 A 
ATOM     87  C   UNL A   1      43.614  26.674  33.915  1.00  0.00     0.055 A 
ATOM     88  C   UNL A   1      45.666  25.560  34.503  1.00  0.00     0.041 A 
ATOM     89  F   UNL A   1      47.095  24.773  32.827  1.00  0.00    -0.206 F 
ATOM     90  C   UNL A   1      44.492  26.193  34.892  1.00  0.00     0.022 A 
BRANCH  87  91
ATOM     91  S   UNL A   1      42.087  27.511  34.455  1.00  0.00     0.124 S 
ATOM     92  O   UNL A   1      42.555  28.450  35.467  1.00  0.00    -0.237 OA
ATOM     93  O   UNL A   1      41.592  28.100  33.214  1.00  0.00    -0.237 OA
ATOM     94  O   UNL A   1      41.266  26.416  34.977  1.00  0.00    -0.744 OA
ENDBRANCH  87  91
ENDBRANCH  61  84
ENDBRANCH  35  36
ENDBRANCH  28  30
ENDBRANCH  27  28
ENDBRANCH  26  27
ENDBRANCH   1  26
TORSDOF 19
ENDMDL
MODEL 2
REMARK VINA RESULT:     -11.9      1.242      1.828
REMARK SMILES O=C(CSc1nnc(Cc2ccncc2)n1-c1ccccc1Cl)OCCOC(=O)c1ccc(-c2c3nc(c(-c4cc(S(=O)(=O)[O-])ccc4F)c4ccc([nH]4)c(-c4cc(S(=O)(=O)[O-])ccc4F)c4nc(c(-c5cc(S(=O)(=O)[O-])ccc5F)c5ccc2[nH]5)C=C4)C=C3)cc1
REMARK SMILES IDX 25 1 24 2 2 3 1 4 3 5 4 6 5 7 6 8 16 9 7 10 8 11 17 12 18 13
REMARK SMILES IDX 22 14 19 15 21 16 23 17 20 18 9 19 10 20 11 21 15 22 12 23
REMARK SMILES IDX 14 24 13 25 26 26 27 27 28 28 29 29 30 30 31 31 92 32 32 33
REMARK SMILES IDX 91 34 33 35 34 36 35 37 85 38 36 39 90 40 84 41 86 42 37 43
REMARK SMILES IDX 89 44 83 45 82 46 38 48 70 49 50 50 69 51 51 52 54 53 68 54
REMARK SMILES IDX 87 55 52 56 53 57 67 59 88 60 55 61 39 62 40 63 48 64 41 65
REMARK SMILES IDX 47 66 49 67 46 68 42 69 43 70 44 71 45 72 71 73 72 74 80 75
REMARK SMILES IDX 73 76 79 77 81 78 78 79 74 80 75 81 76 82 77 83 56 84 57 85
REMARK SMILES IDX 65 86 58 87 64 88 66 89 63 90 59 91 60 92 61 93 62 94
REMARK H PARENT 86 47 54 58
REMARK Flexibility Score: inf
ROOT
ATOM      1  C   UNL A   1      34.372  29.746  26.720  1.00  0.00     0.274 C 
ENDROOT
BRANCH   1   2
ATOM      2  O   UNL A   1      33.338  28.978  27.372  1.00  0.00    -0.461 OA
BRANCH   2   3
ATOM      3  C   UNL A   1      32.190  28.544  26.799  1.00  0.00     0.316 C 
ATOM      4  O   UNL A   1      31.828  29.014  25.721  1.00  0.00    -0.251 OA
BRANCH   3   5
ATOM      5  C   UNL A   1      31.379  27.468  27.481  1.00  0.00     0.200 C 
BRANCH   5   6
ATOM      6  S   UNL A   1      30.581  26.335  26.330  1.00  0.00    -0.074 SA
BRANCH   6   7
ATOM      7  C   UNL A   1      31.671  24.993  26.316  1.00  0.00     0.196 A 
ATOM      8  N   UNL A   1      31.654  24.034  27.211  1.00  0.00    -0.123 NA
ATOM      9  N   UNL A   1      32.521  24.665  25.280  1.00  0.00    -0.272 N 
ATOM     10  N   UNL A   1      32.463  23.027  26.759  1.00  0.00    -0.134 NA
ATOM     11  C   UNL A   1      32.959  23.389  25.589  1.00  0.00     0.142 A 
BRANCH   9  12
ATOM     12  C   UNL A   1      32.638  25.307  24.031  1.00  0.00     0.068 A 
ATOM     13  C   UNL A   1      33.640  26.275  23.876  1.00  0.00     0.028 A 
ATOM     14  C   UNL A   1      31.785  24.984  22.970  1.00  0.00     0.065 A 
ATOM     15  C   UNL A   1      33.807  26.897  22.639  1.00  0.00     0.002 A 
ATOM     16  C   UNL A   1      31.984  25.589  21.727  1.00  0.00     0.023 A 
ATOM     17  Cl  UNL A   1      30.449  23.911  23.141  1.00  0.00    -0.082 Cl
ATOM     18  C   UNL A   1      32.993  26.542  21.562  1.00  0.00     0.002 A 
ENDBRANCH   9  12
BRANCH  11  19
ATOM     19  C   UNL A   1      33.814  22.540  24.715  1.00  0.00     0.113 C 
BRANCH  19  20
ATOM     20  C   UNL A   1      35.271  22.577  25.099  1.00  0.00    -0.037 A 
ATOM     21  C   UNL A   1      36.047  21.413  25.063  1.00  0.00     0.024 A 
ATOM     22  C   UNL A   1      35.878  23.768  25.502  1.00  0.00     0.024 A 
ATOM     23  C   UNL A   1      37.384  21.493  25.416  1.00  0.00     0.111 A 
ATOM     24  C   UNL A   1      37.226  23.746  25.830  1.00  0.00     0.111 A 
ATOM     25  N   UNL A   1      37.996  22.638  25.781  1.00  0.00    -0.265 NA
ENDBRANCH  19  20
ENDBRANCH  11  19
ENDBRANCH   6   7
ENDBRANCH   5   6
ENDBRANCH   3   5
ENDBRANCH   2   3
ENDBRANCH   1   2
BRANCH   1  26
ATOM     26  C   UNL A   1      34.858  30.892  27.600  1.00  0.00     0.275 C 
BRANCH  26  27
ATOM     27  O   UNL A   1      36.238  30.721  27.915  1.00  0.00    -0.458 OA
BRANCH  27  28
ATOM     28  C   UNL A   1      36.549  29.953  28.986  1.00  0.00     0.338 C 
ATOM     29  O   UNL A   1      35.978  29.921  30.058  1.00  0.00    -0.246 OA
BRANCH  28  30
ATOM     30  C   UNL A   1      37.732  29.159  28.614  1.00  0.00     0.060 A 
ATOM     31  C   UNL A   1      38.180  28.187  29.511  1.00  0.00     0.016 A 
ATOM     32  C   UNL A   1      38.472  29.500  27.470  1.00  0.00     0.016 A 
ATOM     33  C   UNL A   1      39.467  27.705  29.366  1.00  0.00     0.010 A 
ATOM     34  C   UNL A   1      39.756  29.028  27.333  1.00  0.00     0.010 A 
ATOM     35  C   UNL A   1      40.265  28.202  28.329  1.00  0.00    -0.014 A 
BRANCH  35  36
ATOM     36  C   UNL A   1      41.673  27.863  28.311  1.00  0.00     0.031 A 
ATOM     37  C   UNL A   1      42.006  26.609  27.605  1.00  0.00     0.074 A 
ATOM     38  C   UNL A   1      42.608  28.705  28.790  1.00  0.00     0.049 A 
ATOM     39  N   UNL A   1      42.483  25.520  28.106  1.00  0.00    -0.248 NA
ATOM     40  C   UNL A   1      41.647  26.505  26.183  1.00  0.00     0.031 C 
ATOM     41  C   UNL A   1      42.440  30.093  29.228  1.00  0.00     0.029 A 
ATOM     42  N   UNL A   1      43.951  28.513  28.883  1.00  0.00    -0.354 N 
ATOM     43  C   UNL A   1      42.680  24.657  27.034  1.00  0.00     0.074 A 
ATOM     44  C   UNL A   1      41.988  25.244  25.918  1.00  0.00     0.031 C 
ATOM     45  C   UNL A   1      43.656  30.678  29.329  1.00  0.00     0.029 A 
ATOM     46  C   UNL A   1      44.683  29.674  29.099  1.00  0.00     0.049 A 
ATOM     47  H   UNL A   1      44.369  27.626  28.803  1.00  0.00     0.167 HD
ATOM     48  C   UNL A   1      43.573  23.632  27.104  1.00  0.00     0.034 A 
ATOM     49  C   UNL A   1      46.033  29.807  29.018  1.00  0.00     0.034 A 
ATOM     50  C   UNL A   1      43.928  23.345  28.475  1.00  0.00     0.049 A 
ATOM     51  C   UNL A   1      46.610  28.448  29.192  1.00  0.00     0.074 A 
ATOM     52  C   UNL A   1      43.215  22.947  29.591  1.00  0.00     0.029 A 
ATOM     53  N   UNL A   1      45.125  23.825  28.956  1.00  0.00    -0.354 N 
ATOM     54  N   UNL A   1      46.506  27.761  30.298  1.00  0.00    -0.248 NA
ATOM     55  C   UNL A   1      46.869  27.654  27.999  1.00  0.00     0.031 C 
ATOM     56  C   UNL A   1      43.793  23.673  30.673  1.00  0.00     0.029 A 
ATOM     57  C   UNL A   1      44.866  24.413  30.170  1.00  0.00     0.049 A 
ATOM     58  H   UNL A   1      46.002  23.759  28.513  1.00  0.00     0.167 HD
ATOM     59  C   UNL A   1      46.262  26.457  29.896  1.00  0.00     0.074 A 
ATOM     60  C   UNL A   1      46.593  26.434  28.473  1.00  0.00     0.031 C 
ATOM     61  C   UNL A   1      45.553  25.589  30.676  1.00  0.00     0.034 A 
BRANCH  48  62
ATOM     62  C   UNL A   1      44.371  23.099  25.937  1.00  0.00     0.023 A 
ATOM     63  C   UNL A   1      44.212  21.738  25.614  1.00  0.00     0.031 A 
ATOM     64  C   UNL A   1      45.457  23.755  25.315  1.00  0.00     0.131 A 
ATOM     65  C   UNL A   1      45.145  21.074  24.798  1.00  0.00     0.055 A 
ATOM     66  C   UNL A   1      46.340  23.108  24.446  1.00  0.00     0.041 A 
ATOM     67  F   UNL A   1      45.787  25.025  25.579  1.00  0.00    -0.206 F 
ATOM     68  C   UNL A   1      46.207  21.752  24.209  1.00  0.00     0.022 A 
BRANCH  65  69
ATOM     69  S   UNL A   1      45.049  19.269  24.676  1.00  0.00     0.124 S 
ATOM     70  O   UNL A   1      46.411  18.876  25.019  1.00  0.00    -0.237 OA
ATOM     71  O   UNL A   1      44.018  18.959  25.661  1.00  0.00    -0.237 OA
ATOM     72  O   UNL A   1      44.669  19.047  23.282  1.00  0.00    -0.744 OA
ENDBRANCH  65  69
ENDBRANCH  48  62
BRANCH  49  73
ATOM     73  C   UNL A   1      46.768  30.958  28.423  1.00  0.00     0.023 A 
ATOM     74  C   UNL A   1      46.199  31.827  27.470  1.00  0.00     0.031 A 
ATOM     75  C   UNL A   1      48.009  31.353  28.978  1.00  0.00     0.131 A 
ATOM     76  C   UNL A   1      46.871  33.020  27.104  1.00  0.00     0.055 A 
ATOM     77  C   UNL A   1      48.668  32.527  28.610  1.00  0.00     0.041 A 
ATOM     78  F   UNL A   1      48.585  30.648  29.965  1.00  0.00    -0.206 F 
ATOM     79  C   UNL A   1      48.097  33.371  27.673  1.00  0.00     0.022 A 
BRANCH  76  80
ATOM     80  S   UNL A   1      46.107  34.188  25.931  1.00  0.00     0.124 S 
ATOM     81  O   UNL A   1      47.256  34.646  25.158  1.00  0.00    -0.237 OA
ATOM     82  O   UNL A   1      45.147  33.344  25.231  1.00  0.00    -0.237 OA
ATOM     83  O   UNL A   1      45.509  35.203  26.801  1.00  0.00    -0.744 OA
ENDBRANCH  76  80
ENDBRANCH  49  73
BRANCH  61  84
ATOM     84  C   UNL A   1      45.261  25.974  32.114  1.00  0.00     0.023 A 
ATOM     85  C   UNL A   1      44.089  26.632  32.549  1.00  0.00     0.031 A 
ATOM     86  C   UNL A   1      46.151  25.508  33.098  1.00  0.00     0.131 A 
ATOM     87  C   UNL A   1      43.847  26.802  33.928  1.00  0.00     0.055 A 
ATOM     88  C   UNL A   1      45.899  25.660  34.461  1.00  0.00     0.041 A 
ATOM     89  F   UNL A   1      47.268  24.848  32.748  1.00  0.00    -0.206 F 
ATOM     90  C   UNL A   1      44.745  26.311  34.882  1.00  0.00     0.022 A 
BRANCH  87  91
ATOM     91  S   UNL A   1      42.347  27.662  34.509  1.00  0.00     0.124 S 
ATOM     92  O   UNL A   1      42.869  28.882  35.114  1.00  0.00    -0.237 OA
ATOM     93  O   UNL A   1      41.582  27.834  33.277  1.00  0.00    -0.237 OA
ATOM     94  O   UNL A   1      41.760  26.716  35.460  1.00  0.00    -0.744 OA
ENDBRANCH  87  91
ENDBRANCH  61  84
ENDBRANCH  35  36
ENDBRANCH  28  30
ENDBRANCH  27  28
ENDBRANCH  26  27
ENDBRANCH   1  26
TORSDOF 19
ENDMDL
MODEL 3
REMARK VINA RESULT:     -11.8      1.479      2.379
REMARK SMILES O=C(CSc1nnc(Cc2ccncc2)n1-c1ccccc1Cl)OCCOC(=O)c1ccc(-c2c3nc(c(-c4cc(S(=O)(=O)[O-])ccc4F)c4ccc([nH]4)c(-c4cc(S(=O)(=O)[O-])ccc4F)c4nc(c(-c5cc(S(=O)(=O)[O-])ccc5F)c5ccc2[nH]5)C=C4)C=C3)cc1
REMARK SMILES IDX 25 1 24 2 2 3 1 4 3 5 4 6 5 7 6 8 16 9 7 10 8 11 17 12 18 13
REMARK SMILES IDX 22 14 19 15 21 16 23 17 20 18 9 19 10 20 11 21 15 22 12 23
REMARK SMILES IDX 14 24 13 25 26 26 27 27 28 28 29 29 30 30 31 31 92 32 32 33
REMARK SMILES IDX 91 34 33 35 34 36 35 37 85 38 36 39 90 40 84 41 86 42 37 43
REMARK SMILES IDX 89 44 83 45 82 46 38 48 70 49 50 50 69 51 51 52 54 53 68 54
REMARK SMILES IDX 87 55 52 56 53 57 67 59 88 60 55 61 39 62 40 63 48 64 41 65
REMARK SMILES IDX 47 66 49 67 46 68 42 69 43 70 44 71 45 72 71 73 72 74 80 75
REMARK SMILES IDX 73 76 79 77 81 78 78 79 74 80 75 81 76 82 77 83 56 84 57 85
REMARK SMILES IDX 65 86 58 87 64 88 66 89 63 90 59 91 60 92 61 93 62 94
REMARK H PARENT 86 47 54 58
REMARK Flexibility Score: inf
ROOT
ATOM      1  C   UNL A   1      33.808  31.593  27.982  1.00  0.00     0.274 C 
ENDROOT
BRANCH   1   2
ATOM      2  O   UNL A   1      32.816  30.628  27.570  1.00  0.00    -0.461 OA
BRANCH   2   3
ATOM      3  C   UNL A   1      32.002  30.736  26.494  1.00  0.00     0.316 C 
ATOM      4  O   UNL A   1      31.291  31.732  26.362  1.00  0.00    -0.251 OA
BRANCH   3   5
ATOM      5  C   UNL A   1      31.995  29.641  25.454  1.00  0.00     0.200 C 
BRANCH   5   6
ATOM      6  S   UNL A   1      33.606  28.872  25.214  1.00  0.00    -0.074 SA
BRANCH   6   7
ATOM      7  C   UNL A   1      33.382  28.000  23.737  1.00  0.00     0.196 A 
ATOM      8  N   UNL A   1      34.095  28.209  22.655  1.00  0.00    -0.123 NA
ATOM      9  N   UNL A   1      32.601  26.872  23.586  1.00  0.00    -0.272 N 
ATOM     10  N   UNL A   1      33.831  27.190  21.779  1.00  0.00    -0.134 NA
ATOM     11  C   UNL A   1      32.961  26.373  22.346  1.00  0.00     0.142 A 
BRANCH   9  12
ATOM     12  C   UNL A   1      31.885  26.185  24.586  1.00  0.00     0.068 A 
ATOM     13  C   UNL A   1      32.608  25.401  25.495  1.00  0.00     0.028 A 
ATOM     14  C   UNL A   1      30.494  26.286  24.677  1.00  0.00     0.065 A 
ATOM     15  C   UNL A   1      31.931  24.742  26.521  1.00  0.00     0.002 A 
ATOM     16  C   UNL A   1      29.831  25.650  25.729  1.00  0.00     0.023 A 
ATOM     17  Cl  UNL A   1      29.540  27.116  23.507  1.00  0.00    -0.082 Cl
ATOM     18  C   UNL A   1      30.549  24.881  26.649  1.00  0.00     0.002 A 
ENDBRANCH   9  12
BRANCH  11  19
ATOM     19  C   UNL A   1      32.480  25.089  21.766  1.00  0.00     0.113 C 
BRANCH  19  20
ATOM     20  C   UNL A   1      32.977  23.879  22.516  1.00  0.00    -0.037 A 
ATOM     21  C   UNL A   1      32.118  22.812  22.797  1.00  0.00     0.024 A 
ATOM     22  C   UNL A   1      34.302  23.797  22.950  1.00  0.00     0.024 A 
ATOM     23  C   UNL A   1      32.618  21.716  23.480  1.00  0.00     0.111 A 
ATOM     24  C   UNL A   1      34.709  22.655  23.622  1.00  0.00     0.111 A 
ATOM     25  N   UNL A   1      33.900  21.605  23.884  1.00  0.00    -0.265 NA
ENDBRANCH  19  20
ENDBRANCH  11  19
ENDBRANCH   6   7
ENDBRANCH   5   6
ENDBRANCH   3   5
ENDBRANCH   2   3
ENDBRANCH   1   2
BRANCH   1  26
ATOM     26  C   UNL A   1      35.214  31.157  27.587  1.00  0.00     0.275 C 
BRANCH  26  27
ATOM     27  O   UNL A   1      35.551  29.932  28.233  1.00  0.00    -0.458 OA
BRANCH  27  28
ATOM     28  C   UNL A   1      36.401  29.987  29.285  1.00  0.00     0.338 C 
ATOM     29  O   UNL A   1      36.230  30.569  30.339  1.00  0.00    -0.246 OA
BRANCH  28  30
ATOM     30  C   UNL A   1      37.596  29.213  28.911  1.00  0.00     0.060 A 
ATOM     31  C   UNL A   1      38.068  28.257  29.812  1.00  0.00     0.016 A 
ATOM     32  C   UNL A   1      38.322  29.559  27.759  1.00  0.00     0.016 A 
ATOM     33  C   UNL A   1      39.363  27.797  29.662  1.00  0.00     0.010 A 
ATOM     34  C   UNL A   1      39.614  29.111  27.617  1.00  0.00     0.010 A 
ATOM     35  C   UNL A   1      40.145  28.302  28.616  1.00  0.00    -0.014 A 
BRANCH  35  36
ATOM     36  C   UNL A   1      41.559  27.989  28.591  1.00  0.00     0.031 A 
ATOM     37  C   UNL A   1      41.920  26.781  27.819  1.00  0.00     0.074 A 
ATOM     38  C   UNL A   1      42.475  28.819  29.122  1.00  0.00     0.049 A 
ATOM     39  N   UNL A   1      42.412  25.676  28.264  1.00  0.00    -0.248 NA
ATOM     40  C   UNL A   1      41.572  26.749  26.392  1.00  0.00     0.031 C 
ATOM     41  C   UNL A   1      42.278  30.179  29.634  1.00  0.00     0.029 A 
ATOM     42  N   UNL A   1      43.820  28.647  29.215  1.00  0.00    -0.354 N 
ATOM     43  C   UNL A   1      42.632  24.876  27.149  1.00  0.00     0.074 A 
ATOM     44  C   UNL A   1      41.937  25.510  26.061  1.00  0.00     0.031 C 
ATOM     45  C   UNL A   1      43.483  30.778  29.776  1.00  0.00     0.029 A 
ATOM     46  C   UNL A   1      44.529  29.807  29.500  1.00  0.00     0.049 A 
ATOM     47  H   UNL A   1      44.255  27.773  29.091  1.00  0.00     0.167 HD
ATOM     48  C   UNL A   1      43.543  23.865  27.170  1.00  0.00     0.034 A 
ATOM     49  C   UNL A   1      45.877  29.968  29.437  1.00  0.00     0.034 A 
ATOM     50  C   UNL A   1      43.893  23.509  28.526  1.00  0.00     0.049 A 
ATOM     51  C   UNL A   1      46.477  28.612  29.541  1.00  0.00     0.074 A 
ATOM     52  C   UNL A   1      43.180  23.038  29.613  1.00  0.00     0.029 A 
ATOM     53  N   UNL A   1      45.078  23.983  29.042  1.00  0.00    -0.354 N 
ATOM     54  N   UNL A   1      46.379  27.864  30.608  1.00  0.00    -0.248 NA
ATOM     55  C   UNL A   1      46.760  27.889  28.309  1.00  0.00     0.031 C 
ATOM     56  C   UNL A   1      43.737  23.714  30.737  1.00  0.00     0.029 A 
ATOM     57  C   UNL A   1      44.800  24.500  30.284  1.00  0.00     0.049 A 
ATOM     58  H   UNL A   1      45.959  23.957  28.603  1.00  0.00     0.167 HD
ATOM     59  C   UNL A   1      46.161  26.579  30.133  1.00  0.00     0.074 A 
ATOM     60  C   UNL A   1      46.502  26.640  28.713  1.00  0.00     0.031 C 
ATOM     61  C   UNL A   1      45.462  25.657  30.859  1.00  0.00     0.034 A 
BRANCH  48  62
ATOM     62  C   UNL A   1      44.358  23.409  25.982  1.00  0.00     0.023 A 
ATOM     63  C   UNL A   1      44.214  22.070  25.574  1.00  0.00     0.031 A 
ATOM     64  C   UNL A   1      45.446  24.111  25.414  1.00  0.00     0.131 A 
ATOM     65  C   UNL A   1      45.162  21.465  24.730  1.00  0.00     0.055 A 
ATOM     66  C   UNL A   1      46.345  23.525  24.518  1.00  0.00     0.041 A 
ATOM     67  F   UNL A   1      45.763  25.364  25.760  1.00  0.00    -0.206 F 
ATOM     68  C   UNL A   1      46.226  22.185  24.197  1.00  0.00     0.022 A 
BRANCH  65  69
ATOM     69  S   UNL A   1      45.082  19.670  24.496  1.00  0.00     0.124 S 
ATOM     70  O   UNL A   1      44.089  19.286  25.493  1.00  0.00    -0.237 OA
ATOM     71  O   UNL A   1      44.669  19.570  23.101  1.00  0.00    -0.237 OA
ATOM     72  O   UNL A   1      46.448  19.234  24.777  1.00  0.00    -0.744 OA
ENDBRANCH  65  69
ENDBRANCH  48  62
BRANCH  49  73
ATOM     73  C   UNL A   1      46.596  31.162  28.912  1.00  0.00     0.023 A 
ATOM     74  C   UNL A   1      46.147  31.907  27.802  1.00  0.00     0.031 A 
ATOM     75  C   UNL A   1      47.651  31.728  29.667  1.00  0.00     0.131 A 
ATOM     76  C   UNL A   1      46.752  33.147  27.485  1.00  0.00     0.055 A 
ATOM     77  C   UNL A   1      48.247  32.949  29.346  1.00  0.00     0.041 A 
ATOM     78  F   UNL A   1      48.084  31.149  30.799  1.00  0.00    -0.206 F 
ATOM     79  C   UNL A   1      47.795  33.669  28.254  1.00  0.00     0.022 A 
BRANCH  76  80
ATOM     80  S   UNL A   1      46.126  34.154  26.099  1.00  0.00     0.124 S 
ATOM     81  O   UNL A   1      45.243  33.220  25.412  1.00  0.00    -0.237 OA
ATOM     82  O   UNL A   1      45.485  35.268  26.788  1.00  0.00    -0.237 OA
ATOM     83  O   UNL A   1      47.339  34.510  25.360  1.00  0.00    -0.744 OA
ENDBRANCH  76  80
ENDBRANCH  49  73
BRANCH  61  84
ATOM     84  C   UNL A   1      45.153  25.959  32.313  1.00  0.00     0.023 A 
ATOM     85  C   UNL A   1      43.936  26.501  32.782  1.00  0.00     0.031 A 
ATOM     86  C   UNL A   1      46.087  25.526  33.272  1.00  0.00     0.131 A 
ATOM     87  C   UNL A   1      43.693  26.594  34.168  1.00  0.00     0.055 A 
ATOM     88  C   UNL A   1      45.835  25.601  34.642  1.00  0.00     0.041 A 
ATOM     89  F   UNL A   1      47.250  24.973  32.888  1.00  0.00    -0.206 F 
ATOM     90  C   UNL A   1      44.637  26.138  35.096  1.00  0.00     0.022 A 
BRANCH  87  91
ATOM     91  S   UNL A   1      42.135  27.305  34.793  1.00  0.00     0.124 S 
ATOM     92  O   UNL A   1      41.327  26.131  35.101  1.00  0.00    -0.237 OA
ATOM     93  O   UNL A   1      42.583  28.093  35.939  1.00  0.00    -0.237 OA
ATOM     94  O   UNL A   1      41.647  28.100  33.664  1.00  0.00    -0.744 OA
ENDBRANCH  87  91
ENDBRANCH  61  84
ENDBRANCH  35  36
ENDBRANCH  28  30
ENDBRANCH  27  28
ENDBRANCH  26  27
ENDBRANCH   1  26
TORSDOF 19
ENDMDL
