MODEL 1
REMARK VINA RESULT:     -12.2      0.000      0.000
REMARK SMILES O=C(Nc1ccccc1C(=O)OCCOC(=O)c1ccc(-c2c3nc(c(-c4cc(S(=O)(=O)[O-])ccc4F)c4ccc([nH]4)c(-c4cc(S(=O)(=O)[O-])ccc4F)c4nc(c(-c5cc(S(=O)(=O)[O-])ccc5F)c5ccc2[nH]5)C=C4)C=C3)cc1)c1ccc(N2C(=O)[C@H]3CC=CC[C@H]3C2=O)cc1
REMARK SMILES IDX 13 1 12 2 10 3 11 4 9 5 4 6 5 7 6 8 8 9 7 10 3 11 1 12 2 13
REMARK SMILES IDX 81 15 82 16 97 17 83 18 96 19 84 20 85 21 86 22 94 23 87 24
REMARK SMILES IDX 88 25 93 26 95 27 89 28 92 29 90 30 91 31 14 32 15 33 16 34
REMARK SMILES IDX 17 35 18 36 19 37 80 38 20 39 79 40 21 41 22 42 23 43 73 44
REMARK SMILES IDX 24 45 78 46 72 47 74 48 25 49 77 50 71 51 70 52 26 54 58 55
REMARK SMILES IDX 38 56 57 57 39 58 42 59 56 60 75 61 40 62 41 63 55 65 76 66
REMARK SMILES IDX 43 67 27 68 28 69 36 70 29 71 35 72 37 73 34 74 30 75 31 76
REMARK SMILES IDX 32 77 33 78 59 79 60 80 68 81 61 82 67 83 69 84 66 85 62 86
REMARK SMILES IDX 63 87 64 88 65 89 44 90 45 91 53 92 46 93 52 94 54 95 51 96
REMARK SMILES IDX 47 97 48 98 49 99 50 100
REMARK H PARENT 3 14 74 53 42 64
REMARK Flexibility Score: inf
ROOT
ATOM      1  C   UNL A   1      34.417  35.287  28.160  1.00  0.00     0.275 C 
ENDROOT
BRANCH   1   2
ATOM      2  O   UNL A   1      34.830  34.021  27.597  1.00  0.00    -0.458 OA
BRANCH   2   3
ATOM      3  C   UNL A   1      35.741  33.334  28.332  1.00  0.00     0.340 C 
ATOM      4  O   UNL A   1      36.543  33.823  29.106  1.00  0.00    -0.246 OA
BRANCH   3   5
ATOM      5  C   UNL A   1      35.704  31.874  28.084  1.00  0.00     0.083 A 
ATOM      6  C   UNL A   1      34.539  31.163  27.759  1.00  0.00     0.056 A 
ATOM      7  C   UNL A   1      34.628  29.769  27.589  1.00  0.00     0.027 A 
ATOM      8  C   UNL A   1      35.862  29.110  27.619  1.00  0.00     0.002 A 
ATOM      9  C   UNL A   1      36.934  31.192  28.129  1.00  0.00     0.018 A 
ATOM     10  C   UNL A   1      37.020  29.826  27.876  1.00  0.00     0.001 A 
BRANCH   6  11
ATOM     11  N   UNL A   1      33.261  31.718  27.532  1.00  0.00    -0.321 N 
ATOM     12  O   UNL A   1      31.273  31.996  26.483  1.00  0.00    -0.269 OA
ATOM     13  C   UNL A   1      32.187  31.240  26.807  1.00  0.00     0.255 C 
ATOM     14  H   UNL A   1      33.110  32.592  27.961  1.00  0.00     0.170 HD
BRANCH  13  15
ATOM     15  C   UNL A   1      32.067  29.792  26.497  1.00  0.00     0.040 A 
ATOM     16  C   UNL A   1      31.701  28.863  27.475  1.00  0.00     0.016 A 
ATOM     17  C   UNL A   1      32.380  29.353  25.208  1.00  0.00     0.016 A 
ATOM     18  C   UNL A   1      31.749  27.497  27.191  1.00  0.00     0.027 A 
ATOM     19  C   UNL A   1      32.472  27.983  24.942  1.00  0.00     0.027 A 
ATOM     20  C   UNL A   1      32.165  27.038  25.934  1.00  0.00     0.052 A 
BRANCH  20  21
ATOM     21  N   UNL A   1      32.221  25.652  25.650  1.00  0.00    -0.250 N 
ATOM     22  C   UNL A   1      31.107  24.894  25.383  1.00  0.00     0.238 C 
ATOM     23  C   UNL A   1      33.384  24.930  25.537  1.00  0.00     0.238 C 
ATOM     24  O   UNL A   1      29.929  25.226  25.445  1.00  0.00    -0.274 OA
ATOM     25  C   UNL A   1      31.543  23.562  24.830  1.00  0.00     0.096 C 
ATOM     26  C   UNL A   1      33.049  23.521  25.101  1.00  0.00     0.096 C 
ATOM     27  O   UNL A   1      34.531  25.297  25.767  1.00  0.00    -0.274 OA
ATOM     28  C   UNL A   1      31.139  23.500  23.347  1.00  0.00     0.041 C 
ATOM     29  C   UNL A   1      33.914  23.159  23.892  1.00  0.00     0.041 C 
ATOM     30  C   UNL A   1      32.169  24.092  22.427  1.00  0.00    -0.030 C 
ATOM     31  C   UNL A   1      33.475  23.916  22.672  1.00  0.00    -0.030 C 
ENDBRANCH  20  21
ENDBRANCH  13  15
ENDBRANCH   6  11
ENDBRANCH   3   5
ENDBRANCH   2   3
ENDBRANCH   1   2
BRANCH   1  32
ATOM     32  C   UNL A   1      33.337  35.165  29.237  1.00  0.00     0.275 C 
BRANCH  32  33
ATOM     33  O   UNL A   1      33.592  36.046  30.344  1.00  0.00    -0.458 OA
BRANCH  33  34
ATOM     34  C   UNL A   1      32.970  35.678  31.483  1.00  0.00     0.338 C 
ATOM     35  O   UNL A   1      31.776  35.757  31.729  1.00  0.00    -0.246 OA
BRANCH  34  36
ATOM     36  C   UNL A   1      33.908  35.050  32.417  1.00  0.00     0.060 A 
ATOM     37  C   UNL A   1      35.197  35.566  32.470  1.00  0.00     0.016 A 
ATOM     38  C   UNL A   1      33.620  33.825  33.007  1.00  0.00     0.016 A 
ATOM     39  C   UNL A   1      36.244  34.802  32.940  1.00  0.00     0.010 A 
ATOM     40  C   UNL A   1      34.657  33.110  33.612  1.00  0.00     0.010 A 
ATOM     41  C   UNL A   1      35.987  33.568  33.530  1.00  0.00    -0.014 A 
BRANCH  41  42
ATOM     42  C   UNL A   1      37.123  32.734  33.985  1.00  0.00     0.031 A 
ATOM     43  C   UNL A   1      37.782  33.051  35.296  1.00  0.00     0.074 A 
ATOM     44  C   UNL A   1      37.529  31.683  33.246  1.00  0.00     0.049 A 
ATOM     45  N   UNL A   1      38.926  32.635  35.770  1.00  0.00    -0.248 NA
ATOM     46  C   UNL A   1      37.066  33.985  36.180  1.00  0.00     0.031 C 
ATOM     47  C   UNL A   1      36.896  31.221  32.006  1.00  0.00     0.029 A 
ATOM     48  N   UNL A   1      38.571  30.812  33.426  1.00  0.00    -0.354 N 
ATOM     49  C   UNL A   1      39.098  33.304  36.977  1.00  0.00     0.074 A 
ATOM     50  C   UNL A   1      37.949  34.167  37.150  1.00  0.00     0.031 C 
ATOM     51  C   UNL A   1      37.550  30.144  31.551  1.00  0.00     0.029 A 
ATOM     52  C   UNL A   1      38.717  29.920  32.389  1.00  0.00     0.049 A 
ATOM     53  H   UNL A   1      39.157  30.824  34.218  1.00  0.00     0.167 HD
ATOM     54  C   UNL A   1      40.131  33.201  37.849  1.00  0.00     0.034 A 
ATOM     55  C   UNL A   1      39.723  29.073  32.101  1.00  0.00     0.034 A 
ATOM     56  C   UNL A   1      41.244  32.306  37.642  1.00  0.00     0.049 A 
ATOM     57  C   UNL A   1      40.903  29.037  33.034  1.00  0.00     0.074 A 
ATOM     58  C   UNL A   1      42.359  32.113  38.438  1.00  0.00     0.029 A 
ATOM     59  N   UNL A   1      41.377  31.444  36.557  1.00  0.00    -0.354 N 
ATOM     60  N   UNL A   1      41.109  29.733  34.129  1.00  0.00    -0.248 NA
ATOM     61  C   UNL A   1      41.986  28.111  32.689  1.00  0.00     0.031 C 
ATOM     62  C   UNL A   1      43.197  31.191  37.799  1.00  0.00     0.029 A 
ATOM     63  C   UNL A   1      42.566  30.738  36.650  1.00  0.00     0.049 A 
ATOM     64  H   UNL A   1      40.721  31.350  35.829  1.00  0.00     0.167 HD
ATOM     65  C   UNL A   1      42.340  29.311  34.619  1.00  0.00     0.074 A 
ATOM     66  C   UNL A   1      42.814  28.286  33.707  1.00  0.00     0.031 C 
ATOM     67  C   UNL A   1      43.018  29.728  35.719  1.00  0.00     0.034 A 
BRANCH  54  68
ATOM     68  C   UNL A   1      40.131  34.127  39.043  1.00  0.00     0.023 A 
ATOM     69  C   UNL A   1      39.390  33.851  40.205  1.00  0.00     0.031 A 
ATOM     70  C   UNL A   1      40.843  35.341  38.995  1.00  0.00     0.131 A 
ATOM     71  C   UNL A   1      39.309  34.807  41.229  1.00  0.00     0.055 A 
ATOM     72  C   UNL A   1      40.831  36.248  40.058  1.00  0.00     0.041 A 
ATOM     73  F   UNL A   1      41.547  35.678  37.903  1.00  0.00    -0.206 F 
ATOM     74  C   UNL A   1      40.046  35.992  41.176  1.00  0.00     0.022 A 
BRANCH  71  75
ATOM     75  S   UNL A   1      38.094  34.555  42.555  1.00  0.00     0.124 S 
ATOM     76  O   UNL A   1      36.840  34.551  41.808  1.00  0.00    -0.237 OA
ATOM     77  O   UNL A   1      38.506  33.275  43.120  1.00  0.00    -0.237 OA
ATOM     78  O   UNL A   1      38.290  35.713  43.425  1.00  0.00    -0.744 OA
ENDBRANCH  71  75
ENDBRANCH  54  68
BRANCH  55  79
ATOM     79  C   UNL A   1      39.693  28.274  30.843  1.00  0.00     0.023 A 
ATOM     80  C   UNL A   1      40.420  28.672  29.712  1.00  0.00     0.031 A 
ATOM     81  C   UNL A   1      38.920  27.100  30.748  1.00  0.00     0.131 A 
ATOM     82  C   UNL A   1      40.332  27.926  28.527  1.00  0.00     0.055 A 
ATOM     83  C   UNL A   1      38.885  26.327  29.587  1.00  0.00     0.041 A 
ATOM     84  F   UNL A   1      38.202  26.670  31.798  1.00  0.00    -0.206 F 
ATOM     85  C   UNL A   1      39.586  26.747  28.462  1.00  0.00     0.022 A 
BRANCH  82  86
ATOM     86  S   UNL A   1      41.142  28.567  27.038  1.00  0.00     0.124 S 
ATOM     87  O   UNL A   1      42.177  29.422  27.609  1.00  0.00    -0.237 OA
ATOM     88  O   UNL A   1      41.604  27.343  26.394  1.00  0.00    -0.237 OA
ATOM     89  O   UNL A   1      40.066  29.269  26.342  1.00  0.00    -0.744 OA
ENDBRANCH  82  86
ENDBRANCH  55  79
BRANCH  67  90
ATOM     90  C   UNL A   1      44.319  29.026  36.016  1.00  0.00     0.023 A 
ATOM     91  C   UNL A   1      44.374  27.887  36.837  1.00  0.00     0.031 A 
ATOM     92  C   UNL A   1      45.521  29.519  35.481  1.00  0.00     0.131 A 
ATOM     93  C   UNL A   1      45.616  27.318  37.152  1.00  0.00     0.055 A 
ATOM     94  C   UNL A   1      46.746  28.903  35.738  1.00  0.00     0.041 A 
ATOM     95  F   UNL A   1      45.525  30.608  34.695  1.00  0.00    -0.206 F 
ATOM     96  C   UNL A   1      46.800  27.805  36.591  1.00  0.00     0.022 A 
BRANCH  93  97
ATOM     97  S   UNL A   1      45.675  26.001  38.398  1.00  0.00     0.124 S 
ATOM     98  O   UNL A   1      45.324  26.722  39.617  1.00  0.00    -0.237 OA
ATOM     99  O   UNL A   1      44.677  25.058  37.903  1.00  0.00    -0.237 OA
ATOM    100  O   UNL A   1      47.058  25.531  38.333  1.00  0.00    -0.744 OA
ENDBRANCH  93  97
ENDBRANCH  67  90
ENDBRANCH  41  42
ENDBRANCH  34  36
ENDBRANCH  33  34
ENDBRANCH  32  33
ENDBRANCH   1  32
TORSDOF 17
ENDMDL
MODEL 2
REMARK VINA RESULT:     -11.9      1.503      2.019
REMARK SMILES O=C(Nc1ccccc1C(=O)OCCOC(=O)c1ccc(-c2c3nc(c(-c4cc(S(=O)(=O)[O-])ccc4F)c4ccc([nH]4)c(-c4cc(S(=O)(=O)[O-])ccc4F)c4nc(c(-c5cc(S(=O)(=O)[O-])ccc5F)c5ccc2[nH]5)C=C4)C=C3)cc1)c1ccc(N2C(=O)[C@H]3CC=CC[C@H]3C2=O)cc1
REMARK SMILES IDX 13 1 12 2 10 3 11 4 9 5 4 6 5 7 6 8 8 9 7 10 3 11 1 12 2 13
REMARK SMILES IDX 81 15 82 16 97 17 83 18 96 19 84 20 85 21 86 22 94 23 87 24
REMARK SMILES IDX 88 25 93 26 95 27 89 28 92 29 90 30 91 31 14 32 15 33 16 34
REMARK SMILES IDX 17 35 18 36 19 37 80 38 20 39 79 40 21 41 22 42 23 43 73 44
REMARK SMILES IDX 24 45 78 46 72 47 74 48 25 49 77 50 71 51 70 52 26 54 58 55
REMARK SMILES IDX 38 56 57 57 39 58 42 59 56 60 75 61 40 62 41 63 55 65 76 66
REMARK SMILES IDX 43 67 27 68 28 69 36 70 29 71 35 72 37 73 34 74 30 75 31 76
REMARK SMILES IDX 32 77 33 78 59 79 60 80 68 81 61 82 67 83 69 84 66 85 62 86
REMARK SMILES IDX 63 87 64 88 65 89 44 90 45 91 53 92 46 93 52 94 54 95 51 96
REMARK SMILES IDX 47 97 48 98 49 99 50 100
REMARK H PARENT 3 14 74 53 42 64
REMARK Flexibility Score: inf
ROOT
ATOM      1  C   UNL A   1      34.099  34.883  28.190  1.00  0.00     0.275 C 
ENDROOT
BRANCH   1   2
ATOM      2  O   UNL A   1      34.423  33.474  28.187  1.00  0.00    -0.458 OA
BRANCH   2   3
ATOM      3  C   UNL A   1      35.650  33.164  28.676  1.00  0.00     0.340 C 
ATOM      4  O   UNL A   1      36.399  33.931  29.251  1.00  0.00    -0.246 OA
BRANCH   3   5
ATOM      5  C   UNL A   1      36.040  31.759  28.413  1.00  0.00     0.083 A 
ATOM      6  C   UNL A   1      35.129  30.731  28.130  1.00  0.00     0.056 A 
ATOM      7  C   UNL A   1      35.623  29.427  27.941  1.00  0.00     0.027 A 
ATOM      8  C   UNL A   1      36.997  29.168  27.912  1.00  0.00     0.002 A 
ATOM      9  C   UNL A   1      37.419  31.476  28.399  1.00  0.00     0.018 A 
ATOM     10  C   UNL A   1      37.898  30.198  28.128  1.00  0.00     0.001 A 
BRANCH   6  11
ATOM     11  N   UNL A   1      33.734  30.878  27.963  1.00  0.00    -0.321 N 
ATOM     12  O   UNL A   1      31.751  30.780  26.875  1.00  0.00    -0.269 OA
ATOM     13  C   UNL A   1      32.872  30.305  27.050  1.00  0.00     0.255 C 
ATOM     14  H   UNL A   1      33.306  31.491  28.603  1.00  0.00     0.170 HD
BRANCH  13  15
ATOM     15  C   UNL A   1      33.240  29.051  26.342  1.00  0.00     0.040 A 
ATOM     16  C   UNL A   1      33.837  29.073  25.079  1.00  0.00     0.016 A 
ATOM     17  C   UNL A   1      32.930  27.827  26.940  1.00  0.00     0.016 A 
ATOM     18  C   UNL A   1      34.028  27.882  24.377  1.00  0.00     0.027 A 
ATOM     19  C   UNL A   1      33.080  26.640  26.215  1.00  0.00     0.027 A 
ATOM     20  C   UNL A   1      33.623  26.655  24.921  1.00  0.00     0.052 A 
BRANCH  20  21
ATOM     21  N   UNL A   1      33.809  25.448  24.205  1.00  0.00    -0.250 N 
ATOM     22  C   UNL A   1      34.787  24.535  24.513  1.00  0.00     0.238 C 
ATOM     23  C   UNL A   1      32.999  25.022  23.180  1.00  0.00     0.238 C 
ATOM     24  O   UNL A   1      35.689  24.635  25.336  1.00  0.00    -0.274 OA
ATOM     25  C   UNL A   1      34.511  23.253  23.770  1.00  0.00     0.096 C 
ATOM     26  C   UNL A   1      33.432  23.637  22.753  1.00  0.00     0.096 C 
ATOM     27  O   UNL A   1      32.082  25.625  22.636  1.00  0.00    -0.274 OA
ATOM     28  C   UNL A   1      34.100  22.181  24.793  1.00  0.00     0.041 C 
ATOM     29  C   UNL A   1      32.208  22.720  22.733  1.00  0.00     0.041 C 
ATOM     30  C   UNL A   1      32.628  22.188  25.100  1.00  0.00    -0.030 C 
ATOM     31  C   UNL A   1      31.736  22.423  24.127  1.00  0.00    -0.030 C 
ENDBRANCH  20  21
ENDBRANCH  13  15
ENDBRANCH   6  11
ENDBRANCH   3   5
ENDBRANCH   2   3
ENDBRANCH   1   2
BRANCH   1  32
ATOM     32  C   UNL A   1      33.087  35.286  29.263  1.00  0.00     0.275 C 
BRANCH  32  33
ATOM     33  O   UNL A   1      33.730  35.883  30.401  1.00  0.00    -0.458 OA
BRANCH  33  34
ATOM     34  C   UNL A   1      33.163  35.552  31.579  1.00  0.00     0.338 C 
ATOM     35  O   UNL A   1      31.978  35.619  31.871  1.00  0.00    -0.246 OA
BRANCH  34  36
ATOM     36  C   UNL A   1      34.151  34.983  32.499  1.00  0.00     0.060 A 
ATOM     37  C   UNL A   1      35.463  35.425  32.381  1.00  0.00     0.016 A 
ATOM     38  C   UNL A   1      33.859  33.854  33.255  1.00  0.00     0.016 A 
ATOM     39  C   UNL A   1      36.510  34.661  32.849  1.00  0.00     0.010 A 
ATOM     40  C   UNL A   1      34.912  33.154  33.851  1.00  0.00     0.010 A 
ATOM     41  C   UNL A   1      36.248  33.520  33.603  1.00  0.00    -0.014 A 
BRANCH  41  42
ATOM     42  C   UNL A   1      37.380  32.680  34.057  1.00  0.00     0.031 A 
ATOM     43  C   UNL A   1      38.025  32.977  35.380  1.00  0.00     0.074 A 
ATOM     44  C   UNL A   1      37.794  31.640  33.306  1.00  0.00     0.049 A 
ATOM     45  N   UNL A   1      39.164  32.554  35.859  1.00  0.00    -0.248 NA
ATOM     46  C   UNL A   1      37.300  33.897  36.270  1.00  0.00     0.031 C 
ATOM     47  C   UNL A   1      37.174  31.197  32.053  1.00  0.00     0.029 A 
ATOM     48  N   UNL A   1      38.834  30.767  33.484  1.00  0.00    -0.354 N 
ATOM     49  C   UNL A   1      39.323  33.205  37.077  1.00  0.00     0.074 A 
ATOM     50  C   UNL A   1      38.173  34.064  37.252  1.00  0.00     0.031 C 
ATOM     51  C   UNL A   1      37.833  30.127  31.589  1.00  0.00     0.029 A 
ATOM     52  C   UNL A   1      38.991  29.890  32.436  1.00  0.00     0.049 A 
ATOM     53  H   UNL A   1      39.412  30.766  34.282  1.00  0.00     0.167 HD
ATOM     54  C   UNL A   1      40.347  33.089  37.959  1.00  0.00     0.034 A 
ATOM     55  C   UNL A   1      40.001  29.048  32.145  1.00  0.00     0.034 A 
ATOM     56  C   UNL A   1      41.463  32.197  37.750  1.00  0.00     0.049 A 
ATOM     57  C   UNL A   1      41.171  28.998  33.089  1.00  0.00     0.074 A 
ATOM     58  C   UNL A   1      42.569  31.991  38.554  1.00  0.00     0.029 A 
ATOM     59  N   UNL A   1      41.607  31.351  36.653  1.00  0.00    -0.354 N 
ATOM     60  N   UNL A   1      41.365  29.677  34.197  1.00  0.00    -0.248 NA
ATOM     61  C   UNL A   1      42.257  28.078  32.742  1.00  0.00     0.031 C 
ATOM     62  C   UNL A   1      43.414  31.080  37.911  1.00  0.00     0.029 A 
ATOM     63  C   UNL A   1      42.795  30.644  36.748  1.00  0.00     0.049 A 
ATOM     64  H   UNL A   1      40.958  31.268  35.918  1.00  0.00     0.167 HD
ATOM     65  C   UNL A   1      42.591  29.248  34.694  1.00  0.00     0.074 A 
ATOM     66  C   UNL A   1      43.075  28.237  33.771  1.00  0.00     0.031 C 
ATOM     67  C   UNL A   1      43.257  29.649  35.807  1.00  0.00     0.034 A 
BRANCH  54  68
ATOM     68  C   UNL A   1      40.334  33.996  39.167  1.00  0.00     0.023 A 
ATOM     69  C   UNL A   1      40.955  35.257  39.162  1.00  0.00     0.031 A 
ATOM     70  C   UNL A   1      39.736  33.566  40.366  1.00  0.00     0.131 A 
ATOM     71  C   UNL A   1      41.038  36.002  40.350  1.00  0.00     0.055 A 
ATOM     72  C   UNL A   1      39.743  34.354  41.520  1.00  0.00     0.041 A 
ATOM     73  F   UNL A   1      39.151  32.360  40.445  1.00  0.00    -0.206 F 
ATOM     74  C   UNL A   1      40.412  35.572  41.521  1.00  0.00     0.022 A 
BRANCH  71  75
ATOM     75  S   UNL A   1      42.118  37.462  40.383  1.00  0.00     0.124 S 
ATOM     76  O   UNL A   1      42.384  37.598  41.813  1.00  0.00    -0.237 OA
ATOM     77  O   UNL A   1      43.245  37.038  39.561  1.00  0.00    -0.237 OA
ATOM     78  O   UNL A   1      41.287  38.517  39.807  1.00  0.00    -0.744 OA
ENDBRANCH  71  75
ENDBRANCH  54  68
BRANCH  55  79
ATOM     79  C   UNL A   1      39.984  28.268  30.874  1.00  0.00     0.023 A 
ATOM     80  C   UNL A   1      40.819  28.610  29.801  1.00  0.00     0.031 A 
ATOM     81  C   UNL A   1      39.116  27.171  30.708  1.00  0.00     0.131 A 
ATOM     82  C   UNL A   1      40.745  27.887  28.601  1.00  0.00     0.055 A 
ATOM     83  C   UNL A   1      39.090  26.417  29.536  1.00  0.00     0.041 A 
ATOM     84  F   UNL A   1      38.292  26.798  31.702  1.00  0.00    -0.206 F 
ATOM     85  C   UNL A   1      39.901  26.782  28.467  1.00  0.00     0.022 A 
BRANCH  82  86
ATOM     86  S   UNL A   1      41.709  28.468  27.180  1.00  0.00     0.124 S 
ATOM     87  O   UNL A   1      42.330  27.231  26.719  1.00  0.00    -0.237 OA
ATOM     88  O   UNL A   1      40.673  29.026  26.319  1.00  0.00    -0.237 OA
ATOM     89  O   UNL A   1      42.623  29.445  27.768  1.00  0.00    -0.744 OA
ENDBRANCH  82  86
ENDBRANCH  55  79
BRANCH  67  90
ATOM     90  C   UNL A   1      44.555  28.942  36.107  1.00  0.00     0.023 A 
ATOM     91  C   UNL A   1      44.585  27.686  36.736  1.00  0.00     0.031 A 
ATOM     92  C   UNL A   1      45.778  29.547  35.771  1.00  0.00     0.131 A 
ATOM     93  C   UNL A   1      45.817  27.106  37.070  1.00  0.00     0.055 A 
ATOM     94  C   UNL A   1      47.000  28.930  36.039  1.00  0.00     0.041 A 
ATOM     95  F   UNL A   1      45.805  30.749  35.174  1.00  0.00    -0.206 F 
ATOM     96  C   UNL A   1      47.025  27.709  36.706  1.00  0.00     0.022 A 
BRANCH  93  97
ATOM     97  S   UNL A   1      45.822  25.605  38.088  1.00  0.00     0.124 S 
ATOM     98  O   UNL A   1      44.908  25.970  39.166  1.00  0.00    -0.237 OA
ATOM     99  O   UNL A   1      45.336  24.593  37.155  1.00  0.00    -0.237 OA
ATOM    100  O   UNL A   1      47.222  25.464  38.483  1.00  0.00    -0.744 OA
ENDBRANCH  93  97
ENDBRANCH  67  90
ENDBRANCH  41  42
ENDBRANCH  34  36
ENDBRANCH  33  34
ENDBRANCH  32  33
ENDBRANCH   1  32
TORSDOF 17
ENDMDL
MODEL 3
REMARK VINA RESULT:     -11.9      5.794     10.574
REMARK SMILES O=C(Nc1ccccc1C(=O)OCCOC(=O)c1ccc(-c2c3nc(c(-c4cc(S(=O)(=O)[O-])ccc4F)c4ccc([nH]4)c(-c4cc(S(=O)(=O)[O-])ccc4F)c4nc(c(-c5cc(S(=O)(=O)[O-])ccc5F)c5ccc2[nH]5)C=C4)C=C3)cc1)c1ccc(N2C(=O)[C@H]3CC=CC[C@H]3C2=O)cc1
REMARK SMILES IDX 13 1 12 2 10 3 11 4 9 5 4 6 5 7 6 8 8 9 7 10 3 11 1 12 2 13
REMARK SMILES IDX 81 15 82 16 97 17 83 18 96 19 84 20 85 21 86 22 94 23 87 24
REMARK SMILES IDX 88 25 93 26 95 27 89 28 92 29 90 30 91 31 14 32 15 33 16 34
REMARK SMILES IDX 17 35 18 36 19 37 80 38 20 39 79 40 21 41 22 42 23 43 73 44
REMARK SMILES IDX 24 45 78 46 72 47 74 48 25 49 77 50 71 51 70 52 26 54 58 55
REMARK SMILES IDX 38 56 57 57 39 58 42 59 56 60 75 61 40 62 41 63 55 65 76 66
REMARK SMILES IDX 43 67 27 68 28 69 36 70 29 71 35 72 37 73 34 74 30 75 31 76
REMARK SMILES IDX 32 77 33 78 59 79 60 80 68 81 61 82 67 83 69 84 66 85 62 86
REMARK SMILES IDX 63 87 64 88 65 89 44 90 45 91 53 92 46 93 52 94 54 95 51 96
REMARK SMILES IDX 47 97 48 98 49 99 50 100
REMARK H PARENT 3 14 74 53 42 64
REMARK Flexibility Score: inf
ROOT
ATOM      1  C   UNL A   1      42.524  19.972  25.747  1.00  0.00     0.275 C 
ENDROOT
BRANCH   1   2
ATOM      2  O   UNL A   1      41.145  20.408  25.734  1.00  0.00    -0.458 OA
BRANCH   2   3
ATOM      3  C   UNL A   1      40.671  20.854  26.924  1.00  0.00     0.340 C 
ATOM      4  O   UNL A   1      40.778  20.278  27.991  1.00  0.00    -0.246 OA
BRANCH   3   5
ATOM      5  C   UNL A   1      39.949  22.143  26.814  1.00  0.00     0.083 A 
ATOM      6  C   UNL A   1      38.786  22.328  26.052  1.00  0.00     0.056 A 
ATOM      7  C   UNL A   1      38.219  23.615  25.994  1.00  0.00     0.027 A 
ATOM      8  C   UNL A   1      38.720  24.665  26.769  1.00  0.00     0.002 A 
ATOM      9  C   UNL A   1      40.451  23.217  27.573  1.00  0.00     0.018 A 
ATOM     10  C   UNL A   1      39.830  24.462  27.573  1.00  0.00     0.001 A 
BRANCH   6  11
ATOM     11  N   UNL A   1      38.078  21.325  25.355  1.00  0.00    -0.321 N 
ATOM     12  O   UNL A   1      36.302  20.027  24.820  1.00  0.00    -0.269 OA
ATOM     13  C   UNL A   1      36.721  21.114  25.212  1.00  0.00     0.255 C 
ATOM     14  H   UNL A   1      38.647  20.665  24.896  1.00  0.00     0.170 HD
BRANCH  13  15
ATOM     15  C   UNL A   1      35.756  22.223  25.429  1.00  0.00     0.040 A 
ATOM     16  C   UNL A   1      35.164  22.444  26.675  1.00  0.00     0.016 A 
ATOM     17  C   UNL A   1      35.399  23.024  24.341  1.00  0.00     0.016 A 
ATOM     18  C   UNL A   1      34.148  23.392  26.806  1.00  0.00     0.027 A 
ATOM     19  C   UNL A   1      34.349  23.940  24.466  1.00  0.00     0.027 A 
ATOM     20  C   UNL A   1      33.705  24.128  25.699  1.00  0.00     0.052 A 
BRANCH  20  21
ATOM     21  N   UNL A   1      32.668  25.083  25.831  1.00  0.00    -0.250 N 
ATOM     22  C   UNL A   1      32.899  26.411  26.096  1.00  0.00     0.238 C 
ATOM     23  C   UNL A   1      31.335  24.812  25.639  1.00  0.00     0.238 C 
ATOM     24  O   UNL A   1      33.963  26.960  26.359  1.00  0.00    -0.274 OA
ATOM     25  C   UNL A   1      31.627  27.184  25.866  1.00  0.00     0.096 C 
ATOM     26  C   UNL A   1      30.551  26.102  25.739  1.00  0.00     0.096 C 
ATOM     27  O   UNL A   1      30.801  23.726  25.447  1.00  0.00    -0.274 OA
ATOM     28  C   UNL A   1      31.818  28.071  24.624  1.00  0.00     0.041 C 
ATOM     29  C   UNL A   1      29.649  26.228  24.510  1.00  0.00     0.041 C 
ATOM     30  C   UNL A   1      31.490  27.367  23.337  1.00  0.00    -0.030 C 
ATOM     31  C   UNL A   1      30.458  26.515  23.277  1.00  0.00    -0.030 C 
ENDBRANCH  20  21
ENDBRANCH  13  15
ENDBRANCH   6  11
ENDBRANCH   3   5
ENDBRANCH   2   3
ENDBRANCH   1   2
BRANCH   1  32
ATOM     32  C   UNL A   1      43.537  21.109  25.609  1.00  0.00     0.275 C 
BRANCH  32  33
ATOM     33  O   UNL A   1      42.983  22.228  24.897  1.00  0.00    -0.458 OA
BRANCH  33  34
ATOM     34  C   UNL A   1      43.830  23.272  24.786  1.00  0.00     0.338 C 
ATOM     35  O   UNL A   1      44.754  23.391  23.996  1.00  0.00    -0.246 OA
BRANCH  34  36
ATOM     36  C   UNL A   1      43.454  24.355  25.698  1.00  0.00     0.060 A 
ATOM     37  C   UNL A   1      43.042  25.554  25.130  1.00  0.00     0.016 A 
ATOM     38  C   UNL A   1      43.765  24.292  27.051  1.00  0.00     0.016 A 
ATOM     39  C   UNL A   1      43.109  26.733  25.843  1.00  0.00     0.010 A 
ATOM     40  C   UNL A   1      43.697  25.463  27.812  1.00  0.00     0.010 A 
ATOM     41  C   UNL A   1      43.425  26.701  27.198  1.00  0.00    -0.014 A 
BRANCH  41  42
ATOM     42  C   UNL A   1      43.544  27.977  27.941  1.00  0.00     0.031 A 
ATOM     43  C   UNL A   1      42.312  28.590  28.541  1.00  0.00     0.074 A 
ATOM     44  C   UNL A   1      44.751  28.553  28.107  1.00  0.00     0.049 A 
ATOM     45  N   UNL A   1      42.129  29.798  29.002  1.00  0.00    -0.248 NA
ATOM     46  C   UNL A   1      41.117  27.733  28.602  1.00  0.00     0.031 C 
ATOM     47  C   UNL A   1      46.029  27.993  27.655  1.00  0.00     0.029 A 
ATOM     48  N   UNL A   1      45.103  29.738  28.697  1.00  0.00    -0.354 N 
ATOM     49  C   UNL A   1      40.784  29.867  29.350  1.00  0.00     0.074 A 
ATOM     50  C   UNL A   1      40.197  28.585  29.027  1.00  0.00     0.031 C 
ATOM     51  C   UNL A   1      47.022  28.822  28.002  1.00  0.00     0.029 A 
ATOM     52  C   UNL A   1      46.443  30.025  28.580  1.00  0.00     0.049 A 
ATOM     53  H   UNL A   1      44.461  30.326  29.159  1.00  0.00     0.167 HD
ATOM     54  C   UNL A   1      40.113  30.917  29.885  1.00  0.00     0.034 A 
ATOM     55  C   UNL A   1      47.118  31.162  28.831  1.00  0.00     0.034 A 
ATOM     56  C   UNL A   1      40.751  32.170  30.213  1.00  0.00     0.049 A 
ATOM     57  C   UNL A   1      46.341  32.345  29.341  1.00  0.00     0.074 A 
ATOM     58  C   UNL A   1      40.187  33.315  30.747  1.00  0.00     0.029 A 
ATOM     59  N   UNL A   1      42.106  32.437  30.043  1.00  0.00    -0.354 N 
ATOM     60  N   UNL A   1      45.054  32.441  29.588  1.00  0.00    -0.248 NA
ATOM     61  C   UNL A   1      47.102  33.571  29.598  1.00  0.00     0.031 C 
ATOM     62  C   UNL A   1      41.184  34.294  30.830  1.00  0.00     0.029 A 
ATOM     63  C   UNL A   1      42.391  33.735  30.436  1.00  0.00     0.049 A 
ATOM     64  H   UNL A   1      42.767  31.796  29.694  1.00  0.00     0.167 HD
ATOM     65  C   UNL A   1      44.853  33.735  30.053  1.00  0.00     0.074 A 
ATOM     66  C   UNL A   1      46.158  34.371  30.069  1.00  0.00     0.031 C 
ATOM     67  C   UNL A   1      43.701  34.346  30.432  1.00  0.00     0.034 A 
BRANCH  54  68
ATOM     68  C   UNL A   1      38.620  30.770  30.068  1.00  0.00     0.023 A 
ATOM     69  C   UNL A   1      37.701  31.204  29.097  1.00  0.00     0.031 A 
ATOM     70  C   UNL A   1      38.105  30.236  31.264  1.00  0.00     0.131 A 
ATOM     71  C   UNL A   1      36.324  31.175  29.373  1.00  0.00     0.055 A 
ATOM     72  C   UNL A   1      36.732  30.126  31.494  1.00  0.00     0.041 A 
ATOM     73  F   UNL A   1      38.929  29.830  32.243  1.00  0.00    -0.206 F 
ATOM     74  C   UNL A   1      35.832  30.614  30.553  1.00  0.00     0.022 A 
BRANCH  71  75
ATOM     75  S   UNL A   1      35.196  32.035  28.240  1.00  0.00     0.124 S 
ATOM     76  O   UNL A   1      36.076  33.045  27.659  1.00  0.00    -0.237 OA
ATOM     77  O   UNL A   1      34.773  30.965  27.344  1.00  0.00    -0.237 OA
ATOM     78  O   UNL A   1      34.155  32.558  29.123  1.00  0.00    -0.744 OA
ENDBRANCH  71  75
ENDBRANCH  54  68
BRANCH  55  79
ATOM     79  C   UNL A   1      48.573  31.255  28.519  1.00  0.00     0.023 A 
ATOM     80  C   UNL A   1      49.037  32.023  27.442  1.00  0.00     0.031 A 
ATOM     81  C   UNL A   1      49.526  30.560  29.289  1.00  0.00     0.131 A 
ATOM     82  C   UNL A   1      50.408  32.051  27.143  1.00  0.00     0.055 A 
ATOM     83  C   UNL A   1      50.894  30.641  29.027  1.00  0.00     0.041 A 
ATOM     84  F   UNL A   1      49.141  29.807  30.333  1.00  0.00    -0.206 F 
ATOM     85  C   UNL A   1      51.340  31.382  27.939  1.00  0.00     0.022 A 
BRANCH  82  86
ATOM     86  S   UNL A   1      50.949  32.910  25.642  1.00  0.00     0.124 S 
ATOM     87  O   UNL A   1      49.751  33.662  25.283  1.00  0.00    -0.237 OA
ATOM     88  O   UNL A   1      52.077  33.695  26.132  1.00  0.00    -0.237 OA
ATOM     89  O   UNL A   1      51.298  31.819  24.734  1.00  0.00    -0.744 OA
ENDBRANCH  82  86
ENDBRANCH  55  79
BRANCH  67  90
ATOM     90  C   UNL A   1      43.824  35.757  30.949  1.00  0.00     0.023 A 
ATOM     91  C   UNL A   1      43.895  36.038  32.323  1.00  0.00     0.031 A 
ATOM     92  C   UNL A   1      43.853  36.835  30.047  1.00  0.00     0.131 A 
ATOM     93  C   UNL A   1      43.924  37.370  32.760  1.00  0.00     0.055 A 
ATOM     94  C   UNL A   1      43.958  38.155  30.486  1.00  0.00     0.041 A 
ATOM     95  F   UNL A   1      43.783  36.622  28.724  1.00  0.00    -0.206 F 
ATOM     96  C   UNL A   1      43.978  38.430  31.850  1.00  0.00     0.022 A 
BRANCH  93  97
ATOM     97  S   UNL A   1      43.776  37.704  34.537  1.00  0.00     0.124 S 
ATOM     98  O   UNL A   1      44.192  39.101  34.616  1.00  0.00    -0.237 OA
ATOM     99  O   UNL A   1      42.362  37.443  34.787  1.00  0.00    -0.237 OA
ATOM    100  O   UNL A   1      44.700  36.746  35.142  1.00  0.00    -0.744 OA
ENDBRANCH  93  97
ENDBRANCH  67  90
ENDBRANCH  41  42
ENDBRANCH  34  36
ENDBRANCH  33  34
ENDBRANCH  32  33
ENDBRANCH   1  32
TORSDOF 17
ENDMDL
