MODEL 1
REMARK VINA RESULT:     -12.6      0.000      0.000
REMARK SMILES O=C(OCCOC(=O)[C@H]1CC=CC[C@@H]1C(=O)Nc1nn(Cc2ccccc2F)cc1Br)c1ccc(-c2c3nc(c(-c4cc(S(=O)(=O)[O-])ccc4F)c4ccc([nH]4)c(-c4cc(S(=O)(=O)[O-])ccc4F)c4nc(c(-c5cc(S(=O)(=O)[O-])ccc5F)c5ccc2[nH]5)C=C4)C=C3)cc1
REMARK SMILES IDX 5 1 4 2 3 3 2 4 1 5 32 6 33 7 94 8 34 9 93 10 35 11 36 12
REMARK SMILES IDX 37 13 87 14 38 15 92 16 86 17 88 18 39 19 91 20 85 21 84 22
REMARK SMILES IDX 40 24 72 25 52 26 71 27 53 28 56 29 70 30 89 31 54 32 55 33
REMARK SMILES IDX 69 35 90 36 57 37 41 38 42 39 50 40 43 41 49 42 51 43 48 44
REMARK SMILES IDX 44 45 45 46 46 47 47 48 73 49 74 50 82 51 75 52 81 53 83 54
REMARK SMILES IDX 80 55 76 56 77 57 78 58 79 59 58 60 59 61 67 62 60 63 66 64
REMARK SMILES IDX 68 65 65 66 61 67 62 68 63 69 64 70 6 71 7 72 8 73 9 74
REMARK SMILES IDX 10 75 14 76 11 77 13 78 12 79 15 80 16 81 17 82 18 84 19 85
REMARK SMILES IDX 30 86 20 87 29 88 31 89 21 90 22 91 23 92 27 93 24 94 26 95
REMARK SMILES IDX 28 96 25 97
REMARK H PARENT 88 23 56 34 17 83
REMARK Flexibility Score: inf
ROOT
ATOM      1  C   UNL A   1      33.212  28.611  27.202  1.00  0.00     0.274 C 
ENDROOT
BRANCH   1   2
ATOM      2  C   UNL A   1      34.407  29.552  27.010  1.00  0.00     0.275 C 
BRANCH   2   3
ATOM      3  O   UNL A   1      35.700  29.043  27.335  1.00  0.00    -0.458 OA
BRANCH   3   4
ATOM      4  C   UNL A   1      36.313  29.487  28.443  1.00  0.00     0.338 C 
ATOM      5  O   UNL A   1      35.832  30.234  29.289  1.00  0.00    -0.246 OA
BRANCH   4   6
ATOM      6  C   UNL A   1      37.727  29.057  28.360  1.00  0.00     0.060 A 
ATOM      7  C   UNL A   1      38.554  29.525  27.329  1.00  0.00     0.016 A 
ATOM      8  C   UNL A   1      38.267  28.283  29.387  1.00  0.00     0.016 A 
ATOM      9  C   UNL A   1      39.893  29.184  27.306  1.00  0.00     0.010 A 
ATOM     10  C   UNL A   1      39.622  27.977  29.388  1.00  0.00     0.010 A 
ATOM     11  C   UNL A   1      40.429  28.390  28.323  1.00  0.00    -0.014 A 
BRANCH  11  12
ATOM     12  C   UNL A   1      41.832  28.007  28.189  1.00  0.00     0.031 A 
ATOM     13  C   UNL A   1      42.145  26.724  27.492  1.00  0.00     0.074 A 
ATOM     14  C   UNL A   1      42.851  28.752  28.652  1.00  0.00     0.049 A 
ATOM     15  N   UNL A   1      42.656  25.646  27.997  1.00  0.00    -0.248 NA
ATOM     16  C   UNL A   1      41.811  26.612  26.068  1.00  0.00     0.031 C 
ATOM     17  C   UNL A   1      42.837  30.123  29.163  1.00  0.00     0.029 A 
ATOM     18  N   UNL A   1      44.171  28.420  28.681  1.00  0.00    -0.354 N 
ATOM     19  C   UNL A   1      42.859  24.766  26.936  1.00  0.00     0.074 A 
ATOM     20  C   UNL A   1      42.235  25.378  25.787  1.00  0.00     0.031 C 
ATOM     21  C   UNL A   1      44.104  30.583  29.233  1.00  0.00     0.029 A 
ATOM     22  C   UNL A   1      45.009  29.489  28.937  1.00  0.00     0.049 A 
ATOM     23  H   UNL A   1      44.499  27.503  28.532  1.00  0.00     0.167 HD
ATOM     24  C   UNL A   1      43.640  23.653  27.041  1.00  0.00     0.034 A 
ATOM     25  C   UNL A   1      46.360  29.487  28.869  1.00  0.00     0.034 A 
ATOM     26  C   UNL A   1      43.888  23.292  28.412  1.00  0.00     0.049 A 
ATOM     27  C   UNL A   1      46.803  28.095  29.123  1.00  0.00     0.074 A 
ATOM     28  C   UNL A   1      43.089  22.935  29.481  1.00  0.00     0.029 A 
ATOM     29  N   UNL A   1      45.112  23.592  28.961  1.00  0.00    -0.354 N 
ATOM     30  N   UNL A   1      46.607  27.473  30.255  1.00  0.00    -0.248 NA
ATOM     31  C   UNL A   1      47.109  27.235  27.992  1.00  0.00     0.031 C 
ATOM     32  C   UNL A   1      43.705  23.542  30.617  1.00  0.00     0.029 A 
ATOM     33  C   UNL A   1      44.853  24.196  30.167  1.00  0.00     0.049 A 
ATOM     34  H   UNL A   1      45.996  23.412  28.567  1.00  0.00     0.167 HD
ATOM     35  C   UNL A   1      46.354  26.156  29.904  1.00  0.00     0.074 A 
ATOM     36  C   UNL A   1      46.793  26.048  28.516  1.00  0.00     0.031 C 
ATOM     37  C   UNL A   1      45.574  25.345  30.679  1.00  0.00     0.034 A 
BRANCH  24  38
ATOM     38  C   UNL A   1      44.379  22.998  25.900  1.00  0.00     0.023 A 
ATOM     39  C   UNL A   1      44.137  21.638  25.612  1.00  0.00     0.031 A 
ATOM     40  C   UNL A   1      45.489  23.580  25.251  1.00  0.00     0.131 A 
ATOM     41  C   UNL A   1      44.981  20.922  24.742  1.00  0.00     0.055 A 
ATOM     42  C   UNL A   1      46.288  22.883  24.341  1.00  0.00     0.041 A 
ATOM     43  F   UNL A   1      45.907  24.820  25.540  1.00  0.00    -0.206 F 
ATOM     44  C   UNL A   1      46.048  21.541  24.094  1.00  0.00     0.022 A 
BRANCH  41  45
ATOM     45  S   UNL A   1      44.760  19.127  24.579  1.00  0.00     0.124 S 
ATOM     46  O   UNL A   1      44.488  18.983  23.153  1.00  0.00    -0.237 OA
ATOM     47  O   UNL A   1      46.047  18.618  25.042  1.00  0.00    -0.237 OA
ATOM     48  O   UNL A   1      43.629  18.840  25.458  1.00  0.00    -0.744 OA
ENDBRANCH  41  45
ENDBRANCH  24  38
BRANCH  25  49
ATOM     49  C   UNL A   1      47.192  30.552  28.261  1.00  0.00     0.023 A 
ATOM     50  C   UNL A   1      46.632  31.553  27.451  1.00  0.00     0.031 A 
ATOM     51  C   UNL A   1      48.539  30.730  28.659  1.00  0.00     0.131 A 
ATOM     52  C   UNL A   1      47.407  32.667  27.065  1.00  0.00     0.055 A 
ATOM     53  C   UNL A   1      49.306  31.826  28.262  1.00  0.00     0.041 A 
ATOM     54  F   UNL A   1      49.134  29.887  29.518  1.00  0.00    -0.206 F 
ATOM     55  C   UNL A   1      48.738  32.807  27.468  1.00  0.00     0.022 A 
BRANCH  52  56
ATOM     56  S   UNL A   1      46.644  34.030  26.135  1.00  0.00     0.124 S 
ATOM     57  O   UNL A   1      46.232  34.932  27.204  1.00  0.00    -0.237 OA
ATOM     58  O   UNL A   1      47.736  34.491  25.285  1.00  0.00    -0.237 OA
ATOM     59  O   UNL A   1      45.548  33.374  25.421  1.00  0.00    -0.744 OA
ENDBRANCH  52  56
ENDBRANCH  25  49
BRANCH  37  60
ATOM     60  C   UNL A   1      45.211  25.801  32.076  1.00  0.00     0.023 A 
ATOM     61  C   UNL A   1      44.022  26.490  32.402  1.00  0.00     0.031 A 
ATOM     62  C   UNL A   1      46.031  25.371  33.135  1.00  0.00     0.131 A 
ATOM     63  C   UNL A   1      43.693  26.729  33.752  1.00  0.00     0.055 A 
ATOM     64  C   UNL A   1      45.695  25.596  34.470  1.00  0.00     0.041 A 
ATOM     65  F   UNL A   1      47.153  24.676  32.888  1.00  0.00    -0.206 F 
ATOM     66  C   UNL A   1      44.524  26.278  34.783  1.00  0.00     0.022 A 
BRANCH  63  67
ATOM     67  S   UNL A   1      42.155  27.605  34.187  1.00  0.00     0.124 S 
ATOM     68  O   UNL A   1      41.340  26.564  34.805  1.00  0.00    -0.237 OA
ATOM     69  O   UNL A   1      42.626  28.665  35.074  1.00  0.00    -0.237 OA
ATOM     70  O   UNL A   1      41.655  28.078  32.895  1.00  0.00    -0.744 OA
ENDBRANCH  63  67
ENDBRANCH  37  60
ENDBRANCH  11  12
ENDBRANCH   4   6
ENDBRANCH   3   4
ENDBRANCH   2   3
ENDBRANCH   1   2
BRANCH   1  71
ATOM     71  O   UNL A   1      33.274  27.388  26.431  1.00  0.00    -0.462 OA
BRANCH  71  72
ATOM     72  C   UNL A   1      32.057  26.766  26.380  1.00  0.00     0.310 C 
ATOM     73  O   UNL A   1      31.190  26.949  27.233  1.00  0.00    -0.252 OA
BRANCH  72  74
ATOM     74  C   UNL A   1      31.847  25.818  25.186  1.00  0.00     0.116 C 
ATOM     75  C   UNL A   1      30.418  26.085  24.649  1.00  0.00     0.043 C 
ATOM     76  C   UNL A   1      32.846  25.978  24.004  1.00  0.00     0.097 C 
ATOM     77  C   UNL A   1      30.352  27.397  23.917  1.00  0.00    -0.030 C 
ATOM     78  C   UNL A   1      32.838  27.425  23.538  1.00  0.00     0.041 C 
ATOM     79  C   UNL A   1      31.455  28.015  23.471  1.00  0.00    -0.030 C 
BRANCH  76  80
ATOM     80  C   UNL A   1      32.578  24.850  22.975  1.00  0.00     0.229 C 
ATOM     81  O   UNL A   1      31.808  25.112  22.035  1.00  0.00    -0.274 OA
ATOM     82  N   UNL A   1      33.266  23.686  22.834  1.00  0.00    -0.308 N 
ATOM     83  H   UNL A   1      33.119  23.240  21.969  1.00  0.00     0.171 HD
BRANCH  82  84
ATOM     84  C   UNL A   1      34.130  23.009  23.664  1.00  0.00     0.168 A 
ATOM     85  N   UNL A   1      35.454  22.934  23.498  1.00  0.00    -0.153 NA
ATOM     86  C   UNL A   1      33.758  22.358  24.862  1.00  0.00     0.080 A 
ATOM     87  N   UNL A   1      35.881  22.094  24.467  1.00  0.00    -0.265 N 
ATOM     88  C   UNL A   1      34.882  21.731  25.331  1.00  0.00     0.127 A 
ATOM     89  Br  UNL A   1      32.023  22.218  25.551  1.00  0.00    -0.045 Br
BRANCH  87  90
ATOM     90  C   UNL A   1      37.293  21.719  24.576  1.00  0.00     0.182 C 
BRANCH  90  91
ATOM     91  C   UNL A   1      38.065  22.556  25.562  1.00  0.00     0.009 A 
ATOM     92  C   UNL A   1      37.697  23.876  25.870  1.00  0.00     0.008 A 
ATOM     93  C   UNL A   1      39.167  22.006  26.223  1.00  0.00     0.128 A 
ATOM     94  C   UNL A   1      38.384  24.592  26.859  1.00  0.00     0.001 A 
ATOM     95  C   UNL A   1      39.872  22.726  27.183  1.00  0.00     0.039 A 
ATOM     96  F   UNL A   1      39.562  20.758  25.938  1.00  0.00    -0.207 F 
ATOM     97  C   UNL A   1      39.464  24.012  27.524  1.00  0.00     0.003 A 
ENDBRANCH  90  91
ENDBRANCH  87  90
ENDBRANCH  82  84
ENDBRANCH  76  80
ENDBRANCH  72  74
ENDBRANCH  71  72
ENDBRANCH   1  71
TORSDOF 18
ENDMDL
MODEL 2
REMARK VINA RESULT:     -12.4      4.959     10.335
REMARK SMILES O=C(OCCOC(=O)[C@H]1CC=CC[C@@H]1C(=O)Nc1nn(Cc2ccccc2F)cc1Br)c1ccc(-c2c3nc(c(-c4cc(S(=O)(=O)[O-])ccc4F)c4ccc([nH]4)c(-c4cc(S(=O)(=O)[O-])ccc4F)c4nc(c(-c5cc(S(=O)(=O)[O-])ccc5F)c5ccc2[nH]5)C=C4)C=C3)cc1
REMARK SMILES IDX 5 1 4 2 3 3 2 4 1 5 32 6 33 7 94 8 34 9 93 10 35 11 36 12
REMARK SMILES IDX 37 13 87 14 38 15 92 16 86 17 88 18 39 19 91 20 85 21 84 22
REMARK SMILES IDX 40 24 72 25 52 26 71 27 53 28 56 29 70 30 89 31 54 32 55 33
REMARK SMILES IDX 69 35 90 36 57 37 41 38 42 39 50 40 43 41 49 42 51 43 48 44
REMARK SMILES IDX 44 45 45 46 46 47 47 48 73 49 74 50 82 51 75 52 81 53 83 54
REMARK SMILES IDX 80 55 76 56 77 57 78 58 79 59 58 60 59 61 67 62 60 63 66 64
REMARK SMILES IDX 68 65 65 66 61 67 62 68 63 69 64 70 6 71 7 72 8 73 9 74
REMARK SMILES IDX 10 75 14 76 11 77 13 78 12 79 15 80 16 81 17 82 18 84 19 85
REMARK SMILES IDX 30 86 20 87 29 88 31 89 21 90 22 91 23 92 27 93 24 94 26 95
REMARK SMILES IDX 28 96 25 97
REMARK H PARENT 88 23 56 34 17 83
REMARK Flexibility Score: inf
ROOT
ATOM      1  C   UNL A   1      37.046  23.414  24.985  1.00  0.00     0.274 C 
ENDROOT
BRANCH   1   2
ATOM      2  C   UNL A   1      38.033  23.450  26.158  1.00  0.00     0.275 C 
BRANCH   2   3
ATOM      3  O   UNL A   1      38.355  24.728  26.703  1.00  0.00    -0.458 OA
BRANCH   3   4
ATOM      4  C   UNL A   1      39.639  25.115  26.736  1.00  0.00     0.338 C 
ATOM      5  O   UNL A   1      40.573  24.583  26.145  1.00  0.00    -0.246 OA
BRANCH   4   6
ATOM      6  C   UNL A   1      39.746  26.184  27.755  1.00  0.00     0.060 A 
ATOM      7  C   UNL A   1      40.204  27.461  27.401  1.00  0.00     0.016 A 
ATOM      8  C   UNL A   1      39.268  25.950  29.043  1.00  0.00     0.016 A 
ATOM      9  C   UNL A   1      40.223  28.475  28.340  1.00  0.00     0.010 A 
ATOM     10  C   UNL A   1      39.245  26.981  29.975  1.00  0.00     0.010 A 
ATOM     11  C   UNL A   1      39.765  28.234  29.638  1.00  0.00    -0.014 A 
BRANCH  11  12
ATOM     12  C   UNL A   1      39.889  29.331  30.593  1.00  0.00     0.031 A 
ATOM     13  C   UNL A   1      38.694  30.196  30.828  1.00  0.00     0.074 A 
ATOM     14  C   UNL A   1      41.018  29.596  31.276  1.00  0.00     0.049 A 
ATOM     15  N   UNL A   1      38.542  31.446  30.523  1.00  0.00    -0.248 NA
ATOM     16  C   UNL A   1      37.508  29.586  31.437  1.00  0.00     0.031 C 
ATOM     17  C   UNL A   1      42.233  28.792  31.398  1.00  0.00     0.029 A 
ATOM     18  N   UNL A   1      41.261  30.661  32.088  1.00  0.00    -0.354 N 
ATOM     19  C   UNL A   1      37.307  31.834  31.037  1.00  0.00     0.074 A 
ATOM     20  C   UNL A   1      36.674  30.626  31.508  1.00  0.00     0.031 C 
ATOM     21  C   UNL A   1      42.986  29.279  32.408  1.00  0.00     0.029 A 
ATOM     22  C   UNL A   1      42.387  30.514  32.876  1.00  0.00     0.049 A 
ATOM     23  H   UNL A   1      40.688  31.462  32.112  1.00  0.00     0.167 HD
ATOM     24  C   UNL A   1      36.939  33.143  31.161  1.00  0.00     0.034 A 
ATOM     25  C   UNL A   1      42.780  31.333  33.879  1.00  0.00     0.034 A 
ATOM     26  C   UNL A   1      37.763  34.016  30.368  1.00  0.00     0.049 A 
ATOM     27  C   UNL A   1      42.232  32.677  33.579  1.00  0.00     0.074 A 
ATOM     28  C   UNL A   1      38.033  34.133  29.018  1.00  0.00     0.029 A 
ATOM     29  N   UNL A   1      38.740  34.750  30.996  1.00  0.00    -0.354 N 
ATOM     30  N   UNL A   1      42.578  33.377  32.532  1.00  0.00    -0.248 NA
ATOM     31  C   UNL A   1      40.993  33.091  34.216  1.00  0.00     0.031 C 
ATOM     32  C   UNL A   1      39.419  34.471  28.950  1.00  0.00     0.029 A 
ATOM     33  C   UNL A   1      39.887  34.571  30.262  1.00  0.00     0.049 A 
ATOM     34  H   UNL A   1      38.638  35.294  31.810  1.00  0.00     0.167 HD
ATOM     35  C   UNL A   1      41.421  34.031  32.137  1.00  0.00     0.074 A 
ATOM     36  C   UNL A   1      40.516  33.911  33.276  1.00  0.00     0.031 C 
ATOM     37  C   UNL A   1      41.205  34.381  30.834  1.00  0.00     0.034 A 
BRANCH  24  38
ATOM     38  C   UNL A   1      35.964  33.678  32.180  1.00  0.00     0.023 A 
ATOM     39  C   UNL A   1      34.818  34.373  31.739  1.00  0.00     0.031 A 
ATOM     40  C   UNL A   1      36.241  33.755  33.562  1.00  0.00     0.131 A 
ATOM     41  C   UNL A   1      34.028  35.110  32.642  1.00  0.00     0.055 A 
ATOM     42  C   UNL A   1      35.420  34.437  34.464  1.00  0.00     0.041 A 
ATOM     43  F   UNL A   1      37.368  33.255  34.087  1.00  0.00    -0.206 F 
ATOM     44  C   UNL A   1      34.314  35.134  34.006  1.00  0.00     0.022 A 
BRANCH  41  45
ATOM     45  S   UNL A   1      32.699  36.164  31.993  1.00  0.00     0.124 S 
ATOM     46  O   UNL A   1      31.504  35.441  32.415  1.00  0.00    -0.237 OA
ATOM     47  O   UNL A   1      32.956  37.431  32.669  1.00  0.00    -0.237 OA
ATOM     48  O   UNL A   1      32.941  36.171  30.552  1.00  0.00    -0.744 OA
ENDBRANCH  41  45
ENDBRANCH  24  38
BRANCH  25  49
ATOM     49  C   UNL A   1      43.290  30.892  35.198  1.00  0.00     0.023 A 
ATOM     50  C   UNL A   1      43.188  29.556  35.620  1.00  0.00     0.031 A 
ATOM     51  C   UNL A   1      44.100  31.750  35.982  1.00  0.00     0.131 A 
ATOM     52  C   UNL A   1      43.869  29.126  36.779  1.00  0.00     0.055 A 
ATOM     53  C   UNL A   1      44.758  31.323  37.136  1.00  0.00     0.041 A 
ATOM     54  F   UNL A   1      44.348  33.015  35.608  1.00  0.00    -0.206 F 
ATOM     55  C   UNL A   1      44.652  30.001  37.534  1.00  0.00     0.022 A 
BRANCH  52  56
ATOM     56  S   UNL A   1      43.852  27.369  37.245  1.00  0.00     0.124 S 
ATOM     57  O   UNL A   1      44.438  27.405  38.580  1.00  0.00    -0.237 OA
ATOM     58  O   UNL A   1      42.436  27.030  37.170  1.00  0.00    -0.237 OA
ATOM     59  O   UNL A   1      44.686  26.743  36.219  1.00  0.00    -0.744 OA
ENDBRANCH  52  56
ENDBRANCH  25  49
BRANCH  37  60
ATOM     60  C   UNL A   1      42.360  34.307  29.858  1.00  0.00     0.023 A 
ATOM     61  C   UNL A   1      42.787  33.120  29.223  1.00  0.00     0.031 A 
ATOM     62  C   UNL A   1      42.936  35.518  29.437  1.00  0.00     0.131 A 
ATOM     63  C   UNL A   1      43.762  33.175  28.207  1.00  0.00     0.055 A 
ATOM     64  C   UNL A   1      43.891  35.571  28.422  1.00  0.00     0.041 A 
ATOM     65  F   UNL A   1      42.541  36.684  29.976  1.00  0.00    -0.206 F 
ATOM     66  C   UNL A   1      44.308  34.397  27.803  1.00  0.00     0.022 A 
BRANCH  63  67
ATOM     67  S   UNL A   1      44.312  31.652  27.370  1.00  0.00     0.124 S 
ATOM     68  O   UNL A   1      43.435  30.627  27.928  1.00  0.00    -0.237 OA
ATOM     69  O   UNL A   1      44.116  31.969  25.959  1.00  0.00    -0.237 OA
ATOM     70  O   UNL A   1      45.715  31.530  27.771  1.00  0.00    -0.744 OA
ENDBRANCH  63  67
ENDBRANCH  37  60
ENDBRANCH  11  12
ENDBRANCH   4   6
ENDBRANCH   3   4
ENDBRANCH   2   3
ENDBRANCH   1   2
BRANCH   1  71
ATOM     71  O   UNL A   1      35.775  24.055  25.242  1.00  0.00    -0.462 OA
BRANCH  71  72
ATOM     72  C   UNL A   1      34.786  23.543  24.450  1.00  0.00     0.310 C 
ATOM     73  O   UNL A   1      35.022  23.018  23.362  1.00  0.00    -0.252 OA
BRANCH  72  74
ATOM     74  C   UNL A   1      33.357  23.671  25.006  1.00  0.00     0.116 C 
ATOM     75  C   UNL A   1      32.636  22.333  24.703  1.00  0.00     0.043 C 
ATOM     76  C   UNL A   1      33.242  23.947  26.533  1.00  0.00     0.097 C 
ATOM     77  C   UNL A   1      33.136  21.235  25.600  1.00  0.00    -0.030 C 
ATOM     78  C   UNL A   1      34.011  22.877  27.292  1.00  0.00     0.041 C 
ATOM     79  C   UNL A   1      33.802  21.494  26.734  1.00  0.00    -0.030 C 
BRANCH  76  80
ATOM     80  C   UNL A   1      31.751  24.197  26.879  1.00  0.00     0.229 C 
ATOM     81  O   UNL A   1      31.142  23.277  27.453  1.00  0.00    -0.274 OA
ATOM     82  N   UNL A   1      31.090  25.384  26.853  1.00  0.00    -0.308 N 
ATOM     83  H   UNL A   1      30.245  25.379  27.358  1.00  0.00     0.171 HD
BRANCH  82  84
ATOM     84  C   UNL A   1      31.370  26.593  26.260  1.00  0.00     0.168 A 
ATOM     85  N   UNL A   1      31.841  27.670  26.896  1.00  0.00    -0.153 NA
ATOM     86  C   UNL A   1      31.280  26.855  24.873  1.00  0.00     0.080 A 
ATOM     87  N   UNL A   1      31.865  28.646  25.961  1.00  0.00    -0.265 N 
ATOM     88  C   UNL A   1      31.545  28.189  24.710  1.00  0.00     0.127 A 
ATOM     89  Br  UNL A   1      30.708  25.653  23.557  1.00  0.00    -0.045 Br
BRANCH  87  90
ATOM     90  C   UNL A   1      32.281  30.009  26.299  1.00  0.00     0.182 C 
BRANCH  90  91
ATOM     91  C   UNL A   1      33.664  30.089  26.891  1.00  0.00     0.009 A 
ATOM     92  C   UNL A   1      34.572  29.021  26.812  1.00  0.00     0.008 A 
ATOM     93  C   UNL A   1      34.083  31.268  27.513  1.00  0.00     0.128 A 
ATOM     94  C   UNL A   1      35.881  29.164  27.293  1.00  0.00     0.001 A 
ATOM     95  C   UNL A   1      35.372  31.403  28.021  1.00  0.00     0.039 A 
ATOM     96  F   UNL A   1      33.237  32.300  27.627  1.00  0.00    -0.207 F 
ATOM     97  C   UNL A   1      36.284  30.360  27.885  1.00  0.00     0.003 A 
ENDBRANCH  90  91
ENDBRANCH  87  90
ENDBRANCH  82  84
ENDBRANCH  76  80
ENDBRANCH  72  74
ENDBRANCH  71  72
ENDBRANCH   1  71
TORSDOF 18
ENDMDL
MODEL 3
REMARK VINA RESULT:     -12.3      2.880      7.522
REMARK SMILES O=C(OCCOC(=O)[C@H]1CC=CC[C@@H]1C(=O)Nc1nn(Cc2ccccc2F)cc1Br)c1ccc(-c2c3nc(c(-c4cc(S(=O)(=O)[O-])ccc4F)c4ccc([nH]4)c(-c4cc(S(=O)(=O)[O-])ccc4F)c4nc(c(-c5cc(S(=O)(=O)[O-])ccc5F)c5ccc2[nH]5)C=C4)C=C3)cc1
REMARK SMILES IDX 5 1 4 2 3 3 2 4 1 5 32 6 33 7 94 8 34 9 93 10 35 11 36 12
REMARK SMILES IDX 37 13 87 14 38 15 92 16 86 17 88 18 39 19 91 20 85 21 84 22
REMARK SMILES IDX 40 24 72 25 52 26 71 27 53 28 56 29 70 30 89 31 54 32 55 33
REMARK SMILES IDX 69 35 90 36 57 37 41 38 42 39 50 40 43 41 49 42 51 43 48 44
REMARK SMILES IDX 44 45 45 46 46 47 47 48 73 49 74 50 82 51 75 52 81 53 83 54
REMARK SMILES IDX 80 55 76 56 77 57 78 58 79 59 58 60 59 61 67 62 60 63 66 64
REMARK SMILES IDX 68 65 65 66 61 67 62 68 63 69 64 70 6 71 7 72 8 73 9 74
REMARK SMILES IDX 10 75 14 76 11 77 13 78 12 79 15 80 16 81 17 82 18 84 19 85
REMARK SMILES IDX 30 86 20 87 29 88 31 89 21 90 22 91 23 92 27 93 24 94 26 95
REMARK SMILES IDX 28 96 25 97
REMARK H PARENT 88 23 56 34 17 83
REMARK Flexibility Score: inf
ROOT
ATOM      1  C   UNL A   1      31.721  29.928  26.451  1.00  0.00     0.274 C 
ENDROOT
BRANCH   1   2
ATOM      2  C   UNL A   1      32.727  31.040  26.770  1.00  0.00     0.275 C 
BRANCH   2   3
ATOM      3  O   UNL A   1      33.968  30.651  27.357  1.00  0.00    -0.458 OA
BRANCH   3   4
ATOM      4  C   UNL A   1      34.753  31.594  27.899  1.00  0.00     0.338 C 
ATOM      5  O   UNL A   1      34.516  32.797  27.948  1.00  0.00    -0.246 OA
BRANCH   4   6
ATOM      6  C   UNL A   1      36.031  30.941  28.262  1.00  0.00     0.060 A 
ATOM      7  C   UNL A   1      36.246  29.587  27.971  1.00  0.00     0.016 A 
ATOM      8  C   UNL A   1      37.070  31.713  28.781  1.00  0.00     0.016 A 
ATOM      9  C   UNL A   1      37.471  29.006  28.239  1.00  0.00     0.010 A 
ATOM     10  C   UNL A   1      38.315  31.141  29.009  1.00  0.00     0.010 A 
ATOM     11  C   UNL A   1      38.505  29.774  28.780  1.00  0.00    -0.014 A 
BRANCH  11  12
ATOM     12  C   UNL A   1      39.743  29.074  29.107  1.00  0.00     0.031 A 
ATOM     13  C   UNL A   1      40.077  28.875  30.549  1.00  0.00     0.074 A 
ATOM     14  C   UNL A   1      40.591  28.593  28.180  1.00  0.00     0.049 A 
ATOM     15  N   UNL A   1      41.052  29.399  31.222  1.00  0.00    -0.248 NA
ATOM     16  C   UNL A   1      39.193  28.024  31.352  1.00  0.00     0.031 C 
ATOM     17  C   UNL A   1      40.401  28.458  26.736  1.00  0.00     0.029 A 
ATOM     18  N   UNL A   1      41.817  28.040  28.389  1.00  0.00    -0.354 N 
ATOM     19  C   UNL A   1      41.011  28.830  32.493  1.00  0.00     0.074 A 
ATOM     20  C   UNL A   1      39.791  28.061  32.545  1.00  0.00     0.031 C 
ATOM     21  C   UNL A   1      41.367  27.659  26.235  1.00  0.00     0.029 A 
ATOM     22  C   UNL A   1      42.324  27.376  27.288  1.00  0.00     0.049 A 
ATOM     23  H   UNL A   1      42.298  28.107  29.246  1.00  0.00     0.167 HD
ATOM     24  C   UNL A   1      42.047  28.923  33.376  1.00  0.00     0.034 A 
ATOM     25  C   UNL A   1      43.436  26.606  27.253  1.00  0.00     0.034 A 
ATOM     26  C   UNL A   1      42.974  29.963  33.017  1.00  0.00     0.049 A 
ATOM     27  C   UNL A   1      44.334  27.098  28.325  1.00  0.00     0.074 A 
ATOM     28  C   UNL A   1      42.881  31.332  32.853  1.00  0.00     0.029 A 
ATOM     29  N   UNL A   1      44.164  29.610  32.426  1.00  0.00    -0.354 N 
ATOM     30  N   UNL A   1      44.857  28.295  28.332  1.00  0.00    -0.248 NA
ATOM     31  C   UNL A   1      44.342  26.413  29.607  1.00  0.00     0.031 C 
ATOM     32  C   UNL A   1      43.728  31.627  31.742  1.00  0.00     0.029 A 
ATOM     33  C   UNL A   1      44.305  30.424  31.329  1.00  0.00     0.049 A 
ATOM     34  H   UNL A   1      44.789  28.912  32.729  1.00  0.00     0.167 HD
ATOM     35  C   UNL A   1      44.876  28.672  29.666  1.00  0.00     0.074 A 
ATOM     36  C   UNL A   1      44.661  27.434  30.408  1.00  0.00     0.031 C 
ATOM     37  C   UNL A   1      44.802  29.984  30.041  1.00  0.00     0.034 A 
BRANCH  24  38
ATOM     38  C   UNL A   1      42.356  27.922  34.461  1.00  0.00     0.023 A 
ATOM     39  C   UNL A   1      43.066  26.747  34.134  1.00  0.00     0.031 A 
ATOM     40  C   UNL A   1      41.766  27.952  35.743  1.00  0.00     0.131 A 
ATOM     41  C   UNL A   1      43.147  25.674  35.042  1.00  0.00     0.055 A 
ATOM     42  C   UNL A   1      41.901  26.910  36.665  1.00  0.00     0.041 A 
ATOM     43  F   UNL A   1      40.955  28.947  36.126  1.00  0.00    -0.206 F 
ATOM     44  C   UNL A   1      42.580  25.755  36.313  1.00  0.00     0.022 A 
BRANCH  41  45
ATOM     45  S   UNL A   1      43.878  24.106  34.492  1.00  0.00     0.124 S 
ATOM     46  O   UNL A   1      44.478  24.482  33.216  1.00  0.00    -0.237 OA
ATOM     47  O   UNL A   1      44.808  23.807  35.576  1.00  0.00    -0.237 OA
ATOM     48  O   UNL A   1      42.730  23.208  34.396  1.00  0.00    -0.744 OA
ENDBRANCH  41  45
ENDBRANCH  24  38
BRANCH  25  49
ATOM     49  C   UNL A   1      43.553  25.295  26.573  1.00  0.00     0.023 A 
ATOM     50  C   UNL A   1      42.751  24.200  26.939  1.00  0.00     0.031 A 
ATOM     51  C   UNL A   1      44.311  25.163  25.385  1.00  0.00     0.131 A 
ATOM     52  C   UNL A   1      42.733  23.038  26.138  1.00  0.00     0.055 A 
ATOM     53  C   UNL A   1      44.302  24.006  24.606  1.00  0.00     0.041 A 
ATOM     54  F   UNL A   1      45.026  26.188  24.893  1.00  0.00    -0.206 F 
ATOM     55  C   UNL A   1      43.502  22.939  24.976  1.00  0.00     0.022 A 
BRANCH  52  56
ATOM     56  S   UNL A   1      41.592  21.679  26.532  1.00  0.00     0.124 S 
ATOM     57  O   UNL A   1      41.784  21.529  27.970  1.00  0.00    -0.237 OA
ATOM     58  O   UNL A   1      40.302  22.208  26.104  1.00  0.00    -0.237 OA
ATOM     59  O   UNL A   1      42.099  20.572  25.720  1.00  0.00    -0.744 OA
ENDBRANCH  52  56
ENDBRANCH  25  49
BRANCH  37  60
ATOM     60  C   UNL A   1      44.983  31.054  28.986  1.00  0.00     0.023 A 
ATOM     61  C   UNL A   1      46.238  31.535  28.550  1.00  0.00     0.031 A 
ATOM     62  C   UNL A   1      43.840  31.478  28.285  1.00  0.00     0.131 A 
ATOM     63  C   UNL A   1      46.313  32.413  27.450  1.00  0.00     0.055 A 
ATOM     64  C   UNL A   1      43.920  32.335  27.187  1.00  0.00     0.041 A 
ATOM     65  F   UNL A   1      42.624  31.023  28.628  1.00  0.00    -0.206 F 
ATOM     66  C   UNL A   1      45.158  32.807  26.766  1.00  0.00     0.022 A 
BRANCH  63  67
ATOM     67  S   UNL A   1      47.927  33.029  26.869  1.00  0.00     0.124 S 
ATOM     68  O   UNL A   1      48.426  33.792  28.009  1.00  0.00    -0.237 OA
ATOM     69  O   UNL A   1      48.648  31.800  26.551  1.00  0.00    -0.237 OA
ATOM     70  O   UNL A   1      47.581  33.844  25.702  1.00  0.00    -0.744 OA
ENDBRANCH  63  67
ENDBRANCH  37  60
ENDBRANCH  11  12
ENDBRANCH   4   6
ENDBRANCH   3   4
ENDBRANCH   2   3
ENDBRANCH   1   2
BRANCH   1  71
ATOM     71  O   UNL A   1      32.314  28.665  26.068  1.00  0.00    -0.462 OA
BRANCH  71  72
ATOM     72  C   UNL A   1      31.846  28.239  24.856  1.00  0.00     0.310 C 
ATOM     73  O   UNL A   1      30.708  28.495  24.464  1.00  0.00    -0.252 OA
BRANCH  72  74
ATOM     74  C   UNL A   1      32.837  27.412  24.016  1.00  0.00     0.116 C 
ATOM     75  C   UNL A   1      34.077  27.158  24.909  1.00  0.00     0.043 C 
ATOM     76  C   UNL A   1      32.316  26.037  23.508  1.00  0.00     0.097 C 
ATOM     77  C   UNL A   1      33.776  26.143  25.978  1.00  0.00    -0.030 C 
ATOM     78  C   UNL A   1      31.819  25.224  24.693  1.00  0.00     0.041 C 
ATOM     79  C   UNL A   1      32.724  25.317  25.893  1.00  0.00    -0.030 C 
BRANCH  76  80
ATOM     80  C   UNL A   1      33.382  25.424  22.564  1.00  0.00     0.229 C 
ATOM     81  O   UNL A   1      33.806  26.146  21.644  1.00  0.00    -0.274 OA
ATOM     82  N   UNL A   1      34.091  24.280  22.758  1.00  0.00    -0.308 N 
ATOM     83  H   UNL A   1      34.893  24.210  22.192  1.00  0.00     0.171 HD
BRANCH  82  84
ATOM     84  C   UNL A   1      33.908  23.202  23.592  1.00  0.00     0.168 A 
ATOM     85  N   UNL A   1      32.869  22.363  23.546  1.00  0.00    -0.153 NA
ATOM     86  C   UNL A   1      34.831  22.771  24.572  1.00  0.00     0.080 A 
ATOM     87  N   UNL A   1      33.041  21.534  24.600  1.00  0.00    -0.265 N 
ATOM     88  C   UNL A   1      34.232  21.738  25.244  1.00  0.00     0.127 A 
ATOM     89  Br  UNL A   1      36.459  23.593  24.993  1.00  0.00    -0.045 Br
BRANCH  87  90
ATOM     90  C   UNL A   1      32.060  20.493  24.913  1.00  0.00     0.182 C 
BRANCH  90  91
ATOM     91  C   UNL A   1      32.551  19.096  24.633  1.00  0.00     0.009 A 
ATOM     92  C   UNL A   1      32.917  18.213  25.662  1.00  0.00     0.008 A 
ATOM     93  C   UNL A   1      32.621  18.639  23.314  1.00  0.00     0.128 A 
ATOM     94  C   UNL A   1      33.282  16.893  25.368  1.00  0.00     0.001 A 
ATOM     95  C   UNL A   1      33.013  17.338  23.016  1.00  0.00     0.039 A 
ATOM     96  F   UNL A   1      32.302  19.460  22.305  1.00  0.00    -0.207 F 
ATOM     97  C   UNL A   1      33.317  16.452  24.046  1.00  0.00     0.003 A 
ENDBRANCH  90  91
ENDBRANCH  87  90
ENDBRANCH  82  84
ENDBRANCH  76  80
ENDBRANCH  72  74
ENDBRANCH  71  72
ENDBRANCH   1  71
TORSDOF 18
ENDMDL
