MODEL 1
REMARK VINA RESULT:     -11.1      0.000      0.000
REMARK SMILES O=C(OCCOC(=O)c1cc2sc(Cl)cc2s1)c1ccc(-c2c3nc(c(-c4cc(S(=O)(=O)[O-])ccc4F)c4ccc([nH]4)c(-c4cc(S(=O)(=O)[O-])ccc4F)c4nc(c(-c5cc(S(=O)(=O)[O-])ccc5F)c5ccc2[nH]5)C=C4)C=C3)cc1
REMARK SMILES IDX 3 1 2 2 1 3 18 4 19 5 80 6 20 7 79 8 21 9 22 10 23 11 73 12
REMARK SMILES IDX 24 13 78 14 72 15 74 16 25 17 77 18 71 19 70 20 26 22 58 23
REMARK SMILES IDX 38 24 57 25 39 26 42 27 56 28 75 29 40 30 41 31 55 33 76 34
REMARK SMILES IDX 43 35 27 36 28 37 36 38 29 39 35 40 37 41 34 42 30 43 31 44
REMARK SMILES IDX 32 45 33 46 59 47 60 48 68 49 61 50 67 51 69 52 66 53 62 54
REMARK SMILES IDX 63 55 64 56 65 57 44 58 45 59 53 60 46 61 52 62 54 63 51 64
REMARK SMILES IDX 47 65 48 66 49 67 50 68 4 69 5 70 6 71 7 72 8 73 9 74 10 75
REMARK SMILES IDX 17 76 11 77 16 78 12 79 15 80 13 81 14 82
REMARK H PARENT 74 21 42 32
REMARK Flexibility Score: inf
ROOT
ATOM      1  O   UNL A   1      34.431  33.265  27.944  1.00  0.00    -0.458 OA
ENDROOT
BRANCH   1   2
ATOM      2  C   UNL A   1      34.448  31.919  28.036  1.00  0.00     0.338 C 
ATOM      3  O   UNL A   1      33.568  31.202  27.584  1.00  0.00    -0.246 OA
BRANCH   2   4
ATOM      4  C   UNL A   1      35.756  31.393  28.490  1.00  0.00     0.060 A 
ATOM      5  C   UNL A   1      36.819  32.222  28.865  1.00  0.00     0.016 A 
ATOM      6  C   UNL A   1      35.908  30.001  28.519  1.00  0.00     0.016 A 
ATOM      7  C   UNL A   1      38.055  31.666  29.159  1.00  0.00     0.010 A 
ATOM      8  C   UNL A   1      37.140  29.445  28.824  1.00  0.00     0.010 A 
ATOM      9  C   UNL A   1      38.223  30.281  29.090  1.00  0.00    -0.014 A 
BRANCH   9  10
ATOM     10  C   UNL A   1      39.514  29.711  29.460  1.00  0.00     0.031 A 
ATOM     11  C   UNL A   1      39.773  29.753  30.925  1.00  0.00     0.074 A 
ATOM     12  C   UNL A   1      40.317  29.069  28.584  1.00  0.00     0.049 A 
ATOM     13  N   UNL A   1      40.641  30.474  31.555  1.00  0.00    -0.248 NA
ATOM     14  C   UNL A   1      38.820  29.069  31.817  1.00  0.00     0.031 C 
ATOM     15  C   UNL A   1      40.041  28.774  27.177  1.00  0.00     0.029 A 
ATOM     16  N   UNL A   1      41.514  28.447  28.786  1.00  0.00    -0.354 N 
ATOM     17  C   UNL A   1      40.542  30.098  32.892  1.00  0.00     0.074 A 
ATOM     18  C   UNL A   1      39.268  29.444  33.016  1.00  0.00     0.031 C 
ATOM     19  C   UNL A   1      40.907  27.834  26.734  1.00  0.00     0.029 A 
ATOM     20  C   UNL A   1      41.882  27.554  27.777  1.00  0.00     0.049 A 
ATOM     21  H   UNL A   1      42.074  28.615  29.578  1.00  0.00     0.167 HD
ATOM     22  C   UNL A   1      41.649  30.077  33.688  1.00  0.00     0.034 A 
ATOM     23  C   UNL A   1      42.879  26.620  27.808  1.00  0.00     0.034 A 
ATOM     24  C   UNL A   1      42.710  30.879  33.104  1.00  0.00     0.049 A 
ATOM     25  C   UNL A   1      43.834  27.059  28.855  1.00  0.00     0.074 A 
ATOM     26  C   UNL A   1      42.812  32.193  32.683  1.00  0.00     0.029 A 
ATOM     27  N   UNL A   1      43.774  30.229  32.514  1.00  0.00    -0.354 N 
ATOM     28  N   UNL A   1      44.543  28.150  28.753  1.00  0.00    -0.248 NA
ATOM     29  C   UNL A   1      43.618  26.587  30.216  1.00  0.00     0.031 C 
ATOM     30  C   UNL A   1      43.582  32.134  31.483  1.00  0.00     0.029 A 
ATOM     31  C   UNL A   1      43.998  30.815  31.296  1.00  0.00     0.049 A 
ATOM     32  H   UNL A   1      44.281  29.478  32.899  1.00  0.00     0.167 HD
ATOM     33  C   UNL A   1      44.465  28.743  30.004  1.00  0.00     0.074 A 
ATOM     34  C   UNL A   1      43.963  27.690  30.889  1.00  0.00     0.031 C 
ATOM     35  C   UNL A   1      44.524  30.102  30.148  1.00  0.00     0.034 A 
BRANCH  22  36
ATOM     36  C   UNL A   1      41.947  28.981  34.703  1.00  0.00     0.023 A 
ATOM     37  C   UNL A   1      42.670  29.380  35.843  1.00  0.00     0.031 A 
ATOM     38  C   UNL A   1      41.899  27.587  34.476  1.00  0.00     0.131 A 
ATOM     39  C   UNL A   1      43.481  28.470  36.537  1.00  0.00     0.055 A 
ATOM     40  C   UNL A   1      42.648  26.671  35.223  1.00  0.00     0.041 A 
ATOM     41  F   UNL A   1      41.193  27.028  33.489  1.00  0.00    -0.206 F 
ATOM     42  C   UNL A   1      43.490  27.117  36.226  1.00  0.00     0.022 A 
BRANCH  39  43
ATOM     43  S   UNL A   1      44.711  29.152  37.677  1.00  0.00     0.124 S 
ATOM     44  O   UNL A   1      45.851  29.320  36.782  1.00  0.00    -0.237 OA
ATOM     45  O   UNL A   1      44.055  30.376  38.124  1.00  0.00    -0.237 OA
ATOM     46  O   UNL A   1      44.848  28.108  38.688  1.00  0.00    -0.744 OA
ENDBRANCH  39  43
ENDBRANCH  22  36
BRANCH  23  47
ATOM     47  C   UNL A   1      42.856  25.234  27.239  1.00  0.00     0.023 A 
ATOM     48  C   UNL A   1      43.808  24.744  26.310  1.00  0.00     0.031 A 
ATOM     49  C   UNL A   1      41.997  24.268  27.815  1.00  0.00     0.131 A 
ATOM     50  C   UNL A   1      43.865  23.358  25.998  1.00  0.00     0.055 A 
ATOM     51  C   UNL A   1      42.059  22.907  27.506  1.00  0.00     0.041 A 
ATOM     52  F   UNL A   1      41.117  24.602  28.771  1.00  0.00    -0.206 F 
ATOM     53  C   UNL A   1      42.999  22.443  26.603  1.00  0.00     0.022 A 
BRANCH  50  54
ATOM     54  S   UNL A   1      45.122  22.690  24.851  1.00  0.00     0.124 S 
ATOM     55  O   UNL A   1      46.007  21.957  25.749  1.00  0.00    -0.237 OA
ATOM     56  O   UNL A   1      44.322  21.891  23.931  1.00  0.00    -0.237 OA
ATOM     57  O   UNL A   1      45.716  23.889  24.256  1.00  0.00    -0.744 OA
ENDBRANCH  50  54
ENDBRANCH  23  47
BRANCH  35  58
ATOM     58  C   UNL A   1      44.992  30.937  28.975  1.00  0.00     0.023 A 
ATOM     59  C   UNL A   1      46.342  31.191  28.637  1.00  0.00     0.031 A 
ATOM     60  C   UNL A   1      44.001  31.404  28.093  1.00  0.00     0.131 A 
ATOM     61  C   UNL A   1      46.651  31.903  27.459  1.00  0.00     0.055 A 
ATOM     62  C   UNL A   1      44.311  32.088  26.920  1.00  0.00     0.041 A 
ATOM     63  F   UNL A   1      42.702  31.169  28.341  1.00  0.00    -0.206 F 
ATOM     64  C   UNL A   1      45.638  32.348  26.602  1.00  0.00     0.022 A 
BRANCH  61  65
ATOM     65  S   UNL A   1      48.378  32.289  27.023  1.00  0.00     0.124 S 
ATOM     66  O   UNL A   1      48.956  32.748  28.279  1.00  0.00    -0.237 OA
ATOM     67  O   UNL A   1      48.870  31.008  26.522  1.00  0.00    -0.237 OA
ATOM     68  O   UNL A   1      48.245  33.327  25.998  1.00  0.00    -0.744 OA
ENDBRANCH  61  65
ENDBRANCH  35  58
ENDBRANCH   9  10
ENDBRANCH   2   4
ENDBRANCH   1   2
BRANCH   1  69
ATOM     69  C   UNL A   1      33.171  33.955  27.848  1.00  0.00     0.275 C 
BRANCH  69  70
ATOM     70  C   UNL A   1      33.026  35.256  28.637  1.00  0.00     0.275 C 
BRANCH  70  71
ATOM     71  O   UNL A   1      32.590  34.988  29.980  1.00  0.00    -0.458 OA
BRANCH  71  72
ATOM     72  C   UNL A   1      33.021  35.844  30.949  1.00  0.00     0.348 C 
ATOM     73  O   UNL A   1      32.648  37.009  31.090  1.00  0.00    -0.245 OA
BRANCH  72  74
ATOM     74  C   UNL A   1      34.017  35.173  31.744  1.00  0.00     0.114 A 
ATOM     75  C   UNL A   1      34.669  33.997  31.436  1.00  0.00     0.047 A 
ATOM     76  S   UNL A   1      34.491  35.848  33.243  1.00  0.00    -0.127 S 
ATOM     77  C   UNL A   1      35.515  33.591  32.509  1.00  0.00     0.048 A 
ATOM     78  C   UNL A   1      35.463  34.442  33.582  1.00  0.00     0.047 A 
ATOM     79  S   UNL A   1      36.583  32.240  32.794  1.00  0.00    -0.122 S 
ATOM     80  C   UNL A   1      36.207  33.964  34.705  1.00  0.00     0.052 A 
ATOM     81  C   UNL A   1      36.839  32.794  34.374  1.00  0.00     0.095 A 
ATOM     82  Cl  UNL A   1      37.862  31.880  35.414  1.00  0.00    -0.072 Cl
ENDBRANCH  72  74
ENDBRANCH  71  72
ENDBRANCH  70  71
ENDBRANCH  69  70
ENDBRANCH   1  69
TORSDOF 14
ENDMDL
MODEL 2
REMARK VINA RESULT:     -11.0      2.735     11.145
REMARK SMILES O=C(OCCOC(=O)c1cc2sc(Cl)cc2s1)c1ccc(-c2c3nc(c(-c4cc(S(=O)(=O)[O-])ccc4F)c4ccc([nH]4)c(-c4cc(S(=O)(=O)[O-])ccc4F)c4nc(c(-c5cc(S(=O)(=O)[O-])ccc5F)c5ccc2[nH]5)C=C4)C=C3)cc1
REMARK SMILES IDX 3 1 2 2 1 3 18 4 19 5 80 6 20 7 79 8 21 9 22 10 23 11 73 12
REMARK SMILES IDX 24 13 78 14 72 15 74 16 25 17 77 18 71 19 70 20 26 22 58 23
REMARK SMILES IDX 38 24 57 25 39 26 42 27 56 28 75 29 40 30 41 31 55 33 76 34
REMARK SMILES IDX 43 35 27 36 28 37 36 38 29 39 35 40 37 41 34 42 30 43 31 44
REMARK SMILES IDX 32 45 33 46 59 47 60 48 68 49 61 50 67 51 69 52 66 53 62 54
REMARK SMILES IDX 63 55 64 56 65 57 44 58 45 59 53 60 46 61 52 62 54 63 51 64
REMARK SMILES IDX 47 65 48 66 49 67 50 68 4 69 5 70 6 71 7 72 8 73 9 74 10 75
REMARK SMILES IDX 17 76 11 77 16 78 12 79 15 80 13 81 14 82
REMARK H PARENT 74 21 42 32
REMARK Flexibility Score: inf
ROOT
ATOM      1  O   UNL A   1      40.278  20.753  26.958  1.00  0.00    -0.458 OA
ENDROOT
BRANCH   1   2
ATOM      2  C   UNL A   1      39.597  21.795  26.436  1.00  0.00     0.338 C 
ATOM      3  O   UNL A   1      38.567  21.670  25.790  1.00  0.00    -0.246 OA
BRANCH   2   4
ATOM      4  C   UNL A   1      40.066  23.101  26.951  1.00  0.00     0.060 A 
ATOM      5  C   UNL A   1      41.218  23.240  27.733  1.00  0.00     0.016 A 
ATOM      6  C   UNL A   1      39.292  24.225  26.637  1.00  0.00     0.016 A 
ATOM      7  C   UNL A   1      41.530  24.472  28.286  1.00  0.00     0.010 A 
ATOM      8  C   UNL A   1      39.610  25.460  27.180  1.00  0.00     0.010 A 
ATOM      9  C   UNL A   1      40.697  25.568  28.047  1.00  0.00    -0.014 A 
BRANCH   9  10
ATOM     10  C   UNL A   1      41.074  26.869  28.590  1.00  0.00     0.031 A 
ATOM     11  C   UNL A   1      42.225  27.487  27.878  1.00  0.00     0.074 A 
ATOM     12  C   UNL A   1      40.352  27.513  29.532  1.00  0.00     0.049 A 
ATOM     13  N   UNL A   1      43.422  27.678  28.327  1.00  0.00    -0.248 NA
ATOM     14  C   UNL A   1      42.095  27.736  26.432  1.00  0.00     0.031 C 
ATOM     15  C   UNL A   1      39.079  27.092  30.121  1.00  0.00     0.029 A 
ATOM     16  N   UNL A   1      40.544  28.741  30.095  1.00  0.00    -0.354 N 
ATOM     17  C   UNL A   1      44.100  28.350  27.314  1.00  0.00     0.074 A 
ATOM     18  C   UNL A   1      43.331  28.128  26.121  1.00  0.00     0.031 C 
ATOM     19  C   UNL A   1      38.504  28.141  30.753  1.00  0.00     0.029 A 
ATOM     20  C   UNL A   1      39.419  29.272  30.731  1.00  0.00     0.049 A 
ATOM     21  H   UNL A   1      41.407  29.214  30.058  1.00  0.00     0.167 HD
ATOM     22  C   UNL A   1      45.047  29.284  27.617  1.00  0.00     0.034 A 
ATOM     23  C   UNL A   1      39.229  30.553  31.164  1.00  0.00     0.034 A 
ATOM     24  C   UNL A   1      45.506  29.116  28.985  1.00  0.00     0.049 A 
ATOM     25  C   UNL A   1      40.580  31.144  31.335  1.00  0.00     0.074 A 
ATOM     26  C   UNL A   1      46.049  28.065  29.704  1.00  0.00     0.029 A 
ATOM     27  N   UNL A   1      45.076  30.017  29.936  1.00  0.00    -0.354 N 
ATOM     28  N   UNL A   1      41.429  30.721  32.231  1.00  0.00    -0.248 NA
ATOM     29  C   UNL A   1      41.174  31.827  30.194  1.00  0.00     0.031 C 
ATOM     30  C   UNL A   1      45.443  28.151  30.993  1.00  0.00     0.029 A 
ATOM     31  C   UNL A   1      44.655  29.303  31.028  1.00  0.00     0.049 A 
ATOM     32  H   UNL A   1      45.071  30.998  29.847  1.00  0.00     0.167 HD
ATOM     33  C   UNL A   1      42.645  30.664  31.568  1.00  0.00     0.074 A 
ATOM     34  C   UNL A   1      42.446  31.446  30.346  1.00  0.00     0.031 C 
ATOM     35  C   UNL A   1      43.598  29.747  31.917  1.00  0.00     0.034 A 
BRANCH  22  36
ATOM     36  C   UNL A   1      45.201  30.610  26.884  1.00  0.00     0.023 A 
ATOM     37  C   UNL A   1      46.523  31.035  26.655  1.00  0.00     0.031 A 
ATOM     38  C   UNL A   1      44.211  31.605  26.728  1.00  0.00     0.131 A 
ATOM     39  C   UNL A   1      46.831  32.399  26.535  1.00  0.00     0.055 A 
ATOM     40  C   UNL A   1      44.518  32.955  26.526  1.00  0.00     0.041 A 
ATOM     41  F   UNL A   1      42.901  31.361  26.827  1.00  0.00    -0.206 F 
ATOM     42  C   UNL A   1      45.838  33.368  26.485  1.00  0.00     0.022 A 
BRANCH  39  43
ATOM     43  S   UNL A   1      48.567  32.879  26.709  1.00  0.00     0.124 S 
ATOM     44  O   UNL A   1      49.203  31.571  26.823  1.00  0.00    -0.237 OA
ATOM     45  O   UNL A   1      48.801  33.604  25.464  1.00  0.00    -0.237 OA
ATOM     46  O   UNL A   1      48.571  33.694  27.920  1.00  0.00    -0.744 OA
ENDBRANCH  39  43
ENDBRANCH  22  36
BRANCH  23  47
ATOM     47  C   UNL A   1      37.973  31.368  31.098  1.00  0.00     0.023 A 
ATOM     48  C   UNL A   1      37.266  31.634  29.898  1.00  0.00     0.031 A 
ATOM     49  C   UNL A   1      37.305  31.703  32.299  1.00  0.00     0.131 A 
ATOM     50  C   UNL A   1      35.965  32.207  29.940  1.00  0.00     0.055 A 
ATOM     51  C   UNL A   1      36.026  32.263  32.333  1.00  0.00     0.041 A 
ATOM     52  F   UNL A   1      37.840  31.414  33.495  1.00  0.00    -0.206 F 
ATOM     53  C   UNL A   1      35.346  32.510  31.154  1.00  0.00     0.022 A 
BRANCH  50  54
ATOM     54  S   UNL A   1      35.005  32.504  28.411  1.00  0.00     0.124 S 
ATOM     55  O   UNL A   1      33.845  33.234  28.908  1.00  0.00    -0.237 OA
ATOM     56  O   UNL A   1      35.943  33.256  27.587  1.00  0.00    -0.237 OA
ATOM     57  O   UNL A   1      34.712  31.156  27.923  1.00  0.00    -0.744 OA
ENDBRANCH  50  54
ENDBRANCH  23  47
BRANCH  35  58
ATOM     58  C   UNL A   1      43.449  29.007  33.230  1.00  0.00     0.023 A 
ATOM     59  C   UNL A   1      43.955  29.442  34.477  1.00  0.00     0.031 A 
ATOM     60  C   UNL A   1      42.649  27.851  33.220  1.00  0.00     0.131 A 
ATOM     61  C   UNL A   1      43.664  28.713  35.648  1.00  0.00     0.055 A 
ATOM     62  C   UNL A   1      42.345  27.145  34.381  1.00  0.00     0.041 A 
ATOM     63  F   UNL A   1      42.112  27.403  32.072  1.00  0.00    -0.206 F 
ATOM     64  C   UNL A   1      42.858  27.569  35.600  1.00  0.00     0.022 A 
BRANCH  61  65
ATOM     65  S   UNL A   1      44.343  29.219  37.262  1.00  0.00     0.124 S 
ATOM     66  O   UNL A   1      45.706  29.627  36.949  1.00  0.00    -0.237 OA
ATOM     67  O   UNL A   1      43.432  30.288  37.665  1.00  0.00    -0.237 OA
ATOM     68  O   UNL A   1      44.242  28.002  38.070  1.00  0.00    -0.744 OA
ENDBRANCH  61  65
ENDBRANCH  35  58
ENDBRANCH   9  10
ENDBRANCH   2   4
ENDBRANCH   1   2
BRANCH   1  69
ATOM     69  C   UNL A   1      40.537  19.594  26.144  1.00  0.00     0.275 C 
BRANCH  69  70
ATOM     70  C   UNL A   1      41.929  18.971  26.240  1.00  0.00     0.275 C 
BRANCH  70  71
ATOM     71  O   UNL A   1      42.689  19.242  25.050  1.00  0.00    -0.458 OA
BRANCH  71  72
ATOM     72  C   UNL A   1      44.046  19.210  25.166  1.00  0.00     0.348 C 
ATOM     73  O   UNL A   1      44.733  18.191  25.236  1.00  0.00    -0.245 OA
BRANCH  72  74
ATOM     74  C   UNL A   1      44.532  20.564  25.242  1.00  0.00     0.114 A 
ATOM     75  C   UNL A   1      43.841  21.668  25.697  1.00  0.00     0.047 A 
ATOM     76  S   UNL A   1      46.126  20.915  24.730  1.00  0.00    -0.127 S 
ATOM     77  C   UNL A   1      44.615  22.853  25.531  1.00  0.00     0.048 A 
ATOM     78  C   UNL A   1      45.833  22.619  24.950  1.00  0.00     0.047 A 
ATOM     79  S   UNL A   1      44.363  24.547  25.867  1.00  0.00    -0.122 S 
ATOM     80  C   UNL A   1      46.550  23.821  24.663  1.00  0.00     0.052 A 
ATOM     81  C   UNL A   1      45.841  24.900  25.119  1.00  0.00     0.095 A 
ATOM     82  Cl  UNL A   1      46.337  26.545  25.008  1.00  0.00    -0.072 Cl
ENDBRANCH  72  74
ENDBRANCH  71  72
ENDBRANCH  70  71
ENDBRANCH  69  70
ENDBRANCH   1  69
TORSDOF 14
ENDMDL
MODEL 3
REMARK VINA RESULT:     -10.9      3.194     11.402
REMARK SMILES O=C(OCCOC(=O)c1cc2sc(Cl)cc2s1)c1ccc(-c2c3nc(c(-c4cc(S(=O)(=O)[O-])ccc4F)c4ccc([nH]4)c(-c4cc(S(=O)(=O)[O-])ccc4F)c4nc(c(-c5cc(S(=O)(=O)[O-])ccc5F)c5ccc2[nH]5)C=C4)C=C3)cc1
REMARK SMILES IDX 3 1 2 2 1 3 18 4 19 5 80 6 20 7 79 8 21 9 22 10 23 11 73 12
REMARK SMILES IDX 24 13 78 14 72 15 74 16 25 17 77 18 71 19 70 20 26 22 58 23
REMARK SMILES IDX 38 24 57 25 39 26 42 27 56 28 75 29 40 30 41 31 55 33 76 34
REMARK SMILES IDX 43 35 27 36 28 37 36 38 29 39 35 40 37 41 34 42 30 43 31 44
REMARK SMILES IDX 32 45 33 46 59 47 60 48 68 49 61 50 67 51 69 52 66 53 62 54
REMARK SMILES IDX 63 55 64 56 65 57 44 58 45 59 53 60 46 61 52 62 54 63 51 64
REMARK SMILES IDX 47 65 48 66 49 67 50 68 4 69 5 70 6 71 7 72 8 73 9 74 10 75
REMARK SMILES IDX 17 76 11 77 16 78 12 79 15 80 13 81 14 82
REMARK H PARENT 74 21 42 32
REMARK Flexibility Score: inf
ROOT
ATOM      1  O   UNL A   1      40.727  21.036  27.136  1.00  0.00    -0.458 OA
ENDROOT
BRANCH   1   2
ATOM      2  C   UNL A   1      39.860  21.994  26.745  1.00  0.00     0.338 C 
ATOM      3  O   UNL A   1      38.814  21.758  26.159  1.00  0.00    -0.246 OA
BRANCH   2   4
ATOM      4  C   UNL A   1      40.167  23.318  27.333  1.00  0.00     0.060 A 
ATOM      5  C   UNL A   1      39.334  24.431  27.175  1.00  0.00     0.016 A 
ATOM      6  C   UNL A   1      41.359  23.432  28.060  1.00  0.00     0.016 A 
ATOM      7  C   UNL A   1      39.743  25.669  27.644  1.00  0.00     0.010 A 
ATOM      8  C   UNL A   1      41.763  24.668  28.539  1.00  0.00     0.010 A 
ATOM      9  C   UNL A   1      40.980  25.792  28.283  1.00  0.00    -0.014 A 
BRANCH   9  10
ATOM     10  C   UNL A   1      41.366  27.092  28.821  1.00  0.00     0.031 A 
ATOM     11  C   UNL A   1      42.503  27.713  28.089  1.00  0.00     0.074 A 
ATOM     12  C   UNL A   1      40.662  27.733  29.779  1.00  0.00     0.049 A 
ATOM     13  N   UNL A   1      43.708  27.905  28.514  1.00  0.00    -0.248 NA
ATOM     14  C   UNL A   1      42.343  27.966  26.646  1.00  0.00     0.031 C 
ATOM     15  C   UNL A   1      39.402  27.309  30.392  1.00  0.00     0.029 A 
ATOM     16  N   UNL A   1      40.865  28.960  30.342  1.00  0.00    -0.354 N 
ATOM     17  C   UNL A   1      44.365  28.580  27.489  1.00  0.00     0.074 A 
ATOM     18  C   UNL A   1      43.573  28.361  26.312  1.00  0.00     0.031 C 
ATOM     19  C   UNL A   1      38.839  28.355  31.038  1.00  0.00     0.029 A 
ATOM     20  C   UNL A   1      39.752  29.488  31.001  1.00  0.00     0.049 A 
ATOM     21  H   UNL A   1      41.726  29.434  30.289  1.00  0.00     0.167 HD
ATOM     22  C   UNL A   1      45.317  29.514  27.777  1.00  0.00     0.034 A 
ATOM     23  C   UNL A   1      39.569  30.767  31.441  1.00  0.00     0.034 A 
ATOM     24  C   UNL A   1      45.803  29.343  29.135  1.00  0.00     0.049 A 
ATOM     25  C   UNL A   1      40.922  31.360  31.587  1.00  0.00     0.074 A 
ATOM     26  C   UNL A   1      46.361  28.291  29.840  1.00  0.00     0.029 A 
ATOM     27  N   UNL A   1      45.391  30.241  30.097  1.00  0.00    -0.354 N 
ATOM     28  N   UNL A   1      41.789  30.935  32.465  1.00  0.00    -0.248 NA
ATOM     29  C   UNL A   1      41.492  32.047  30.436  1.00  0.00     0.031 C 
ATOM     30  C   UNL A   1      45.780  28.374  31.141  1.00  0.00     0.029 A 
ATOM     31  C   UNL A   1      44.992  29.524  31.195  1.00  0.00     0.049 A 
ATOM     32  H   UNL A   1      45.382  31.222  30.010  1.00  0.00     0.167 HD
ATOM     33  C   UNL A   1      42.992  30.881  31.778  1.00  0.00     0.074 A 
ATOM     34  C   UNL A   1      42.768  31.666  30.562  1.00  0.00     0.031 C 
ATOM     35  C   UNL A   1      43.952  29.964  32.105  1.00  0.00     0.034 A 
BRANCH  22  36
ATOM     36  C   UNL A   1      45.454  30.842  27.044  1.00  0.00     0.023 A 
ATOM     37  C   UNL A   1      46.767  31.222  26.704  1.00  0.00     0.031 A 
ATOM     38  C   UNL A   1      44.492  31.875  26.983  1.00  0.00     0.131 A 
ATOM     39  C   UNL A   1      47.113  32.575  26.568  1.00  0.00     0.055 A 
ATOM     40  C   UNL A   1      44.830  33.215  26.767  1.00  0.00     0.041 A 
ATOM     41  F   UNL A   1      43.188  31.676  27.195  1.00  0.00    -0.206 F 
ATOM     42  C   UNL A   1      46.156  33.581  26.614  1.00  0.00     0.022 A 
BRANCH  39  43
ATOM     43  S   UNL A   1      48.874  32.991  26.593  1.00  0.00     0.124 S 
ATOM     44  O   UNL A   1      49.470  31.662  26.520  1.00  0.00    -0.237 OA
ATOM     45  O   UNL A   1      49.000  33.821  25.400  1.00  0.00    -0.237 OA
ATOM     46  O   UNL A   1      49.037  33.690  27.864  1.00  0.00    -0.744 OA
ENDBRANCH  39  43
ENDBRANCH  22  36
BRANCH  23  47
ATOM     47  C   UNL A   1      38.311  31.581  31.402  1.00  0.00     0.023 A 
ATOM     48  C   UNL A   1      37.655  32.079  32.555  1.00  0.00     0.031 A 
ATOM     49  C   UNL A   1      37.861  32.094  30.162  1.00  0.00     0.131 A 
ATOM     50  C   UNL A   1      36.609  33.035  32.435  1.00  0.00     0.055 A 
ATOM     51  C   UNL A   1      36.835  33.035  30.050  1.00  0.00     0.041 A 
ATOM     52  F   UNL A   1      38.467  31.762  29.012  1.00  0.00    -0.206 F 
ATOM     53  C   UNL A   1      36.209  33.517  31.186  1.00  0.00     0.022 A 
BRANCH  50  54
ATOM     54  S   UNL A   1      35.787  33.740  33.908  1.00  0.00     0.124 S 
ATOM     55  O   UNL A   1      36.414  33.003  34.999  1.00  0.00    -0.237 OA
ATOM     56  O   UNL A   1      36.113  35.157  33.808  1.00  0.00    -0.237 OA
ATOM     57  O   UNL A   1      34.373  33.425  33.696  1.00  0.00    -0.744 OA
ENDBRANCH  50  54
ENDBRANCH  23  47
BRANCH  35  58
ATOM     58  C   UNL A   1      43.830  29.221  33.419  1.00  0.00     0.023 A 
ATOM     59  C   UNL A   1      42.975  28.121  33.661  1.00  0.00     0.031 A 
ATOM     60  C   UNL A   1      44.721  29.590  34.443  1.00  0.00     0.131 A 
ATOM     61  C   UNL A   1      43.025  27.449  34.900  1.00  0.00     0.055 A 
ATOM     62  C   UNL A   1      44.784  28.911  35.657  1.00  0.00     0.041 A 
ATOM     63  F   UNL A   1      45.581  30.607  34.264  1.00  0.00    -0.206 F 
ATOM     64  C   UNL A   1      43.929  27.842  35.894  1.00  0.00     0.022 A 
BRANCH  61  65
ATOM     65  S   UNL A   1      41.901  26.060  35.260  1.00  0.00     0.124 S 
ATOM     66  O   UNL A   1      41.874  26.009  36.716  1.00  0.00    -0.237 OA
ATOM     67  O   UNL A   1      40.662  26.483  34.612  1.00  0.00    -0.237 OA
ATOM     68  O   UNL A   1      42.557  24.917  34.623  1.00  0.00    -0.744 OA
ENDBRANCH  61  65
ENDBRANCH  35  58
ENDBRANCH   9  10
ENDBRANCH   2   4
ENDBRANCH   1   2
BRANCH   1  69
ATOM     69  C   UNL A   1      40.677  19.737  26.517  1.00  0.00     0.275 C 
BRANCH  69  70
ATOM     70  C   UNL A   1      42.001  18.995  26.344  1.00  0.00     0.275 C 
BRANCH  70  71
ATOM     71  O   UNL A   1      42.634  19.369  25.109  1.00  0.00    -0.458 OA
BRANCH  71  72
ATOM     72  C   UNL A   1      43.995  19.317  25.075  1.00  0.00     0.348 C 
ATOM     73  O   UNL A   1      44.669  18.288  25.017  1.00  0.00    -0.245 OA
BRANCH  72  74
ATOM     74  C   UNL A   1      44.509  20.660  25.168  1.00  0.00     0.114 A 
ATOM     75  C   UNL A   1      43.822  21.783  25.578  1.00  0.00     0.047 A 
ATOM     76  S   UNL A   1      46.135  20.969  24.736  1.00  0.00    -0.127 S 
ATOM     77  C   UNL A   1      44.631  22.948  25.445  1.00  0.00     0.048 A 
ATOM     78  C   UNL A   1      45.872  22.681  24.929  1.00  0.00     0.047 A 
ATOM     79  S   UNL A   1      44.403  24.651  25.756  1.00  0.00    -0.122 S 
ATOM     80  C   UNL A   1      46.631  23.864  24.672  1.00  0.00     0.052 A 
ATOM     81  C   UNL A   1      45.925  24.963  25.084  1.00  0.00     0.095 A 
ATOM     82  Cl  UNL A   1      46.466  26.595  24.987  1.00  0.00    -0.072 Cl
ENDBRANCH  72  74
ENDBRANCH  71  72
ENDBRANCH  70  71
ENDBRANCH  69  70
ENDBRANCH   1  69
TORSDOF 14
ENDMDL
