MODEL 1
REMARK VINA RESULT:     -12.5      0.000      0.000
REMARK SMILES Cc1c(C(=O)N[C@H]2C=C[C@@H](C(=O)OCCOC(=O)c3ccc(-c4c5nc(c(-c6cc(S(=O)(=O)[O-])ccc6F)c6ccc([nH]6)c(-c6cc(S(=O)(=O)[O-])ccc6F)c6nc(c(-c7cc(S(=O)(=O)[O-])ccc7F)c7ccc4[nH]7)C=C6)C=C5)cc3)C2)oc2ccccc12
REMARK SMILES IDX 15 1 14 2 13 3 11 4 12 5 10 6 7 7 8 8 82 9 9 10 6 11 4 12
REMARK SMILES IDX 5 13 3 15 1 16 2 17 89 18 83 19 84 20 88 21 85 22 87 23
REMARK SMILES IDX 86 24 16 25 17 26 18 27 19 28 20 29 81 30 21 31 80 32 22 33
REMARK SMILES IDX 23 34 24 35 74 36 25 37 79 38 73 39 75 40 26 41 78 42 72 43
REMARK SMILES IDX 71 44 27 46 59 47 39 48 58 49 40 50 43 51 57 52 76 53 41 54
REMARK SMILES IDX 42 55 56 57 77 58 44 59 28 60 29 61 37 62 30 63 36 64 38 65
REMARK SMILES IDX 35 66 31 67 32 68 33 69 34 70 60 71 61 72 69 73 62 74 68 75
REMARK SMILES IDX 70 76 67 77 63 78 64 79 65 80 66 81 45 82 46 83 54 84 47 85
REMARK SMILES IDX 53 86 55 87 52 88 48 89 49 90 50 91 51 92
REMARK H PARENT 6 14 75 45 43 56
REMARK Flexibility Score: inf
ROOT
ATOM      1  C   UNL A   1      37.700  20.839  24.640  1.00  0.00     0.275 C 
ENDROOT
BRANCH   1   2
ATOM      2  C   UNL A   1      36.530  19.882  24.884  1.00  0.00     0.274 C 
BRANCH   2   3
ATOM      3  O   UNL A   1      35.357  20.592  25.329  1.00  0.00    -0.462 OA
BRANCH   3   4
ATOM      4  C   UNL A   1      34.170  20.070  24.935  1.00  0.00     0.312 C 
ATOM      5  O   UNL A   1      33.855  18.890  25.054  1.00  0.00    -0.252 OA
BRANCH   4   6
ATOM      6  C   UNL A   1      33.236  21.075  24.293  1.00  0.00     0.124 C 
ATOM      7  C   UNL A   1      32.585  22.818  22.860  1.00  0.00     0.106 C 
ATOM      8  C   UNL A   1      31.973  21.538  22.378  1.00  0.00    -0.006 C 
ATOM      9  C   UNL A   1      33.834  22.258  23.541  1.00  0.00     0.048 C 
ATOM     10  C   UNL A   1      32.308  20.547  23.226  1.00  0.00    -0.014 C 
BRANCH   7  11
ATOM     11  N   UNL A   1      32.856  23.775  21.848  1.00  0.00    -0.343 N 
ATOM     12  C   UNL A   1      33.095  25.131  21.965  1.00  0.00     0.287 C 
ATOM     13  O   UNL A   1      33.296  25.678  20.873  1.00  0.00    -0.266 OA
ATOM     14  H   UNL A   1      32.879  23.421  20.929  1.00  0.00     0.164 HD
BRANCH  12  15
ATOM     15  C   UNL A   1      33.073  25.902  23.222  1.00  0.00     0.195 A 
ATOM     16  C   UNL A   1      34.698  25.082  25.146  1.00  0.00     0.049 C 
ATOM     17  C   UNL A   1      33.658  25.915  24.501  1.00  0.00     0.008 A 
ATOM     18  C   UNL A   1      33.102  27.033  25.210  1.00  0.00     0.024 A 
ATOM     19  O   UNL A   1      32.230  27.003  23.151  1.00  0.00    -0.451 OA
ATOM     20  C   UNL A   1      32.268  27.679  24.323  1.00  0.00     0.135 A 
ATOM     21  C   UNL A   1      33.265  27.575  26.502  1.00  0.00     0.012 A 
ATOM     22  C   UNL A   1      31.587  28.859  24.614  1.00  0.00     0.048 A 
ATOM     23  C   UNL A   1      32.595  28.757  26.829  1.00  0.00     0.001 A 
ATOM     24  C   UNL A   1      31.777  29.393  25.896  1.00  0.00     0.004 A 
ENDBRANCH  12  15
ENDBRANCH   7  11
ENDBRANCH   4   6
ENDBRANCH   3   4
ENDBRANCH   2   3
ENDBRANCH   1   2
BRANCH   1  25
ATOM     25  O   UNL A   1      37.934  21.720  25.756  1.00  0.00    -0.458 OA
BRANCH  25  26
ATOM     26  C   UNL A   1      39.155  21.605  26.323  1.00  0.00     0.338 C 
ATOM     27  O   UNL A   1      39.857  20.600  26.348  1.00  0.00    -0.246 OA
BRANCH  26  28
ATOM     28  C   UNL A   1      39.609  22.894  26.863  1.00  0.00     0.060 A 
ATOM     29  C   UNL A   1      38.912  24.046  26.490  1.00  0.00     0.016 A 
ATOM     30  C   UNL A   1      40.772  22.990  27.630  1.00  0.00     0.016 A 
ATOM     31  C   UNL A   1      39.398  25.304  26.845  1.00  0.00     0.010 A 
ATOM     32  C   UNL A   1      41.243  24.253  28.007  1.00  0.00     0.010 A 
ATOM     33  C   UNL A   1      40.573  25.420  27.600  1.00  0.00    -0.014 A 
BRANCH  33  34
ATOM     34  C   UNL A   1      41.111  26.765  27.944  1.00  0.00     0.031 A 
ATOM     35  C   UNL A   1      42.535  27.121  27.615  1.00  0.00     0.074 A 
ATOM     36  C   UNL A   1      40.318  27.667  28.551  1.00  0.00     0.049 A 
ATOM     37  N   UNL A   1      43.201  28.215  27.888  1.00  0.00    -0.248 NA
ATOM     38  C   UNL A   1      43.311  26.107  26.891  1.00  0.00     0.031 C 
ATOM     39  C   UNL A   1      38.911  27.456  28.893  1.00  0.00     0.029 A 
ATOM     40  N   UNL A   1      40.582  28.940  28.990  1.00  0.00    -0.354 N 
ATOM     41  C   UNL A   1      44.483  28.017  27.384  1.00  0.00     0.074 A 
ATOM     42  C   UNL A   1      44.503  26.681  26.820  1.00  0.00     0.031 C 
ATOM     43  C   UNL A   1      38.431  28.567  29.475  1.00  0.00     0.029 A 
ATOM     44  C   UNL A   1      39.508  29.547  29.597  1.00  0.00     0.049 A 
ATOM     45  H   UNL A   1      41.457  29.378  28.879  1.00  0.00     0.167 HD
ATOM     46  C   UNL A   1      45.540  28.870  27.386  1.00  0.00     0.034 A 
ATOM     47  C   UNL A   1      39.407  30.745  30.204  1.00  0.00     0.034 A 
ATOM     48  C   UNL A   1      45.504  30.199  27.953  1.00  0.00     0.049 A 
ATOM     49  C   UNL A   1      40.617  31.639  30.275  1.00  0.00     0.074 A 
ATOM     50  C   UNL A   1      46.502  31.159  27.968  1.00  0.00     0.029 A 
ATOM     51  N   UNL A   1      44.419  30.753  28.622  1.00  0.00    -0.354 N 
ATOM     52  N   UNL A   1      41.820  31.443  29.788  1.00  0.00    -0.248 NA
ATOM     53  C   UNL A   1      40.451  32.915  30.982  1.00  0.00     0.031 C 
ATOM     54  C   UNL A   1      46.048  32.259  28.707  1.00  0.00     0.029 A 
ATOM     55  C   UNL A   1      44.739  32.020  29.090  1.00  0.00     0.049 A 
ATOM     56  H   UNL A   1      43.548  30.309  28.746  1.00  0.00     0.167 HD
ATOM     57  C   UNL A   1      42.547  32.586  30.107  1.00  0.00     0.074 A 
ATOM     58  C   UNL A   1      41.645  33.467  30.820  1.00  0.00     0.031 C 
ATOM     59  C   UNL A   1      43.842  32.883  29.824  1.00  0.00     0.034 A 
BRANCH  46  60
ATOM     60  C   UNL A   1      46.839  28.360  26.806  1.00  0.00     0.023 A 
ATOM     61  C   UNL A   1      47.082  28.351  25.421  1.00  0.00     0.031 A 
ATOM     62  C   UNL A   1      47.831  27.825  27.648  1.00  0.00     0.131 A 
ATOM     63  C   UNL A   1      48.240  27.740  24.916  1.00  0.00     0.055 A 
ATOM     64  C   UNL A   1      49.020  27.295  27.145  1.00  0.00     0.041 A 
ATOM     65  F   UNL A   1      47.651  27.788  28.978  1.00  0.00    -0.206 F 
ATOM     66  C   UNL A   1      49.222  27.231  25.769  1.00  0.00     0.022 A 
BRANCH  63  67
ATOM     67  S   UNL A   1      48.360  27.457  23.128  1.00  0.00     0.124 S 
ATOM     68  O   UNL A   1      47.204  28.201  22.634  1.00  0.00    -0.237 OA
ATOM     69  O   UNL A   1      49.668  28.018  22.810  1.00  0.00    -0.237 OA
ATOM     70  O   UNL A   1      48.255  26.005  23.003  1.00  0.00    -0.744 OA
ENDBRANCH  63  67
ENDBRANCH  46  60
BRANCH  47  71
ATOM     71  C   UNL A   1      38.118  31.163  30.822  1.00  0.00     0.023 A 
ATOM     72  C   UNL A   1      37.144  31.833  30.067  1.00  0.00     0.031 A 
ATOM     73  C   UNL A   1      37.853  30.919  32.181  1.00  0.00     0.131 A 
ATOM     74  C   UNL A   1      35.959  32.264  30.683  1.00  0.00     0.055 A 
ATOM     75  C   UNL A   1      36.655  31.310  32.779  1.00  0.00     0.041 A 
ATOM     76  F   UNL A   1      38.753  30.278  32.944  1.00  0.00    -0.206 F 
ATOM     77  C   UNL A   1      35.702  31.995  32.031  1.00  0.00     0.022 A 
BRANCH  74  78
ATOM     78  S   UNL A   1      34.774  33.227  29.706  1.00  0.00     0.124 S 
ATOM     79  O   UNL A   1      33.853  33.697  30.735  1.00  0.00    -0.237 OA
ATOM     80  O   UNL A   1      35.632  34.240  29.100  1.00  0.00    -0.237 OA
ATOM     81  O   UNL A   1      34.222  32.244  28.775  1.00  0.00    -0.744 OA
ENDBRANCH  74  78
ENDBRANCH  47  71
BRANCH  59  82
ATOM     82  C   UNL A   1      44.340  34.242  30.258  1.00  0.00     0.023 A 
ATOM     83  C   UNL A   1      44.173  35.384  29.455  1.00  0.00     0.031 A 
ATOM     84  C   UNL A   1      45.015  34.388  31.482  1.00  0.00     0.131 A 
ATOM     85  C   UNL A   1      44.721  36.611  29.861  1.00  0.00     0.055 A 
ATOM     86  C   UNL A   1      45.510  35.623  31.907  1.00  0.00     0.041 A 
ATOM     87  F   UNL A   1      45.208  33.331  32.287  1.00  0.00    -0.206 F 
ATOM     88  C   UNL A   1      45.375  36.740  31.088  1.00  0.00     0.022 A 
BRANCH  85  89
ATOM     89  S   UNL A   1      44.650  38.020  28.719  1.00  0.00     0.124 S 
ATOM     90  O   UNL A   1      45.065  39.125  29.575  1.00  0.00    -0.237 OA
ATOM     91  O   UNL A   1      45.594  37.628  27.678  1.00  0.00    -0.237 OA
ATOM     92  O   UNL A   1      43.248  38.053  28.302  1.00  0.00    -0.744 OA
ENDBRANCH  85  89
ENDBRANCH  59  82
ENDBRANCH  33  34
ENDBRANCH  26  28
ENDBRANCH  25  26
ENDBRANCH   1  25
TORSDOF 16
ENDMDL
MODEL 2
REMARK VINA RESULT:     -12.5      1.366      7.625
REMARK SMILES Cc1c(C(=O)N[C@H]2C=C[C@@H](C(=O)OCCOC(=O)c3ccc(-c4c5nc(c(-c6cc(S(=O)(=O)[O-])ccc6F)c6ccc([nH]6)c(-c6cc(S(=O)(=O)[O-])ccc6F)c6nc(c(-c7cc(S(=O)(=O)[O-])ccc7F)c7ccc4[nH]7)C=C6)C=C5)cc3)C2)oc2ccccc12
REMARK SMILES IDX 15 1 14 2 13 3 11 4 12 5 10 6 7 7 8 8 82 9 9 10 6 11 4 12
REMARK SMILES IDX 5 13 3 15 1 16 2 17 89 18 83 19 84 20 88 21 85 22 87 23
REMARK SMILES IDX 86 24 16 25 17 26 18 27 19 28 20 29 81 30 21 31 80 32 22 33
REMARK SMILES IDX 23 34 24 35 74 36 25 37 79 38 73 39 75 40 26 41 78 42 72 43
REMARK SMILES IDX 71 44 27 46 59 47 39 48 58 49 40 50 43 51 57 52 76 53 41 54
REMARK SMILES IDX 42 55 56 57 77 58 44 59 28 60 29 61 37 62 30 63 36 64 38 65
REMARK SMILES IDX 35 66 31 67 32 68 33 69 34 70 60 71 61 72 69 73 62 74 68 75
REMARK SMILES IDX 70 76 67 77 63 78 64 79 65 80 66 81 45 82 46 83 54 84 47 85
REMARK SMILES IDX 53 86 55 87 52 88 48 89 49 90 50 91 51 92
REMARK H PARENT 6 14 75 45 43 56
REMARK Flexibility Score: inf
ROOT
ATOM      1  C   UNL A   1      36.751  20.084  24.996  1.00  0.00     0.275 C 
ENDROOT
BRANCH   1   2
ATOM      2  C   UNL A   1      35.375  20.626  25.391  1.00  0.00     0.274 C 
BRANCH   2   3
ATOM      3  O   UNL A   1      34.330  20.029  24.597  1.00  0.00    -0.462 OA
BRANCH   3   4
ATOM      4  C   UNL A   1      33.077  20.487  24.834  1.00  0.00     0.312 C 
ATOM      5  O   UNL A   1      32.145  19.793  25.230  1.00  0.00    -0.252 OA
BRANCH   4   6
ATOM      6  C   UNL A   1      32.894  21.963  24.544  1.00  0.00     0.124 C 
ATOM      7  C   UNL A   1      32.910  23.938  23.273  1.00  0.00     0.106 C 
ATOM      8  C   UNL A   1      31.489  23.537  23.531  1.00  0.00    -0.006 C 
ATOM      9  C   UNL A   1      33.571  22.560  23.316  1.00  0.00     0.048 C 
ATOM     10  C   UNL A   1      31.480  22.431  24.298  1.00  0.00    -0.014 C 
BRANCH   7  11
ATOM     11  N   UNL A   1      33.127  24.647  22.063  1.00  0.00    -0.343 N 
ATOM     12  C   UNL A   1      33.055  26.004  21.818  1.00  0.00     0.287 C 
ATOM     13  O   UNL A   1      33.302  26.292  20.639  1.00  0.00    -0.266 OA
ATOM     14  H   UNL A   1      33.365  24.090  21.286  1.00  0.00     0.164 HD
BRANCH  12  15
ATOM     15  C   UNL A   1      32.678  27.037  22.802  1.00  0.00     0.195 A 
ATOM     16  C   UNL A   1      30.239  28.047  22.585  1.00  0.00     0.049 C 
ATOM     17  C   UNL A   1      31.604  27.882  23.134  1.00  0.00     0.008 A 
ATOM     18  C   UNL A   1      32.006  28.647  24.281  1.00  0.00     0.024 A 
ATOM     19  O   UNL A   1      33.672  27.254  23.746  1.00  0.00    -0.451 OA
ATOM     20  C   UNL A   1      33.260  28.193  24.630  1.00  0.00     0.135 A 
ATOM     21  C   UNL A   1      31.405  29.646  25.073  1.00  0.00     0.012 A 
ATOM     22  C   UNL A   1      33.969  28.643  25.741  1.00  0.00     0.048 A 
ATOM     23  C   UNL A   1      32.088  30.123  26.195  1.00  0.00     0.001 A 
ATOM     24  C   UNL A   1      33.346  29.623  26.527  1.00  0.00     0.004 A 
ENDBRANCH  12  15
ENDBRANCH   7  11
ENDBRANCH   4   6
ENDBRANCH   3   4
ENDBRANCH   2   3
ENDBRANCH   1   2
BRANCH   1  25
ATOM     25  O   UNL A   1      37.766  21.106  24.993  1.00  0.00    -0.458 OA
BRANCH  25  26
ATOM     26  C   UNL A   1      38.861  20.821  25.730  1.00  0.00     0.338 C 
ATOM     27  O   UNL A   1      39.364  19.715  25.895  1.00  0.00    -0.246 OA
BRANCH  26  28
ATOM     28  C   UNL A   1      39.464  22.047  26.274  1.00  0.00     0.060 A 
ATOM     29  C   UNL A   1      38.886  23.272  25.934  1.00  0.00     0.016 A 
ATOM     30  C   UNL A   1      40.649  22.006  27.011  1.00  0.00     0.016 A 
ATOM     31  C   UNL A   1      39.512  24.465  26.292  1.00  0.00     0.010 A 
ATOM     32  C   UNL A   1      41.263  23.206  27.391  1.00  0.00     0.010 A 
ATOM     33  C   UNL A   1      40.712  24.444  27.017  1.00  0.00    -0.014 A 
BRANCH  33  34
ATOM     34  C   UNL A   1      41.398  25.717  27.364  1.00  0.00     0.031 A 
ATOM     35  C   UNL A   1      40.710  26.744  28.221  1.00  0.00     0.074 A 
ATOM     36  C   UNL A   1      42.643  25.951  26.908  1.00  0.00     0.049 A 
ATOM     37  N   UNL A   1      41.119  27.935  28.579  1.00  0.00    -0.248 NA
ATOM     38  C   UNL A   1      39.383  26.382  28.734  1.00  0.00     0.031 C 
ATOM     39  C   UNL A   1      43.431  25.023  26.097  1.00  0.00     0.029 A 
ATOM     40  N   UNL A   1      43.463  27.041  27.061  1.00  0.00    -0.354 N 
ATOM     41  C   UNL A   1      40.093  28.476  29.348  1.00  0.00     0.074 A 
ATOM     42  C   UNL A   1      39.030  27.489  29.370  1.00  0.00     0.031 C 
ATOM     43  C   UNL A   1      44.627  25.576  25.836  1.00  0.00     0.029 A 
ATOM     44  C   UNL A   1      44.670  26.918  26.413  1.00  0.00     0.049 A 
ATOM     45  H   UNL A   1      43.212  27.835  27.586  1.00  0.00     0.167 HD
ATOM     46  C   UNL A   1      40.044  29.678  29.979  1.00  0.00     0.034 A 
ATOM     47  C   UNL A   1      45.685  27.793  26.278  1.00  0.00     0.034 A 
ATOM     48  C   UNL A   1      41.112  30.651  29.947  1.00  0.00     0.049 A 
ATOM     49  C   UNL A   1      45.572  29.155  26.911  1.00  0.00     0.074 A 
ATOM     50  C   UNL A   1      41.183  31.877  30.586  1.00  0.00     0.029 A 
ATOM     51  N   UNL A   1      42.290  30.520  29.221  1.00  0.00    -0.354 N 
ATOM     52  N   UNL A   1      44.600  29.650  27.640  1.00  0.00    -0.248 NA
ATOM     53  C   UNL A   1      46.696  30.075  26.695  1.00  0.00     0.031 C 
ATOM     54  C   UNL A   1      42.365  32.516  30.191  1.00  0.00     0.029 A 
ATOM     55  C   UNL A   1      43.071  31.658  29.364  1.00  0.00     0.049 A 
ATOM     56  H   UNL A   1      42.535  29.732  28.683  1.00  0.00     0.167 HD
ATOM     57  C   UNL A   1      45.009  30.933  27.995  1.00  0.00     0.074 A 
ATOM     58  C   UNL A   1      46.318  31.129  27.405  1.00  0.00     0.031 C 
ATOM     59  C   UNL A   1      44.364  31.859  28.751  1.00  0.00     0.034 A 
BRANCH  46  60
ATOM     60  C   UNL A   1      38.765  30.023  30.708  1.00  0.00     0.023 A 
ATOM     61  C   UNL A   1      37.730  30.747  30.090  1.00  0.00     0.031 A 
ATOM     62  C   UNL A   1      38.600  29.666  32.059  1.00  0.00     0.131 A 
ATOM     63  C   UNL A   1      36.623  31.168  30.844  1.00  0.00     0.055 A 
ATOM     64  C   UNL A   1      37.457  30.015  32.780  1.00  0.00     0.041 A 
ATOM     65  F   UNL A   1      39.561  28.991  32.709  1.00  0.00    -0.206 F 
ATOM     66  C   UNL A   1      36.468  30.788  32.179  1.00  0.00     0.022 A 
BRANCH  63  67
ATOM     67  S   UNL A   1      35.480  32.369  30.106  1.00  0.00     0.124 S 
ATOM     68  O   UNL A   1      36.345  33.533  29.936  1.00  0.00    -0.237 OA
ATOM     69  O   UNL A   1      35.066  31.693  28.882  1.00  0.00    -0.237 OA
ATOM     70  O   UNL A   1      34.440  32.519  31.121  1.00  0.00    -0.744 OA
ENDBRANCH  63  67
ENDBRANCH  46  60
BRANCH  47  71
ATOM     71  C   UNL A   1      46.890  27.421  25.487  1.00  0.00     0.023 A 
ATOM     72  C   UNL A   1      47.025  27.826  24.150  1.00  0.00     0.031 A 
ATOM     73  C   UNL A   1      47.912  26.637  26.049  1.00  0.00     0.131 A 
ATOM     74  C   UNL A   1      48.145  27.420  23.409  1.00  0.00     0.055 A 
ATOM     75  C   UNL A   1      49.046  26.273  25.322  1.00  0.00     0.041 A 
ATOM     76  F   UNL A   1      47.830  26.228  27.326  1.00  0.00    -0.206 F 
ATOM     77  C   UNL A   1      49.163  26.658  23.989  1.00  0.00     0.022 A 
BRANCH  74  78
ATOM     78  S   UNL A   1      48.230  27.864  21.653  1.00  0.00     0.124 S 
ATOM     79  O   UNL A   1      46.890  28.386  21.413  1.00  0.00    -0.237 OA
ATOM     80  O   UNL A   1      49.313  28.843  21.640  1.00  0.00    -0.237 OA
ATOM     81  O   UNL A   1      48.534  26.595  20.996  1.00  0.00    -0.744 OA
ENDBRANCH  74  78
ENDBRANCH  47  71
BRANCH  59  82
ATOM     82  C   UNL A   1      45.095  33.155  29.011  1.00  0.00     0.023 A 
ATOM     83  C   UNL A   1      44.889  34.295  28.213  1.00  0.00     0.031 A 
ATOM     84  C   UNL A   1      46.030  33.240  30.057  1.00  0.00     0.131 A 
ATOM     85  C   UNL A   1      45.648  35.454  28.441  1.00  0.00     0.055 A 
ATOM     86  C   UNL A   1      46.742  34.413  30.314  1.00  0.00     0.041 A 
ATOM     87  F   UNL A   1      46.270  32.181  30.847  1.00  0.00    -0.206 F 
ATOM     88  C   UNL A   1      46.562  35.525  29.496  1.00  0.00     0.022 A 
BRANCH  85  89
ATOM     89  S   UNL A   1      45.493  36.841  27.282  1.00  0.00     0.124 S 
ATOM     90  O   UNL A   1      46.451  36.477  26.243  1.00  0.00    -0.237 OA
ATOM     91  O   UNL A   1      44.086  36.777  26.903  1.00  0.00    -0.237 OA
ATOM     92  O   UNL A   1      45.865  38.004  28.086  1.00  0.00    -0.744 OA
ENDBRANCH  85  89
ENDBRANCH  59  82
ENDBRANCH  33  34
ENDBRANCH  26  28
ENDBRANCH  25  26
ENDBRANCH   1  25
TORSDOF 16
ENDMDL
MODEL 3
REMARK VINA RESULT:     -12.3      4.964      7.784
REMARK SMILES Cc1c(C(=O)N[C@H]2C=C[C@@H](C(=O)OCCOC(=O)c3ccc(-c4c5nc(c(-c6cc(S(=O)(=O)[O-])ccc6F)c6ccc([nH]6)c(-c6cc(S(=O)(=O)[O-])ccc6F)c6nc(c(-c7cc(S(=O)(=O)[O-])ccc7F)c7ccc4[nH]7)C=C6)C=C5)cc3)C2)oc2ccccc12
REMARK SMILES IDX 15 1 14 2 13 3 11 4 12 5 10 6 7 7 8 8 82 9 9 10 6 11 4 12
REMARK SMILES IDX 5 13 3 15 1 16 2 17 89 18 83 19 84 20 88 21 85 22 87 23
REMARK SMILES IDX 86 24 16 25 17 26 18 27 19 28 20 29 81 30 21 31 80 32 22 33
REMARK SMILES IDX 23 34 24 35 74 36 25 37 79 38 73 39 75 40 26 41 78 42 72 43
REMARK SMILES IDX 71 44 27 46 59 47 39 48 58 49 40 50 43 51 57 52 76 53 41 54
REMARK SMILES IDX 42 55 56 57 77 58 44 59 28 60 29 61 37 62 30 63 36 64 38 65
REMARK SMILES IDX 35 66 31 67 32 68 33 69 34 70 60 71 61 72 69 73 62 74 68 75
REMARK SMILES IDX 70 76 67 77 63 78 64 79 65 80 66 81 45 82 46 83 54 84 47 85
REMARK SMILES IDX 53 86 55 87 52 88 48 89 49 90 50 91 51 92
REMARK H PARENT 6 14 75 45 43 56
REMARK Flexibility Score: inf
ROOT
ATOM      1  C   UNL A   1      31.476  30.993  26.037  1.00  0.00     0.275 C 
ENDROOT
BRANCH   1   2
ATOM      2  C   UNL A   1      31.478  29.881  24.986  1.00  0.00     0.274 C 
BRANCH   2   3
ATOM      3  O   UNL A   1      30.310  29.954  24.145  1.00  0.00    -0.462 OA
BRANCH   3   4
ATOM      4  C   UNL A   1      30.334  29.174  23.037  1.00  0.00     0.312 C 
ATOM      5  O   UNL A   1      30.528  29.589  21.898  1.00  0.00    -0.252 OA
BRANCH   4   6
ATOM      6  C   UNL A   1      30.073  27.706  23.308  1.00  0.00     0.124 C 
ATOM      7  C   UNL A   1      29.947  25.725  24.564  1.00  0.00     0.106 C 
ATOM      8  C   UNL A   1      28.558  26.192  24.248  1.00  0.00    -0.006 C 
ATOM      9  C   UNL A   1      30.669  27.073  24.559  1.00  0.00     0.048 C 
ATOM     10  C   UNL A   1      28.631  27.301  23.489  1.00  0.00    -0.014 C 
BRANCH   7  11
ATOM     11  N   UNL A   1      30.079  25.001  25.776  1.00  0.00    -0.343 N 
ATOM     12  C   UNL A   1      31.120  24.204  26.212  1.00  0.00     0.287 C 
ATOM     13  O   UNL A   1      30.911  23.711  27.328  1.00  0.00    -0.266 OA
ATOM     14  H   UNL A   1      29.319  25.078  26.398  1.00  0.00     0.164 HD
BRANCH  12  15
ATOM     15  C   UNL A   1      32.344  23.896  25.448  1.00  0.00     0.195 A 
ATOM     16  C   UNL A   1      32.031  23.349  22.876  1.00  0.00     0.049 C 
ATOM     17  C   UNL A   1      32.756  23.534  24.153  1.00  0.00     0.008 A 
ATOM     18  C   UNL A   1      34.186  23.401  24.185  1.00  0.00     0.024 A 
ATOM     19  O   UNL A   1      33.492  24.022  26.219  1.00  0.00    -0.451 OA
ATOM     20  C   UNL A   1      34.579  23.747  25.460  1.00  0.00     0.135 A 
ATOM     21  C   UNL A   1      35.176  23.062  23.241  1.00  0.00     0.012 A 
ATOM     22  C   UNL A   1      35.908  23.810  25.874  1.00  0.00     0.048 A 
ATOM     23  C   UNL A   1      36.520  23.111  23.622  1.00  0.00     0.001 A 
ATOM     24  C   UNL A   1      36.879  23.488  24.916  1.00  0.00     0.004 A 
ENDBRANCH  12  15
ENDBRANCH   7  11
ENDBRANCH   4   6
ENDBRANCH   3   4
ENDBRANCH   2   3
ENDBRANCH   1   2
BRANCH   1  25
ATOM     25  O   UNL A   1      32.486  30.801  27.047  1.00  0.00    -0.458 OA
BRANCH  25  26
ATOM     26  C   UNL A   1      33.213  31.901  27.340  1.00  0.00     0.338 C 
ATOM     27  O   UNL A   1      32.835  33.066  27.275  1.00  0.00    -0.246 OA
BRANCH  26  28
ATOM     28  C   UNL A   1      34.543  31.534  27.847  1.00  0.00     0.060 A 
ATOM     29  C   UNL A   1      34.761  30.208  28.225  1.00  0.00     0.016 A 
ATOM     30  C   UNL A   1      35.529  32.500  28.060  1.00  0.00     0.016 A 
ATOM     31  C   UNL A   1      35.949  29.846  28.859  1.00  0.00     0.010 A 
ATOM     32  C   UNL A   1      36.732  32.129  28.673  1.00  0.00     0.010 A 
ATOM     33  C   UNL A   1      36.943  30.805  29.097  1.00  0.00    -0.014 A 
BRANCH  33  34
ATOM     34  C   UNL A   1      38.194  30.425  29.809  1.00  0.00     0.031 A 
ATOM     35  C   UNL A   1      39.182  29.492  29.165  1.00  0.00     0.074 A 
ATOM     36  C   UNL A   1      38.441  30.921  31.035  1.00  0.00     0.049 A 
ATOM     37  N   UNL A   1      40.294  28.999  29.648  1.00  0.00    -0.248 NA
ATOM     38  C   UNL A   1      38.870  29.053  27.799  1.00  0.00     0.031 C 
ATOM     39  C   UNL A   1      37.580  31.859  31.755  1.00  0.00     0.029 A 
ATOM     40  N   UNL A   1      39.489  30.703  31.895  1.00  0.00    -0.354 N 
ATOM     41  C   UNL A   1      40.811  28.174  28.653  1.00  0.00     0.074 A 
ATOM     42  C   UNL A   1      39.866  28.213  27.553  1.00  0.00     0.031 C 
ATOM     43  C   UNL A   1      38.141  32.148  32.940  1.00  0.00     0.029 A 
ATOM     44  C   UNL A   1      39.372  31.375  33.088  1.00  0.00     0.049 A 
ATOM     45  H   UNL A   1      40.253  30.121  31.677  1.00  0.00     0.167 HD
ATOM     46  C   UNL A   1      41.965  27.459  28.654  1.00  0.00     0.034 A 
ATOM     47  C   UNL A   1      40.152  31.354  34.186  1.00  0.00     0.034 A 
ATOM     48  C   UNL A   1      42.896  27.430  29.758  1.00  0.00     0.049 A 
ATOM     49  C   UNL A   1      41.381  30.484  34.200  1.00  0.00     0.074 A 
ATOM     50  C   UNL A   1      44.114  26.775  29.844  1.00  0.00     0.029 A 
ATOM     51  N   UNL A   1      42.709  28.068  30.978  1.00  0.00    -0.354 N 
ATOM     52  N   UNL A   1      41.861  29.715  33.249  1.00  0.00    -0.248 NA
ATOM     53  C   UNL A   1      42.169  30.477  35.439  1.00  0.00     0.031 C 
ATOM     54  C   UNL A   1      44.624  26.957  31.136  1.00  0.00     0.029 A 
ATOM     55  C   UNL A   1      43.765  27.788  31.834  1.00  0.00     0.049 A 
ATOM     56  H   UNL A   1      41.937  28.638  31.202  1.00  0.00     0.167 HD
ATOM     57  C   UNL A   1      43.025  29.155  33.769  1.00  0.00     0.074 A 
ATOM     58  C   UNL A   1      43.176  29.680  35.110  1.00  0.00     0.031 C 
ATOM     59  C   UNL A   1      43.896  28.293  33.182  1.00  0.00     0.034 A 
BRANCH  46  60
ATOM     60  C   UNL A   1      42.247  26.604  27.439  1.00  0.00     0.023 A 
ATOM     61  C   UNL A   1      41.818  25.267  27.355  1.00  0.00     0.031 A 
ATOM     62  C   UNL A   1      43.003  27.117  26.370  1.00  0.00     0.131 A 
ATOM     63  C   UNL A   1      42.223  24.468  26.275  1.00  0.00     0.055 A 
ATOM     64  C   UNL A   1      43.331  26.341  25.257  1.00  0.00     0.041 A 
ATOM     65  F   UNL A   1      43.458  28.380  26.399  1.00  0.00    -0.206 F 
ATOM     66  C   UNL A   1      42.957  25.001  25.213  1.00  0.00     0.022 A 
BRANCH  63  67
ATOM     67  S   UNL A   1      41.929  22.679  26.364  1.00  0.00     0.124 S 
ATOM     68  O   UNL A   1      42.592  22.212  25.149  1.00  0.00    -0.237 OA
ATOM     69  O   UNL A   1      42.571  22.320  27.623  1.00  0.00    -0.237 OA
ATOM     70  O   UNL A   1      40.473  22.570  26.349  1.00  0.00    -0.744 OA
ENDBRANCH  63  67
ENDBRANCH  46  60
BRANCH  47  71
ATOM     71  C   UNL A   1      39.783  32.164  35.380  1.00  0.00     0.023 A 
ATOM     72  C   UNL A   1      38.919  31.650  36.358  1.00  0.00     0.031 A 
ATOM     73  C   UNL A   1      40.272  33.472  35.547  1.00  0.00     0.131 A 
ATOM     74  C   UNL A   1      38.544  32.451  37.447  1.00  0.00     0.055 A 
ATOM     75  C   UNL A   1      39.932  34.249  36.655  1.00  0.00     0.041 A 
ATOM     76  F   UNL A   1      41.105  34.007  34.639  1.00  0.00    -0.206 F 
ATOM     77  C   UNL A   1      39.055  33.742  37.609  1.00  0.00     0.022 A 
BRANCH  74  78
ATOM     78  S   UNL A   1      37.336  31.796  38.630  1.00  0.00     0.124 S 
ATOM     79  O   UNL A   1      38.059  31.916  39.890  1.00  0.00    -0.237 OA
ATOM     80  O   UNL A   1      36.208  32.705  38.446  1.00  0.00    -0.237 OA
ATOM     81  O   UNL A   1      37.112  30.428  38.165  1.00  0.00    -0.744 OA
ENDBRANCH  74  78
ENDBRANCH  47  71
BRANCH  59  82
ATOM     82  C   UNL A   1      45.112  27.901  33.986  1.00  0.00     0.023 A 
ATOM     83  C   UNL A   1      45.120  26.762  34.811  1.00  0.00     0.031 A 
ATOM     84  C   UNL A   1      46.271  28.694  33.945  1.00  0.00     0.131 A 
ATOM     85  C   UNL A   1      46.245  26.479  35.603  1.00  0.00     0.055 A 
ATOM     86  C   UNL A   1      47.408  28.377  34.692  1.00  0.00     0.041 A 
ATOM     87  F   UNL A   1      46.319  29.796  33.179  1.00  0.00    -0.206 F 
ATOM     88  C   UNL A   1      47.393  27.271  35.536  1.00  0.00     0.022 A 
BRANCH  85  89
ATOM     89  S   UNL A   1      46.154  25.112  36.792  1.00  0.00     0.124 S 
ATOM     90  O   UNL A   1      45.041  24.327  36.268  1.00  0.00    -0.237 OA
ATOM     91  O   UNL A   1      47.475  24.505  36.673  1.00  0.00    -0.237 OA
ATOM     92  O   UNL A   1      45.893  25.781  38.066  1.00  0.00    -0.744 OA
ENDBRANCH  85  89
ENDBRANCH  59  82
ENDBRANCH  33  34
ENDBRANCH  26  28
ENDBRANCH  25  26
ENDBRANCH   1  25
TORSDOF 16
ENDMDL
