MODEL 1
REMARK VINA RESULT:     -11.9      0.000      0.000
REMARK SMILES C[C@H]1[C@H](C(=O)OCCOC(=O)c2ccc(-c3c4nc(c(-c5cc(S(=O)(=O)[O-])ccc5F)c5ccc([nH]5)c(-c5cc(S(=O)(=O)[O-])ccc5F)c5nc(c(-c6cc(S(=O)(=O)[O-])ccc6F)c6ccc3[nH]6)C=C5)C=C4)cc2)CC[N@@H+]1[C@@H](c1ccccc1)c1ccco1
REMARK SMILES IDX 8 1 7 2 6 3 4 4 5 5 3 6 1 7 2 8 77 9 75 10 76 11 78 13 79 14
REMARK SMILES IDX 80 15 84 16 81 17 83 18 82 19 85 20 86 21 89 22 87 23 88 24
REMARK SMILES IDX 9 25 10 26 11 27 12 28 13 29 74 30 14 31 73 32 15 33 16 34
REMARK SMILES IDX 17 35 67 36 18 37 72 38 66 39 68 40 19 41 71 42 65 43 64 44
REMARK SMILES IDX 20 46 52 47 32 48 51 49 33 50 36 51 50 52 69 53 34 54 35 55
REMARK SMILES IDX 49 57 70 58 37 59 21 60 22 61 30 62 23 63 29 64 31 65 28 66
REMARK SMILES IDX 24 67 25 68 26 69 27 70 53 71 54 72 62 73 55 74 61 75 63 76
REMARK SMILES IDX 60 77 56 78 57 79 58 80 59 81 38 82 39 83 47 84 40 85 46 86
REMARK SMILES IDX 48 87 45 88 41 89 42 90 43 91 44 92
REMARK H PARENT 77 12 68 45 36 56
REMARK Flexibility Score: inf
ROOT
ATOM      1  C   UNL A   1      31.428  30.424  25.929  1.00  0.00     0.275 C 
ENDROOT
BRANCH   1   2
ATOM      2  C   UNL A   1      31.326  29.659  24.610  1.00  0.00     0.274 C 
BRANCH   2   3
ATOM      3  O   UNL A   1      31.123  28.257  24.871  1.00  0.00    -0.462 OA
BRANCH   3   4
ATOM      4  C   UNL A   1      30.614  27.505  23.868  1.00  0.00     0.315 C 
ATOM      5  O   UNL A   1      29.422  27.243  23.737  1.00  0.00    -0.252 OA
BRANCH   4   6
ATOM      6  C   UNL A   1      31.649  27.043  22.857  1.00  0.00     0.162 C 
ATOM      7  C   UNL A   1      34.012  27.811  22.415  1.00  0.00     0.076 C 
ATOM      8  C   UNL A   1      33.109  26.958  23.322  1.00  0.00     0.196 C 
ATOM      9  N   UNL A   1      33.515  25.554  23.154  1.00  0.00    -0.319 N 
ATOM     10  C   UNL A   1      31.282  25.667  22.323  1.00  0.00     0.083 C 
ATOM     11  C   UNL A   1      32.594  24.922  22.216  1.00  0.00     0.264 C 
ATOM     12  H   UNL A   1      34.442  25.510  22.731  1.00  0.00     0.349 HD
BRANCH   9  13
ATOM     13  C   UNL A   1      33.821  24.834  24.408  1.00  0.00     0.283 C 
BRANCH  13  14
ATOM     14  C   UNL A   1      32.666  24.078  25.070  1.00  0.00     0.017 A 
ATOM     15  C   UNL A   1      32.536  22.691  24.862  1.00  0.00     0.010 A 
ATOM     16  C   UNL A   1      31.710  24.709  25.880  1.00  0.00     0.010 A 
ATOM     17  C   UNL A   1      31.499  21.966  25.455  1.00  0.00     0.001 A 
ATOM     18  C   UNL A   1      30.689  23.981  26.496  1.00  0.00     0.001 A 
ATOM     19  C   UNL A   1      30.582  22.610  26.281  1.00  0.00     0.000 A 
ENDBRANCH  13  14
BRANCH  13  20
ATOM     20  C   UNL A   1      35.104  24.041  24.265  1.00  0.00     0.165 A 
ATOM     21  C   UNL A   1      36.091  23.718  25.179  1.00  0.00     0.052 A 
ATOM     22  O   UNL A   1      35.442  23.543  23.037  1.00  0.00    -0.463 OA
ATOM     23  C   UNL A   1      37.082  23.001  24.469  1.00  0.00     0.042 A 
ATOM     24  C   UNL A   1      36.638  22.921  23.171  1.00  0.00     0.195 A 
ENDBRANCH  13  20
ENDBRANCH   9  13
ENDBRANCH   4   6
ENDBRANCH   3   4
ENDBRANCH   2   3
ENDBRANCH   1   2
BRANCH   1  25
ATOM     25  O   UNL A   1      32.770  30.372  26.439  1.00  0.00    -0.458 OA
BRANCH  25  26
ATOM     26  C   UNL A   1      33.178  31.494  27.074  1.00  0.00     0.338 C 
ATOM     27  O   UNL A   1      32.548  32.520  27.253  1.00  0.00    -0.246 OA
BRANCH  26  28
ATOM     28  C   UNL A   1      34.504  31.250  27.650  1.00  0.00     0.060 A 
ATOM     29  C   UNL A   1      34.829  29.953  28.050  1.00  0.00     0.016 A 
ATOM     30  C   UNL A   1      35.386  32.304  27.860  1.00  0.00     0.016 A 
ATOM     31  C   UNL A   1      36.022  29.701  28.713  1.00  0.00     0.010 A 
ATOM     32  C   UNL A   1      36.606  32.044  28.484  1.00  0.00     0.010 A 
ATOM     33  C   UNL A   1      36.923  30.745  28.930  1.00  0.00    -0.014 A 
BRANCH  33  34
ATOM     34  C   UNL A   1      38.187  30.510  29.662  1.00  0.00     0.031 A 
ATOM     35  C   UNL A   1      39.201  29.576  29.072  1.00  0.00     0.074 A 
ATOM     36  C   UNL A   1      38.397  31.096  30.854  1.00  0.00     0.049 A 
ATOM     37  N   UNL A   1      40.230  29.006  29.638  1.00  0.00    -0.248 NA
ATOM     38  C   UNL A   1      39.015  29.228  27.656  1.00  0.00     0.031 C 
ATOM     39  C   UNL A   1      37.515  32.086  31.477  1.00  0.00     0.029 A 
ATOM     40  N   UNL A   1      39.404  30.924  31.769  1.00  0.00    -0.354 N 
ATOM     41  C   UNL A   1      40.790  28.191  28.661  1.00  0.00     0.074 A 
ATOM     42  C   UNL A   1      39.980  28.338  27.471  1.00  0.00     0.031 C 
ATOM     43  C   UNL A   1      38.012  32.419  32.679  1.00  0.00     0.029 A 
ATOM     44  C   UNL A   1      39.193  31.605  32.945  1.00  0.00     0.049 A 
ATOM     45  H   UNL A   1      40.199  30.368  31.600  1.00  0.00     0.167 HD
ATOM     46  C   UNL A   1      41.877  27.387  28.765  1.00  0.00     0.034 A 
ATOM     47  C   UNL A   1      39.840  31.528  34.124  1.00  0.00     0.034 A 
ATOM     48  C   UNL A   1      42.665  27.278  29.969  1.00  0.00     0.049 A 
ATOM     49  C   UNL A   1      40.994  30.567  34.247  1.00  0.00     0.074 A 
ATOM     50  C   UNL A   1      43.783  26.498  30.203  1.00  0.00     0.029 A 
ATOM     51  N   UNL A   1      42.413  27.975  31.146  1.00  0.00    -0.354 N 
ATOM     52  N   UNL A   1      41.483  29.748  33.344  1.00  0.00    -0.248 NA
ATOM     53  C   UNL A   1      41.676  30.510  35.545  1.00  0.00     0.031 C 
ATOM     54  C   UNL A   1      44.170  26.677  31.536  1.00  0.00     0.029 A 
ATOM     55  C   UNL A   1      43.339  27.626  32.113  1.00  0.00     0.049 A 
ATOM     56  H   UNL A   1      41.681  28.622  31.272  1.00  0.00     0.167 HD
ATOM     57  C   UNL A   1      42.554  29.104  33.955  1.00  0.00     0.074 A 
ATOM     58  C   UNL A   1      42.636  29.627  35.305  1.00  0.00     0.031 C 
ATOM     59  C   UNL A   1      43.400  28.172  33.449  1.00  0.00     0.034 A 
BRANCH  46  60
ATOM     60  C   UNL A   1      42.218  26.522  27.577  1.00  0.00     0.023 A 
ATOM     61  C   UNL A   1      41.754  25.201  27.457  1.00  0.00     0.031 A 
ATOM     62  C   UNL A   1      43.064  27.016  26.566  1.00  0.00     0.131 A 
ATOM     63  C   UNL A   1      42.193  24.399  26.391  1.00  0.00     0.055 A 
ATOM     64  C   UNL A   1      43.434  26.239  25.468  1.00  0.00     0.041 A 
ATOM     65  F   UNL A   1      43.560  28.262  26.641  1.00  0.00    -0.206 F 
ATOM     66  C   UNL A   1      43.010  24.917  25.383  1.00  0.00     0.022 A 
BRANCH  63  67
ATOM     67  S   UNL A   1      41.800  22.628  26.417  1.00  0.00     0.124 S 
ATOM     68  O   UNL A   1      42.472  22.160  25.206  1.00  0.00    -0.237 OA
ATOM     69  O   UNL A   1      42.385  22.194  27.680  1.00  0.00    -0.237 OA
ATOM     70  O   UNL A   1      40.340  22.599  26.362  1.00  0.00    -0.744 OA
ENDBRANCH  63  67
ENDBRANCH  46  60
BRANCH  47  71
ATOM     71  C   UNL A   1      39.368  32.322  35.294  1.00  0.00     0.023 A 
ATOM     72  C   UNL A   1      39.802  33.640  35.497  1.00  0.00     0.031 A 
ATOM     73  C   UNL A   1      38.490  31.763  36.243  1.00  0.00     0.131 A 
ATOM     74  C   UNL A   1      39.387  34.345  36.637  1.00  0.00     0.055 A 
ATOM     75  C   UNL A   1      38.037  32.487  37.347  1.00  0.00     0.041 A 
ATOM     76  F   UNL A   1      38.043  30.506  36.097  1.00  0.00    -0.206 F 
ATOM     77  C   UNL A   1      38.496  33.783  37.555  1.00  0.00     0.022 A 
BRANCH  74  78
ATOM     78  S   UNL A   1      40.092  35.986  36.947  1.00  0.00     0.124 S 
ATOM     79  O   UNL A   1      41.489  35.663  37.219  1.00  0.00    -0.237 OA
ATOM     80  O   UNL A   1      39.827  36.673  35.687  1.00  0.00    -0.237 OA
ATOM     81  O   UNL A   1      39.330  36.474  38.093  1.00  0.00    -0.744 OA
ENDBRANCH  74  78
ENDBRANCH  47  71
BRANCH  59  82
ATOM     82  C   UNL A   1      44.531  27.721  34.333  1.00  0.00     0.023 A 
ATOM     83  C   UNL A   1      44.407  26.618  35.194  1.00  0.00     0.031 A 
ATOM     84  C   UNL A   1      45.762  28.398  34.288  1.00  0.00     0.131 A 
ATOM     85  C   UNL A   1      45.492  26.243  36.002  1.00  0.00     0.055 A 
ATOM     86  C   UNL A   1      46.851  27.991  35.057  1.00  0.00     0.041 A 
ATOM     87  F   UNL A   1      45.929  29.458  33.480  1.00  0.00    -0.206 F 
ATOM     88  C   UNL A   1      46.718  26.911  35.925  1.00  0.00     0.022 A 
BRANCH  85  89
ATOM     89  S   UNL A   1      45.271  24.892  37.190  1.00  0.00     0.124 S 
ATOM     90  O   UNL A   1      44.064  25.307  37.899  1.00  0.00    -0.237 OA
ATOM     91  O   UNL A   1      45.131  23.727  36.323  1.00  0.00    -0.237 OA
ATOM     92  O   UNL A   1      46.498  24.928  37.983  1.00  0.00    -0.744 OA
ENDBRANCH  85  89
ENDBRANCH  59  82
ENDBRANCH  33  34
ENDBRANCH  26  28
ENDBRANCH  25  26
ENDBRANCH   1  25
TORSDOF 17
ENDMDL
MODEL 2
REMARK VINA RESULT:     -11.8      4.983      9.860
REMARK SMILES C[C@H]1[C@H](C(=O)OCCOC(=O)c2ccc(-c3c4nc(c(-c5cc(S(=O)(=O)[O-])ccc5F)c5ccc([nH]5)c(-c5cc(S(=O)(=O)[O-])ccc5F)c5nc(c(-c6cc(S(=O)(=O)[O-])ccc6F)c6ccc3[nH]6)C=C5)C=C4)cc2)CC[N@@H+]1[C@@H](c1ccccc1)c1ccco1
REMARK SMILES IDX 8 1 7 2 6 3 4 4 5 5 3 6 1 7 2 8 77 9 75 10 76 11 78 13 79 14
REMARK SMILES IDX 80 15 84 16 81 17 83 18 82 19 85 20 86 21 89 22 87 23 88 24
REMARK SMILES IDX 9 25 10 26 11 27 12 28 13 29 74 30 14 31 73 32 15 33 16 34
REMARK SMILES IDX 17 35 67 36 18 37 72 38 66 39 68 40 19 41 71 42 65 43 64 44
REMARK SMILES IDX 20 46 52 47 32 48 51 49 33 50 36 51 50 52 69 53 34 54 35 55
REMARK SMILES IDX 49 57 70 58 37 59 21 60 22 61 30 62 23 63 29 64 31 65 28 66
REMARK SMILES IDX 24 67 25 68 26 69 27 70 53 71 54 72 62 73 55 74 61 75 63 76
REMARK SMILES IDX 60 77 56 78 57 79 58 80 59 81 38 82 39 83 47 84 40 85 46 86
REMARK SMILES IDX 48 87 45 88 41 89 42 90 43 91 44 92
REMARK H PARENT 77 12 68 45 36 56
REMARK Flexibility Score: inf
ROOT
ATOM      1  C   UNL A   1      36.378  21.178  25.798  1.00  0.00     0.275 C 
ENDROOT
BRANCH   1   2
ATOM      2  C   UNL A   1      35.464  20.764  24.645  1.00  0.00     0.274 C 
BRANCH   2   3
ATOM      3  O   UNL A   1      34.595  21.858  24.293  1.00  0.00    -0.462 OA
BRANCH   3   4
ATOM      4  C   UNL A   1      33.265  21.614  24.273  1.00  0.00     0.315 C 
ATOM      5  O   UNL A   1      32.695  20.965  23.400  1.00  0.00    -0.252 OA
BRANCH   4   6
ATOM      6  C   UNL A   1      32.516  22.169  25.472  1.00  0.00     0.162 C 
ATOM      7  C   UNL A   1      33.308  22.835  27.773  1.00  0.00     0.076 C 
ATOM      8  C   UNL A   1      33.208  23.261  26.299  1.00  0.00     0.196 C 
ATOM      9  N   UNL A   1      32.333  24.442  26.239  1.00  0.00    -0.319 N 
ATOM     10  C   UNL A   1      31.175  22.739  25.034  1.00  0.00     0.083 C 
ATOM     11  C   UNL A   1      30.999  24.002  25.849  1.00  0.00     0.264 C 
ATOM     12  H   UNL A   1      32.247  24.856  27.167  1.00  0.00     0.349 HD
BRANCH   9  13
ATOM     13  C   UNL A   1      32.904  25.612  25.538  1.00  0.00     0.283 C 
BRANCH  13  14
ATOM     14  C   UNL A   1      32.600  25.736  24.042  1.00  0.00     0.017 A 
ATOM     15  C   UNL A   1      33.389  25.030  23.114  1.00  0.00     0.010 A 
ATOM     16  C   UNL A   1      31.564  26.539  23.542  1.00  0.00     0.010 A 
ATOM     17  C   UNL A   1      33.138  25.113  21.741  1.00  0.00     0.001 A 
ATOM     18  C   UNL A   1      31.294  26.601  22.172  1.00  0.00     0.001 A 
ATOM     19  C   UNL A   1      32.082  25.891  21.272  1.00  0.00     0.000 A 
ENDBRANCH  13  14
BRANCH  13  20
ATOM     20  C   UNL A   1      32.679  26.875  26.343  1.00  0.00     0.165 A 
ATOM     21  C   UNL A   1      31.560  27.364  26.993  1.00  0.00     0.052 A 
ATOM     22  O   UNL A   1      33.708  27.766  26.477  1.00  0.00    -0.463 OA
ATOM     23  C   UNL A   1      31.923  28.618  27.537  1.00  0.00     0.042 A 
ATOM     24  C   UNL A   1      33.239  28.814  27.196  1.00  0.00     0.195 A 
ENDBRANCH  13  20
ENDBRANCH   9  13
ENDBRANCH   4   6
ENDBRANCH   3   4
ENDBRANCH   2   3
ENDBRANCH   1   2
BRANCH   1  25
ATOM     25  O   UNL A   1      37.530  21.878  25.301  1.00  0.00    -0.458 OA
BRANCH  25  26
ATOM     26  C   UNL A   1      38.707  21.485  25.839  1.00  0.00     0.338 C 
ATOM     27  O   UNL A   1      39.239  20.393  25.752  1.00  0.00    -0.246 OA
BRANCH  26  28
ATOM     28  C   UNL A   1      39.344  22.645  26.470  1.00  0.00     0.060 A 
ATOM     29  C   UNL A   1      38.950  23.922  26.069  1.00  0.00     0.016 A 
ATOM     30  C   UNL A   1      40.369  22.471  27.392  1.00  0.00     0.016 A 
ATOM     31  C   UNL A   1      39.612  25.044  26.549  1.00  0.00     0.010 A 
ATOM     32  C   UNL A   1      41.005  23.599  27.911  1.00  0.00     0.010 A 
ATOM     33  C   UNL A   1      40.642  24.890  27.479  1.00  0.00    -0.014 A 
BRANCH  33  34
ATOM     34  C   UNL A   1      41.385  26.066  27.982  1.00  0.00     0.031 A 
ATOM     35  C   UNL A   1      40.644  27.111  28.761  1.00  0.00     0.074 A 
ATOM     36  C   UNL A   1      42.694  26.208  27.705  1.00  0.00     0.049 A 
ATOM     37  N   UNL A   1      40.999  28.332  29.057  1.00  0.00    -0.248 NA
ATOM     38  C   UNL A   1      39.314  26.727  29.257  1.00  0.00     0.031 C 
ATOM     39  C   UNL A   1      43.529  25.211  27.030  1.00  0.00     0.029 A 
ATOM     40  N   UNL A   1      43.546  27.258  27.933  1.00  0.00    -0.354 N 
ATOM     41  C   UNL A   1      39.917  28.884  29.733  1.00  0.00     0.074 A 
ATOM     42  C   UNL A   1      38.893  27.862  29.796  1.00  0.00     0.031 C 
ATOM     43  C   UNL A   1      44.768  25.707  26.883  1.00  0.00     0.029 A 
ATOM     44  C   UNL A   1      44.790  27.080  27.374  1.00  0.00     0.049 A 
ATOM     45  H   UNL A   1      43.292  28.058  28.447  1.00  0.00     0.167 HD
ATOM     46  C   UNL A   1      39.798  30.135  30.241  1.00  0.00     0.034 A 
ATOM     47  C   UNL A   1      45.806  27.951  27.214  1.00  0.00     0.034 A 
ATOM     48  C   UNL A   1      40.850  31.119  30.167  1.00  0.00     0.049 A 
ATOM     49  C   UNL A   1      45.624  29.362  27.710  1.00  0.00     0.074 A 
ATOM     50  C   UNL A   1      40.852  32.420  30.638  1.00  0.00     0.029 A 
ATOM     51  N   UNL A   1      42.093  30.907  29.580  1.00  0.00    -0.354 N 
ATOM     52  N   UNL A   1      44.578  29.903  28.292  1.00  0.00    -0.248 NA
ATOM     53  C   UNL A   1      46.751  30.282  27.522  1.00  0.00     0.031 C 
ATOM     54  C   UNL A   1      42.070  33.012  30.283  1.00  0.00     0.029 A 
ATOM     55  C   UNL A   1      42.859  32.058  29.657  1.00  0.00     0.049 A 
ATOM     56  H   UNL A   1      42.385  30.061  29.170  1.00  0.00     0.167 HD
ATOM     57  C   UNL A   1      44.934  31.218  28.570  1.00  0.00     0.074 A 
ATOM     58  C   UNL A   1      46.291  31.390  28.090  1.00  0.00     0.031 C 
ATOM     59  C   UNL A   1      44.213  32.195  29.175  1.00  0.00     0.034 A 
BRANCH  46  60
ATOM     60  C   UNL A   1      38.469  30.517  30.845  1.00  0.00     0.023 A 
ATOM     61  C   UNL A   1      37.465  31.157  30.098  1.00  0.00     0.031 A 
ATOM     62  C   UNL A   1      38.221  30.274  32.209  1.00  0.00     0.131 A 
ATOM     63  C   UNL A   1      36.293  31.595  30.734  1.00  0.00     0.055 A 
ATOM     64  C   UNL A   1      37.020  30.642  32.817  1.00  0.00     0.041 A 
ATOM     65  F   UNL A   1      39.153  29.691  32.979  1.00  0.00    -0.206 F 
ATOM     66  C   UNL A   1      36.053  31.321  32.082  1.00  0.00     0.022 A 
BRANCH  63  67
ATOM     67  S   UNL A   1      35.149  32.657  29.808  1.00  0.00     0.124 S 
ATOM     68  O   UNL A   1      34.591  31.715  28.840  1.00  0.00    -0.237 OA
ATOM     69  O   UNL A   1      34.237  33.119  30.848  1.00  0.00    -0.237 OA
ATOM     70  O   UNL A   1      36.018  33.684  29.238  1.00  0.00    -0.744 OA
ENDBRANCH  63  67
ENDBRANCH  46  60
BRANCH  47  71
ATOM     71  C   UNL A   1      47.044  27.537  26.495  1.00  0.00     0.023 A 
ATOM     72  C   UNL A   1      47.201  27.782  25.123  1.00  0.00     0.031 A 
ATOM     73  C   UNL A   1      48.084  26.866  27.169  1.00  0.00     0.131 A 
ATOM     74  C   UNL A   1      48.353  27.331  24.460  1.00  0.00     0.055 A 
ATOM     75  C   UNL A   1      49.250  26.467  26.516  1.00  0.00     0.041 A 
ATOM     76  F   UNL A   1      47.985  26.606  28.482  1.00  0.00    -0.206 F 
ATOM     77  C   UNL A   1      49.385  26.690  25.149  1.00  0.00     0.022 A 
BRANCH  74  78
ATOM     78  S   UNL A   1      48.449  27.526  22.660  1.00  0.00     0.124 S 
ATOM     79  O   UNL A   1      49.704  28.256  22.507  1.00  0.00    -0.237 OA
ATOM     80  O   UNL A   1      48.454  26.140  22.205  1.00  0.00    -0.237 OA
ATOM     81  O   UNL A   1      47.243  28.284  22.334  1.00  0.00    -0.744 OA
ENDBRANCH  74  78
ENDBRANCH  47  71
BRANCH  59  82
ATOM     82  C   UNL A   1      44.908  33.507  29.420  1.00  0.00     0.023 A 
ATOM     83  C   UNL A   1      44.826  34.573  28.509  1.00  0.00     0.031 A 
ATOM     84  C   UNL A   1      45.643  33.695  30.604  1.00  0.00     0.131 A 
ATOM     85  C   UNL A   1      45.499  35.774  28.783  1.00  0.00     0.055 A 
ATOM     86  C   UNL A   1      46.268  34.907  30.894  1.00  0.00     0.041 A 
ATOM     87  F   UNL A   1      45.749  32.705  31.505  1.00  0.00    -0.206 F 
ATOM     88  C   UNL A   1      46.203  35.953  29.978  1.00  0.00     0.022 A 
BRANCH  85  89
ATOM     89  S   UNL A   1      45.477  37.092  27.538  1.00  0.00     0.124 S 
ATOM     90  O   UNL A   1      46.410  36.580  26.540  1.00  0.00    -0.237 OA
ATOM     91  O   UNL A   1      44.074  37.127  27.140  1.00  0.00    -0.237 OA
ATOM     92  O   UNL A   1      45.940  38.267  28.275  1.00  0.00    -0.744 OA
ENDBRANCH  85  89
ENDBRANCH  59  82
ENDBRANCH  33  34
ENDBRANCH  26  28
ENDBRANCH  25  26
ENDBRANCH   1  25
TORSDOF 17
ENDMDL
MODEL 3
REMARK VINA RESULT:     -11.8      4.960      9.903
REMARK SMILES C[C@H]1[C@H](C(=O)OCCOC(=O)c2ccc(-c3c4nc(c(-c5cc(S(=O)(=O)[O-])ccc5F)c5ccc([nH]5)c(-c5cc(S(=O)(=O)[O-])ccc5F)c5nc(c(-c6cc(S(=O)(=O)[O-])ccc6F)c6ccc3[nH]6)C=C5)C=C4)cc2)CC[N@@H+]1[C@@H](c1ccccc1)c1ccco1
REMARK SMILES IDX 8 1 7 2 6 3 4 4 5 5 3 6 1 7 2 8 77 9 75 10 76 11 78 13 79 14
REMARK SMILES IDX 80 15 84 16 81 17 83 18 82 19 85 20 86 21 89 22 87 23 88 24
REMARK SMILES IDX 9 25 10 26 11 27 12 28 13 29 74 30 14 31 73 32 15 33 16 34
REMARK SMILES IDX 17 35 67 36 18 37 72 38 66 39 68 40 19 41 71 42 65 43 64 44
REMARK SMILES IDX 20 46 52 47 32 48 51 49 33 50 36 51 50 52 69 53 34 54 35 55
REMARK SMILES IDX 49 57 70 58 37 59 21 60 22 61 30 62 23 63 29 64 31 65 28 66
REMARK SMILES IDX 24 67 25 68 26 69 27 70 53 71 54 72 62 73 55 74 61 75 63 76
REMARK SMILES IDX 60 77 56 78 57 79 58 80 59 81 38 82 39 83 47 84 40 85 46 86
REMARK SMILES IDX 48 87 45 88 41 89 42 90 43 91 44 92
REMARK H PARENT 77 12 68 45 36 56
REMARK Flexibility Score: inf
ROOT
ATOM      1  C   UNL A   1      36.459  21.609  24.502  1.00  0.00     0.275 C 
ENDROOT
BRANCH   1   2
ATOM      2  C   UNL A   1      34.953  21.394  24.648  1.00  0.00     0.274 C 
BRANCH   2   3
ATOM      3  O   UNL A   1      34.249  22.590  24.262  1.00  0.00    -0.462 OA
BRANCH   3   4
ATOM      4  C   UNL A   1      33.581  23.258  25.231  1.00  0.00     0.315 C 
ATOM      5  O   UNL A   1      34.121  23.829  26.174  1.00  0.00    -0.252 OA
BRANCH   4   6
ATOM      6  C   UNL A   1      32.076  23.295  25.030  1.00  0.00     0.162 C 
ATOM      7  C   UNL A   1      30.214  24.138  26.509  1.00  0.00     0.076 C 
ATOM      8  C   UNL A   1      31.324  24.538  25.522  1.00  0.00     0.196 C 
ATOM      9  N   UNL A   1      30.673  25.123  24.339  1.00  0.00    -0.319 N 
ATOM     10  C   UNL A   1      31.741  23.140  23.554  1.00  0.00     0.083 C 
ATOM     11  C   UNL A   1      30.595  24.096  23.307  1.00  0.00     0.264 C 
ATOM     12  H   UNL A   1      29.714  25.386  24.567  1.00  0.00     0.349 HD
BRANCH   9  13
ATOM     13  C   UNL A   1      31.170  26.458  23.945  1.00  0.00     0.283 C 
BRANCH  13  14
ATOM     14  C   UNL A   1      30.128  27.461  23.442  1.00  0.00     0.017 A 
ATOM     15  C   UNL A   1      28.759  27.198  23.646  1.00  0.00     0.010 A 
ATOM     16  C   UNL A   1      30.473  28.643  22.771  1.00  0.00     0.010 A 
ATOM     17  C   UNL A   1      27.779  28.093  23.207  1.00  0.00     0.001 A 
ATOM     18  C   UNL A   1      29.495  29.552  22.356  1.00  0.00     0.001 A 
ATOM     19  C   UNL A   1      28.149  29.275  22.572  1.00  0.00     0.000 A 
ENDBRANCH  13  14
BRANCH  13  20
ATOM     20  C   UNL A   1      32.125  26.999  24.989  1.00  0.00     0.165 A 
ATOM     21  C   UNL A   1      33.507  27.034  25.040  1.00  0.00     0.052 A 
ATOM     22  O   UNL A   1      31.615  27.543  26.135  1.00  0.00    -0.463 OA
ATOM     23  C   UNL A   1      33.853  27.614  26.282  1.00  0.00     0.042 A 
ATOM     24  C   UNL A   1      32.666  27.907  26.909  1.00  0.00     0.195 A 
ENDBRANCH  13  20
ENDBRANCH   9  13
ENDBRANCH   4   6
ENDBRANCH   3   4
ENDBRANCH   2   3
ENDBRANCH   1   2
BRANCH   1  25
ATOM     25  O   UNL A   1      37.069  21.794  25.789  1.00  0.00    -0.458 OA
BRANCH  25  26
ATOM     26  C   UNL A   1      38.388  21.501  25.839  1.00  0.00     0.338 C 
ATOM     27  O   UNL A   1      38.954  20.527  25.375  1.00  0.00    -0.246 OA
BRANCH  26  28
ATOM     28  C   UNL A   1      39.096  22.630  26.450  1.00  0.00     0.060 A 
ATOM     29  C   UNL A   1      38.679  23.925  26.142  1.00  0.00     0.016 A 
ATOM     30  C   UNL A   1      40.205  22.411  27.259  1.00  0.00     0.016 A 
ATOM     31  C   UNL A   1      39.396  25.022  26.598  1.00  0.00     0.010 A 
ATOM     32  C   UNL A   1      40.901  23.513  27.758  1.00  0.00     0.010 A 
ATOM     33  C   UNL A   1      40.511  24.823  27.415  1.00  0.00    -0.014 A 
BRANCH  33  34
ATOM     34  C   UNL A   1      41.312  25.973  27.889  1.00  0.00     0.031 A 
ATOM     35  C   UNL A   1      40.640  27.036  28.705  1.00  0.00     0.074 A 
ATOM     36  C   UNL A   1      42.611  26.075  27.555  1.00  0.00     0.049 A 
ATOM     37  N   UNL A   1      41.046  28.244  28.989  1.00  0.00    -0.248 NA
ATOM     38  C   UNL A   1      39.322  26.691  29.259  1.00  0.00     0.031 C 
ATOM     39  C   UNL A   1      43.384  25.057  26.839  1.00  0.00     0.029 A 
ATOM     40  N   UNL A   1      43.505  27.097  27.749  1.00  0.00    -0.354 N 
ATOM     41  C   UNL A   1      40.013  28.825  29.716  1.00  0.00     0.074 A 
ATOM     42  C   UNL A   1      38.961  27.836  29.820  1.00  0.00     0.031 C 
ATOM     43  C   UNL A   1      44.630  25.514  26.638  1.00  0.00     0.029 A 
ATOM     44  C   UNL A   1      44.717  26.884  27.133  1.00  0.00     0.049 A 
ATOM     45  H   UNL A   1      43.300  27.902  28.277  1.00  0.00     0.167 HD
ATOM     46  C   UNL A   1      39.956  30.077  30.234  1.00  0.00     0.034 A 
ATOM     47  C   UNL A   1      45.751  27.723  26.932  1.00  0.00     0.034 A 
ATOM     48  C   UNL A   1      41.034  31.028  30.117  1.00  0.00     0.049 A 
ATOM     49  C   UNL A   1      45.637  29.137  27.441  1.00  0.00     0.074 A 
ATOM     50  C   UNL A   1      41.098  32.326  30.592  1.00  0.00     0.029 A 
ATOM     51  N   UNL A   1      42.243  30.780  29.474  1.00  0.00    -0.354 N 
ATOM     52  N   UNL A   1      44.634  29.707  28.071  1.00  0.00    -0.248 NA
ATOM     53  C   UNL A   1      46.782  30.023  27.206  1.00  0.00     0.031 C 
ATOM     54  C   UNL A   1      42.317  32.881  30.185  1.00  0.00     0.029 A 
ATOM     55  C   UNL A   1      43.047  31.906  29.521  1.00  0.00     0.049 A 
ATOM     56  H   UNL A   1      42.489  29.928  29.047  1.00  0.00     0.167 HD
ATOM     57  C   UNL A   1      45.044  31.009  28.339  1.00  0.00     0.074 A 
ATOM     58  C   UNL A   1      46.383  31.140  27.799  1.00  0.00     0.031 C 
ATOM     59  C   UNL A   1      44.382  32.004  28.980  1.00  0.00     0.034 A 
BRANCH  46  60
ATOM     60  C   UNL A   1      38.668  30.496  30.898  1.00  0.00     0.023 A 
ATOM     61  C   UNL A   1      37.616  31.090  30.180  1.00  0.00     0.031 A 
ATOM     62  C   UNL A   1      38.510  30.339  32.288  1.00  0.00     0.131 A 
ATOM     63  C   UNL A   1      36.486  31.568  30.862  1.00  0.00     0.055 A 
ATOM     64  C   UNL A   1      37.350  30.745  32.949  1.00  0.00     0.041 A 
ATOM     65  F   UNL A   1      39.492  29.803  33.030  1.00  0.00    -0.206 F 
ATOM     66  C   UNL A   1      36.335  31.378  32.238  1.00  0.00     0.022 A 
BRANCH  63  67
ATOM     67  S   UNL A   1      35.281  32.572  29.950  1.00  0.00     0.124 S 
ATOM     68  O   UNL A   1      34.280  32.839  30.981  1.00  0.00    -0.237 OA
ATOM     69  O   UNL A   1      36.080  33.715  29.524  1.00  0.00    -0.237 OA
ATOM     70  O   UNL A   1      34.838  31.684  28.876  1.00  0.00    -0.744 OA
ENDBRANCH  63  67
ENDBRANCH  46  60
BRANCH  47  71
ATOM     71  C   UNL A   1      46.943  27.275  26.157  1.00  0.00     0.023 A 
ATOM     72  C   UNL A   1      47.139  27.684  24.830  1.00  0.00     0.031 A 
ATOM     73  C   UNL A   1      47.895  26.408  26.727  1.00  0.00     0.131 A 
ATOM     74  C   UNL A   1      48.239  27.202  24.105  1.00  0.00     0.055 A 
ATOM     75  C   UNL A   1      49.016  25.973  26.020  1.00  0.00     0.041 A 
ATOM     76  F   UNL A   1      47.755  25.985  27.994  1.00  0.00    -0.206 F 
ATOM     77  C   UNL A   1      49.187  26.362  24.695  1.00  0.00     0.022 A 
BRANCH  74  78
ATOM     78  S   UNL A   1      48.374  27.626  22.347  1.00  0.00     0.124 S 
ATOM     79  O   UNL A   1      47.123  28.342  22.118  1.00  0.00    -0.237 OA
ATOM     80  O   UNL A   1      49.589  28.434  22.323  1.00  0.00    -0.237 OA
ATOM     81  O   UNL A   1      48.478  26.326  21.690  1.00  0.00    -0.744 OA
ENDBRANCH  74  78
ENDBRANCH  47  71
BRANCH  59  82
ATOM     82  C   UNL A   1      45.127  33.293  29.198  1.00  0.00     0.023 A 
ATOM     83  C   UNL A   1      45.052  34.359  28.287  1.00  0.00     0.031 A 
ATOM     84  C   UNL A   1      45.906  33.458  30.357  1.00  0.00     0.131 A 
ATOM     85  C   UNL A   1      45.773  35.537  28.537  1.00  0.00     0.055 A 
ATOM     86  C   UNL A   1      46.580  34.649  30.624  1.00  0.00     0.041 A 
ATOM     87  F   UNL A   1      46.008  32.467  31.258  1.00  0.00    -0.206 F 
ATOM     88  C   UNL A   1      46.521  35.695  29.708  1.00  0.00     0.022 A 
BRANCH  85  89
ATOM     89  S   UNL A   1      45.756  36.853  27.289  1.00  0.00     0.124 S 
ATOM     90  O   UNL A   1      46.591  36.282  26.237  1.00  0.00    -0.237 OA
ATOM     91  O   UNL A   1      44.336  36.976  26.979  1.00  0.00    -0.237 OA
ATOM     92  O   UNL A   1      46.337  37.997  27.989  1.00  0.00    -0.744 OA
ENDBRANCH  85  89
ENDBRANCH  59  82
ENDBRANCH  33  34
ENDBRANCH  26  28
ENDBRANCH  25  26
ENDBRANCH   1  25
TORSDOF 17
ENDMDL
