MODEL 1
REMARK VINA RESULT:      -9.8      0.000      0.000
REMARK SMILES CC(=O)OCc1ccc(C(=O)OCCOC(=O)c2ccc(-c3c4nc(c(-c5cc(S(=O)(=O)[O-])ccc5F)c5ccc([nH]5)c(-c5cc(S(=O)(=O)[O-])ccc5F)c5nc(c(-c6cc(S(=O)(=O)[O-])ccc6F)c6ccc3[nH]6)C=C5)C=C4)cc2)o1
REMARK SMILES IDX 13 1 12 2 10 3 11 4 9 5 6 6 7 7 81 8 8 9 5 10 4 11 2 12 1 13
REMARK SMILES IDX 3 14 14 15 15 16 16 17 17 18 18 19 19 20 80 21 20 22 79 23
REMARK SMILES IDX 21 24 22 25 23 26 73 27 24 28 78 29 72 30 74 31 25 32 77 33
REMARK SMILES IDX 71 34 70 35 26 37 58 38 38 39 57 40 39 41 42 42 56 43 75 44
REMARK SMILES IDX 40 45 41 46 55 48 76 49 43 50 27 51 28 52 36 53 29 54 35 55
REMARK SMILES IDX 37 56 34 57 30 58 31 59 32 60 33 61 59 62 60 63 68 64 61 65
REMARK SMILES IDX 67 66 69 67 66 68 62 69 63 70 64 71 65 72 44 73 45 74 53 75
REMARK SMILES IDX 46 76 52 77 54 78 51 79 47 80 48 81 49 82 50 83
REMARK H PARENT 74 36 42 47
REMARK Flexibility Score: inf
ROOT
ATOM      1  C   UNL A   1      40.879  19.404  26.498  1.00  0.00     0.275 C 
ENDROOT
BRANCH   1   2
ATOM      2  O   UNL A   1      42.278  19.264  26.807  1.00  0.00    -0.456 OA
BRANCH   2   3
ATOM      3  C   UNL A   1      42.989  18.435  25.981  1.00  0.00     0.374 C 
ATOM      4  O   UNL A   1      42.688  17.272  25.754  1.00  0.00    -0.242 OA
BRANCH   3   5
ATOM      5  C   UNL A   1      44.079  19.165  25.375  1.00  0.00     0.211 A 
ATOM      6  C   UNL A   1      44.967  20.932  24.387  1.00  0.00     0.142 A 
ATOM      7  C   UNL A   1      46.013  20.083  24.688  1.00  0.00     0.050 A 
ATOM      8  O   UNL A   1      43.790  20.355  24.758  1.00  0.00    -0.450 OA
ATOM      9  C   UNL A   1      45.444  18.954  25.326  1.00  0.00     0.058 A 
BRANCH   6  10
ATOM     10  C   UNL A   1      44.927  22.291  23.775  1.00  0.00     0.308 C 
BRANCH  10  11
ATOM     11  O   UNL A   1      43.681  22.931  24.079  1.00  0.00    -0.458 OA
BRANCH  11  12
ATOM     12  C   UNL A   1      43.751  23.924  25.006  1.00  0.00     0.303 C 
ATOM     13  C   UNL A   1      42.995  23.552  26.247  1.00  0.00     0.139 C 
ATOM     14  O   UNL A   1      44.376  24.968  24.877  1.00  0.00    -0.253 OA
ENDBRANCH  11  12
ENDBRANCH  10  11
ENDBRANCH   6  10
ENDBRANCH   3   5
ENDBRANCH   2   3
ENDBRANCH   1   2
BRANCH   1  15
ATOM     15  C   UNL A   1      40.533  20.842  26.095  1.00  0.00     0.275 C 
BRANCH  15  16
ATOM     16  O   UNL A   1      39.628  21.462  27.027  1.00  0.00    -0.458 OA
BRANCH  16  17
ATOM     17  C   UNL A   1      38.815  22.412  26.500  1.00  0.00     0.338 C 
ATOM     18  O   UNL A   1      37.811  22.214  25.837  1.00  0.00    -0.246 OA
BRANCH  17  19
ATOM     19  C   UNL A   1      39.234  23.750  26.965  1.00  0.00     0.060 A 
ATOM     20  C   UNL A   1      38.973  24.837  26.128  1.00  0.00     0.016 A 
ATOM     21  C   UNL A   1      39.905  23.940  28.176  1.00  0.00     0.016 A 
ATOM     22  C   UNL A   1      39.364  26.121  26.503  1.00  0.00     0.010 A 
ATOM     23  C   UNL A   1      40.308  25.231  28.547  1.00  0.00     0.010 A 
ATOM     24  C   UNL A   1      40.037  26.328  27.712  1.00  0.00    -0.014 A 
BRANCH  24  25
ATOM     25  C   UNL A   1      40.499  27.694  28.060  1.00  0.00     0.031 A 
ATOM     26  C   UNL A   1      41.941  28.064  27.867  1.00  0.00     0.074 A 
ATOM     27  C   UNL A   1      39.618  28.611  28.503  1.00  0.00     0.049 A 
ATOM     28  N   UNL A   1      42.549  29.192  28.123  1.00  0.00    -0.248 NA
ATOM     29  C   UNL A   1      42.810  27.020  27.304  1.00  0.00     0.031 C 
ATOM     30  C   UNL A   1      38.183  28.384  28.678  1.00  0.00     0.029 A 
ATOM     31  N   UNL A   1      39.800  29.917  28.883  1.00  0.00    -0.354 N 
ATOM     32  C   UNL A   1      43.874  29.002  27.749  1.00  0.00     0.074 A 
ATOM     33  C   UNL A   1      43.983  27.636  27.276  1.00  0.00     0.031 C 
ATOM     34  C   UNL A   1      37.617  29.512  29.139  1.00  0.00     0.029 A 
ATOM     35  C   UNL A   1      38.651  30.527  29.328  1.00  0.00     0.049 A 
ATOM     36  H   UNL A   1      40.672  30.374  28.840  1.00  0.00     0.167 HD
ATOM     37  C   UNL A   1      44.903  29.885  27.792  1.00  0.00     0.034 A 
ATOM     38  C   UNL A   1      38.462  31.754  29.853  1.00  0.00     0.034 A 
ATOM     39  C   UNL A   1      44.787  31.235  28.289  1.00  0.00     0.049 A 
ATOM     40  C   UNL A   1      39.641  32.687  29.985  1.00  0.00     0.074 A 
ATOM     41  C   UNL A   1      45.767  32.208  28.386  1.00  0.00     0.029 A 
ATOM     42  N   UNL A   1      43.620  31.802  28.787  1.00  0.00    -0.354 N 
ATOM     43  N   UNL A   1      40.892  32.491  29.638  1.00  0.00    -0.248 NA
ATOM     44  C   UNL A   1      39.381  34.007  30.577  1.00  0.00     0.031 C 
ATOM     45  C   UNL A   1      45.210  33.338  28.997  1.00  0.00     0.029 A 
ATOM     46  C   UNL A   1      43.864  33.096  29.220  1.00  0.00     0.049 A 
ATOM     47  H   UNL A   1      42.746  31.349  28.827  1.00  0.00     0.167 HD
ATOM     48  C   UNL A   1      41.561  33.672  29.945  1.00  0.00     0.074 A 
ATOM     49  C   UNL A   1      40.574  34.578  30.497  1.00  0.00     0.031 C 
ATOM     50  C   UNL A   1      42.872  33.985  29.780  1.00  0.00     0.034 A 
BRANCH  37  51
ATOM     51  C   UNL A   1      46.253  29.387  27.342  1.00  0.00     0.023 A 
ATOM     52  C   UNL A   1      46.491  28.995  26.013  1.00  0.00     0.031 A 
ATOM     53  C   UNL A   1      47.306  29.264  28.266  1.00  0.00     0.131 A 
ATOM     54  C   UNL A   1      47.729  28.438  25.660  1.00  0.00     0.055 A 
ATOM     55  C   UNL A   1      48.558  28.775  27.893  1.00  0.00     0.041 A 
ATOM     56  F   UNL A   1      47.128  29.603  29.553  1.00  0.00    -0.206 F 
ATOM     57  C   UNL A   1      48.771  28.345  26.586  1.00  0.00     0.022 A 
BRANCH  54  58
ATOM     58  S   UNL A   1      47.916  27.711  24.009  1.00  0.00     0.124 S 
ATOM     59  O   UNL A   1      47.001  28.531  23.218  1.00  0.00    -0.237 OA
ATOM     60  O   UNL A   1      49.337  27.899  23.740  1.00  0.00    -0.237 OA
ATOM     61  O   UNL A   1      47.494  26.324  24.195  1.00  0.00    -0.744 OA
ENDBRANCH  54  58
ENDBRANCH  37  51
BRANCH  38  62
ATOM     62  C   UNL A   1      37.117  32.162  30.350  1.00  0.00     0.023 A 
ATOM     63  C   UNL A   1      36.194  32.804  29.510  1.00  0.00     0.031 A 
ATOM     64  C   UNL A   1      36.760  31.963  31.695  1.00  0.00     0.131 A 
ATOM     65  C   UNL A   1      34.974  33.260  30.034  1.00  0.00     0.055 A 
ATOM     66  C   UNL A   1      35.526  32.375  32.200  1.00  0.00     0.041 A 
ATOM     67  F   UNL A   1      37.609  31.358  32.541  1.00  0.00    -0.206 F 
ATOM     68  C   UNL A   1      34.628  33.039  31.370  1.00  0.00     0.022 A 
BRANCH  65  69
ATOM     69  S   UNL A   1      33.871  34.221  28.961  1.00  0.00     0.124 S 
ATOM     70  O   UNL A   1      32.882  34.712  29.914  1.00  0.00    -0.237 OA
ATOM     71  O   UNL A   1      34.780  35.220  28.409  1.00  0.00    -0.237 OA
ATOM     72  O   UNL A   1      33.379  33.231  28.004  1.00  0.00    -0.744 OA
ENDBRANCH  65  69
ENDBRANCH  38  62
BRANCH  50  73
ATOM     73  C   UNL A   1      43.297  35.381  30.162  1.00  0.00     0.023 A 
ATOM     74  C   UNL A   1      43.238  36.449  29.251  1.00  0.00     0.031 A 
ATOM     75  C   UNL A   1      43.775  35.640  31.459  1.00  0.00     0.131 A 
ATOM     76  C   UNL A   1      43.696  37.719  29.634  1.00  0.00     0.055 A 
ATOM     77  C   UNL A   1      44.184  36.916  31.849  1.00  0.00     0.041 A 
ATOM     78  F   UNL A   1      43.852  34.655  32.368  1.00  0.00    -0.206 F 
ATOM     79  C   UNL A   1      44.155  37.962  30.932  1.00  0.00     0.022 A 
BRANCH  76  80
ATOM     80  S   UNL A   1      43.751  39.041  28.393  1.00  0.00     0.124 S 
ATOM     81  O   UNL A   1      44.836  39.880  28.889  1.00  0.00    -0.237 OA
ATOM     82  O   UNL A   1      44.026  38.304  27.163  1.00  0.00    -0.237 OA
ATOM     83  O   UNL A   1      42.419  39.639  28.468  1.00  0.00    -0.744 OA
ENDBRANCH  76  80
ENDBRANCH  50  73
ENDBRANCH  24  25
ENDBRANCH  17  19
ENDBRANCH  16  17
ENDBRANCH  15  16
ENDBRANCH   1  15
TORSDOF 17
ENDMDL
MODEL 2
REMARK VINA RESULT:      -9.8      5.034     12.612
REMARK SMILES CC(=O)OCc1ccc(C(=O)OCCOC(=O)c2ccc(-c3c4nc(c(-c5cc(S(=O)(=O)[O-])ccc5F)c5ccc([nH]5)c(-c5cc(S(=O)(=O)[O-])ccc5F)c5nc(c(-c6cc(S(=O)(=O)[O-])ccc6F)c6ccc3[nH]6)C=C5)C=C4)cc2)o1
REMARK SMILES IDX 13 1 12 2 10 3 11 4 9 5 6 6 7 7 81 8 8 9 5 10 4 11 2 12 1 13
REMARK SMILES IDX 3 14 14 15 15 16 16 17 17 18 18 19 19 20 80 21 20 22 79 23
REMARK SMILES IDX 21 24 22 25 23 26 73 27 24 28 78 29 72 30 74 31 25 32 77 33
REMARK SMILES IDX 71 34 70 35 26 37 58 38 38 39 57 40 39 41 42 42 56 43 75 44
REMARK SMILES IDX 40 45 41 46 55 48 76 49 43 50 27 51 28 52 36 53 29 54 35 55
REMARK SMILES IDX 37 56 34 57 30 58 31 59 32 60 33 61 59 62 60 63 68 64 61 65
REMARK SMILES IDX 67 66 69 67 66 68 62 69 63 70 64 71 65 72 44 73 45 74 53 75
REMARK SMILES IDX 46 76 52 77 54 78 51 79 47 80 48 81 49 82 50 83
REMARK H PARENT 74 36 42 47
REMARK Flexibility Score: inf
ROOT
ATOM      1  C   UNL A   1      33.707  34.268  28.375  1.00  0.00     0.275 C 
ENDROOT
BRANCH   1   2
ATOM      2  O   UNL A   1      32.930  34.636  29.529  1.00  0.00    -0.456 OA
BRANCH   2   3
ATOM      3  C   UNL A   1      32.916  35.970  29.835  1.00  0.00     0.374 C 
ATOM      4  O   UNL A   1      32.519  36.843  29.078  1.00  0.00    -0.242 OA
BRANCH   3   5
ATOM      5  C   UNL A   1      33.363  36.164  31.197  1.00  0.00     0.211 A 
ATOM      6  C   UNL A   1      34.509  35.600  33.001  1.00  0.00     0.142 A 
ATOM      7  C   UNL A   1      34.011  36.866  33.232  1.00  0.00     0.050 A 
ATOM      8  O   UNL A   1      34.076  35.153  31.788  1.00  0.00    -0.450 OA
ATOM      9  C   UNL A   1      33.282  37.229  32.074  1.00  0.00     0.058 A 
BRANCH   6  10
ATOM     10  C   UNL A   1      35.395  34.712  33.806  1.00  0.00     0.308 C 
BRANCH  10  11
ATOM     11  O   UNL A   1      36.769  35.054  33.583  1.00  0.00    -0.458 OA
BRANCH  11  12
ATOM     12  C   UNL A   1      37.521  34.083  32.998  1.00  0.00     0.303 C 
ATOM     13  C   UNL A   1      38.985  34.355  33.178  1.00  0.00     0.139 C 
ATOM     14  O   UNL A   1      37.078  33.091  32.432  1.00  0.00    -0.253 OA
ENDBRANCH  11  12
ENDBRANCH  10  11
ENDBRANCH   6  10
ENDBRANCH   3   5
ENDBRANCH   2   3
ENDBRANCH   1   2
BRANCH   1  15
ATOM     15  C   UNL A   1      33.363  32.854  27.893  1.00  0.00     0.275 C 
BRANCH  15  16
ATOM     16  O   UNL A   1      34.154  31.849  28.556  1.00  0.00    -0.458 OA
BRANCH  16  17
ATOM     17  C   UNL A   1      34.413  30.739  27.822  1.00  0.00     0.338 C 
ATOM     18  O   UNL A   1      33.727  30.298  26.914  1.00  0.00    -0.246 OA
BRANCH  17  19
ATOM     19  C   UNL A   1      35.739  30.195  28.176  1.00  0.00     0.060 A 
ATOM     20  C   UNL A   1      35.910  29.691  29.468  1.00  0.00     0.016 A 
ATOM     21  C   UNL A   1      36.813  30.212  27.281  1.00  0.00     0.016 A 
ATOM     22  C   UNL A   1      37.145  29.185  29.867  1.00  0.00     0.010 A 
ATOM     23  C   UNL A   1      38.058  29.713  27.688  1.00  0.00     0.010 A 
ATOM     24  C   UNL A   1      38.230  29.195  28.982  1.00  0.00    -0.014 A 
BRANCH  24  25
ATOM     25  C   UNL A   1      39.551  28.710  29.450  1.00  0.00     0.031 A 
ATOM     26  C   UNL A   1      40.268  29.444  30.545  1.00  0.00     0.074 A 
ATOM     27  C   UNL A   1      40.081  27.588  28.927  1.00  0.00     0.049 A 
ATOM     28  N   UNL A   1      41.433  29.196  31.085  1.00  0.00    -0.248 NA
ATOM     29  C   UNL A   1      39.575  30.611  31.109  1.00  0.00     0.031 C 
ATOM     30  C   UNL A   1      39.451  26.760  27.898  1.00  0.00     0.029 A 
ATOM     31  N   UNL A   1      41.267  26.951  29.190  1.00  0.00    -0.354 N 
ATOM     32  C   UNL A   1      41.615  30.171  32.058  1.00  0.00     0.074 A 
ATOM     33  C   UNL A   1      40.450  31.032  32.010  1.00  0.00     0.031 C 
ATOM     34  C   UNL A   1      40.262  25.728  27.612  1.00  0.00     0.029 A 
ATOM     35  C   UNL A   1      41.483  25.841  28.407  1.00  0.00     0.049 A 
ATOM     36  H   UNL A   1      41.903  27.259  29.876  1.00  0.00     0.167 HD
ATOM     37  C   UNL A   1      42.655  30.331  32.914  1.00  0.00     0.034 A 
ATOM     38  C   UNL A   1      42.554  25.027  28.322  1.00  0.00     0.034 A 
ATOM     39  C   UNL A   1      43.821  29.482  32.935  1.00  0.00     0.049 A 
ATOM     40  C   UNL A   1      43.743  25.284  29.216  1.00  0.00     0.074 A 
ATOM     41  C   UNL A   1      44.935  29.562  33.754  1.00  0.00     0.029 A 
ATOM     42  N   UNL A   1      44.034  28.401  32.087  1.00  0.00    -0.354 N 
ATOM     43  N   UNL A   1      43.908  26.217  30.124  1.00  0.00    -0.248 NA
ATOM     44  C   UNL A   1      44.890  24.375  29.073  1.00  0.00     0.031 C 
ATOM     45  C   UNL A   1      45.844  28.571  33.362  1.00  0.00     0.029 A 
ATOM     46  C   UNL A   1      45.270  27.828  32.343  1.00  0.00     0.049 A 
ATOM     47  H   UNL A   1      43.397  28.088  31.404  1.00  0.00     0.167 HD
ATOM     48  C   UNL A   1      45.165  25.990  30.679  1.00  0.00     0.074 A 
ATOM     49  C   UNL A   1      45.712  24.827  30.009  1.00  0.00     0.031 C 
ATOM     50  C   UNL A   1      45.808  26.676  31.658  1.00  0.00     0.034 A 
BRANCH  37  51
ATOM     51  C   UNL A   1      42.594  31.509  33.854  1.00  0.00     0.023 A 
ATOM     52  C   UNL A   1      42.025  31.403  35.136  1.00  0.00     0.031 A 
ATOM     53  C   UNL A   1      43.074  32.766  33.446  1.00  0.00     0.131 A 
ATOM     54  C   UNL A   1      41.892  32.546  35.938  1.00  0.00     0.055 A 
ATOM     55  C   UNL A   1      43.003  33.885  34.277  1.00  0.00     0.041 A 
ATOM     56  F   UNL A   1      43.606  32.929  32.224  1.00  0.00    -0.206 F 
ATOM     57  C   UNL A   1      42.396  33.782  35.525  1.00  0.00     0.022 A 
BRANCH  54  58
ATOM     58  S   UNL A   1      40.930  32.425  37.470  1.00  0.00     0.124 S 
ATOM     59  O   UNL A   1      39.778  31.638  37.037  1.00  0.00    -0.237 OA
ATOM     60  O   UNL A   1      41.858  31.754  38.374  1.00  0.00    -0.237 OA
ATOM     61  O   UNL A   1      40.634  33.818  37.801  1.00  0.00    -0.744 OA
ENDBRANCH  54  58
ENDBRANCH  37  51
BRANCH  38  62
ATOM     62  C   UNL A   1      42.586  23.925  27.320  1.00  0.00     0.023 A 
ATOM     63  C   UNL A   1      41.981  22.685  27.581  1.00  0.00     0.031 A 
ATOM     64  C   UNL A   1      43.275  24.081  26.105  1.00  0.00     0.131 A 
ATOM     65  C   UNL A   1      42.112  21.637  26.656  1.00  0.00     0.055 A 
ATOM     66  C   UNL A   1      43.360  23.053  25.167  1.00  0.00     0.041 A 
ATOM     67  F   UNL A   1      43.874  25.246  25.809  1.00  0.00    -0.206 F 
ATOM     68  C   UNL A   1      42.786  21.816  25.445  1.00  0.00     0.022 A 
BRANCH  65  69
ATOM     69  S   UNL A   1      41.452  20.004  27.092  1.00  0.00     0.124 S 
ATOM     70  O   UNL A   1      42.667  19.199  27.151  1.00  0.00    -0.237 OA
ATOM     71  O   UNL A   1      40.799  20.273  28.369  1.00  0.00    -0.237 OA
ATOM     72  O   UNL A   1      40.550  19.694  25.985  1.00  0.00    -0.744 OA
ENDBRANCH  65  69
ENDBRANCH  38  62
BRANCH  50  73
ATOM     73  C   UNL A   1      47.155  26.152  32.089  1.00  0.00     0.023 A 
ATOM     74  C   UNL A   1      47.294  25.260  33.167  1.00  0.00     0.031 A 
ATOM     75  C   UNL A   1      48.318  26.561  31.412  1.00  0.00     0.131 A 
ATOM     76  C   UNL A   1      48.573  24.844  33.568  1.00  0.00     0.055 A 
ATOM     77  C   UNL A   1      49.583  26.105  31.785  1.00  0.00     0.041 A 
ATOM     78  F   UNL A   1      48.241  27.412  30.376  1.00  0.00    -0.206 F 
ATOM     79  C   UNL A   1      49.717  25.249  32.874  1.00  0.00     0.022 A 
BRANCH  76  80
ATOM     80  S   UNL A   1      48.732  23.816  35.054  1.00  0.00     0.124 S 
ATOM     81  O   UNL A   1      50.049  23.216  34.870  1.00  0.00    -0.237 OA
ATOM     82  O   UNL A   1      48.623  24.798  36.127  1.00  0.00    -0.237 OA
ATOM     83  O   UNL A   1      47.608  22.886  34.951  1.00  0.00    -0.744 OA
ENDBRANCH  76  80
ENDBRANCH  50  73
ENDBRANCH  24  25
ENDBRANCH  17  19
ENDBRANCH  16  17
ENDBRANCH  15  16
ENDBRANCH   1  15
TORSDOF 17
ENDMDL
MODEL 3
REMARK VINA RESULT:      -9.7      5.272      7.345
REMARK SMILES CC(=O)OCc1ccc(C(=O)OCCOC(=O)c2ccc(-c3c4nc(c(-c5cc(S(=O)(=O)[O-])ccc5F)c5ccc([nH]5)c(-c5cc(S(=O)(=O)[O-])ccc5F)c5nc(c(-c6cc(S(=O)(=O)[O-])ccc6F)c6ccc3[nH]6)C=C5)C=C4)cc2)o1
REMARK SMILES IDX 13 1 12 2 10 3 11 4 9 5 6 6 7 7 81 8 8 9 5 10 4 11 2 12 1 13
REMARK SMILES IDX 3 14 14 15 15 16 16 17 17 18 18 19 19 20 80 21 20 22 79 23
REMARK SMILES IDX 21 24 22 25 23 26 73 27 24 28 78 29 72 30 74 31 25 32 77 33
REMARK SMILES IDX 71 34 70 35 26 37 58 38 38 39 57 40 39 41 42 42 56 43 75 44
REMARK SMILES IDX 40 45 41 46 55 48 76 49 43 50 27 51 28 52 36 53 29 54 35 55
REMARK SMILES IDX 37 56 34 57 30 58 31 59 32 60 33 61 59 62 60 63 68 64 61 65
REMARK SMILES IDX 67 66 69 67 66 68 62 69 63 70 64 71 65 72 44 73 45 74 53 75
REMARK SMILES IDX 46 76 52 77 54 78 51 79 47 80 48 81 49 82 50 83
REMARK H PARENT 74 36 42 47
REMARK Flexibility Score: inf
ROOT
ATOM      1  C   UNL A   1      42.859  20.938  26.119  1.00  0.00     0.275 C 
ENDROOT
BRANCH   1   2
ATOM      2  O   UNL A   1      41.500  20.699  25.708  1.00  0.00    -0.456 OA
BRANCH   2   3
ATOM      3  C   UNL A   1      40.544  20.904  26.666  1.00  0.00     0.374 C 
ATOM      4  O   UNL A   1      40.771  20.924  27.867  1.00  0.00    -0.242 OA
BRANCH   3   5
ATOM      5  C   UNL A   1      39.269  21.165  26.037  1.00  0.00     0.211 A 
ATOM      6  C   UNL A   1      37.591  22.473  25.437  1.00  0.00     0.142 A 
ATOM      7  C   UNL A   1      37.390  21.262  24.806  1.00  0.00     0.050 A 
ATOM      8  O   UNL A   1      38.703  22.400  26.222  1.00  0.00    -0.450 OA
ATOM      9  C   UNL A   1      38.468  20.426  25.187  1.00  0.00     0.058 A 
BRANCH   6  10
ATOM     10  C   UNL A   1      36.845  23.762  25.387  1.00  0.00     0.308 C 
BRANCH  10  11
ATOM     11  O   UNL A   1      35.449  23.515  25.179  1.00  0.00    -0.458 OA
BRANCH  11  12
ATOM     12  C   UNL A   1      34.902  24.148  24.106  1.00  0.00     0.303 C 
ATOM     13  C   UNL A   1      34.162  25.382  24.531  1.00  0.00     0.139 C 
ATOM     14  O   UNL A   1      35.022  23.795  22.940  1.00  0.00    -0.253 OA
ENDBRANCH  11  12
ENDBRANCH  10  11
ENDBRANCH   6  10
ENDBRANCH   3   5
ENDBRANCH   2   3
ENDBRANCH   1   2
BRANCH   1  15
ATOM     15  C   UNL A   1      43.652  21.679  25.037  1.00  0.00     0.275 C 
BRANCH  15  16
ATOM     16  O   UNL A   1      43.049  22.940  24.692  1.00  0.00    -0.458 OA
BRANCH  16  17
ATOM     17  C   UNL A   1      43.823  24.032  24.916  1.00  0.00     0.338 C 
ATOM     18  O   UNL A   1      44.795  24.373  24.263  1.00  0.00    -0.246 OA
BRANCH  17  19
ATOM     19  C   UNL A   1      43.238  24.854  25.994  1.00  0.00     0.060 A 
ATOM     20  C   UNL A   1      43.821  26.097  26.251  1.00  0.00     0.016 A 
ATOM     21  C   UNL A   1      42.164  24.408  26.770  1.00  0.00     0.016 A 
ATOM     22  C   UNL A   1      43.326  26.908  27.270  1.00  0.00     0.010 A 
ATOM     23  C   UNL A   1      41.674  25.219  27.803  1.00  0.00     0.010 A 
ATOM     24  C   UNL A   1      42.252  26.475  28.056  1.00  0.00    -0.014 A 
BRANCH  24  25
ATOM     25  C   UNL A   1      41.783  27.327  29.175  1.00  0.00     0.031 A 
ATOM     26  C   UNL A   1      42.507  27.295  30.490  1.00  0.00     0.074 A 
ATOM     27  C   UNL A   1      40.741  28.162  28.997  1.00  0.00     0.049 A 
ATOM     28  N   UNL A   1      42.251  27.946  31.594  1.00  0.00    -0.248 NA
ATOM     29  C   UNL A   1      43.680  26.412  30.564  1.00  0.00     0.031 C 
ATOM     30  C   UNL A   1      39.995  28.321  27.749  1.00  0.00     0.029 A 
ATOM     31  N   UNL A   1      40.133  29.034  29.865  1.00  0.00    -0.354 N 
ATOM     32  C   UNL A   1      43.232  27.559  32.499  1.00  0.00     0.074 A 
ATOM     33  C   UNL A   1      44.070  26.591  31.818  1.00  0.00     0.031 C 
ATOM     34  C   UNL A   1      39.023  29.230  27.935  1.00  0.00     0.029 A 
ATOM     35  C   UNL A   1      39.053  29.689  29.322  1.00  0.00     0.049 A 
ATOM     36  H   UNL A   1      40.442  29.177  30.789  1.00  0.00     0.167 HD
ATOM     37  C   UNL A   1      43.420  27.974  33.776  1.00  0.00     0.034 A 
ATOM     38  C   UNL A   1      38.173  30.539  29.888  1.00  0.00     0.034 A 
ATOM     39  C   UNL A   1      42.564  28.919  34.452  1.00  0.00     0.049 A 
ATOM     40  C   UNL A   1      38.343  30.912  31.341  1.00  0.00     0.074 A 
ATOM     41  C   UNL A   1      42.658  29.399  35.746  1.00  0.00     0.029 A 
ATOM     42  N   UNL A   1      41.442  29.519  33.890  1.00  0.00    -0.354 N 
ATOM     43  N   UNL A   1      39.269  30.529  32.189  1.00  0.00    -0.248 NA
ATOM     44  C   UNL A   1      37.348  31.831  31.911  1.00  0.00     0.031 C 
ATOM     45  C   UNL A   1      41.563  30.240  35.987  1.00  0.00     0.029 A 
ATOM     46  C   UNL A   1      40.822  30.339  34.821  1.00  0.00     0.049 A 
ATOM     47  H   UNL A   1      41.134  29.382  32.965  1.00  0.00     0.167 HD
ATOM     48  C   UNL A   1      38.983  31.184  33.385  1.00  0.00     0.074 A 
ATOM     49  C   UNL A   1      37.803  31.991  33.145  1.00  0.00     0.031 C 
ATOM     50  C   UNL A   1      39.639  31.129  34.572  1.00  0.00     0.034 A 
BRANCH  37  51
ATOM     51  C   UNL A   1      44.565  27.355  34.538  1.00  0.00     0.023 A 
ATOM     52  C   UNL A   1      44.430  26.124  35.203  1.00  0.00     0.031 A 
ATOM     53  C   UNL A   1      45.797  28.026  34.633  1.00  0.00     0.131 A 
ATOM     54  C   UNL A   1      45.485  25.633  35.987  1.00  0.00     0.055 A 
ATOM     55  C   UNL A   1      46.867  27.499  35.358  1.00  0.00     0.041 A 
ATOM     56  F   UNL A   1      45.974  29.216  34.037  1.00  0.00    -0.206 F 
ATOM     57  C   UNL A   1      46.710  26.303  36.052  1.00  0.00     0.022 A 
BRANCH  54  58
ATOM     58  S   UNL A   1      45.190  24.180  37.030  1.00  0.00     0.124 S 
ATOM     59  O   UNL A   1      46.552  23.770  37.362  1.00  0.00    -0.237 OA
ATOM     60  O   UNL A   1      44.404  24.733  38.127  1.00  0.00    -0.237 OA
ATOM     61  O   UNL A   1      44.470  23.263  36.146  1.00  0.00    -0.744 OA
ENDBRANCH  54  58
ENDBRANCH  37  51
BRANCH  38  62
ATOM     62  C   UNL A   1      37.017  31.060  29.104  1.00  0.00     0.023 A 
ATOM     63  C   UNL A   1      36.003  30.205  28.646  1.00  0.00     0.031 A 
ATOM     64  C   UNL A   1      36.943  32.420  28.756  1.00  0.00     0.131 A 
ATOM     65  C   UNL A   1      34.980  30.713  27.830  1.00  0.00     0.055 A 
ATOM     66  C   UNL A   1      35.898  32.929  27.986  1.00  0.00     0.041 A 
ATOM     67  F   UNL A   1      37.891  33.279  29.166  1.00  0.00    -0.206 F 
ATOM     68  C   UNL A   1      34.913  32.070  27.507  1.00  0.00     0.022 A 
BRANCH  65  69
ATOM     69  S   UNL A   1      33.773  29.554  27.127  1.00  0.00     0.124 S 
ATOM     70  O   UNL A   1      33.626  28.586  28.208  1.00  0.00    -0.237 OA
ATOM     71  O   UNL A   1      32.626  30.422  26.883  1.00  0.00    -0.237 OA
ATOM     72  O   UNL A   1      34.440  29.054  25.927  1.00  0.00    -0.744 OA
ENDBRANCH  65  69
ENDBRANCH  38  62
BRANCH  50  73
ATOM     73  C   UNL A   1      39.115  32.003  35.684  1.00  0.00     0.023 A 
ATOM     74  C   UNL A   1      38.411  31.469  36.778  1.00  0.00     0.031 A 
ATOM     75  C   UNL A   1      39.319  33.394  35.640  1.00  0.00     0.131 A 
ATOM     76  C   UNL A   1      37.894  32.328  37.760  1.00  0.00     0.055 A 
ATOM     77  C   UNL A   1      38.845  34.237  36.646  1.00  0.00     0.041 A 
ATOM     78  F   UNL A   1      39.985  33.954  34.618  1.00  0.00    -0.206 F 
ATOM     79  C   UNL A   1      38.119  33.707  37.708  1.00  0.00     0.022 A 
BRANCH  76  80
ATOM     80  S   UNL A   1      36.862  31.628  39.077  1.00  0.00     0.124 S 
ATOM     81  O   UNL A   1      36.682  30.253  38.625  1.00  0.00    -0.237 OA
ATOM     82  O   UNL A   1      37.699  31.805  40.259  1.00  0.00    -0.237 OA
ATOM     83  O   UNL A   1      35.656  32.455  39.046  1.00  0.00    -0.744 OA
ENDBRANCH  76  80
ENDBRANCH  50  73
ENDBRANCH  24  25
ENDBRANCH  17  19
ENDBRANCH  16  17
ENDBRANCH  15  16
ENDBRANCH   1  15
TORSDOF 17
ENDMDL
