MODEL 1
REMARK VINA RESULT:      -9.4      0.000      0.000
REMARK SMILES C=CCN(CC(=O)OCCOC(=O)c1ccc(-c2c3nc(c(-c4cc(S(=O)(=O)[O-])ccc4F)c4ccc([nH]4)c(-c4cc(S(=O)(=O)[O-])ccc4F)c4nc(c(-c5cc(S(=O)(=O)[O-])ccc5F)c5ccc2[nH]5)C=C4)C=C3)cc1)C(=O)[C@@H](C[NH3+])C(C)C
REMARK SMILES IDX 9 1 8 2 6 3 7 4 5 5 4 6 3 7 2 8 1 9 77 10 78 11 79 12 80 13
REMARK SMILES IDX 81 14 82 18 83 19 84 20 10 21 11 22 12 23 13 24 14 25 15 26
REMARK SMILES IDX 76 27 16 28 75 29 17 30 18 31 19 32 69 33 20 34 74 35 68 36
REMARK SMILES IDX 70 37 21 38 73 39 67 40 66 41 22 43 54 44 34 45 53 46 35 47
REMARK SMILES IDX 38 48 52 49 71 50 36 51 37 52 51 54 72 55 39 56 23 57 24 58
REMARK SMILES IDX 32 59 25 60 31 61 33 62 30 63 26 64 27 65 28 66 29 67 55 68
REMARK SMILES IDX 56 69 64 70 57 71 63 72 65 73 62 74 58 75 59 76 60 77 61 78
REMARK SMILES IDX 40 79 41 80 49 81 42 82 48 83 50 84 47 85 43 86 44 87 45 88
REMARK SMILES IDX 46 89
REMARK H PARENT 81 15 81 16 81 17 70 42 38 53
REMARK Flexibility Score: inf
ROOT
ATOM      1  C   UNL A   1      36.795  20.364  24.918  1.00  0.00     0.274 C 
ENDROOT
BRANCH   1   2
ATOM      2  O   UNL A   1      37.060  21.693  24.430  1.00  0.00    -0.461 OA
BRANCH   2   3
ATOM      3  C   UNL A   1      36.121  22.637  24.723  1.00  0.00     0.325 C 
ATOM      4  O   UNL A   1      36.041  23.242  25.786  1.00  0.00    -0.250 OA
BRANCH   3   5
ATOM      5  C   UNL A   1      35.299  22.983  23.474  1.00  0.00     0.242 C 
BRANCH   5   6
ATOM      6  N   UNL A   1      33.865  23.246  23.670  1.00  0.00    -0.327 N 
BRANCH   6   7
ATOM      7  C   UNL A   1      33.507  24.653  23.840  1.00  0.00     0.147 C 
BRANCH   7   8
ATOM      8  C   UNL A   1      33.643  25.329  22.499  1.00  0.00    -0.014 C 
ATOM      9  C   UNL A   1      32.631  25.481  21.631  1.00  0.00     0.006 C 
ENDBRANCH   7   8
ENDBRANCH   6   7
BRANCH   6  10
ATOM     10  C   UNL A   1      32.810  22.345  23.687  1.00  0.00     0.232 C 
ATOM     11  O   UNL A   1      32.258  22.034  22.619  1.00  0.00    -0.274 OA
BRANCH  10  12
ATOM     12  C   UNL A   1      32.245  21.695  24.961  1.00  0.00     0.136 C 
BRANCH  12  13
ATOM     13  C   UNL A   1      32.767  20.303  25.356  1.00  0.00     0.272 C 
BRANCH  13  14
ATOM     14  N   UNL A   1      33.305  19.434  24.321  1.00  0.00    -0.357 N 
ATOM     15  H   UNL A   1      33.258  19.909  23.420  1.00  0.00     0.344 HD
ATOM     16  H   UNL A   1      32.757  18.574  24.281  1.00  0.00     0.344 HD
ATOM     17  H   UNL A   1      34.276  19.209  24.536  1.00  0.00     0.344 HD
ENDBRANCH  13  14
ENDBRANCH  12  13
BRANCH  12  18
ATOM     18  C   UNL A   1      32.225  22.697  26.148  1.00  0.00     0.001 C 
ATOM     19  C   UNL A   1      30.804  22.949  26.667  1.00  0.00     0.008 C 
ATOM     20  C   UNL A   1      33.100  22.266  27.331  1.00  0.00     0.008 C 
ENDBRANCH  12  18
ENDBRANCH  10  12
ENDBRANCH   6  10
ENDBRANCH   5   6
ENDBRANCH   3   5
ENDBRANCH   2   3
ENDBRANCH   1   2
BRANCH   1  21
ATOM     21  C   UNL A   1      38.127  19.702  25.336  1.00  0.00     0.275 C 
BRANCH  21  22
ATOM     22  O   UNL A   1      39.363  20.479  25.328  1.00  0.00    -0.458 OA
BRANCH  22  23
ATOM     23  C   UNL A   1      40.087  20.644  26.450  1.00  0.00     0.338 C 
ATOM     24  O   UNL A   1      40.491  19.753  27.187  1.00  0.00    -0.246 OA
BRANCH  23  25
ATOM     25  C   UNL A   1      40.257  22.060  26.851  1.00  0.00     0.060 A 
ATOM     26  C   UNL A   1      41.226  22.282  27.842  1.00  0.00     0.016 A 
ATOM     27  C   UNL A   1      39.528  23.142  26.341  1.00  0.00     0.016 A 
ATOM     28  C   UNL A   1      41.452  23.552  28.343  1.00  0.00     0.010 A 
ATOM     29  C   UNL A   1      39.819  24.442  26.787  1.00  0.00     0.010 A 
ATOM     30  C   UNL A   1      40.803  24.650  27.769  1.00  0.00    -0.014 A 
BRANCH  30  31
ATOM     31  C   UNL A   1      41.396  25.982  28.031  1.00  0.00     0.031 A 
ATOM     32  C   UNL A   1      40.673  27.045  28.794  1.00  0.00     0.074 A 
ATOM     33  C   UNL A   1      42.673  26.147  27.632  1.00  0.00     0.049 A 
ATOM     34  N   UNL A   1      41.076  28.253  29.091  1.00  0.00    -0.248 NA
ATOM     35  C   UNL A   1      39.329  26.717  29.286  1.00  0.00     0.031 C 
ATOM     36  C   UNL A   1      43.465  25.121  26.936  1.00  0.00     0.029 A 
ATOM     37  N   UNL A   1      43.544  27.191  27.773  1.00  0.00    -0.354 N 
ATOM     38  C   UNL A   1      40.028  28.847  29.784  1.00  0.00     0.074 A 
ATOM     39  C   UNL A   1      38.970  27.859  29.863  1.00  0.00     0.031 C 
ATOM     40  C   UNL A   1      44.711  25.572  26.754  1.00  0.00     0.029 A 
ATOM     41  C   UNL A   1      44.781  26.945  27.223  1.00  0.00     0.049 A 
ATOM     42  H   UNL A   1      43.309  28.034  28.222  1.00  0.00     0.167 HD
ATOM     43  C   UNL A   1      39.971  30.108  30.284  1.00  0.00     0.034 A 
ATOM     44  C   UNL A   1      45.845  27.753  27.069  1.00  0.00     0.034 A 
ATOM     45  C   UNL A   1      41.061  31.055  30.177  1.00  0.00     0.049 A 
ATOM     46  C   UNL A   1      45.733  29.153  27.592  1.00  0.00     0.074 A 
ATOM     47  C   UNL A   1      41.126  32.357  30.643  1.00  0.00     0.029 A 
ATOM     48  N   UNL A   1      42.280  30.803  29.551  1.00  0.00    -0.354 N 
ATOM     49  N   UNL A   1      44.719  29.718  28.205  1.00  0.00    -0.248 NA
ATOM     50  C   UNL A   1      46.897  30.020  27.404  1.00  0.00     0.031 C 
ATOM     51  C   UNL A   1      42.348  32.911  30.239  1.00  0.00     0.029 A 
ATOM     52  C   UNL A   1      43.085  31.934  29.589  1.00  0.00     0.049 A 
ATOM     53  H   UNL A   1      42.535  29.945  29.141  1.00  0.00     0.167 HD
ATOM     54  C   UNL A   1      45.120  31.019  28.473  1.00  0.00     0.074 A 
ATOM     55  C   UNL A   1      46.486  31.133  27.990  1.00  0.00     0.031 C 
ATOM     56  C   UNL A   1      44.427  32.030  29.057  1.00  0.00     0.034 A 
BRANCH  43  57
ATOM     57  C   UNL A   1      38.671  30.562  30.912  1.00  0.00     0.023 A 
ATOM     58  C   UNL A   1      37.644  31.172  30.171  1.00  0.00     0.031 A 
ATOM     59  C   UNL A   1      38.459  30.374  32.291  1.00  0.00     0.131 A 
ATOM     60  C   UNL A   1      36.475  31.610  30.820  1.00  0.00     0.055 A 
ATOM     61  C   UNL A   1      37.269  30.751  32.918  1.00  0.00     0.041 A 
ATOM     62  F   UNL A   1      39.412  29.820  33.059  1.00  0.00    -0.206 F 
ATOM     63  C   UNL A   1      36.272  31.383  32.184  1.00  0.00     0.022 A 
BRANCH  60  64
ATOM     64  S   UNL A   1      35.264  32.584  29.882  1.00  0.00     0.124 S 
ATOM     65  O   UNL A   1      34.282  32.906  30.915  1.00  0.00    -0.237 OA
ATOM     66  O   UNL A   1      36.067  33.698  29.392  1.00  0.00    -0.237 OA
ATOM     67  O   UNL A   1      34.795  31.654  28.856  1.00  0.00    -0.744 OA
ENDBRANCH  60  64
ENDBRANCH  43  57
BRANCH  44  68
ATOM     68  C   UNL A   1      47.046  27.265  26.338  1.00  0.00     0.023 A 
ATOM     69  C   UNL A   1      48.079  26.588  26.999  1.00  0.00     0.031 A 
ATOM     70  C   UNL A   1      47.156  27.441  24.944  1.00  0.00     0.131 A 
ATOM     71  C   UNL A   1      49.184  26.123  26.269  1.00  0.00     0.055 A 
ATOM     72  C   UNL A   1      48.230  26.929  24.217  1.00  0.00     0.041 A 
ATOM     73  F   UNL A   1      46.191  28.078  24.260  1.00  0.00    -0.206 F 
ATOM     74  C   UNL A   1      49.257  26.270  24.881  1.00  0.00     0.022 A 
BRANCH  71  75
ATOM     75  S   UNL A   1      50.562  25.362  27.171  1.00  0.00     0.124 S 
ATOM     76  O   UNL A   1      51.039  26.476  27.982  1.00  0.00    -0.237 OA
ATOM     77  O   UNL A   1      49.892  24.284  27.890  1.00  0.00    -0.237 OA
ATOM     78  O   UNL A   1      51.468  24.932  26.108  1.00  0.00    -0.744 OA
ENDBRANCH  71  75
ENDBRANCH  44  68
BRANCH  56  79
ATOM     79  C   UNL A   1      45.166  33.335  29.194  1.00  0.00     0.023 A 
ATOM     80  C   UNL A   1      45.099  34.316  28.189  1.00  0.00     0.031 A 
ATOM     81  C   UNL A   1      46.003  33.567  30.297  1.00  0.00     0.131 A 
ATOM     82  C   UNL A   1      45.920  35.449  28.269  1.00  0.00     0.055 A 
ATOM     83  C   UNL A   1      46.767  34.728  30.404  1.00  0.00     0.041 A 
ATOM     84  F   UNL A   1      46.107  32.657  31.279  1.00  0.00    -0.206 F 
ATOM     85  C   UNL A   1      46.742  35.670  29.377  1.00  0.00     0.022 A 
BRANCH  82  86
ATOM     86  S   UNL A   1      45.993  36.568  26.843  1.00  0.00     0.124 S 
ATOM     87  O   UNL A   1      46.227  35.638  25.742  1.00  0.00    -0.237 OA
ATOM     88  O   UNL A   1      44.678  37.200  26.874  1.00  0.00    -0.237 OA
ATOM     89  O   UNL A   1      47.114  37.452  27.158  1.00  0.00    -0.744 OA
ENDBRANCH  82  86
ENDBRANCH  56  79
ENDBRANCH  30  31
ENDBRANCH  23  25
ENDBRANCH  22  23
ENDBRANCH  21  22
ENDBRANCH   1  21
TORSDOF 22
ENDMDL
MODEL 2
REMARK VINA RESULT:      -9.2      5.133     10.212
REMARK SMILES C=CCN(CC(=O)OCCOC(=O)c1ccc(-c2c3nc(c(-c4cc(S(=O)(=O)[O-])ccc4F)c4ccc([nH]4)c(-c4cc(S(=O)(=O)[O-])ccc4F)c4nc(c(-c5cc(S(=O)(=O)[O-])ccc5F)c5ccc2[nH]5)C=C4)C=C3)cc1)C(=O)[C@@H](C[NH3+])C(C)C
REMARK SMILES IDX 9 1 8 2 6 3 7 4 5 5 4 6 3 7 2 8 1 9 77 10 78 11 79 12 80 13
REMARK SMILES IDX 81 14 82 18 83 19 84 20 10 21 11 22 12 23 13 24 14 25 15 26
REMARK SMILES IDX 76 27 16 28 75 29 17 30 18 31 19 32 69 33 20 34 74 35 68 36
REMARK SMILES IDX 70 37 21 38 73 39 67 40 66 41 22 43 54 44 34 45 53 46 35 47
REMARK SMILES IDX 38 48 52 49 71 50 36 51 37 52 51 54 72 55 39 56 23 57 24 58
REMARK SMILES IDX 32 59 25 60 31 61 33 62 30 63 26 64 27 65 28 66 29 67 55 68
REMARK SMILES IDX 56 69 64 70 57 71 63 72 65 73 62 74 58 75 59 76 60 77 61 78
REMARK SMILES IDX 40 79 41 80 49 81 42 82 48 83 50 84 47 85 43 86 44 87 45 88
REMARK SMILES IDX 46 89
REMARK H PARENT 81 15 81 16 81 17 70 42 38 53
REMARK Flexibility Score: inf
ROOT
ATOM      1  C   UNL A   1      31.614  29.684  26.384  1.00  0.00     0.274 C 
ENDROOT
BRANCH   1   2
ATOM      2  O   UNL A   1      32.099  28.715  27.334  1.00  0.00    -0.461 OA
BRANCH   2   3
ATOM      3  C   UNL A   1      32.030  27.410  26.947  1.00  0.00     0.325 C 
ATOM      4  O   UNL A   1      31.046  26.691  27.077  1.00  0.00    -0.250 OA
BRANCH   3   5
ATOM      5  C   UNL A   1      33.280  27.019  26.149  1.00  0.00     0.242 C 
BRANCH   5   6
ATOM      6  N   UNL A   1      33.184  25.819  25.305  1.00  0.00    -0.327 N 
BRANCH   6   7
ATOM      7  C   UNL A   1      33.835  24.625  25.843  1.00  0.00     0.147 C 
BRANCH   7   8
ATOM      8  C   UNL A   1      35.209  24.532  25.229  1.00  0.00    -0.014 C 
ATOM      9  C   UNL A   1      35.695  23.426  24.646  1.00  0.00     0.006 C 
ENDBRANCH   7   8
ENDBRANCH   6   7
BRANCH   6  10
ATOM     10  C   UNL A   1      32.538  25.661  24.087  1.00  0.00     0.232 C 
ATOM     11  O   UNL A   1      31.412  25.136  24.058  1.00  0.00    -0.274 OA
BRANCH  10  12
ATOM     12  C   UNL A   1      33.128  26.081  22.731  1.00  0.00     0.136 C 
BRANCH  12  13
ATOM     13  C   UNL A   1      32.807  25.212  21.503  1.00  0.00     0.272 C 
BRANCH  13  14
ATOM     14  N   UNL A   1      32.015  25.783  20.424  1.00  0.00    -0.357 N 
ATOM     15  H   UNL A   1      32.636  26.125  19.691  1.00  0.00     0.344 HD
ATOM     16  H   UNL A   1      31.457  26.557  20.785  1.00  0.00     0.344 HD
ATOM     17  H   UNL A   1      31.398  25.069  20.040  1.00  0.00     0.344 HD
ENDBRANCH  13  14
ENDBRANCH  12  13
BRANCH  12  18
ATOM     18  C   UNL A   1      32.927  27.599  22.471  1.00  0.00     0.001 C 
ATOM     19  C   UNL A   1      31.630  28.126  23.097  1.00  0.00     0.008 C 
ATOM     20  C   UNL A   1      34.089  28.467  22.970  1.00  0.00     0.008 C 
ENDBRANCH  12  18
ENDBRANCH  10  12
ENDBRANCH   6  10
ENDBRANCH   5   6
ENDBRANCH   3   5
ENDBRANCH   2   3
ENDBRANCH   1   2
BRANCH   1  21
ATOM     21  C   UNL A   1      31.998  31.102  26.866  1.00  0.00     0.275 C 
BRANCH  21  22
ATOM     22  O   UNL A   1      33.364  31.586  26.696  1.00  0.00    -0.458 OA
BRANCH  22  23
ATOM     23  C   UNL A   1      34.044  32.122  27.727  1.00  0.00     0.338 C 
ATOM     24  O   UNL A   1      33.803  33.192  28.272  1.00  0.00    -0.246 OA
BRANCH  23  25
ATOM     25  C   UNL A   1      35.266  31.370  28.094  1.00  0.00     0.060 A 
ATOM     26  C   UNL A   1      36.394  32.165  28.354  1.00  0.00     0.016 A 
ATOM     27  C   UNL A   1      35.369  29.976  28.173  1.00  0.00     0.016 A 
ATOM     28  C   UNL A   1      37.614  31.589  28.662  1.00  0.00     0.010 A 
ATOM     29  C   UNL A   1      36.585  29.394  28.571  1.00  0.00     0.010 A 
ATOM     30  C   UNL A   1      37.701  30.204  28.843  1.00  0.00    -0.014 A 
BRANCH  30  31
ATOM     31  C   UNL A   1      38.883  29.706  29.584  1.00  0.00     0.031 A 
ATOM     32  C   UNL A   1      39.841  28.721  28.995  1.00  0.00     0.074 A 
ATOM     33  C   UNL A   1      39.107  30.274  30.786  1.00  0.00     0.049 A 
ATOM     34  N   UNL A   1      40.912  28.202  29.536  1.00  0.00    -0.248 NA
ATOM     35  C   UNL A   1      39.566  28.256  27.630  1.00  0.00     0.031 C 
ATOM     36  C   UNL A   1      38.243  31.296  31.396  1.00  0.00     0.029 A 
ATOM     37  N   UNL A   1      40.119  30.120  31.692  1.00  0.00    -0.354 N 
ATOM     38  C   UNL A   1      41.433  27.326  28.591  1.00  0.00     0.074 A 
ATOM     39  C   UNL A   1      40.554  27.388  27.440  1.00  0.00     0.031 C 
ATOM     40  C   UNL A   1      38.786  31.705  32.547  1.00  0.00     0.029 A 
ATOM     41  C   UNL A   1      39.974  30.910  32.809  1.00  0.00     0.049 A 
ATOM     42  H   UNL A   1      40.876  29.506  31.558  1.00  0.00     0.167 HD
ATOM     43  C   UNL A   1      42.534  26.540  28.703  1.00  0.00     0.034 A 
ATOM     44  C   UNL A   1      40.692  30.958  33.945  1.00  0.00     0.034 A 
ATOM     45  C   UNL A   1      43.378  26.519  29.880  1.00  0.00     0.049 A 
ATOM     46  C   UNL A   1      41.876  30.046  34.055  1.00  0.00     0.074 A 
ATOM     47  C   UNL A   1      44.519  25.770  30.114  1.00  0.00     0.029 A 
ATOM     48  N   UNL A   1      43.168  27.279  31.028  1.00  0.00    -0.354 N 
ATOM     49  N   UNL A   1      42.331  29.187  33.172  1.00  0.00    -0.248 NA
ATOM     50  C   UNL A   1      42.637  30.104  35.303  1.00  0.00     0.031 C 
ATOM     51  C   UNL A   1      44.954  26.025  31.421  1.00  0.00     0.029 A 
ATOM     52  C   UNL A   1      44.135  26.991  31.982  1.00  0.00     0.049 A 
ATOM     53  H   UNL A   1      42.438  27.929  31.146  1.00  0.00     0.167 HD
ATOM     54  C   UNL A   1      43.436  28.592  33.763  1.00  0.00     0.074 A 
ATOM     55  C   UNL A   1      43.598  29.226  35.060  1.00  0.00     0.031 C 
ATOM     56  C   UNL A   1      44.242  27.609  33.286  1.00  0.00     0.034 A 
BRANCH  43  57
ATOM     57  C   UNL A   1      42.841  25.585  27.570  1.00  0.00     0.023 A 
ATOM     58  C   UNL A   1      42.243  24.317  27.465  1.00  0.00     0.031 A 
ATOM     59  C   UNL A   1      43.756  25.962  26.568  1.00  0.00     0.131 A 
ATOM     60  C   UNL A   1      42.601  23.458  26.411  1.00  0.00     0.055 A 
ATOM     61  C   UNL A   1      44.057  25.130  25.487  1.00  0.00     0.041 A 
ATOM     62  F   UNL A   1      44.380  27.149  26.625  1.00  0.00    -0.206 F 
ATOM     63  C   UNL A   1      43.486  23.865  25.409  1.00  0.00     0.022 A 
BRANCH  60  64
ATOM     64  S   UNL A   1      41.980  21.752  26.420  1.00  0.00     0.124 S 
ATOM     65  O   UNL A   1      42.845  21.117  25.429  1.00  0.00    -0.237 OA
ATOM     66  O   UNL A   1      42.188  21.348  27.805  1.00  0.00    -0.237 OA
ATOM     67  O   UNL A   1      40.581  21.893  26.016  1.00  0.00    -0.744 OA
ENDBRANCH  60  64
ENDBRANCH  43  57
BRANCH  44  68
ATOM     68  C   UNL A   1      40.258  31.844  35.060  1.00  0.00     0.023 A 
ATOM     69  C   UNL A   1      39.295  31.429  35.989  1.00  0.00     0.031 A 
ATOM     70  C   UNL A   1      40.837  33.116  35.230  1.00  0.00     0.131 A 
ATOM     71  C   UNL A   1      38.929  32.285  37.041  1.00  0.00     0.055 A 
ATOM     72  C   UNL A   1      40.509  33.940  36.307  1.00  0.00     0.041 A 
ATOM     73  F   UNL A   1      41.769  33.560  34.371  1.00  0.00    -0.206 F 
ATOM     74  C   UNL A   1      39.544  33.527  37.217  1.00  0.00     0.022 A 
BRANCH  71  75
ATOM     75  S   UNL A   1      37.592  31.771  38.153  1.00  0.00     0.124 S 
ATOM     76  O   UNL A   1      38.228  31.892  39.460  1.00  0.00    -0.237 OA
ATOM     77  O   UNL A   1      36.555  32.752  37.850  1.00  0.00    -0.237 OA
ATOM     78  O   UNL A   1      37.300  30.405  37.725  1.00  0.00    -0.744 OA
ENDBRANCH  71  75
ENDBRANCH  44  68
BRANCH  56  79
ATOM     79  C   UNL A   1      45.364  27.184  34.196  1.00  0.00     0.023 A 
ATOM     80  C   UNL A   1      45.192  26.142  35.124  1.00  0.00     0.031 A 
ATOM     81  C   UNL A   1      46.586  27.875  34.189  1.00  0.00     0.131 A 
ATOM     82  C   UNL A   1      46.196  25.875  36.064  1.00  0.00     0.055 A 
ATOM     83  C   UNL A   1      47.609  27.561  35.083  1.00  0.00     0.041 A 
ATOM     84  F   UNL A   1      46.797  28.883  33.327  1.00  0.00    -0.206 F 
ATOM     85  C   UNL A   1      47.411  26.567  36.040  1.00  0.00     0.022 A 
BRANCH  82  86
ATOM     86  S   UNL A   1      45.844  24.699  37.399  1.00  0.00     0.124 S 
ATOM     87  O   UNL A   1      46.236  23.430  36.793  1.00  0.00    -0.237 OA
ATOM     88  O   UNL A   1      46.702  25.183  38.476  1.00  0.00    -0.237 OA
ATOM     89  O   UNL A   1      44.410  24.861  37.628  1.00  0.00    -0.744 OA
ENDBRANCH  82  86
ENDBRANCH  56  79
ENDBRANCH  30  31
ENDBRANCH  23  25
ENDBRANCH  22  23
ENDBRANCH  21  22
ENDBRANCH   1  21
TORSDOF 22
ENDMDL
MODEL 3
REMARK VINA RESULT:      -9.2      4.523      7.153
REMARK SMILES C=CCN(CC(=O)OCCOC(=O)c1ccc(-c2c3nc(c(-c4cc(S(=O)(=O)[O-])ccc4F)c4ccc([nH]4)c(-c4cc(S(=O)(=O)[O-])ccc4F)c4nc(c(-c5cc(S(=O)(=O)[O-])ccc5F)c5ccc2[nH]5)C=C4)C=C3)cc1)C(=O)[C@@H](C[NH3+])C(C)C
REMARK SMILES IDX 9 1 8 2 6 3 7 4 5 5 4 6 3 7 2 8 1 9 77 10 78 11 79 12 80 13
REMARK SMILES IDX 81 14 82 18 83 19 84 20 10 21 11 22 12 23 13 24 14 25 15 26
REMARK SMILES IDX 76 27 16 28 75 29 17 30 18 31 19 32 69 33 20 34 74 35 68 36
REMARK SMILES IDX 70 37 21 38 73 39 67 40 66 41 22 43 54 44 34 45 53 46 35 47
REMARK SMILES IDX 38 48 52 49 71 50 36 51 37 52 51 54 72 55 39 56 23 57 24 58
REMARK SMILES IDX 32 59 25 60 31 61 33 62 30 63 26 64 27 65 28 66 29 67 55 68
REMARK SMILES IDX 56 69 64 70 57 71 63 72 65 73 62 74 58 75 59 76 60 77 61 78
REMARK SMILES IDX 40 79 41 80 49 81 42 82 48 83 50 84 47 85 43 86 44 87 45 88
REMARK SMILES IDX 46 89
REMARK H PARENT 81 15 81 16 81 17 70 42 38 53
REMARK Flexibility Score: inf
ROOT
ATOM      1  C   UNL A   1      31.567  29.630  24.979  1.00  0.00     0.274 C 
ENDROOT
BRANCH   1   2
ATOM      2  O   UNL A   1      32.098  29.088  23.754  1.00  0.00    -0.461 OA
BRANCH   2   3
ATOM      3  C   UNL A   1      31.780  27.790  23.485  1.00  0.00     0.325 C 
ATOM      4  O   UNL A   1      30.814  27.428  22.823  1.00  0.00    -0.250 OA
BRANCH   3   5
ATOM      5  C   UNL A   1      32.900  26.853  23.954  1.00  0.00     0.242 C 
BRANCH   5   6
ATOM      6  N   UNL A   1      32.650  26.073  25.175  1.00  0.00    -0.327 N 
BRANCH   6   7
ATOM      7  C   UNL A   1      33.848  25.627  25.886  1.00  0.00     0.147 C 
BRANCH   7   8
ATOM      8  C   UNL A   1      34.510  24.561  25.050  1.00  0.00    -0.014 C 
ATOM      9  C   UNL A   1      35.748  24.094  25.274  1.00  0.00     0.006 C 
ENDBRANCH   7   8
ENDBRANCH   6   7
BRANCH   6  10
ATOM     10  C   UNL A   1      31.437  25.731  25.756  1.00  0.00     0.232 C 
ATOM     11  O   UNL A   1      30.866  26.547  26.498  1.00  0.00    -0.274 OA
BRANCH  10  12
ATOM     12  C   UNL A   1      30.733  24.379  25.561  1.00  0.00     0.136 C 
BRANCH  12  13
ATOM     13  C   UNL A   1      30.943  23.639  24.229  1.00  0.00     0.272 C 
BRANCH  13  14
ATOM     14  N   UNL A   1      30.671  24.342  22.984  1.00  0.00    -0.357 N 
ATOM     15  H   UNL A   1      31.551  24.558  22.516  1.00  0.00     0.344 HD
ATOM     16  H   UNL A   1      30.172  25.208  23.184  1.00  0.00     0.344 HD
ATOM     17  H   UNL A   1      30.101  23.753  22.378  1.00  0.00     0.344 HD
ENDBRANCH  13  14
ENDBRANCH  12  13
BRANCH  12  18
ATOM     18  C   UNL A   1      30.915  23.461  26.801  1.00  0.00     0.001 C 
ATOM     19  C   UNL A   1      29.608  22.764  27.200  1.00  0.00     0.008 C 
ATOM     20  C   UNL A   1      31.995  22.389  26.620  1.00  0.00     0.008 C 
ENDBRANCH  12  18
ENDBRANCH  10  12
ENDBRANCH   6  10
ENDBRANCH   5   6
ENDBRANCH   3   5
ENDBRANCH   2   3
ENDBRANCH   1   2
BRANCH   1  21
ATOM     21  C   UNL A   1      32.710  30.295  25.777  1.00  0.00     0.275 C 
BRANCH  21  22
ATOM     22  O   UNL A   1      32.421  30.993  27.026  1.00  0.00    -0.458 OA
BRANCH  22  23
ATOM     23  C   UNL A   1      33.286  31.888  27.538  1.00  0.00     0.338 C 
ATOM     24  O   UNL A   1      33.145  33.104  27.547  1.00  0.00    -0.246 OA
BRANCH  23  25
ATOM     25  C   UNL A   1      34.566  31.293  27.989  1.00  0.00     0.060 A 
ATOM     26  C   UNL A   1      35.600  32.216  28.211  1.00  0.00     0.016 A 
ATOM     27  C   UNL A   1      34.805  29.927  28.179  1.00  0.00     0.016 A 
ATOM     28  C   UNL A   1      36.862  31.793  28.588  1.00  0.00     0.010 A 
ATOM     29  C   UNL A   1      36.061  29.504  28.647  1.00  0.00     0.010 A 
ATOM     30  C   UNL A   1      37.082  30.442  28.879  1.00  0.00    -0.014 A 
BRANCH  30  31
ATOM     31  C   UNL A   1      38.286  30.124  29.681  1.00  0.00     0.031 A 
ATOM     32  C   UNL A   1      38.478  30.630  31.074  1.00  0.00     0.074 A 
ATOM     33  C   UNL A   1      39.157  29.261  29.120  1.00  0.00     0.049 A 
ATOM     34  N   UNL A   1      39.484  30.429  31.884  1.00  0.00    -0.248 NA
ATOM     35  C   UNL A   1      37.409  31.468  31.633  1.00  0.00     0.031 C 
ATOM     36  C   UNL A   1      38.997  28.673  27.781  1.00  0.00     0.029 A 
ATOM     37  N   UNL A   1      40.310  28.696  29.588  1.00  0.00    -0.354 N 
ATOM     38  C   UNL A   1      39.191  31.136  33.044  1.00  0.00     0.074 A 
ATOM     39  C   UNL A   1      37.905  31.770  32.829  1.00  0.00     0.031 C 
ATOM     40  C   UNL A   1      39.987  27.802  27.559  1.00  0.00     0.029 A 
ATOM     41  C   UNL A   1      40.902  27.842  28.687  1.00  0.00     0.049 A 
ATOM     42  H   UNL A   1      40.679  28.881  30.481  1.00  0.00     0.167 HD
ATOM     43  C   UNL A   1      39.947  31.244  34.166  1.00  0.00     0.034 A 
ATOM     44  C   UNL A   1      42.081  27.196  28.740  1.00  0.00     0.034 A 
ATOM     45  C   UNL A   1      41.227  30.585  34.327  1.00  0.00     0.049 A 
ATOM     46  C   UNL A   1      42.912  27.372  29.974  1.00  0.00     0.074 A 
ATOM     47  C   UNL A   1      42.085  30.615  35.414  1.00  0.00     0.029 A 
ATOM     48  N   UNL A   1      41.839  29.781  33.369  1.00  0.00    -0.354 N 
ATOM     49  N   UNL A   1      42.645  28.081  31.046  1.00  0.00    -0.248 NA
ATOM     50  C   UNL A   1      44.196  26.670  30.007  1.00  0.00     0.031 C 
ATOM     51  C   UNL A   1      43.239  29.891  35.086  1.00  0.00     0.029 A 
ATOM     52  C   UNL A   1      43.074  29.341  33.825  1.00  0.00     0.049 A 
ATOM     53  H   UNL A   1      41.449  29.556  32.493  1.00  0.00     0.167 HD
ATOM     54  C   UNL A   1      43.736  27.916  31.887  1.00  0.00     0.074 A 
ATOM     55  C   UNL A   1      44.641  27.005  31.208  1.00  0.00     0.031 C 
ATOM     56  C   UNL A   1      43.975  28.469  33.104  1.00  0.00     0.034 A 
BRANCH  43  57
ATOM     57  C   UNL A   1      39.457  32.163  35.264  1.00  0.00     0.023 A 
ATOM     58  C   UNL A   1      39.874  33.501  35.374  1.00  0.00     0.031 A 
ATOM     59  C   UNL A   1      38.546  31.681  36.223  1.00  0.00     0.131 A 
ATOM     60  C   UNL A   1      39.415  34.293  36.442  1.00  0.00     0.055 A 
ATOM     61  C   UNL A   1      38.043  32.492  37.243  1.00  0.00     0.041 A 
ATOM     62  F   UNL A   1      38.129  30.405  36.188  1.00  0.00    -0.206 F 
ATOM     63  C   UNL A   1      38.485  33.805  37.363  1.00  0.00     0.022 A 
BRANCH  60  64
ATOM     64  S   UNL A   1      40.134  35.943  36.682  1.00  0.00     0.124 S 
ATOM     65  O   UNL A   1      39.465  36.382  37.904  1.00  0.00    -0.237 OA
ATOM     66  O   UNL A   1      41.558  35.653  36.800  1.00  0.00    -0.237 OA
ATOM     67  O   UNL A   1      39.744  36.667  35.473  1.00  0.00    -0.744 OA
ENDBRANCH  60  64
ENDBRANCH  43  57
BRANCH  44  68
ATOM     68  C   UNL A   1      42.543  26.401  27.569  1.00  0.00     0.023 A 
ATOM     69  C   UNL A   1      42.201  25.050  27.422  1.00  0.00     0.031 A 
ATOM     70  C   UNL A   1      43.311  27.003  26.553  1.00  0.00     0.131 A 
ATOM     71  C   UNL A   1      42.638  24.342  26.291  1.00  0.00     0.055 A 
ATOM     72  C   UNL A   1      43.696  26.310  25.407  1.00  0.00     0.041 A 
ATOM     73  F   UNL A   1      43.661  28.298  26.642  1.00  0.00    -0.206 F 
ATOM     74  C   UNL A   1      43.364  24.967  25.274  1.00  0.00     0.022 A 
BRANCH  71  75
ATOM     75  S   UNL A   1      42.286  22.566  26.191  1.00  0.00     0.124 S 
ATOM     76  O   UNL A   1      40.828  22.552  26.149  1.00  0.00    -0.237 OA
ATOM     77  O   UNL A   1      42.967  22.193  24.956  1.00  0.00    -0.237 OA
ATOM     78  O   UNL A   1      42.879  22.032  27.415  1.00  0.00    -0.744 OA
ENDBRANCH  71  75
ENDBRANCH  44  68
BRANCH  56  79
ATOM     79  C   UNL A   1      45.277  28.078  33.753  1.00  0.00     0.023 A 
ATOM     80  C   UNL A   1      46.453  28.814  33.524  1.00  0.00     0.031 A 
ATOM     81  C   UNL A   1      45.358  26.921  34.544  1.00  0.00     0.131 A 
ATOM     82  C   UNL A   1      47.677  28.338  34.012  1.00  0.00     0.055 A 
ATOM     83  C   UNL A   1      46.569  26.489  35.084  1.00  0.00     0.041 A 
ATOM     84  F   UNL A   1      44.265  26.180  34.787  1.00  0.00    -0.206 F 
ATOM     85  C   UNL A   1      47.741  27.188  34.804  1.00  0.00     0.022 A 
BRANCH  82  86
ATOM     86  S   UNL A   1      49.201  29.172  33.491  1.00  0.00     0.124 S 
ATOM     87  O   UNL A   1      49.224  28.888  32.059  1.00  0.00    -0.237 OA
ATOM     88  O   UNL A   1      48.940  30.560  33.860  1.00  0.00    -0.237 OA
ATOM     89  O   UNL A   1      50.241  28.506  34.272  1.00  0.00    -0.744 OA
ENDBRANCH  82  86
ENDBRANCH  56  79
ENDBRANCH  30  31
ENDBRANCH  23  25
ENDBRANCH  22  23
ENDBRANCH  21  22
ENDBRANCH   1  21
TORSDOF 22
ENDMDL
