MODEL 1
REMARK VINA RESULT:     -12.7      0.000      0.000
REMARK SMILES O=C(CCC(=O)OCCOC(=O)c1ccc(-c2c3nc(c(-c4cc(S(=O)(=O)[O-])ccc4F)c4ccc([nH]4)c(-c4cc(S(=O)(=O)[O-])ccc4F)c4nc(c(-c5cc(S(=O)(=O)[O-])ccc5F)c5ccc2[nH]5)C=C4)C=C3)cc1)/[NH+]=C1\S[C@H]2CS(=O)(=O)C[C@@H]2N1c1ccc2c(c1)OCO2
REMARK SMILES IDX 8 1 7 2 5 3 6 4 4 5 3 6 2 7 1 8 76 9 77 10 78 12 86 13 79 14
REMARK SMILES IDX 85 15 80 16 84 17 81 18 82 19 83 20 87 21 88 22 92 23 89 24
REMARK SMILES IDX 91 25 90 26 93 27 95 28 94 29 9 30 10 31 11 32 12 33 13 34
REMARK SMILES IDX 14 35 75 36 15 37 74 38 16 39 17 40 18 41 68 42 19 43 73 44
REMARK SMILES IDX 67 45 69 46 20 47 72 48 66 49 65 50 21 52 53 53 33 54 52 55
REMARK SMILES IDX 34 56 37 57 51 58 70 59 35 60 36 61 50 63 71 64 38 65 22 66
REMARK SMILES IDX 23 67 31 68 24 69 30 70 32 71 29 72 25 73 26 74 27 75 28 76
REMARK SMILES IDX 54 77 55 78 63 79 56 80 62 81 64 82 61 83 57 84 58 85 59 86
REMARK SMILES IDX 60 87 39 88 40 89 48 90 41 91 47 92 49 93 46 94 42 95 43 96
REMARK SMILES IDX 44 97 45 98
REMARK H PARENT 76 11 69 51 37 62
REMARK Flexibility Score: inf
ROOT
ATOM      1  C   UNL A   1      36.074  20.169  25.004  1.00  0.00     0.274 C 
ENDROOT
BRANCH   1   2
ATOM      2  O   UNL A   1      34.937  21.029  24.809  1.00  0.00    -0.462 OA
BRANCH   2   3
ATOM      3  C   UNL A   1      33.759  20.399  24.610  1.00  0.00     0.306 C 
ATOM      4  O   UNL A   1      33.539  19.233  24.917  1.00  0.00    -0.252 OA
BRANCH   3   5
ATOM      5  C   UNL A   1      32.759  21.267  23.893  1.00  0.00     0.135 C 
BRANCH   5   6
ATOM      6  C   UNL A   1      32.915  22.784  23.931  1.00  0.00     0.139 C 
BRANCH   6   7
ATOM      7  C   UNL A   1      31.823  23.729  23.432  1.00  0.00     0.308 C 
ATOM      8  O   UNL A   1      30.706  23.259  23.202  1.00  0.00    -0.247 OA
ATOM      9  N   UNL A   1      32.060  25.058  23.192  1.00  0.00    -0.204 N 
ATOM     10  C   UNL A   1      31.941  25.961  24.114  1.00  0.00     0.319 C 
ATOM     11  H   UNL A   1      32.330  25.336  22.287  1.00  0.00     0.316 HD
ATOM     12  S   UNL A   1      31.863  25.701  25.883  1.00  0.00    -0.029 SA
ATOM     13  N   UNL A   1      31.924  27.342  23.855  1.00  0.00    -0.216 N 
ATOM     14  C   UNL A   1      32.080  27.477  26.250  1.00  0.00     0.120 C 
ATOM     15  C   UNL A   1      32.563  28.080  24.932  1.00  0.00     0.212 C 
ATOM     16  C   UNL A   1      33.128  27.987  27.223  1.00  0.00     0.156 C 
ATOM     17  C   UNL A   1      32.470  29.574  25.119  1.00  0.00     0.188 C 
ATOM     18  S   UNL A   1      33.307  29.720  26.716  1.00  0.00     0.155 S 
ATOM     19  O   UNL A   1      32.508  30.557  27.584  1.00  0.00    -0.229 OA
ATOM     20  O   UNL A   1      34.708  29.980  26.458  1.00  0.00    -0.229 OA
BRANCH  13  21
ATOM     21  C   UNL A   1      30.755  27.912  23.315  1.00  0.00     0.132 A 
ATOM     22  C   UNL A   1      29.489  27.467  23.754  1.00  0.00     0.056 A 
ATOM     23  C   UNL A   1      30.828  28.942  22.362  1.00  0.00     0.102 A 
ATOM     24  C   UNL A   1      28.313  28.069  23.290  1.00  0.00     0.055 A 
ATOM     25  C   UNL A   1      29.660  29.521  21.931  1.00  0.00     0.170 A 
ATOM     26  C   UNL A   1      28.434  29.107  22.393  1.00  0.00     0.166 A 
ATOM     27  O   UNL A   1      29.568  30.559  21.060  1.00  0.00    -0.453 OA
ATOM     28  O   UNL A   1      27.419  29.857  21.883  1.00  0.00    -0.454 OA
ATOM     29  C   UNL A   1      28.172  30.884  21.199  1.00  0.00     0.468 C 
ENDBRANCH  13  21
ENDBRANCH   6   7
ENDBRANCH   5   6
ENDBRANCH   3   5
ENDBRANCH   2   3
ENDBRANCH   1   2
BRANCH   1  30
ATOM     30  C   UNL A   1      37.356  20.928  24.688  1.00  0.00     0.275 C 
BRANCH  30  31
ATOM     31  O   UNL A   1      37.798  21.832  25.714  1.00  0.00    -0.458 OA
BRANCH  31  32
ATOM     32  C   UNL A   1      39.083  21.668  26.078  1.00  0.00     0.338 C 
ATOM     33  O   UNL A   1      39.708  20.613  26.099  1.00  0.00    -0.246 OA
BRANCH  32  34
ATOM     34  C   UNL A   1      39.643  22.853  26.682  1.00  0.00     0.060 A 
ATOM     35  C   UNL A   1      40.597  22.749  27.685  1.00  0.00     0.016 A 
ATOM     36  C   UNL A   1      39.122  24.085  26.274  1.00  0.00     0.016 A 
ATOM     37  C   UNL A   1      41.089  23.923  28.235  1.00  0.00     0.010 A 
ATOM     38  C   UNL A   1      39.662  25.253  26.769  1.00  0.00     0.010 A 
ATOM     39  C   UNL A   1      40.662  25.170  27.737  1.00  0.00    -0.014 A 
BRANCH  39  40
ATOM     40  C   UNL A   1      41.370  26.393  28.139  1.00  0.00     0.031 A 
ATOM     41  C   UNL A   1      42.771  26.635  27.685  1.00  0.00     0.074 A 
ATOM     42  C   UNL A   1      40.687  27.239  28.933  1.00  0.00     0.049 A 
ATOM     43  N   UNL A   1      43.519  27.686  27.871  1.00  0.00    -0.248 NA
ATOM     44  C   UNL A   1      43.435  25.544  26.953  1.00  0.00     0.031 C 
ATOM     45  C   UNL A   1      39.344  26.978  29.471  1.00  0.00     0.029 A 
ATOM     46  N   UNL A   1      40.989  28.485  29.397  1.00  0.00    -0.354 N 
ATOM     47  C   UNL A   1      44.738  27.393  27.272  1.00  0.00     0.074 A 
ATOM     48  C   UNL A   1      44.651  26.038  26.774  1.00  0.00     0.031 C 
ATOM     49  C   UNL A   1      38.905  28.068  30.114  1.00  0.00     0.029 A 
ATOM     50  C   UNL A   1      39.950  29.080  30.078  1.00  0.00     0.049 A 
ATOM     51  H   UNL A   1      41.862  28.916  29.259  1.00  0.00     0.167 HD
ATOM     52  C   UNL A   1      45.812  28.207  27.140  1.00  0.00     0.034 A 
ATOM     53  C   UNL A   1      39.860  30.319  30.592  1.00  0.00     0.034 A 
ATOM     54  C   UNL A   1      45.827  29.548  27.672  1.00  0.00     0.049 A 
ATOM     55  C   UNL A   1      41.045  31.221  30.372  1.00  0.00     0.074 A 
ATOM     56  C   UNL A   1      46.839  30.489  27.645  1.00  0.00     0.029 A 
ATOM     57  N   UNL A   1      44.751  30.139  28.334  1.00  0.00    -0.354 N 
ATOM     58  N   UNL A   1      42.184  30.947  29.773  1.00  0.00    -0.248 NA
ATOM     59  C   UNL A   1      40.933  32.594  30.867  1.00  0.00     0.031 C 
ATOM     60  C   UNL A   1      46.388  31.630  28.323  1.00  0.00     0.029 A 
ATOM     61  C   UNL A   1      45.073  31.428  28.718  1.00  0.00     0.049 A 
ATOM     62  H   UNL A   1      43.886  29.702  28.503  1.00  0.00     0.167 HD
ATOM     63  C   UNL A   1      42.923  32.119  29.808  1.00  0.00     0.074 A 
ATOM     64  C   UNL A   1      42.079  33.112  30.452  1.00  0.00     0.031 C 
ATOM     65  C   UNL A   1      44.185  32.365  29.368  1.00  0.00     0.034 A 
BRANCH  52  66
ATOM     66  C   UNL A   1      47.028  27.651  26.436  1.00  0.00     0.023 A 
ATOM     67  C   UNL A   1      47.295  27.945  25.085  1.00  0.00     0.031 A 
ATOM     68  C   UNL A   1      47.906  26.777  27.099  1.00  0.00     0.131 A 
ATOM     69  C   UNL A   1      48.362  27.314  24.423  1.00  0.00     0.055 A 
ATOM     70  C   UNL A   1      49.012  26.212  26.456  1.00  0.00     0.041 A 
ATOM     71  F   UNL A   1      47.693  26.436  28.380  1.00  0.00    -0.206 F 
ATOM     72  C   UNL A   1      49.237  26.468  25.106  1.00  0.00     0.022 A 
BRANCH  69  73
ATOM     73  S   UNL A   1      48.512  27.513  22.625  1.00  0.00     0.124 S 
ATOM     74  O   UNL A   1      48.551  26.122  22.179  1.00  0.00    -0.237 OA
ATOM     75  O   UNL A   1      47.305  28.258  22.286  1.00  0.00    -0.237 OA
ATOM     76  O   UNL A   1      49.765  28.248  22.466  1.00  0.00    -0.744 OA
ENDBRANCH  69  73
ENDBRANCH  52  66
BRANCH  53  77
ATOM     77  C   UNL A   1      38.628  30.763  31.310  1.00  0.00     0.023 A 
ATOM     78  C   UNL A   1      37.566  31.381  30.631  1.00  0.00     0.031 A 
ATOM     79  C   UNL A   1      38.492  30.575  32.699  1.00  0.00     0.131 A 
ATOM     80  C   UNL A   1      36.441  31.829  31.344  1.00  0.00     0.055 A 
ATOM     81  C   UNL A   1      37.347  30.968  33.393  1.00  0.00     0.041 A 
ATOM     82  F   UNL A   1      39.469  29.978  33.402  1.00  0.00    -0.206 F 
ATOM     83  C   UNL A   1      36.320  31.615  32.718  1.00  0.00     0.022 A 
BRANCH  80  84
ATOM     84  S   UNL A   1      35.179  32.795  30.467  1.00  0.00     0.124 S 
ATOM     85  O   UNL A   1      34.778  31.875  29.408  1.00  0.00    -0.237 OA
ATOM     86  O   UNL A   1      34.197  33.032  31.518  1.00  0.00    -0.237 OA
ATOM     87  O   UNL A   1      35.910  33.979  30.019  1.00  0.00    -0.744 OA
ENDBRANCH  80  84
ENDBRANCH  53  77
BRANCH  65  88
ATOM     88  C   UNL A   1      44.683  33.769  29.564  1.00  0.00     0.023 A 
ATOM     89  C   UNL A   1      44.655  34.701  28.514  1.00  0.00     0.031 A 
ATOM     90  C   UNL A   1      45.216  34.164  30.802  1.00  0.00     0.131 A 
ATOM     91  C   UNL A   1      45.221  35.967  28.700  1.00  0.00     0.055 A 
ATOM     92  C   UNL A   1      45.717  35.449  31.000  1.00  0.00     0.041 A 
ATOM     93  F   UNL A   1      45.261  33.305  31.832  1.00  0.00    -0.206 F 
ATOM     94  C   UNL A   1      45.737  36.353  29.940  1.00  0.00     0.022 A 
BRANCH  91  95
ATOM     95  S   UNL A   1      45.368  37.062  27.264  1.00  0.00     0.124 S 
ATOM     96  O   UNL A   1      45.745  36.127  26.208  1.00  0.00    -0.237 OA
ATOM     97  O   UNL A   1      44.027  37.628  27.163  1.00  0.00    -0.237 OA
ATOM     98  O   UNL A   1      46.412  38.006  27.659  1.00  0.00    -0.744 OA
ENDBRANCH  91  95
ENDBRANCH  65  88
ENDBRANCH  39  40
ENDBRANCH  32  34
ENDBRANCH  31  32
ENDBRANCH  30  31
ENDBRANCH   1  30
TORSDOF 17
ENDMDL
MODEL 2
REMARK VINA RESULT:     -12.7      4.675     10.326
REMARK SMILES O=C(CCC(=O)OCCOC(=O)c1ccc(-c2c3nc(c(-c4cc(S(=O)(=O)[O-])ccc4F)c4ccc([nH]4)c(-c4cc(S(=O)(=O)[O-])ccc4F)c4nc(c(-c5cc(S(=O)(=O)[O-])ccc5F)c5ccc2[nH]5)C=C4)C=C3)cc1)/[NH+]=C1\S[C@H]2CS(=O)(=O)C[C@@H]2N1c1ccc2c(c1)OCO2
REMARK SMILES IDX 8 1 7 2 5 3 6 4 4 5 3 6 2 7 1 8 76 9 77 10 78 12 86 13 79 14
REMARK SMILES IDX 85 15 80 16 84 17 81 18 82 19 83 20 87 21 88 22 92 23 89 24
REMARK SMILES IDX 91 25 90 26 93 27 95 28 94 29 9 30 10 31 11 32 12 33 13 34
REMARK SMILES IDX 14 35 75 36 15 37 74 38 16 39 17 40 18 41 68 42 19 43 73 44
REMARK SMILES IDX 67 45 69 46 20 47 72 48 66 49 65 50 21 52 53 53 33 54 52 55
REMARK SMILES IDX 34 56 37 57 51 58 70 59 35 60 36 61 50 63 71 64 38 65 22 66
REMARK SMILES IDX 23 67 31 68 24 69 30 70 32 71 29 72 25 73 26 74 27 75 28 76
REMARK SMILES IDX 54 77 55 78 63 79 56 80 62 81 64 82 61 83 57 84 58 85 59 86
REMARK SMILES IDX 60 87 39 88 40 89 48 90 41 91 47 92 49 93 46 94 42 95 43 96
REMARK SMILES IDX 44 97 45 98
REMARK H PARENT 76 11 69 51 37 62
REMARK Flexibility Score: inf
ROOT
ATOM      1  C   UNL A   1      31.546  28.757  25.699  1.00  0.00     0.274 C 
ENDROOT
BRANCH   1   2
ATOM      2  O   UNL A   1      32.165  27.551  26.183  1.00  0.00    -0.462 OA
BRANCH   2   3
ATOM      3  C   UNL A   1      31.370  26.459  26.206  1.00  0.00     0.306 C 
ATOM      4  O   UNL A   1      31.522  25.510  26.968  1.00  0.00    -0.252 OA
BRANCH   3   5
ATOM      5  C   UNL A   1      30.314  26.495  25.134  1.00  0.00     0.135 C 
BRANCH   5   6
ATOM      6  C   UNL A   1      30.558  25.773  23.812  1.00  0.00     0.139 C 
BRANCH   6   7
ATOM      7  C   UNL A   1      30.559  24.249  23.704  1.00  0.00     0.308 C 
ATOM      8  O   UNL A   1      29.865  23.725  22.830  1.00  0.00    -0.247 OA
ATOM      9  N   UNL A   1      31.266  23.456  24.571  1.00  0.00    -0.204 N 
ATOM     10  C   UNL A   1      32.503  23.130  24.361  1.00  0.00     0.319 C 
ATOM     11  H   UNL A   1      30.819  23.123  25.382  1.00  0.00     0.316 HD
ATOM     12  S   UNL A   1      33.648  23.896  23.219  1.00  0.00    -0.029 SA
ATOM     13  N   UNL A   1      33.177  22.126  25.078  1.00  0.00    -0.216 N 
ATOM     14  C   UNL A   1      35.088  23.023  23.927  1.00  0.00     0.120 C 
ATOM     15  C   UNL A   1      34.579  22.468  25.256  1.00  0.00     0.212 C 
ATOM     16  C   UNL A   1      36.349  23.747  24.359  1.00  0.00     0.156 C 
ATOM     17  C   UNL A   1      35.643  21.506  25.721  1.00  0.00     0.188 C 
ATOM     18  S   UNL A   1      37.100  22.556  25.503  1.00  0.00     0.155 S 
ATOM     19  O   UNL A   1      38.117  21.799  24.807  1.00  0.00    -0.229 OA
ATOM     20  O   UNL A   1      37.353  23.225  26.762  1.00  0.00    -0.229 OA
BRANCH  13  21
ATOM     21  C   UNL A   1      32.896  20.779  24.779  1.00  0.00     0.132 A 
ATOM     22  C   UNL A   1      32.598  20.402  23.451  1.00  0.00     0.056 A 
ATOM     23  C   UNL A   1      32.936  19.794  25.780  1.00  0.00     0.102 A 
ATOM     24  C   UNL A   1      32.390  19.060  23.113  1.00  0.00     0.055 A 
ATOM     25  C   UNL A   1      32.739  18.484  25.419  1.00  0.00     0.170 A 
ATOM     26  C   UNL A   1      32.486  18.122  24.118  1.00  0.00     0.166 A 
ATOM     27  O   UNL A   1      32.801  17.417  26.257  1.00  0.00    -0.453 OA
ATOM     28  O   UNL A   1      32.385  16.773  23.976  1.00  0.00    -0.454 OA
ATOM     29  C   UNL A   1      32.778  16.341  25.299  1.00  0.00     0.468 C 
ENDBRANCH  13  21
ENDBRANCH   6   7
ENDBRANCH   5   6
ENDBRANCH   3   5
ENDBRANCH   2   3
ENDBRANCH   1   2
BRANCH   1  30
ATOM     30  C   UNL A   1      31.882  29.918  26.626  1.00  0.00     0.275 C 
BRANCH  30  31
ATOM     31  O   UNL A   1      33.127  30.580  26.346  1.00  0.00    -0.458 OA
BRANCH  31  32
ATOM     32  C   UNL A   1      33.503  31.466  27.286  1.00  0.00     0.338 C 
ATOM     33  O   UNL A   1      32.941  32.521  27.562  1.00  0.00    -0.246 OA
BRANCH  32  34
ATOM     34  C   UNL A   1      34.809  31.178  27.829  1.00  0.00     0.060 A 
ATOM     35  C   UNL A   1      35.729  32.197  28.029  1.00  0.00     0.016 A 
ATOM     36  C   UNL A   1      35.122  29.835  28.059  1.00  0.00     0.016 A 
ATOM     37  C   UNL A   1      36.972  31.856  28.541  1.00  0.00     0.010 A 
ATOM     38  C   UNL A   1      36.329  29.504  28.635  1.00  0.00     0.010 A 
ATOM     39  C   UNL A   1      37.247  30.520  28.896  1.00  0.00    -0.014 A 
BRANCH  39  40
ATOM     40  C   UNL A   1      38.456  30.210  29.672  1.00  0.00     0.031 A 
ATOM     41  C   UNL A   1      38.606  30.719  31.067  1.00  0.00     0.074 A 
ATOM     42  C   UNL A   1      39.390  29.472  29.042  1.00  0.00     0.049 A 
ATOM     43  N   UNL A   1      39.557  30.479  31.925  1.00  0.00    -0.248 NA
ATOM     44  C   UNL A   1      37.569  31.643  31.556  1.00  0.00     0.031 C 
ATOM     45  C   UNL A   1      39.308  29.041  27.640  1.00  0.00     0.029 A 
ATOM     46  N   UNL A   1      40.556  28.923  29.486  1.00  0.00    -0.354 N 
ATOM     47  C   UNL A   1      39.234  31.212  33.061  1.00  0.00     0.074 A 
ATOM     48  C   UNL A   1      38.032  31.957  32.758  1.00  0.00     0.031 C 
ATOM     49  C   UNL A   1      40.332  28.221  27.368  1.00  0.00     0.029 A 
ATOM     50  C   UNL A   1      41.165  28.111  28.555  1.00  0.00     0.049 A 
ATOM     51  H   UNL A   1      40.927  29.090  30.383  1.00  0.00     0.167 HD
ATOM     52  C   UNL A   1      39.885  31.227  34.248  1.00  0.00     0.034 A 
ATOM     53  C   UNL A   1      42.267  27.348  28.672  1.00  0.00     0.034 A 
ATOM     54  C   UNL A   1      41.087  30.461  34.473  1.00  0.00     0.049 A 
ATOM     55  C   UNL A   1      42.930  27.336  30.024  1.00  0.00     0.074 A 
ATOM     56  C   UNL A   1      41.877  30.385  35.604  1.00  0.00     0.029 A 
ATOM     57  N   UNL A   1      41.670  29.623  33.522  1.00  0.00    -0.354 N 
ATOM     58  N   UNL A   1      42.598  28.007  31.107  1.00  0.00    -0.248 NA
ATOM     59  C   UNL A   1      44.090  26.458  30.184  1.00  0.00     0.031 C 
ATOM     60  C   UNL A   1      42.955  29.534  35.324  1.00  0.00     0.029 A 
ATOM     61  C   UNL A   1      42.805  29.027  34.041  1.00  0.00     0.049 A 
ATOM     62  H   UNL A   1      41.322  29.476  32.613  1.00  0.00     0.167 HD
ATOM     63  C   UNL A   1      43.503  27.622  32.084  1.00  0.00     0.074 A 
ATOM     64  C   UNL A   1      44.367  26.629  31.468  1.00  0.00     0.031 C 
ATOM     65  C   UNL A   1      43.630  28.050  33.367  1.00  0.00     0.034 A 
BRANCH  52  66
ATOM     66  C   UNL A   1      39.325  32.109  35.340  1.00  0.00     0.023 A 
ATOM     67  C   UNL A   1      39.753  33.441  35.504  1.00  0.00     0.031 A 
ATOM     68  C   UNL A   1      38.392  31.606  36.262  1.00  0.00     0.131 A 
ATOM     69  C   UNL A   1      39.307  34.194  36.602  1.00  0.00     0.055 A 
ATOM     70  C   UNL A   1      37.893  32.387  37.310  1.00  0.00     0.041 A 
ATOM     71  F   UNL A   1      37.964  30.336  36.178  1.00  0.00    -0.206 F 
ATOM     72  C   UNL A   1      38.362  33.685  37.493  1.00  0.00     0.022 A 
BRANCH  69  73
ATOM     73  S   UNL A   1      40.081  35.805  36.925  1.00  0.00     0.124 S 
ATOM     74  O   UNL A   1      39.709  36.554  35.727  1.00  0.00    -0.237 OA
ATOM     75  O   UNL A   1      39.438  36.223  38.165  1.00  0.00    -0.237 OA
ATOM     76  O   UNL A   1      41.502  35.485  37.037  1.00  0.00    -0.744 OA
ENDBRANCH  69  73
ENDBRANCH  52  66
BRANCH  53  77
ATOM     77  C   UNL A   1      42.766  26.542  27.519  1.00  0.00     0.023 A 
ATOM     78  C   UNL A   1      42.330  25.226  27.301  1.00  0.00     0.031 A 
ATOM     79  C   UNL A   1      43.697  27.080  26.610  1.00  0.00     0.131 A 
ATOM     80  C   UNL A   1      42.856  24.478  26.233  1.00  0.00     0.055 A 
ATOM     81  C   UNL A   1      44.172  26.354  25.516  1.00  0.00     0.041 A 
ATOM     82  F   UNL A   1      44.144  28.338  26.759  1.00  0.00    -0.206 F 
ATOM     83  C   UNL A   1      43.763  25.038  25.332  1.00  0.00     0.022 A 
BRANCH  80  84
ATOM     84  S   UNL A   1      42.416  22.723  26.097  1.00  0.00     0.124 S 
ATOM     85  O   UNL A   1      42.928  22.385  24.773  1.00  0.00    -0.237 OA
ATOM     86  O   UNL A   1      43.131  22.145  27.229  1.00  0.00    -0.237 OA
ATOM     87  O   UNL A   1      40.959  22.728  26.218  1.00  0.00    -0.744 OA
ENDBRANCH  80  84
ENDBRANCH  53  77
BRANCH  65  88
ATOM     88  C   UNL A   1      44.734  27.411  34.162  1.00  0.00     0.023 A 
ATOM     89  C   UNL A   1      44.513  26.230  34.889  1.00  0.00     0.031 A 
ATOM     90  C   UNL A   1      46.005  28.006  34.213  1.00  0.00     0.131 A 
ATOM     91  C   UNL A   1      45.532  25.718  35.700  1.00  0.00     0.055 A 
ATOM     92  C   UNL A   1      47.035  27.454  34.971  1.00  0.00     0.041 A 
ATOM     93  F   UNL A   1      46.259  29.135  33.533  1.00  0.00    -0.206 F 
ATOM     94  C   UNL A   1      46.796  26.312  35.733  1.00  0.00     0.022 A 
BRANCH  91  95
ATOM     95  S   UNL A   1      45.144  24.326  36.793  1.00  0.00     0.124 S 
ATOM     96  O   UNL A   1      46.470  23.792  37.085  1.00  0.00    -0.237 OA
ATOM     97  O   UNL A   1      44.462  24.982  37.905  1.00  0.00    -0.237 OA
ATOM     98  O   UNL A   1      44.297  23.468  35.966  1.00  0.00    -0.744 OA
ENDBRANCH  91  95
ENDBRANCH  65  88
ENDBRANCH  39  40
ENDBRANCH  32  34
ENDBRANCH  31  32
ENDBRANCH  30  31
ENDBRANCH   1  30
TORSDOF 17
ENDMDL
MODEL 3
REMARK VINA RESULT:     -12.3      0.899      7.394
REMARK SMILES O=C(CCC(=O)OCCOC(=O)c1ccc(-c2c3nc(c(-c4cc(S(=O)(=O)[O-])ccc4F)c4ccc([nH]4)c(-c4cc(S(=O)(=O)[O-])ccc4F)c4nc(c(-c5cc(S(=O)(=O)[O-])ccc5F)c5ccc2[nH]5)C=C4)C=C3)cc1)/[NH+]=C1\S[C@H]2CS(=O)(=O)C[C@@H]2N1c1ccc2c(c1)OCO2
REMARK SMILES IDX 8 1 7 2 5 3 6 4 4 5 3 6 2 7 1 8 76 9 77 10 78 12 86 13 79 14
REMARK SMILES IDX 85 15 80 16 84 17 81 18 82 19 83 20 87 21 88 22 92 23 89 24
REMARK SMILES IDX 91 25 90 26 93 27 95 28 94 29 9 30 10 31 11 32 12 33 13 34
REMARK SMILES IDX 14 35 75 36 15 37 74 38 16 39 17 40 18 41 68 42 19 43 73 44
REMARK SMILES IDX 67 45 69 46 20 47 72 48 66 49 65 50 21 52 53 53 33 54 52 55
REMARK SMILES IDX 34 56 37 57 51 58 70 59 35 60 36 61 50 63 71 64 38 65 22 66
REMARK SMILES IDX 23 67 31 68 24 69 30 70 32 71 29 72 25 73 26 74 27 75 28 76
REMARK SMILES IDX 54 77 55 78 63 79 56 80 62 81 64 82 61 83 57 84 58 85 59 86
REMARK SMILES IDX 60 87 39 88 40 89 48 90 41 91 47 92 49 93 46 94 42 95 43 96
REMARK SMILES IDX 44 97 45 98
REMARK H PARENT 76 11 69 51 37 62
REMARK Flexibility Score: inf
ROOT
ATOM      1  C   UNL A   1      36.134  20.040  24.965  1.00  0.00     0.274 C 
ENDROOT
BRANCH   1   2
ATOM      2  O   UNL A   1      35.753  21.407  25.209  1.00  0.00    -0.462 OA
BRANCH   2   3
ATOM      3  C   UNL A   1      34.583  21.577  25.862  1.00  0.00     0.306 C 
ATOM      4  O   UNL A   1      34.455  21.506  27.080  1.00  0.00    -0.252 OA
BRANCH   3   5
ATOM      5  C   UNL A   1      33.428  21.789  24.921  1.00  0.00     0.135 C 
BRANCH   5   6
ATOM      6  C   UNL A   1      33.549  22.815  23.798  1.00  0.00     0.139 C 
BRANCH   6   7
ATOM      7  C   UNL A   1      32.371  23.679  23.353  1.00  0.00     0.308 C 
ATOM      8  O   UNL A   1      31.288  23.127  23.146  1.00  0.00    -0.247 OA
ATOM      9  N   UNL A   1      32.495  25.027  23.136  1.00  0.00    -0.204 N 
ATOM     10  C   UNL A   1      32.335  25.900  24.080  1.00  0.00     0.319 C 
ATOM     11  H   UNL A   1      32.714  25.344  22.230  1.00  0.00     0.316 HD
ATOM     12  S   UNL A   1      32.333  25.599  25.845  1.00  0.00    -0.029 SA
ATOM     13  N   UNL A   1      32.201  27.280  23.853  1.00  0.00    -0.216 N 
ATOM     14  C   UNL A   1      32.421  27.379  26.245  1.00  0.00     0.120 C 
ATOM     15  C   UNL A   1      32.813  28.045  24.927  1.00  0.00     0.212 C 
ATOM     16  C   UNL A   1      33.456  27.951  27.197  1.00  0.00     0.156 C 
ATOM     17  C   UNL A   1      32.609  29.523  25.150  1.00  0.00     0.188 C 
ATOM     18  S   UNL A   1      33.482  29.703  26.724  1.00  0.00     0.155 S 
ATOM     19  O   UNL A   1      32.648  30.456  27.634  1.00  0.00    -0.229 OA
ATOM     20  O   UNL A   1      34.849  30.078  26.430  1.00  0.00    -0.229 OA
BRANCH  13  21
ATOM     21  C   UNL A   1      30.974  27.766  23.361  1.00  0.00     0.132 A 
ATOM     22  C   UNL A   1      29.762  27.220  23.834  1.00  0.00     0.056 A 
ATOM     23  C   UNL A   1      30.937  28.812  22.422  1.00  0.00     0.102 A 
ATOM     24  C   UNL A   1      28.528  27.736  23.418  1.00  0.00     0.055 A 
ATOM     25  C   UNL A   1      29.714  29.306  22.039  1.00  0.00     0.170 A 
ATOM     26  C   UNL A   1      28.540  28.792  22.534  1.00  0.00     0.166 A 
ATOM     27  O   UNL A   1      29.515  30.345  21.188  1.00  0.00    -0.453 OA
ATOM     28  O   UNL A   1      27.454  29.469  22.070  1.00  0.00    -0.454 OA
ATOM     29  C   UNL A   1      28.103  30.561  21.379  1.00  0.00     0.468 C 
ENDBRANCH  13  21
ENDBRANCH   6   7
ENDBRANCH   5   6
ENDBRANCH   3   5
ENDBRANCH   2   3
ENDBRANCH   1   2
BRANCH   1  30
ATOM     30  C   UNL A   1      37.643  19.892  25.102  1.00  0.00     0.275 C 
BRANCH  30  31
ATOM     31  O   UNL A   1      38.361  21.121  25.301  1.00  0.00    -0.458 OA
BRANCH  31  32
ATOM     32  C   UNL A   1      39.425  21.012  26.117  1.00  0.00     0.338 C 
ATOM     33  O   UNL A   1      39.865  19.980  26.611  1.00  0.00    -0.246 OA
BRANCH  32  34
ATOM     34  C   UNL A   1      39.909  22.295  26.569  1.00  0.00     0.060 A 
ATOM     35  C   UNL A   1      40.975  22.373  27.455  1.00  0.00     0.016 A 
ATOM     36  C   UNL A   1      39.209  23.427  26.144  1.00  0.00     0.016 A 
ATOM     37  C   UNL A   1      41.386  23.632  27.863  1.00  0.00     0.010 A 
ATOM     38  C   UNL A   1      39.662  24.682  26.491  1.00  0.00     0.010 A 
ATOM     39  C   UNL A   1      40.767  24.783  27.336  1.00  0.00    -0.014 A 
BRANCH  39  40
ATOM     40  C   UNL A   1      41.370  26.103  27.568  1.00  0.00     0.031 A 
ATOM     41  C   UNL A   1      40.666  27.114  28.411  1.00  0.00     0.074 A 
ATOM     42  C   UNL A   1      42.555  26.326  26.969  1.00  0.00     0.049 A 
ATOM     43  N   UNL A   1      41.080  28.291  28.790  1.00  0.00    -0.248 NA
ATOM     44  C   UNL A   1      39.307  26.777  28.865  1.00  0.00     0.031 C 
ATOM     45  C   UNL A   1      43.220  25.383  26.058  1.00  0.00     0.029 A 
ATOM     46  N   UNL A   1      43.426  27.372  27.052  1.00  0.00    -0.354 N 
ATOM     47  C   UNL A   1      40.041  28.834  29.536  1.00  0.00     0.074 A 
ATOM     48  C   UNL A   1      38.951  27.885  29.500  1.00  0.00     0.031 C 
ATOM     49  C   UNL A   1      44.433  25.856  25.741  1.00  0.00     0.029 A 
ATOM     50  C   UNL A   1      44.608  27.151  26.381  1.00  0.00     0.049 A 
ATOM     51  H   UNL A   1      43.230  28.202  27.543  1.00  0.00     0.167 HD
ATOM     52  C   UNL A   1      40.029  30.013  30.202  1.00  0.00     0.034 A 
ATOM     53  C   UNL A   1      45.715  27.913  26.319  1.00  0.00     0.034 A 
ATOM     54  C   UNL A   1      41.156  30.914  30.184  1.00  0.00     0.049 A 
ATOM     55  C   UNL A   1      45.694  29.186  27.123  1.00  0.00     0.074 A 
ATOM     56  C   UNL A   1      41.296  32.151  30.783  1.00  0.00     0.029 A 
ATOM     57  N   UNL A   1      42.354  30.655  29.519  1.00  0.00    -0.354 N 
ATOM     58  N   UNL A   1      44.717  29.678  27.855  1.00  0.00    -0.248 NA
ATOM     59  C   UNL A   1      46.916  29.992  27.118  1.00  0.00     0.031 C 
ATOM     60  C   UNL A   1      42.561  32.655  30.449  1.00  0.00     0.029 A 
ATOM     61  C   UNL A   1      43.237  31.706  29.695  1.00  0.00     0.049 A 
ATOM     62  H   UNL A   1      42.545  29.841  29.001  1.00  0.00     0.167 HD
ATOM     63  C   UNL A   1      45.212  30.848  28.409  1.00  0.00     0.074 A 
ATOM     64  C   UNL A   1      46.588  30.962  27.957  1.00  0.00     0.031 C 
ATOM     65  C   UNL A   1      44.596  31.760  29.207  1.00  0.00     0.034 A 
BRANCH  52  66
ATOM     66  C   UNL A   1      38.769  30.379  30.952  1.00  0.00     0.023 A 
ATOM     67  C   UNL A   1      37.755  31.152  30.355  1.00  0.00     0.031 A 
ATOM     68  C   UNL A   1      38.595  29.997  32.293  1.00  0.00     0.131 A 
ATOM     69  C   UNL A   1      36.655  31.581  31.116  1.00  0.00     0.055 A 
ATOM     70  C   UNL A   1      37.459  30.363  33.023  1.00  0.00     0.041 A 
ATOM     71  F   UNL A   1      39.537  29.282  32.928  1.00  0.00    -0.206 F 
ATOM     72  C   UNL A   1      36.488  31.171  32.440  1.00  0.00     0.022 A 
BRANCH  69  73
ATOM     73  S   UNL A   1      35.511  32.789  30.391  1.00  0.00     0.124 S 
ATOM     74  O   UNL A   1      35.492  32.370  28.991  1.00  0.00    -0.237 OA
ATOM     75  O   UNL A   1      34.283  32.556  31.143  1.00  0.00    -0.237 OA
ATOM     76  O   UNL A   1      36.163  34.072  30.643  1.00  0.00    -0.744 OA
ENDBRANCH  69  73
ENDBRANCH  52  66
BRANCH  53  77
ATOM     77  C   UNL A   1      46.897  27.483  25.514  1.00  0.00     0.023 A 
ATOM     78  C   UNL A   1      47.070  27.901  24.186  1.00  0.00     0.031 A 
ATOM     79  C   UNL A   1      47.880  26.640  26.066  1.00  0.00     0.131 A 
ATOM     80  C   UNL A   1      48.170  27.441  23.441  1.00  0.00     0.055 A 
ATOM     81  C   UNL A   1      49.001  26.232  25.342  1.00  0.00     0.041 A 
ATOM     82  F   UNL A   1      47.776  26.216  27.337  1.00  0.00    -0.206 F 
ATOM     83  C   UNL A   1      49.142  26.620  24.015  1.00  0.00     0.022 A 
BRANCH  80  84
ATOM     84  S   UNL A   1      48.258  27.844  21.674  1.00  0.00     0.124 S 
ATOM     85  O   UNL A   1      49.346  28.814  21.640  1.00  0.00    -0.237 OA
ATOM     86  O   UNL A   1      48.539  26.542  21.082  1.00  0.00    -0.237 OA
ATOM     87  O   UNL A   1      46.931  28.387  21.384  1.00  0.00    -0.744 OA
ENDBRANCH  80  84
ENDBRANCH  53  77
BRANCH  65  88
ATOM     88  C   UNL A   1      45.439  32.928  29.635  1.00  0.00     0.023 A 
ATOM     89  C   UNL A   1      45.522  34.089  28.850  1.00  0.00     0.031 A 
ATOM     90  C   UNL A   1      46.187  32.863  30.822  1.00  0.00     0.131 A 
ATOM     91  C   UNL A   1      46.395  35.116  29.224  1.00  0.00     0.055 A 
ATOM     92  C   UNL A   1      47.005  33.917  31.223  1.00  0.00     0.041 A 
ATOM     93  F   UNL A   1      46.137  31.772  31.603  1.00  0.00    -0.206 F 
ATOM     94  C   UNL A   1      47.125  35.045  30.414  1.00  0.00     0.022 A 
BRANCH  91  95
ATOM     95  S   UNL A   1      46.643  36.495  28.076  1.00  0.00     0.124 S 
ATOM     96  O   UNL A   1      47.500  37.385  28.854  1.00  0.00    -0.237 OA
ATOM     97  O   UNL A   1      47.274  35.842  26.934  1.00  0.00    -0.237 OA
ATOM     98  O   UNL A   1      45.289  36.989  27.838  1.00  0.00    -0.744 OA
ENDBRANCH  91  95
ENDBRANCH  65  88
ENDBRANCH  39  40
ENDBRANCH  32  34
ENDBRANCH  31  32
ENDBRANCH  30  31
ENDBRANCH   1  30
TORSDOF 17
ENDMDL
