MODEL 1
REMARK VINA RESULT:     -12.3      0.000      0.000
REMARK SMILES O=C(OCCOC(=O)c1cc(/C=C/c2cc(O)cc(O)c2)ccc1O)c1ccc(-c2c3nc(c(-c4cc(S(=O)(=O)[O-])ccc4F)c4ccc([nH]4)c(-c4cc(S(=O)(=O)[O-])ccc4F)c4nc(c(-c5cc(S(=O)(=O)[O-])ccc5F)c5ccc2[nH]5)C=C4)C=C3)cc1
REMARK SMILES IDX 4 1 3 2 2 3 1 4 26 5 27 6 88 7 28 8 87 9 29 10 30 11 31 12
REMARK SMILES IDX 81 13 32 14 86 15 80 16 82 17 33 18 85 19 79 20 78 21 34 23
REMARK SMILES IDX 66 24 46 25 65 26 47 27 50 28 64 29 83 30 48 31 49 32 63 34
REMARK SMILES IDX 84 35 51 36 35 37 36 38 44 39 37 40 43 41 45 42 42 43 38 44
REMARK SMILES IDX 39 45 40 46 41 47 67 48 68 49 76 50 69 51 75 52 77 53 74 54
REMARK SMILES IDX 70 55 71 56 72 57 73 58 52 59 53 60 61 61 54 62 60 63 62 64
REMARK SMILES IDX 59 65 55 66 56 67 57 68 58 69 5 70 6 71 7 72 8 73 9 74 10 75
REMARK SMILES IDX 24 76 11 77 23 78 22 79 25 80 12 82 13 83 14 84 15 85 21 86
REMARK SMILES IDX 16 87 19 88 18 89 17 90 20 92
REMARK H PARENT 82 22 50 33 25 81 17 91 20 93
REMARK Flexibility Score: inf
ROOT
ATOM      1  C   UNL A   1      32.673  29.767  25.649  1.00  0.00     0.275 C 
ENDROOT
BRANCH   1   2
ATOM      2  O   UNL A   1      33.261  29.763  26.962  1.00  0.00    -0.458 OA
BRANCH   2   3
ATOM      3  C   UNL A   1      34.201  30.573  27.504  1.00  0.00     0.338 C 
ATOM      4  O   UNL A   1      33.972  31.784  27.542  1.00  0.00    -0.246 OA
BRANCH   3   5
ATOM      5  C   UNL A   1      35.558  30.115  27.945  1.00  0.00     0.060 A 
ATOM      6  C   UNL A   1      36.728  30.128  27.184  1.00  0.00     0.016 A 
ATOM      7  C   UNL A   1      35.641  29.608  29.255  1.00  0.00     0.016 A 
ATOM      8  C   UNL A   1      37.952  29.728  27.731  1.00  0.00     0.010 A 
ATOM      9  C   UNL A   1      36.861  29.220  29.815  1.00  0.00     0.010 A 
ATOM     10  C   UNL A   1      38.027  29.277  29.049  1.00  0.00    -0.014 A 
BRANCH  10  11
ATOM     11  C   UNL A   1      39.299  28.729  29.568  1.00  0.00     0.031 A 
ATOM     12  C   UNL A   1      39.922  29.384  30.763  1.00  0.00     0.074 A 
ATOM     13  C   UNL A   1      39.861  27.645  29.006  1.00  0.00     0.049 A 
ATOM     14  N   UNL A   1      41.001  29.052  31.419  1.00  0.00    -0.248 NA
ATOM     15  C   UNL A   1      39.218  30.557  31.304  1.00  0.00     0.031 C 
ATOM     16  C   UNL A   1      39.294  26.888  27.893  1.00  0.00     0.029 A 
ATOM     17  N   UNL A   1      41.036  26.994  29.282  1.00  0.00    -0.354 N 
ATOM     18  C   UNL A   1      41.077  29.941  32.482  1.00  0.00     0.074 A 
ATOM     19  C   UNL A   1      39.989  30.883  32.327  1.00  0.00     0.031 C 
ATOM     20  C   UNL A   1      40.148  25.912  27.537  1.00  0.00     0.029 A 
ATOM     21  C   UNL A   1      41.318  25.971  28.407  1.00  0.00     0.049 A 
ATOM     22  H   UNL A   1      41.621  27.236  30.036  1.00  0.00     0.167 HD
ATOM     23  C   UNL A   1      41.948  29.943  33.521  1.00  0.00     0.034 A 
ATOM     24  C   UNL A   1      42.403  25.178  28.319  1.00  0.00     0.034 A 
ATOM     25  C   UNL A   1      43.060  29.032  33.617  1.00  0.00     0.049 A 
ATOM     26  C   UNL A   1      43.466  25.310  29.380  1.00  0.00     0.074 A 
ATOM     27  C   UNL A   1      44.033  28.950  34.596  1.00  0.00     0.029 A 
ATOM     28  N   UNL A   1      43.361  28.054  32.674  1.00  0.00    -0.354 N 
ATOM     29  N   UNL A   1      43.504  26.126  30.409  1.00  0.00    -0.248 NA
ATOM     30  C   UNL A   1      44.608  24.393  29.293  1.00  0.00     0.031 C 
ATOM     31  C   UNL A   1      44.958  27.971  34.209  1.00  0.00     0.029 A 
ATOM     32  C   UNL A   1      44.525  27.391  33.026  1.00  0.00     0.049 A 
ATOM     33  H   UNL A   1      42.824  27.862  31.872  1.00  0.00     0.167 HD
ATOM     34  C   UNL A   1      44.649  25.786  31.122  1.00  0.00     0.074 A 
ATOM     35  C   UNL A   1      45.273  24.694  30.399  1.00  0.00     0.031 C 
ATOM     36  C   UNL A   1      45.131  26.312  32.278  1.00  0.00     0.034 A 
BRANCH  23  37
ATOM     37  C   UNL A   1      41.729  30.998  34.576  1.00  0.00     0.023 A 
ATOM     38  C   UNL A   1      40.608  30.949  35.428  1.00  0.00     0.031 A 
ATOM     39  C   UNL A   1      42.570  32.118  34.657  1.00  0.00     0.131 A 
ATOM     40  C   UNL A   1      40.303  32.046  36.246  1.00  0.00     0.055 A 
ATOM     41  C   UNL A   1      42.306  33.171  35.537  1.00  0.00     0.041 A 
ATOM     42  F   UNL A   1      43.638  32.232  33.851  1.00  0.00    -0.206 F 
ATOM     43  C   UNL A   1      41.155  33.149  36.322  1.00  0.00     0.022 A 
BRANCH  40  44
ATOM     44  S   UNL A   1      38.682  32.090  37.062  1.00  0.00     0.124 S 
ATOM     45  O   UNL A   1      37.968  33.073  36.249  1.00  0.00    -0.237 OA
ATOM     46  O   UNL A   1      38.229  30.710  36.941  1.00  0.00    -0.237 OA
ATOM     47  O   UNL A   1      38.995  32.528  38.421  1.00  0.00    -0.744 OA
ENDBRANCH  40  44
ENDBRANCH  23  37
BRANCH  24  48
ATOM     48  C   UNL A   1      42.543  24.210  27.195  1.00  0.00     0.023 A 
ATOM     49  C   UNL A   1      42.005  22.916  27.266  1.00  0.00     0.031 A 
ATOM     50  C   UNL A   1      43.255  24.563  26.033  1.00  0.00     0.131 A 
ATOM     51  C   UNL A   1      42.216  22.010  26.212  1.00  0.00     0.055 A 
ATOM     52  C   UNL A   1      43.435  23.670  24.974  1.00  0.00     0.041 A 
ATOM     53  F   UNL A   1      43.775  25.794  25.904  1.00  0.00    -0.206 F 
ATOM     54  C   UNL A   1      42.923  22.381  25.066  1.00  0.00     0.022 A 
BRANCH  51  55
ATOM     55  S   UNL A   1      41.600  20.313  26.387  1.00  0.00     0.124 S 
ATOM     56  O   UNL A   1      40.168  20.491  26.175  1.00  0.00    -0.237 OA
ATOM     57  O   UNL A   1      42.327  19.622  25.326  1.00  0.00    -0.237 OA
ATOM     58  O   UNL A   1      41.992  19.948  27.746  1.00  0.00    -0.744 OA
ENDBRANCH  51  55
ENDBRANCH  24  48
BRANCH  36  59
ATOM     59  C   UNL A   1      46.370  25.670  32.846  1.00  0.00     0.023 A 
ATOM     60  C   UNL A   1      47.654  26.010  32.387  1.00  0.00     0.031 A 
ATOM     61  C   UNL A   1      46.260  24.696  33.854  1.00  0.00     0.131 A 
ATOM     62  C   UNL A   1      48.774  25.337  32.895  1.00  0.00     0.055 A 
ATOM     63  C   UNL A   1      47.384  24.076  34.400  1.00  0.00     0.041 A 
ATOM     64  F   UNL A   1      45.056  24.333  34.326  1.00  0.00    -0.206 F 
ATOM     65  C   UNL A   1      48.650  24.386  33.910  1.00  0.00     0.022 A 
BRANCH  62  66
ATOM     66  S   UNL A   1      50.393  25.660  32.144  1.00  0.00     0.124 S 
ATOM     67  O   UNL A   1      50.039  26.540  31.034  1.00  0.00    -0.237 OA
ATOM     68  O   UNL A   1      51.128  26.282  33.241  1.00  0.00    -0.237 OA
ATOM     69  O   UNL A   1      50.862  24.332  31.757  1.00  0.00    -0.744 OA
ENDBRANCH  62  66
ENDBRANCH  36  59
ENDBRANCH  10  11
ENDBRANCH   3   5
ENDBRANCH   2   3
ENDBRANCH   1   2
BRANCH   1  70
ATOM     70  C   UNL A   1      31.459  28.851  25.490  1.00  0.00     0.275 C 
BRANCH  70  71
ATOM     71  O   UNL A   1      30.835  28.967  24.207  1.00  0.00    -0.458 OA
BRANCH  71  72
ATOM     72  C   UNL A   1      30.272  27.831  23.723  1.00  0.00     0.342 C 
ATOM     73  O   UNL A   1      29.084  27.630  23.520  1.00  0.00    -0.246 OA
BRANCH  72  74
ATOM     74  C   UNL A   1      31.331  26.902  23.290  1.00  0.00     0.102 A 
ATOM     75  C   UNL A   1      31.223  25.565  23.709  1.00  0.00     0.027 A 
ATOM     76  C   UNL A   1      32.394  27.300  22.482  1.00  0.00     0.130 A 
ATOM     77  C   UNL A   1      32.132  24.600  23.255  1.00  0.00    -0.025 A 
ATOM     78  C   UNL A   1      33.334  26.360  22.066  1.00  0.00     0.048 A 
ATOM     79  C   UNL A   1      33.191  25.018  22.434  1.00  0.00     0.012 A 
BRANCH  76  80
ATOM     80  O   UNL A   1      32.528  28.605  22.104  1.00  0.00    -0.507 OA
ATOM     81  H   UNL A   1      33.310  28.891  21.672  1.00  0.00     0.293 HD
ENDBRANCH  76  80
BRANCH  77  82
ATOM     82  C   UNL A   1      32.042  23.172  23.605  1.00  0.00     0.009 C 
ATOM     83  C   UNL A   1      32.959  22.229  23.326  1.00  0.00     0.009 C 
BRANCH  83  84
ATOM     84  C   UNL A   1      32.793  20.810  23.679  1.00  0.00    -0.018 A 
ATOM     85  C   UNL A   1      32.932  20.363  25.002  1.00  0.00     0.054 A 
ATOM     86  C   UNL A   1      32.406  19.894  22.688  1.00  0.00     0.054 A 
ATOM     87  C   UNL A   1      32.705  19.024  25.316  1.00  0.00     0.119 A 
ATOM     88  C   UNL A   1      32.183  18.559  23.026  1.00  0.00     0.119 A 
ATOM     89  C   UNL A   1      32.328  18.117  24.336  1.00  0.00     0.092 A 
BRANCH  87  90
ATOM     90  O   UNL A   1      32.836  18.570  26.597  1.00  0.00    -0.508 OA
ATOM     91  H   UNL A   1      32.181  18.010  26.965  1.00  0.00     0.293 HD
ENDBRANCH  87  90
BRANCH  88  92
ATOM     92  O   UNL A   1      31.808  17.642  22.086  1.00  0.00    -0.508 OA
ATOM     93  H   UNL A   1      32.311  16.861  21.966  1.00  0.00     0.293 HD
ENDBRANCH  88  92
ENDBRANCH  83  84
ENDBRANCH  77  82
ENDBRANCH  72  74
ENDBRANCH  71  72
ENDBRANCH  70  71
ENDBRANCH   1  70
TORSDOF 19
ENDMDL
MODEL 2
REMARK VINA RESULT:     -12.1      2.038      4.609
REMARK SMILES O=C(OCCOC(=O)c1cc(/C=C/c2cc(O)cc(O)c2)ccc1O)c1ccc(-c2c3nc(c(-c4cc(S(=O)(=O)[O-])ccc4F)c4ccc([nH]4)c(-c4cc(S(=O)(=O)[O-])ccc4F)c4nc(c(-c5cc(S(=O)(=O)[O-])ccc5F)c5ccc2[nH]5)C=C4)C=C3)cc1
REMARK SMILES IDX 4 1 3 2 2 3 1 4 26 5 27 6 88 7 28 8 87 9 29 10 30 11 31 12
REMARK SMILES IDX 81 13 32 14 86 15 80 16 82 17 33 18 85 19 79 20 78 21 34 23
REMARK SMILES IDX 66 24 46 25 65 26 47 27 50 28 64 29 83 30 48 31 49 32 63 34
REMARK SMILES IDX 84 35 51 36 35 37 36 38 44 39 37 40 43 41 45 42 42 43 38 44
REMARK SMILES IDX 39 45 40 46 41 47 67 48 68 49 76 50 69 51 75 52 77 53 74 54
REMARK SMILES IDX 70 55 71 56 72 57 73 58 52 59 53 60 61 61 54 62 60 63 62 64
REMARK SMILES IDX 59 65 55 66 56 67 57 68 58 69 5 70 6 71 7 72 8 73 9 74 10 75
REMARK SMILES IDX 24 76 11 77 23 78 22 79 25 80 12 82 13 83 14 84 15 85 21 86
REMARK SMILES IDX 16 87 19 88 18 89 17 90 20 92
REMARK H PARENT 82 22 50 33 25 81 17 91 20 93
REMARK Flexibility Score: inf
ROOT
ATOM      1  C   UNL A   1      32.361  29.255  27.176  1.00  0.00     0.275 C 
ENDROOT
BRANCH   1   2
ATOM      2  O   UNL A   1      33.391  30.156  26.735  1.00  0.00    -0.458 OA
BRANCH   2   3
ATOM      3  C   UNL A   1      34.317  30.843  27.444  1.00  0.00     0.338 C 
ATOM      4  O   UNL A   1      34.221  32.071  27.489  1.00  0.00    -0.246 OA
BRANCH   3   5
ATOM      5  C   UNL A   1      35.529  30.224  28.073  1.00  0.00     0.060 A 
ATOM      6  C   UNL A   1      35.620  29.702  29.364  1.00  0.00     0.016 A 
ATOM      7  C   UNL A   1      36.686  30.187  27.273  1.00  0.00     0.016 A 
ATOM      8  C   UNL A   1      36.796  29.092  29.817  1.00  0.00     0.010 A 
ATOM      9  C   UNL A   1      37.859  29.568  27.712  1.00  0.00     0.010 A 
ATOM     10  C   UNL A   1      37.919  29.017  28.994  1.00  0.00    -0.014 A 
BRANCH  10  11
ATOM     11  C   UNL A   1      39.194  28.495  29.533  1.00  0.00     0.031 A 
ATOM     12  C   UNL A   1      39.765  29.139  30.758  1.00  0.00     0.074 A 
ATOM     13  C   UNL A   1      39.804  27.443  28.959  1.00  0.00     0.049 A 
ATOM     14  N   UNL A   1      40.837  28.824  31.434  1.00  0.00    -0.248 NA
ATOM     15  C   UNL A   1      39.012  30.277  31.308  1.00  0.00     0.031 C 
ATOM     16  C   UNL A   1      39.289  26.696  27.814  1.00  0.00     0.029 A 
ATOM     17  N   UNL A   1      40.990  26.822  29.250  1.00  0.00    -0.354 N 
ATOM     18  C   UNL A   1      40.858  29.689  32.520  1.00  0.00     0.074 A 
ATOM     19  C   UNL A   1      39.746  30.601  32.359  1.00  0.00     0.031 C 
ATOM     20  C   UNL A   1      40.182  25.757  27.458  1.00  0.00     0.029 A 
ATOM     21  C   UNL A   1      41.327  25.831  28.359  1.00  0.00     0.049 A 
ATOM     22  H   UNL A   1      41.549  27.063  30.025  1.00  0.00     0.167 HD
ATOM     23  C   UNL A   1      41.702  29.691  33.581  1.00  0.00     0.034 A 
ATOM     24  C   UNL A   1      42.438  25.074  28.280  1.00  0.00     0.034 A 
ATOM     25  C   UNL A   1      42.840  28.813  33.684  1.00  0.00     0.049 A 
ATOM     26  C   UNL A   1      43.470  25.212  29.371  1.00  0.00     0.074 A 
ATOM     27  C   UNL A   1      43.790  28.737  34.686  1.00  0.00     0.029 A 
ATOM     28  N   UNL A   1      43.195  27.869  32.726  1.00  0.00    -0.354 N 
ATOM     29  N   UNL A   1      43.456  26.003  30.420  1.00  0.00    -0.248 NA
ATOM     30  C   UNL A   1      44.641  24.332  29.292  1.00  0.00     0.031 C 
ATOM     31  C   UNL A   1      44.754  27.796  34.300  1.00  0.00     0.029 A 
ATOM     32  C   UNL A   1      44.370  27.233  33.092  1.00  0.00     0.049 A 
ATOM     33  H   UNL A   1      42.685  27.680  31.906  1.00  0.00     0.167 HD
ATOM     34  C   UNL A   1      44.592  25.681  31.155  1.00  0.00     0.074 A 
ATOM     35  C   UNL A   1      45.269  24.627  30.422  1.00  0.00     0.031 C 
ATOM     36  C   UNL A   1      45.028  26.192  32.335  1.00  0.00     0.034 A 
BRANCH  23  37
ATOM     37  C   UNL A   1      41.424  30.713  34.655  1.00  0.00     0.023 A 
ATOM     38  C   UNL A   1      40.263  30.631  35.450  1.00  0.00     0.031 A 
ATOM     39  C   UNL A   1      42.251  31.836  34.810  1.00  0.00     0.131 A 
ATOM     40  C   UNL A   1      39.909  31.701  36.284  1.00  0.00     0.055 A 
ATOM     41  C   UNL A   1      41.936  32.860  35.707  1.00  0.00     0.041 A 
ATOM     42  F   UNL A   1      43.355  31.981  34.061  1.00  0.00    -0.206 F 
ATOM     43  C   UNL A   1      40.748  32.806  36.434  1.00  0.00     0.022 A 
BRANCH  40  44
ATOM     44  S   UNL A   1      38.250  31.710  37.021  1.00  0.00     0.124 S 
ATOM     45  O   UNL A   1      38.492  32.403  38.284  1.00  0.00    -0.237 OA
ATOM     46  O   UNL A   1      37.468  32.441  36.030  1.00  0.00    -0.237 OA
ATOM     47  O   UNL A   1      37.925  30.291  37.150  1.00  0.00    -0.744 OA
ENDBRANCH  40  44
ENDBRANCH  23  37
BRANCH  24  48
ATOM     48  C   UNL A   1      42.637  24.138  27.137  1.00  0.00     0.023 A 
ATOM     49  C   UNL A   1      42.141  22.826  27.165  1.00  0.00     0.031 A 
ATOM     50  C   UNL A   1      43.363  24.543  26.001  1.00  0.00     0.131 A 
ATOM     51  C   UNL A   1      42.407  21.953  26.095  1.00  0.00     0.055 A 
ATOM     52  C   UNL A   1      43.598  23.683  24.926  1.00  0.00     0.041 A 
ATOM     53  F   UNL A   1      43.845  25.793  25.914  1.00  0.00    -0.206 F 
ATOM     54  C   UNL A   1      43.128  22.375  24.975  1.00  0.00     0.022 A 
BRANCH  51  55
ATOM     55  S   UNL A   1      41.845  20.233  26.214  1.00  0.00     0.124 S 
ATOM     56  O   UNL A   1      40.404  20.377  26.042  1.00  0.00    -0.237 OA
ATOM     57  O   UNL A   1      42.566  19.607  25.111  1.00  0.00    -0.237 OA
ATOM     58  O   UNL A   1      42.278  19.826  27.550  1.00  0.00    -0.744 OA
ENDBRANCH  51  55
ENDBRANCH  24  48
BRANCH  36  59
ATOM     59  C   UNL A   1      46.272  25.575  32.920  1.00  0.00     0.023 A 
ATOM     60  C   UNL A   1      47.556  25.989  32.526  1.00  0.00     0.031 A 
ATOM     61  C   UNL A   1      46.167  24.550  33.876  1.00  0.00     0.131 A 
ATOM     62  C   UNL A   1      48.684  25.339  33.045  1.00  0.00     0.055 A 
ATOM     63  C   UNL A   1      47.296  23.950  34.434  1.00  0.00     0.041 A 
ATOM     64  F   UNL A   1      44.963  24.115  34.283  1.00  0.00    -0.206 F 
ATOM     65  C   UNL A   1      48.565  24.335  34.009  1.00  0.00     0.022 A 
BRANCH  62  66
ATOM     66  S   UNL A   1      50.314  25.763  32.373  1.00  0.00     0.124 S 
ATOM     67  O   UNL A   1      50.953  24.454  32.283  1.00  0.00    -0.237 OA
ATOM     68  O   UNL A   1      49.973  26.394  31.101  1.00  0.00    -0.237 OA
ATOM     69  O   UNL A   1      50.877  26.661  33.378  1.00  0.00    -0.744 OA
ENDBRANCH  62  66
ENDBRANCH  36  59
ENDBRANCH  10  11
ENDBRANCH   3   5
ENDBRANCH   2   3
ENDBRANCH   1   2
BRANCH   1  70
ATOM     70  C   UNL A   1      32.636  27.779  26.885  1.00  0.00     0.275 C 
BRANCH  70  71
ATOM     71  O   UNL A   1      31.467  26.960  26.996  1.00  0.00    -0.458 OA
BRANCH  71  72
ATOM     72  C   UNL A   1      31.538  25.750  26.384  1.00  0.00     0.342 C 
ATOM     73  O   UNL A   1      31.535  24.654  26.925  1.00  0.00    -0.246 OA
BRANCH  72  74
ATOM     74  C   UNL A   1      31.434  25.928  24.925  1.00  0.00     0.102 A 
ATOM     75  C   UNL A   1      30.836  27.112  24.464  1.00  0.00     0.027 A 
ATOM     76  C   UNL A   1      31.917  24.987  24.019  1.00  0.00     0.130 A 
ATOM     77  C   UNL A   1      30.793  27.402  23.093  1.00  0.00    -0.025 A 
ATOM     78  C   UNL A   1      31.834  25.240  22.651  1.00  0.00     0.048 A 
ATOM     79  C   UNL A   1      31.293  26.447  22.196  1.00  0.00     0.012 A 
BRANCH  76  80
ATOM     80  O   UNL A   1      32.463  23.815  24.459  1.00  0.00    -0.507 OA
ATOM     81  H   UNL A   1      33.329  23.573  24.194  1.00  0.00     0.293 HD
ENDBRANCH  76  80
BRANCH  77  82
ATOM     82  C   UNL A   1      30.236  28.652  22.545  1.00  0.00     0.009 C 
ATOM     83  C   UNL A   1      29.386  29.482  23.174  1.00  0.00     0.009 C 
BRANCH  83  84
ATOM     84  C   UNL A   1      28.842  30.702  22.556  1.00  0.00    -0.018 A 
ATOM     85  C   UNL A   1      28.903  31.943  23.208  1.00  0.00     0.054 A 
ATOM     86  C   UNL A   1      28.325  30.643  21.252  1.00  0.00     0.054 A 
ATOM     87  C   UNL A   1      28.439  33.092  22.571  1.00  0.00     0.119 A 
ATOM     88  C   UNL A   1      27.867  31.807  20.634  1.00  0.00     0.119 A 
ATOM     89  C   UNL A   1      27.922  33.034  21.285  1.00  0.00     0.092 A 
BRANCH  87  90
ATOM     90  O   UNL A   1      28.489  34.309  23.189  1.00  0.00    -0.508 OA
ATOM     91  H   UNL A   1      27.705  34.696  23.526  1.00  0.00     0.293 HD
ENDBRANCH  87  90
BRANCH  88  92
ATOM     92  O   UNL A   1      27.356  31.783  19.368  1.00  0.00    -0.508 OA
ATOM     93  H   UNL A   1      26.830  32.495  19.061  1.00  0.00     0.293 HD
ENDBRANCH  88  92
ENDBRANCH  83  84
ENDBRANCH  77  82
ENDBRANCH  72  74
ENDBRANCH  71  72
ENDBRANCH  70  71
ENDBRANCH   1  70
TORSDOF 19
ENDMDL
MODEL 3
REMARK VINA RESULT:     -12.1      4.234      7.871
REMARK SMILES O=C(OCCOC(=O)c1cc(/C=C/c2cc(O)cc(O)c2)ccc1O)c1ccc(-c2c3nc(c(-c4cc(S(=O)(=O)[O-])ccc4F)c4ccc([nH]4)c(-c4cc(S(=O)(=O)[O-])ccc4F)c4nc(c(-c5cc(S(=O)(=O)[O-])ccc5F)c5ccc2[nH]5)C=C4)C=C3)cc1
REMARK SMILES IDX 4 1 3 2 2 3 1 4 26 5 27 6 88 7 28 8 87 9 29 10 30 11 31 12
REMARK SMILES IDX 81 13 32 14 86 15 80 16 82 17 33 18 85 19 79 20 78 21 34 23
REMARK SMILES IDX 66 24 46 25 65 26 47 27 50 28 64 29 83 30 48 31 49 32 63 34
REMARK SMILES IDX 84 35 51 36 35 37 36 38 44 39 37 40 43 41 45 42 42 43 38 44
REMARK SMILES IDX 39 45 40 46 41 47 67 48 68 49 76 50 69 51 75 52 77 53 74 54
REMARK SMILES IDX 70 55 71 56 72 57 73 58 52 59 53 60 61 61 54 62 60 63 62 64
REMARK SMILES IDX 59 65 55 66 56 67 57 68 58 69 5 70 6 71 7 72 8 73 9 74 10 75
REMARK SMILES IDX 24 76 11 77 23 78 22 79 25 80 12 82 13 83 14 84 15 85 21 86
REMARK SMILES IDX 16 87 19 88 18 89 17 90 20 92
REMARK H PARENT 82 22 50 33 25 81 17 91 20 93
REMARK Flexibility Score: inf
ROOT
ATOM      1  C   UNL A   1      34.288  33.418  28.053  1.00  0.00     0.275 C 
ENDROOT
BRANCH   1   2
ATOM      2  O   UNL A   1      33.697  32.130  27.811  1.00  0.00    -0.458 OA
BRANCH   2   3
ATOM      3  C   UNL A   1      34.265  30.964  27.421  1.00  0.00     0.338 C 
ATOM      4  O   UNL A   1      33.696  30.304  26.550  1.00  0.00    -0.246 OA
BRANCH   3   5
ATOM      5  C   UNL A   1      35.473  30.355  28.068  1.00  0.00     0.060 A 
ATOM      6  C   UNL A   1      35.555  29.850  29.366  1.00  0.00     0.016 A 
ATOM      7  C   UNL A   1      36.637  30.311  27.278  1.00  0.00     0.016 A 
ATOM      8  C   UNL A   1      36.728  29.249  29.836  1.00  0.00     0.010 A 
ATOM      9  C   UNL A   1      37.808  29.700  27.733  1.00  0.00     0.010 A 
ATOM     10  C   UNL A   1      37.858  29.165  29.023  1.00  0.00    -0.014 A 
BRANCH  10  11
ATOM     11  C   UNL A   1      39.130  28.653  29.579  1.00  0.00     0.031 A 
ATOM     12  C   UNL A   1      39.693  29.319  30.796  1.00  0.00     0.074 A 
ATOM     13  C   UNL A   1      39.743  27.591  29.028  1.00  0.00     0.049 A 
ATOM     14  N   UNL A   1      40.761  29.016  31.485  1.00  0.00    -0.248 NA
ATOM     15  C   UNL A   1      38.936  30.466  31.322  1.00  0.00     0.031 C 
ATOM     16  C   UNL A   1      39.235  26.825  27.892  1.00  0.00     0.029 A 
ATOM     17  N   UNL A   1      40.928  26.976  29.337  1.00  0.00    -0.354 N 
ATOM     18  C   UNL A   1      40.775  29.900  32.555  1.00  0.00     0.074 A 
ATOM     19  C   UNL A   1      39.664  30.808  32.371  1.00  0.00     0.031 C 
ATOM     20  C   UNL A   1      40.130  25.880  27.558  1.00  0.00     0.029 A 
ATOM     21  C   UNL A   1      41.270  25.969  28.465  1.00  0.00     0.049 A 
ATOM     22  H   UNL A   1      41.481  27.230  30.111  1.00  0.00     0.167 HD
ATOM     23  C   UNL A   1      41.613  29.921  33.621  1.00  0.00     0.034 A 
ATOM     24  C   UNL A   1      42.382  25.211  28.406  1.00  0.00     0.034 A 
ATOM     25  C   UNL A   1      42.750  29.045  33.747  1.00  0.00     0.049 A 
ATOM     26  C   UNL A   1      43.406  25.368  29.501  1.00  0.00     0.074 A 
ATOM     27  C   UNL A   1      43.693  28.986  34.755  1.00  0.00     0.029 A 
ATOM     28  N   UNL A   1      43.110  28.084  32.807  1.00  0.00    -0.354 N 
ATOM     29  N   UNL A   1      43.386  26.177  30.536  1.00  0.00    -0.248 NA
ATOM     30  C   UNL A   1      44.578  24.487  29.445  1.00  0.00     0.031 C 
ATOM     31  C   UNL A   1      44.660  28.039  34.392  1.00  0.00     0.029 A 
ATOM     32  C   UNL A   1      44.284  27.455  33.192  1.00  0.00     0.049 A 
ATOM     33  H   UNL A   1      42.606  27.880  31.988  1.00  0.00     0.167 HD
ATOM     34  C   UNL A   1      44.517  25.868  31.283  1.00  0.00     0.074 A 
ATOM     35  C   UNL A   1      45.199  24.802  30.573  1.00  0.00     0.031 C 
ATOM     36  C   UNL A   1      44.946  26.400  32.457  1.00  0.00     0.034 A 
BRANCH  23  37
ATOM     37  C   UNL A   1      41.327  30.960  34.675  1.00  0.00     0.023 A 
ATOM     38  C   UNL A   1      40.221  30.834  35.538  1.00  0.00     0.031 A 
ATOM     39  C   UNL A   1      42.086  32.140  34.746  1.00  0.00     0.131 A 
ATOM     40  C   UNL A   1      39.844  31.909  36.355  1.00  0.00     0.055 A 
ATOM     41  C   UNL A   1      41.754  33.173  35.625  1.00  0.00     0.041 A 
ATOM     42  F   UNL A   1      43.135  32.327  33.930  1.00  0.00    -0.206 F 
ATOM     43  C   UNL A   1      40.615  33.070  36.420  1.00  0.00     0.022 A 
BRANCH  40  44
ATOM     44  S   UNL A   1      38.231  31.838  37.186  1.00  0.00     0.124 S 
ATOM     45  O   UNL A   1      37.853  30.442  36.980  1.00  0.00    -0.237 OA
ATOM     46  O   UNL A   1      38.565  32.215  38.555  1.00  0.00    -0.237 OA
ATOM     47  O   UNL A   1      37.424  32.809  36.451  1.00  0.00    -0.744 OA
ENDBRANCH  40  44
ENDBRANCH  23  37
BRANCH  24  48
ATOM     48  C   UNL A   1      42.587  24.255  27.282  1.00  0.00     0.023 A 
ATOM     49  C   UNL A   1      42.033  22.967  27.299  1.00  0.00     0.031 A 
ATOM     50  C   UNL A   1      43.379  24.616  26.175  1.00  0.00     0.131 A 
ATOM     51  C   UNL A   1      42.306  22.072  26.250  1.00  0.00     0.055 A 
ATOM     52  C   UNL A   1      43.621  23.735  25.118  1.00  0.00     0.041 A 
ATOM     53  F   UNL A   1      43.919  25.843  26.098  1.00  0.00    -0.206 F 
ATOM     54  C   UNL A   1      43.092  22.450  25.158  1.00  0.00     0.022 A 
BRANCH  51  55
ATOM     55  S   UNL A   1      41.663  20.379  26.359  1.00  0.00     0.124 S 
ATOM     56  O   UNL A   1      42.111  19.975  27.687  1.00  0.00    -0.237 OA
ATOM     57  O   UNL A   1      40.228  20.595  26.201  1.00  0.00    -0.237 OA
ATOM     58  O   UNL A   1      42.315  19.696  25.244  1.00  0.00    -0.744 OA
ENDBRANCH  51  55
ENDBRANCH  24  48
BRANCH  36  59
ATOM     59  C   UNL A   1      46.186  25.794  33.060  1.00  0.00     0.023 A 
ATOM     60  C   UNL A   1      46.122  24.686  33.923  1.00  0.00     0.031 A 
ATOM     61  C   UNL A   1      47.449  26.343  32.775  1.00  0.00     0.131 A 
ATOM     62  C   UNL A   1      47.295  24.199  34.516  1.00  0.00     0.055 A 
ATOM     63  C   UNL A   1      48.619  25.813  33.320  1.00  0.00     0.041 A 
ATOM     64  F   UNL A   1      47.565  27.403  31.960  1.00  0.00    -0.206 F 
ATOM     65  C   UNL A   1      48.544  24.742  34.208  1.00  0.00     0.022 A 
BRANCH  62  66
ATOM     66  S   UNL A   1      47.154  22.897  35.771  1.00  0.00     0.124 S 
ATOM     67  O   UNL A   1      47.225  21.686  34.958  1.00  0.00    -0.237 OA
ATOM     68  O   UNL A   1      48.309  23.160  36.624  1.00  0.00    -0.237 OA
ATOM     69  O   UNL A   1      45.856  23.156  36.389  1.00  0.00    -0.744 OA
ENDBRANCH  62  66
ENDBRANCH  36  59
ENDBRANCH  10  11
ENDBRANCH   3   5
ENDBRANCH   2   3
ENDBRANCH   1   2
BRANCH   1  70
ATOM     70  C   UNL A   1      33.653  34.208  29.198  1.00  0.00     0.275 C 
BRANCH  70  71
ATOM     71  O   UNL A   1      34.592  34.569  30.217  1.00  0.00    -0.458 OA
BRANCH  71  72
ATOM     72  C   UNL A   1      34.917  33.581  31.090  1.00  0.00     0.342 C 
ATOM     73  O   UNL A   1      34.245  32.600  31.369  1.00  0.00    -0.246 OA
BRANCH  72  74
ATOM     74  C   UNL A   1      36.310  33.757  31.538  1.00  0.00     0.102 A 
ATOM     75  C   UNL A   1      37.297  33.855  30.543  1.00  0.00     0.027 A 
ATOM     76  C   UNL A   1      36.659  33.846  32.884  1.00  0.00     0.130 A 
ATOM     77  C   UNL A   1      38.629  34.126  30.884  1.00  0.00    -0.025 A 
ATOM     78  C   UNL A   1      37.988  34.063  33.239  1.00  0.00     0.048 A 
ATOM     79  C   UNL A   1      38.960  34.221  32.245  1.00  0.00     0.012 A 
BRANCH  76  80
ATOM     80  O   UNL A   1      35.711  33.711  33.857  1.00  0.00    -0.507 OA
ATOM     81  H   UNL A   1      35.914  33.939  34.744  1.00  0.00     0.293 HD
ENDBRANCH  76  80
BRANCH  77  82
ATOM     82  C   UNL A   1      39.702  34.301  29.890  1.00  0.00     0.009 C 
ATOM     83  C   UNL A   1      40.996  34.549  30.158  1.00  0.00     0.009 C 
BRANCH  83  84
ATOM     84  C   UNL A   1      42.015  34.745  29.114  1.00  0.00    -0.018 A 
ATOM     85  C   UNL A   1      43.130  33.899  29.011  1.00  0.00     0.054 A 
ATOM     86  C   UNL A   1      41.828  35.746  28.148  1.00  0.00     0.054 A 
ATOM     87  C   UNL A   1      44.043  34.068  27.973  1.00  0.00     0.119 A 
ATOM     88  C   UNL A   1      42.756  35.897  27.117  1.00  0.00     0.119 A 
ATOM     89  C   UNL A   1      43.863  35.062  27.021  1.00  0.00     0.092 A 
BRANCH  87  90
ATOM     90  O   UNL A   1      45.135  33.257  27.856  1.00  0.00    -0.508 OA
ATOM     91  H   UNL A   1      45.888  33.403  28.395  1.00  0.00     0.293 HD
ENDBRANCH  87  90
BRANCH  88  92
ATOM     92  O   UNL A   1      42.605  36.862  26.163  1.00  0.00    -0.508 OA
ATOM     93  H   UNL A   1      42.410  36.622  25.279  1.00  0.00     0.293 HD
ENDBRANCH  88  92
ENDBRANCH  83  84
ENDBRANCH  77  82
ENDBRANCH  72  74
ENDBRANCH  71  72
ENDBRANCH  70  71
ENDBRANCH   1  70
TORSDOF 19
ENDMDL
