MODEL 1
REMARK VINA RESULT:     -11.2      0.000      0.000
REMARK SMILES O=C(CCc1cccnc1)Nc1ccsc1C(=O)OCCOC(=O)c1ccc(-c2c3nc(c(-c4cc(S(=O)(=O)[O-])ccc4F)c4ccc([nH]4)c(-c4cc(S(=O)(=O)[O-])ccc4F)c4nc(c(-c5cc(S(=O)(=O)[O-])ccc5F)c5ccc2[nH]5)C=C4)C=C3)cc1
REMARK SMILES IDX 20 1 19 2 17 3 18 4 16 5 12 6 13 7 14 8 15 9 11 10 1 11 2 12
REMARK SMILES IDX 3 14 4 15 5 16 6 17 10 18 7 19 9 20 8 21 21 22 22 23 23 24
REMARK SMILES IDX 24 25 25 26 26 27 87 28 27 29 86 30 28 31 29 32 30 33 80 34
REMARK SMILES IDX 31 35 85 36 79 37 81 38 32 39 84 40 78 41 77 42 33 44 65 45
REMARK SMILES IDX 45 46 64 47 46 48 49 49 63 50 82 51 47 52 48 53 62 55 83 56
REMARK SMILES IDX 50 57 34 58 35 59 43 60 36 61 42 62 44 63 41 64 37 65 38 66
REMARK SMILES IDX 39 67 40 68 66 69 67 70 75 71 68 72 74 73 76 74 73 75 69 76
REMARK SMILES IDX 70 77 71 78 72 79 51 80 52 81 60 82 53 83 59 84 61 85 58 86
REMARK SMILES IDX 54 87 55 88 56 89 57 90
REMARK H PARENT 11 13 81 43 49 54
REMARK Flexibility Score: inf
ROOT
ATOM      1  C   UNL A   1      32.625  29.050  24.979  1.00  0.00     0.275 C 
ENDROOT
BRANCH   1   2
ATOM      2  O   UNL A   1      32.658  27.872  25.822  1.00  0.00    -0.458 OA
BRANCH   2   3
ATOM      3  C   UNL A   1      33.134  26.729  25.235  1.00  0.00     0.350 C 
ATOM      4  O   UNL A   1      34.083  26.719  24.457  1.00  0.00    -0.245 OA
BRANCH   3   5
ATOM      5  C   UNL A   1      32.412  25.551  25.701  1.00  0.00     0.136 A 
ATOM      6  C   UNL A   1      31.055  25.267  25.836  1.00  0.00     0.066 A 
ATOM      7  C   UNL A   1      30.855  24.003  26.482  1.00  0.00     0.039 A 
ATOM      8  C   UNL A   1      32.029  23.343  26.757  1.00  0.00     0.068 A 
ATOM      9  S   UNL A   1      33.372  24.185  26.154  1.00  0.00    -0.135 S 
BRANCH   6  10
ATOM     10  N   UNL A   1      30.053  26.108  25.349  1.00  0.00    -0.325 N 
ATOM     11  O   UNL A   1      29.804  25.253  23.203  1.00  0.00    -0.275 OA
ATOM     12  C   UNL A   1      29.593  26.124  24.047  1.00  0.00     0.224 C 
ATOM     13  H   UNL A   1      29.641  26.738  25.983  1.00  0.00     0.169 HD
BRANCH  12  14
ATOM     14  C   UNL A   1      28.915  27.411  23.591  1.00  0.00     0.105 C 
BRANCH  14  15
ATOM     15  C   UNL A   1      29.747  28.436  22.830  1.00  0.00     0.047 C 
BRANCH  15  16
ATOM     16  C   UNL A   1      29.127  29.781  22.535  1.00  0.00    -0.029 A 
ATOM     17  C   UNL A   1      28.548  30.142  21.313  1.00  0.00     0.007 A 
ATOM     18  C   UNL A   1      29.130  30.749  23.538  1.00  0.00     0.114 A 
ATOM     19  C   UNL A   1      28.075  31.437  21.124  1.00  0.00     0.020 A 
ATOM     20  N   UNL A   1      28.652  32.005  23.391  1.00  0.00    -0.264 NA
ATOM     21  C   UNL A   1      28.150  32.326  22.181  1.00  0.00     0.111 A 
ENDBRANCH  15  16
ENDBRANCH  14  15
ENDBRANCH  12  14
ENDBRANCH   6  10
ENDBRANCH   3   5
ENDBRANCH   2   3
ENDBRANCH   1   2
BRANCH   1  22
ATOM     22  C   UNL A   1      31.925  30.220  25.677  1.00  0.00     0.275 C 
BRANCH  22  23
ATOM     23  O   UNL A   1      32.448  30.386  27.005  1.00  0.00    -0.458 OA
BRANCH  23  24
ATOM     24  C   UNL A   1      33.058  31.574  27.213  1.00  0.00     0.338 C 
ATOM     25  O   UNL A   1      32.549  32.680  27.158  1.00  0.00    -0.246 OA
BRANCH  24  26
ATOM     26  C   UNL A   1      34.396  31.317  27.763  1.00  0.00     0.060 A 
ATOM     27  C   UNL A   1      34.664  30.011  28.171  1.00  0.00     0.016 A 
ATOM     28  C   UNL A   1      35.353  32.320  27.907  1.00  0.00     0.016 A 
ATOM     29  C   UNL A   1      35.879  29.695  28.758  1.00  0.00     0.010 A 
ATOM     30  C   UNL A   1      36.583  32.001  28.489  1.00  0.00     0.010 A 
ATOM     31  C   UNL A   1      36.843  30.691  28.937  1.00  0.00    -0.014 A 
BRANCH  31  32
ATOM     32  C   UNL A   1      38.079  30.374  29.689  1.00  0.00     0.031 A 
ATOM     33  C   UNL A   1      39.097  29.462  29.064  1.00  0.00     0.074 A 
ATOM     34  C   UNL A   1      38.297  30.932  30.894  1.00  0.00     0.049 A 
ATOM     35  N   UNL A   1      40.183  28.954  29.580  1.00  0.00    -0.248 NA
ATOM     36  C   UNL A   1      38.842  29.058  27.673  1.00  0.00     0.031 C 
ATOM     37  C   UNL A   1      37.404  31.884  31.554  1.00  0.00     0.029 A 
ATOM     38  N   UNL A   1      39.335  30.780  31.778  1.00  0.00    -0.354 N 
ATOM     39  C   UNL A   1      40.724  28.138  28.591  1.00  0.00     0.074 A 
ATOM     40  C   UNL A   1      39.829  28.203  27.456  1.00  0.00     0.031 C 
ATOM     41  C   UNL A   1      37.934  32.235  32.736  1.00  0.00     0.029 A 
ATOM     42  C   UNL A   1      39.162  31.478  32.950  1.00  0.00     0.049 A 
ATOM     43  H   UNL A   1      40.126  30.224  31.591  1.00  0.00     0.167 HD
ATOM     44  C   UNL A   1      41.865  27.407  28.636  1.00  0.00     0.034 A 
ATOM     45  C   UNL A   1      39.890  31.469  34.084  1.00  0.00     0.034 A 
ATOM     46  C   UNL A   1      42.741  27.381  29.783  1.00  0.00     0.049 A 
ATOM     47  C   UNL A   1      41.116  30.594  34.138  1.00  0.00     0.074 A 
ATOM     48  C   UNL A   1      43.931  26.696  29.946  1.00  0.00     0.029 A 
ATOM     49  N   UNL A   1      42.515  28.070  30.972  1.00  0.00    -0.354 N 
ATOM     50  N   UNL A   1      41.608  29.803  33.210  1.00  0.00    -0.248 NA
ATOM     51  C   UNL A   1      41.884  30.606  35.388  1.00  0.00     0.031 C 
ATOM     52  C   UNL A   1      44.379  26.902  31.255  1.00  0.00     0.029 A 
ATOM     53  C   UNL A   1      43.522  27.793  31.883  1.00  0.00     0.049 A 
ATOM     54  H   UNL A   1      41.750  28.666  31.141  1.00  0.00     0.167 HD
ATOM     55  C   UNL A   1      42.759  29.244  33.757  1.00  0.00     0.074 A 
ATOM     56  C   UNL A   1      42.894  29.804  35.088  1.00  0.00     0.031 C 
ATOM     57  C   UNL A   1      43.628  28.354  33.212  1.00  0.00     0.034 A 
BRANCH  44  58
ATOM     58  C   UNL A   1      42.178  26.528  27.447  1.00  0.00     0.023 A 
ATOM     59  C   UNL A   1      41.771  25.185  27.376  1.00  0.00     0.031 A 
ATOM     60  C   UNL A   1      42.946  27.036  26.382  1.00  0.00     0.131 A 
ATOM     61  C   UNL A   1      42.200  24.376  26.311  1.00  0.00     0.055 A 
ATOM     62  C   UNL A   1      43.293  26.251  25.281  1.00  0.00     0.041 A 
ATOM     63  F   UNL A   1      43.390  28.302  26.402  1.00  0.00    -0.206 F 
ATOM     64  C   UNL A   1      42.935  24.907  25.249  1.00  0.00     0.022 A 
BRANCH  61  65
ATOM     65  S   UNL A   1      41.924  22.586  26.413  1.00  0.00     0.124 S 
ATOM     66  O   UNL A   1      42.626  22.112  25.223  1.00  0.00    -0.237 OA
ATOM     67  O   UNL A   1      42.531  22.245  27.694  1.00  0.00    -0.237 OA
ATOM     68  O   UNL A   1      40.469  22.459  26.359  1.00  0.00    -0.744 OA
ENDBRANCH  61  65
ENDBRANCH  44  58
BRANCH  45  69
ATOM     69  C   UNL A   1      39.446  32.258  35.270  1.00  0.00     0.023 A 
ATOM     70  C   UNL A   1      38.741  31.660  36.325  1.00  0.00     0.031 A 
ATOM     71  C   UNL A   1      39.704  33.639  35.351  1.00  0.00     0.131 A 
ATOM     72  C   UNL A   1      38.287  32.445  37.397  1.00  0.00     0.055 A 
ATOM     73  C   UNL A   1      39.302  34.404  36.447  1.00  0.00     0.041 A 
ATOM     74  F   UNL A   1      40.370  34.267  34.368  1.00  0.00    -0.206 F 
ATOM     75  C   UNL A   1      38.579  33.809  37.474  1.00  0.00     0.022 A 
BRANCH  72  76
ATOM     76  S   UNL A   1      37.232  31.674  38.655  1.00  0.00     0.124 S 
ATOM     77  O   UNL A   1      36.064  32.547  38.638  1.00  0.00    -0.237 OA
ATOM     78  O   UNL A   1      37.040  30.334  38.110  1.00  0.00    -0.237 OA
ATOM     79  O   UNL A   1      38.044  31.740  39.868  1.00  0.00    -0.744 OA
ENDBRANCH  72  76
ENDBRANCH  45  69
BRANCH  57  80
ATOM     80  C   UNL A   1      44.827  27.973  34.046  1.00  0.00     0.023 A 
ATOM     81  C   UNL A   1      44.809  26.861  34.906  1.00  0.00     0.031 A 
ATOM     82  C   UNL A   1      46.003  28.742  33.984  1.00  0.00     0.131 A 
ATOM     83  C   UNL A   1      45.922  26.586  35.714  1.00  0.00     0.055 A 
ATOM     84  C   UNL A   1      47.132  28.421  34.736  1.00  0.00     0.041 A 
ATOM     85  F   UNL A   1      46.073  29.818  33.183  1.00  0.00    -0.206 F 
ATOM     86  C   UNL A   1      47.091  27.346  35.618  1.00  0.00     0.022 A 
BRANCH  83  87
ATOM     87  S   UNL A   1      45.785  25.287  36.971  1.00  0.00     0.124 S 
ATOM     88  O   UNL A   1      44.623  25.728  37.737  1.00  0.00    -0.237 OA
ATOM     89  O   UNL A   1      45.598  24.087  36.162  1.00  0.00    -0.237 OA
ATOM     90  O   UNL A   1      47.060  25.361  37.681  1.00  0.00    -0.744 OA
ENDBRANCH  83  87
ENDBRANCH  57  80
ENDBRANCH  31  32
ENDBRANCH  24  26
ENDBRANCH  23  24
ENDBRANCH  22  23
ENDBRANCH   1  22
TORSDOF 18
ENDMDL
MODEL 2
REMARK VINA RESULT:     -10.7      5.332      9.930
REMARK SMILES O=C(CCc1cccnc1)Nc1ccsc1C(=O)OCCOC(=O)c1ccc(-c2c3nc(c(-c4cc(S(=O)(=O)[O-])ccc4F)c4ccc([nH]4)c(-c4cc(S(=O)(=O)[O-])ccc4F)c4nc(c(-c5cc(S(=O)(=O)[O-])ccc5F)c5ccc2[nH]5)C=C4)C=C3)cc1
REMARK SMILES IDX 20 1 19 2 17 3 18 4 16 5 12 6 13 7 14 8 15 9 11 10 1 11 2 12
REMARK SMILES IDX 3 14 4 15 5 16 6 17 10 18 7 19 9 20 8 21 21 22 22 23 23 24
REMARK SMILES IDX 24 25 25 26 26 27 87 28 27 29 86 30 28 31 29 32 30 33 80 34
REMARK SMILES IDX 31 35 85 36 79 37 81 38 32 39 84 40 78 41 77 42 33 44 65 45
REMARK SMILES IDX 45 46 64 47 46 48 49 49 63 50 82 51 47 52 48 53 62 55 83 56
REMARK SMILES IDX 50 57 34 58 35 59 43 60 36 61 42 62 44 63 41 64 37 65 38 66
REMARK SMILES IDX 39 67 40 68 66 69 67 70 75 71 68 72 74 73 76 74 73 75 69 76
REMARK SMILES IDX 70 77 71 78 72 79 51 80 52 81 60 82 53 83 59 84 61 85 58 86
REMARK SMILES IDX 54 87 55 88 56 89 57 90
REMARK H PARENT 11 13 81 43 49 54
REMARK Flexibility Score: inf
ROOT
ATOM      1  C   UNL A   1      35.825  21.936  25.635  1.00  0.00     0.275 C 
ENDROOT
BRANCH   1   2
ATOM      2  O   UNL A   1      34.813  21.341  26.483  1.00  0.00    -0.458 OA
BRANCH   2   3
ATOM      3  C   UNL A   1      33.516  21.667  26.188  1.00  0.00     0.350 C 
ATOM      4  O   UNL A   1      32.839  22.422  26.880  1.00  0.00    -0.245 OA
BRANCH   3   5
ATOM      5  C   UNL A   1      33.084  21.056  24.937  1.00  0.00     0.136 A 
ATOM      6  C   UNL A   1      32.612  21.588  23.738  1.00  0.00     0.066 A 
ATOM      7  C   UNL A   1      32.180  20.550  22.850  1.00  0.00     0.039 A 
ATOM      8  C   UNL A   1      32.387  19.286  23.349  1.00  0.00     0.068 A 
ATOM      9  S   UNL A   1      33.191  19.332  24.842  1.00  0.00    -0.135 S 
BRANCH   6  10
ATOM     10  N   UNL A   1      32.621  22.956  23.461  1.00  0.00    -0.325 N 
ATOM     11  O   UNL A   1      34.748  23.178  22.552  1.00  0.00    -0.275 OA
ATOM     12  C   UNL A   1      33.716  23.667  23.011  1.00  0.00     0.224 C 
ATOM     13  H   UNL A   1      31.782  23.452  23.596  1.00  0.00     0.169 HD
BRANCH  12  14
ATOM     14  C   UNL A   1      33.690  25.170  23.269  1.00  0.00     0.105 C 
BRANCH  14  15
ATOM     15  C   UNL A   1      34.073  25.673  24.656  1.00  0.00     0.047 C 
BRANCH  15  16
ATOM     16  C   UNL A   1      33.662  27.072  25.046  1.00  0.00    -0.029 A 
ATOM     17  C   UNL A   1      33.387  28.104  24.142  1.00  0.00     0.007 A 
ATOM     18  C   UNL A   1      33.551  27.378  26.402  1.00  0.00     0.114 A 
ATOM     19  C   UNL A   1      33.092  29.380  24.613  1.00  0.00     0.020 A 
ATOM     20  N   UNL A   1      33.238  28.601  26.887  1.00  0.00    -0.264 NA
ATOM     21  C   UNL A   1      33.032  29.580  25.981  1.00  0.00     0.111 A 
ENDBRANCH  15  16
ENDBRANCH  14  15
ENDBRANCH  12  14
ENDBRANCH   6  10
ENDBRANCH   3   5
ENDBRANCH   2   3
ENDBRANCH   1   2
BRANCH   1  22
ATOM     22  C   UNL A   1      36.865  20.902  25.192  1.00  0.00     0.275 C 
BRANCH  22  23
ATOM     23  O   UNL A   1      38.161  21.515  25.095  1.00  0.00    -0.458 OA
BRANCH  23  24
ATOM     24  C   UNL A   1      39.021  21.145  26.071  1.00  0.00     0.338 C 
ATOM     25  O   UNL A   1      39.394  20.015  26.330  1.00  0.00    -0.246 OA
BRANCH  24  26
ATOM     26  C   UNL A   1      39.637  22.357  26.628  1.00  0.00     0.060 A 
ATOM     27  C   UNL A   1      39.173  23.577  26.138  1.00  0.00     0.016 A 
ATOM     28  C   UNL A   1      40.657  22.311  27.576  1.00  0.00     0.016 A 
ATOM     29  C   UNL A   1      39.743  24.767  26.564  1.00  0.00     0.010 A 
ATOM     30  C   UNL A   1      41.226  23.509  28.015  1.00  0.00     0.010 A 
ATOM     31  C   UNL A   1      40.786  24.742  27.494  1.00  0.00    -0.014 A 
BRANCH  31  32
ATOM     32  C   UNL A   1      41.479  26.005  27.837  1.00  0.00     0.031 A 
ATOM     33  C   UNL A   1      40.738  27.053  28.618  1.00  0.00     0.074 A 
ATOM     34  C   UNL A   1      42.765  26.186  27.484  1.00  0.00     0.049 A 
ATOM     35  N   UNL A   1      41.098  28.270  28.923  1.00  0.00    -0.248 NA
ATOM     36  C   UNL A   1      39.404  26.676  29.108  1.00  0.00     0.031 C 
ATOM     37  C   UNL A   1      43.592  25.201  26.785  1.00  0.00     0.029 A 
ATOM     38  N   UNL A   1      43.602  27.257  27.663  1.00  0.00    -0.354 N 
ATOM     39  C   UNL A   1      40.019  28.821  29.607  1.00  0.00     0.074 A 
ATOM     40  C   UNL A   1      38.985  27.811  29.648  1.00  0.00     0.031 C 
ATOM     41  C   UNL A   1      44.819  25.712  26.600  1.00  0.00     0.029 A 
ATOM     42  C   UNL A   1      44.843  27.084  27.097  1.00  0.00     0.049 A 
ATOM     43  H   UNL A   1      43.339  28.072  28.149  1.00  0.00     0.167 HD
ATOM     44  C   UNL A   1      39.913  30.060  30.149  1.00  0.00     0.034 A 
ATOM     45  C   UNL A   1      45.864  27.951  26.954  1.00  0.00     0.034 A 
ATOM     46  C   UNL A   1      40.975  31.036  30.101  1.00  0.00     0.049 A 
ATOM     47  C   UNL A   1      45.697  29.346  27.501  1.00  0.00     0.074 A 
ATOM     48  C   UNL A   1      40.996  32.316  30.626  1.00  0.00     0.029 A 
ATOM     49  N   UNL A   1      42.206  30.842  29.483  1.00  0.00    -0.354 N 
ATOM     50  N   UNL A   1      44.665  29.871  28.124  1.00  0.00    -0.248 NA
ATOM     51  C   UNL A   1      46.828  30.264  27.328  1.00  0.00     0.031 C 
ATOM     52  C   UNL A   1      42.201  32.921  30.254  1.00  0.00     0.029 A 
ATOM     53  C   UNL A   1      42.976  31.991  29.579  1.00  0.00     0.049 A 
ATOM     54  H   UNL A   1      42.489  30.009  29.040  1.00  0.00     0.167 HD
ATOM     55  C   UNL A   1      45.034  31.175  28.438  1.00  0.00     0.074 A 
ATOM     56  C   UNL A   1      46.389  31.347  27.952  1.00  0.00     0.031 C 
ATOM     57  C   UNL A   1      44.323  32.142  29.074  1.00  0.00     0.034 A 
BRANCH  44  58
ATOM     58  C   UNL A   1      38.585  30.441  30.764  1.00  0.00     0.023 A 
ATOM     59  C   UNL A   1      37.556  31.041  30.019  1.00  0.00     0.031 A 
ATOM     60  C   UNL A   1      38.366  30.243  32.140  1.00  0.00     0.131 A 
ATOM     61  C   UNL A   1      36.394  31.494  30.664  1.00  0.00     0.055 A 
ATOM     62  C   UNL A   1      37.172  30.615  32.760  1.00  0.00     0.041 A 
ATOM     63  F   UNL A   1      39.320  29.701  32.913  1.00  0.00    -0.206 F 
ATOM     64  C   UNL A   1      36.183  31.260  32.025  1.00  0.00     0.022 A 
BRANCH  61  65
ATOM     65  S   UNL A   1      35.235  32.538  29.737  1.00  0.00     0.124 S 
ATOM     66  O   UNL A   1      34.752  31.608  28.719  1.00  0.00    -0.237 OA
ATOM     67  O   UNL A   1      34.272  32.927  30.759  1.00  0.00    -0.237 OA
ATOM     68  O   UNL A   1      36.078  33.620  29.230  1.00  0.00    -0.744 OA
ENDBRANCH  61  65
ENDBRANCH  44  58
BRANCH  45  69
ATOM     69  C   UNL A   1      47.096  27.549  26.215  1.00  0.00     0.023 A 
ATOM     70  C   UNL A   1      48.225  27.056  26.886  1.00  0.00     0.031 A 
ATOM     71  C   UNL A   1      47.169  27.678  24.815  1.00  0.00     0.131 A 
ATOM     72  C   UNL A   1      49.388  26.744  26.164  1.00  0.00     0.055 A 
ATOM     73  C   UNL A   1      48.307  27.311  24.095  1.00  0.00     0.041 A 
ATOM     74  F   UNL A   1      46.122  28.150  24.119  1.00  0.00    -0.206 F 
ATOM     75  C   UNL A   1      49.430  26.851  24.772  1.00  0.00     0.022 A 
BRANCH  72  76
ATOM     76  S   UNL A   1      50.881  26.275  27.082  1.00  0.00     0.124 S 
ATOM     77  O   UNL A   1      50.673  26.952  28.356  1.00  0.00    -0.237 OA
ATOM     78  O   UNL A   1      50.780  24.820  27.103  1.00  0.00    -0.237 OA
ATOM     79  O   UNL A   1      51.966  26.809  26.261  1.00  0.00    -0.744 OA
ENDBRANCH  72  76
ENDBRANCH  45  69
BRANCH  57  80
ATOM     80  C   UNL A   1      45.025  33.456  29.318  1.00  0.00     0.023 A 
ATOM     81  C   UNL A   1      44.936  34.526  28.409  1.00  0.00     0.031 A 
ATOM     82  C   UNL A   1      45.802  33.636  30.475  1.00  0.00     0.131 A 
ATOM     83  C   UNL A   1      45.662  35.702  28.643  1.00  0.00     0.055 A 
ATOM     84  C   UNL A   1      46.464  34.835  30.739  1.00  0.00     0.041 A 
ATOM     85  F   UNL A   1      45.927  32.646  31.375  1.00  0.00    -0.206 F 
ATOM     86  C   UNL A   1      46.407  35.872  29.813  1.00  0.00     0.022 A 
BRANCH  83  87
ATOM     87  S   UNL A   1      45.706  36.969  27.347  1.00  0.00     0.124 S 
ATOM     88  O   UNL A   1      46.301  38.101  28.050  1.00  0.00    -0.237 OA
ATOM     89  O   UNL A   1      46.538  36.344  26.325  1.00  0.00    -0.237 OA
ATOM     90  O   UNL A   1      44.300  37.135  26.983  1.00  0.00    -0.744 OA
ENDBRANCH  83  87
ENDBRANCH  57  80
ENDBRANCH  31  32
ENDBRANCH  24  26
ENDBRANCH  23  24
ENDBRANCH  22  23
ENDBRANCH   1  22
TORSDOF 18
ENDMDL
MODEL 3
REMARK VINA RESULT:     -10.7      5.490     10.516
REMARK SMILES O=C(CCc1cccnc1)Nc1ccsc1C(=O)OCCOC(=O)c1ccc(-c2c3nc(c(-c4cc(S(=O)(=O)[O-])ccc4F)c4ccc([nH]4)c(-c4cc(S(=O)(=O)[O-])ccc4F)c4nc(c(-c5cc(S(=O)(=O)[O-])ccc5F)c5ccc2[nH]5)C=C4)C=C3)cc1
REMARK SMILES IDX 20 1 19 2 17 3 18 4 16 5 12 6 13 7 14 8 15 9 11 10 1 11 2 12
REMARK SMILES IDX 3 14 4 15 5 16 6 17 10 18 7 19 9 20 8 21 21 22 22 23 23 24
REMARK SMILES IDX 24 25 25 26 26 27 87 28 27 29 86 30 28 31 29 32 30 33 80 34
REMARK SMILES IDX 31 35 85 36 79 37 81 38 32 39 84 40 78 41 77 42 33 44 65 45
REMARK SMILES IDX 45 46 64 47 46 48 49 49 63 50 82 51 47 52 48 53 62 55 83 56
REMARK SMILES IDX 50 57 34 58 35 59 43 60 36 61 42 62 44 63 41 64 37 65 38 66
REMARK SMILES IDX 39 67 40 68 66 69 67 70 75 71 68 72 74 73 76 74 73 75 69 76
REMARK SMILES IDX 70 77 71 78 72 79 51 80 52 81 60 82 53 83 59 84 61 85 58 86
REMARK SMILES IDX 54 87 55 88 56 89 57 90
REMARK H PARENT 11 13 81 43 49 54
REMARK Flexibility Score: inf
ROOT
ATOM      1  C   UNL A   1      35.795  22.494  24.600  1.00  0.00     0.275 C 
ENDROOT
BRANCH   1   2
ATOM      2  O   UNL A   1      35.689  23.917  24.854  1.00  0.00    -0.458 OA
BRANCH   2   3
ATOM      3  C   UNL A   1      34.424  24.393  25.077  1.00  0.00     0.350 C 
ATOM      4  O   UNL A   1      33.893  24.395  26.184  1.00  0.00    -0.245 OA
BRANCH   3   5
ATOM      5  C   UNL A   1      33.837  24.937  23.859  1.00  0.00     0.136 A 
ATOM      6  C   UNL A   1      33.277  24.341  22.732  1.00  0.00     0.066 A 
ATOM      7  C   UNL A   1      32.967  25.320  21.732  1.00  0.00     0.039 A 
ATOM      8  C   UNL A   1      33.228  26.608  22.134  1.00  0.00     0.068 A 
ATOM      9  S   UNL A   1      33.752  26.662  23.747  1.00  0.00    -0.135 S 
BRANCH   6  10
ATOM     10  N   UNL A   1      33.024  22.971  22.646  1.00  0.00    -0.325 N 
ATOM     11  O   UNL A   1      31.001  22.853  23.781  1.00  0.00    -0.275 OA
ATOM     12  C   UNL A   1      31.985  22.315  23.274  1.00  0.00     0.224 C 
ATOM     13  H   UNL A   1      33.634  22.430  22.094  1.00  0.00     0.169 HD
BRANCH  12  14
ATOM     14  C   UNL A   1      32.174  20.818  23.496  1.00  0.00     0.105 C 
BRANCH  14  15
ATOM     15  C   UNL A   1      33.017  20.363  24.682  1.00  0.00     0.047 C 
BRANCH  15  16
ATOM     16  C   UNL A   1      33.410  18.907  24.761  1.00  0.00    -0.029 A 
ATOM     17  C   UNL A   1      34.675  18.404  24.440  1.00  0.00     0.007 A 
ATOM     18  C   UNL A   1      32.452  17.982  25.174  1.00  0.00     0.114 A 
ATOM     19  C   UNL A   1      34.907  17.032  24.474  1.00  0.00     0.020 A 
ATOM     20  N   UNL A   1      32.658  16.648  25.244  1.00  0.00    -0.264 NA
ATOM     21  C   UNL A   1      33.877  16.200  24.876  1.00  0.00     0.111 A 
ENDBRANCH  15  16
ENDBRANCH  14  15
ENDBRANCH  12  14
ENDBRANCH   6  10
ENDBRANCH   3   5
ENDBRANCH   2   3
ENDBRANCH   1   2
BRANCH   1  22
ATOM     22  C   UNL A   1      36.743  21.816  25.593  1.00  0.00     0.275 C 
BRANCH  22  23
ATOM     23  O   UNL A   1      38.101  21.932  25.137  1.00  0.00    -0.458 OA
BRANCH  23  24
ATOM     24  C   UNL A   1      39.024  21.540  26.044  1.00  0.00     0.338 C 
ATOM     25  O   UNL A   1      39.459  20.413  26.206  1.00  0.00    -0.246 OA
BRANCH  24  26
ATOM     26  C   UNL A   1      39.612  22.739  26.654  1.00  0.00     0.060 A 
ATOM     27  C   UNL A   1      39.176  23.969  26.163  1.00  0.00     0.016 A 
ATOM     28  C   UNL A   1      40.582  22.674  27.652  1.00  0.00     0.016 A 
ATOM     29  C   UNL A   1      39.725  25.150  26.638  1.00  0.00     0.010 A 
ATOM     30  C   UNL A   1      41.129  23.863  28.142  1.00  0.00     0.010 A 
ATOM     31  C   UNL A   1      40.718  25.106  27.621  1.00  0.00    -0.014 A 
BRANCH  31  32
ATOM     32  C   UNL A   1      41.394  26.361  28.021  1.00  0.00     0.031 A 
ATOM     33  C   UNL A   1      40.615  27.397  28.782  1.00  0.00     0.074 A 
ATOM     34  C   UNL A   1      42.697  26.546  27.739  1.00  0.00     0.049 A 
ATOM     35  N   UNL A   1      40.960  28.607  29.127  1.00  0.00    -0.248 NA
ATOM     36  C   UNL A   1      39.256  27.015  29.196  1.00  0.00     0.031 C 
ATOM     37  C   UNL A   1      43.558  25.572  27.067  1.00  0.00     0.029 A 
ATOM     38  N   UNL A   1      43.525  27.612  27.981  1.00  0.00    -0.354 N 
ATOM     39  C   UNL A   1      39.848  29.149  29.764  1.00  0.00     0.074 A 
ATOM     40  C   UNL A   1      38.812  28.140  29.733  1.00  0.00     0.031 C 
ATOM     41  C   UNL A   1      44.793  26.083  26.954  1.00  0.00     0.029 A 
ATOM     42  C   UNL A   1      44.793  27.446  27.476  1.00  0.00     0.049 A 
ATOM     43  H   UNL A   1      43.238  28.418  28.467  1.00  0.00     0.167 HD
ATOM     44  C   UNL A   1      39.715  30.378  30.322  1.00  0.00     0.034 A 
ATOM     45  C   UNL A   1      45.822  28.313  27.402  1.00  0.00     0.034 A 
ATOM     46  C   UNL A   1      40.780  31.353  30.346  1.00  0.00     0.049 A 
ATOM     47  C   UNL A   1      45.628  29.698  27.965  1.00  0.00     0.074 A 
ATOM     48  C   UNL A   1      40.775  32.622  30.894  1.00  0.00     0.029 A 
ATOM     49  N   UNL A   1      42.041  31.166  29.789  1.00  0.00    -0.354 N 
ATOM     50  N   UNL A   1      44.566  30.214  28.542  1.00  0.00    -0.248 NA
ATOM     51  C   UNL A   1      46.768  30.617  27.867  1.00  0.00     0.031 C 
ATOM     52  C   UNL A   1      41.999  33.232  30.597  1.00  0.00     0.029 A 
ATOM     53  C   UNL A   1      42.807  32.311  29.946  1.00  0.00     0.049 A 
ATOM     54  H   UNL A   1      42.346  30.341  29.347  1.00  0.00     0.167 HD
ATOM     55  C   UNL A   1      44.920  31.512  28.899  1.00  0.00     0.074 A 
ATOM     56  C   UNL A   1      46.299  31.690  28.487  1.00  0.00     0.031 C 
ATOM     57  C   UNL A   1      44.178  32.469  29.514  1.00  0.00     0.034 A 
BRANCH  44  58
ATOM     58  C   UNL A   1      38.358  30.751  30.874  1.00  0.00     0.023 A 
ATOM     59  C   UNL A   1      37.361  31.343  30.081  1.00  0.00     0.031 A 
ATOM     60  C   UNL A   1      38.077  30.553  32.239  1.00  0.00     0.131 A 
ATOM     61  C   UNL A   1      36.167  31.790  30.671  1.00  0.00     0.055 A 
ATOM     62  C   UNL A   1      36.853  30.917  32.802  1.00  0.00     0.041 A 
ATOM     63  F   UNL A   1      38.998  30.018  33.056  1.00  0.00    -0.206 F 
ATOM     64  C   UNL A   1      35.895  31.556  32.022  1.00  0.00     0.022 A 
BRANCH  61  65
ATOM     65  S   UNL A   1      35.046  32.825  29.690  1.00  0.00     0.124 S 
ATOM     66  O   UNL A   1      34.160  33.359  30.722  1.00  0.00    -0.237 OA
ATOM     67  O   UNL A   1      35.958  33.779  29.071  1.00  0.00    -0.237 OA
ATOM     68  O   UNL A   1      34.418  31.876  28.772  1.00  0.00    -0.744 OA
ENDBRANCH  61  65
ENDBRANCH  44  58
BRANCH  45  69
ATOM     69  C   UNL A   1      47.089  27.922  26.721  1.00  0.00     0.023 A 
ATOM     70  C   UNL A   1      47.216  27.971  25.324  1.00  0.00     0.031 A 
ATOM     71  C   UNL A   1      48.194  27.465  27.464  1.00  0.00     0.131 A 
ATOM     72  C   UNL A   1      48.404  27.539  24.713  1.00  0.00     0.055 A 
ATOM     73  C   UNL A   1      49.394  27.092  26.856  1.00  0.00     0.041 A 
ATOM     74  F   UNL A   1      48.129  27.391  28.803  1.00  0.00    -0.206 F 
ATOM     75  C   UNL A   1      49.499  27.117  25.470  1.00  0.00     0.022 A 
BRANCH  72  76
ATOM     76  S   UNL A   1      48.469  27.453  22.902  1.00  0.00     0.124 S 
ATOM     77  O   UNL A   1      49.726  28.135  22.617  1.00  0.00    -0.237 OA
ATOM     78  O   UNL A   1      48.452  26.013  22.666  1.00  0.00    -0.237 OA
ATOM     79  O   UNL A   1      47.264  28.165  22.484  1.00  0.00    -0.744 OA
ENDBRANCH  72  76
ENDBRANCH  45  69
BRANCH  57  80
ATOM     80  C   UNL A   1      44.868  33.777  29.817  1.00  0.00     0.023 A 
ATOM     81  C   UNL A   1      44.851  34.853  28.912  1.00  0.00     0.031 A 
ATOM     82  C   UNL A   1      45.562  33.944  31.029  1.00  0.00     0.131 A 
ATOM     83  C   UNL A   1      45.565  36.023  29.207  1.00  0.00     0.055 A 
ATOM     84  C   UNL A   1      46.209  35.136  31.349  1.00  0.00     0.041 A 
ATOM     85  F   UNL A   1      45.615  32.947  31.928  1.00  0.00    -0.206 F 
ATOM     86  C   UNL A   1      46.225  36.180  30.429  1.00  0.00     0.022 A 
BRANCH  83  87
ATOM     87  S   UNL A   1      45.709  37.299  27.927  1.00  0.00     0.124 S 
ATOM     88  O   UNL A   1      46.769  36.760  27.081  1.00  0.00    -0.237 OA
ATOM     89  O   UNL A   1      44.371  37.311  27.344  1.00  0.00    -0.237 OA
ATOM     90  O   UNL A   1      46.067  38.500  28.679  1.00  0.00    -0.744 OA
ENDBRANCH  83  87
ENDBRANCH  57  80
ENDBRANCH  31  32
ENDBRANCH  24  26
ENDBRANCH  23  24
ENDBRANCH  22  23
ENDBRANCH   1  22
TORSDOF 18
ENDMDL
