MODEL 1
REMARK VINA RESULT:     -10.3      0.000      0.000
REMARK SMILES CCn1ccc2ccc(C[NH+]3CCC4(CC3)C[C@H](C(=O)OCCOC(=O)c3ccc(-c5c6nc(c(-c7cc(S(=O)(=O)[O-])ccc7F)c7ccc([nH]7)c(-c7cc(S(=O)(=O)[O-])ccc7F)c7nc(c(-c8cc(S(=O)(=O)[O-])ccc8F)c8ccc5[nH]8)C=C7)C=C6)cc3)N(C(C)=O)C4)cc21
REMARK SMILES IDX 22 1 21 2 19 3 20 4 18 5 11 6 12 7 16 8 13 10 15 11 14 12
REMARK SMILES IDX 17 13 94 14 90 15 10 16 9 17 3 18 4 19 96 20 5 21 6 22 95 23
REMARK SMILES IDX 7 24 8 25 2 26 1 27 91 28 92 29 93 30 23 31 24 32 25 33
REMARK SMILES IDX 26 34 27 35 28 36 89 37 29 38 88 39 30 40 31 41 32 42 82 43
REMARK SMILES IDX 33 44 87 45 81 46 83 47 34 48 86 49 80 50 79 51 35 53 67 54
REMARK SMILES IDX 47 55 66 56 48 57 51 58 65 59 84 60 49 61 50 62 64 64 85 65
REMARK SMILES IDX 52 66 36 67 37 68 45 69 38 70 44 71 46 72 43 73 39 74 40 75
REMARK SMILES IDX 41 76 42 77 68 78 69 79 77 80 70 81 76 82 78 83 75 84 71 85
REMARK SMILES IDX 72 86 73 87 74 88 53 89 54 90 62 91 55 92 61 93 63 94 60 95
REMARK SMILES IDX 56 96 57 97 58 98 59 99
REMARK H PARENT 11 9 83 52 51 63
REMARK Flexibility Score: inf
ROOT
ATOM      1  C   UNL A   1      34.633  34.405  31.881  1.00  0.00     0.274 C 
ENDROOT
BRANCH   1   2
ATOM      2  O   UNL A   1      35.624  33.526  32.453  1.00  0.00    -0.461 OA
BRANCH   2   3
ATOM      3  C   UNL A   1      36.739  34.224  32.772  1.00  0.00     0.328 C 
ATOM      4  O   UNL A   1      36.698  35.161  33.545  1.00  0.00    -0.250 OA
BRANCH   3   5
ATOM      5  C   UNL A   1      38.040  33.747  32.155  1.00  0.00     0.195 C 
ATOM      6  N   UNL A   1      43.002  34.790  30.464  1.00  0.00    -0.331 N 
ATOM      7  C   UNL A   1      42.935  34.471  31.879  1.00  0.00     0.263 C 
ATOM      8  C   UNL A   1      42.267  33.806  29.692  1.00  0.00     0.263 C 
ATOM      9  H   UNL A   1      43.983  34.690  30.203  1.00  0.00     0.348 HD
ATOM     10  C   UNL A   1      41.527  34.565  32.440  1.00  0.00     0.070 C 
ATOM     11  C   UNL A   1      40.800  33.624  30.103  1.00  0.00     0.070 C 
ATOM     12  C   UNL A   1      40.428  33.871  31.603  1.00  0.00     0.001 C 
ATOM     13  C   UNL A   1      39.112  34.718  31.750  1.00  0.00     0.046 C 
ATOM     14  C   UNL A   1      40.039  32.535  32.276  1.00  0.00     0.128 C 
ATOM     15  N   UNL A   1      38.752  32.763  32.941  1.00  0.00    -0.329 N 
BRANCH   6  16
ATOM     16  C   UNL A   1      42.964  36.188  30.044  1.00  0.00     0.299 C 
BRANCH  16  17
ATOM     17  C   UNL A   1      43.851  36.615  28.887  1.00  0.00     0.008 A 
ATOM     18  N   UNL A   1      44.429  39.488  26.561  1.00  0.00    -0.348 N 
ATOM     19  C   UNL A   1      45.628  39.652  25.912  1.00  0.00     0.087 A 
ATOM     20  C   UNL A   1      44.415  38.250  27.198  1.00  0.00     0.048 A 
ATOM     21  C   UNL A   1      46.416  38.554  26.178  1.00  0.00     0.028 A 
ATOM     22  C   UNL A   1      45.685  37.693  27.038  1.00  0.00    -0.000 A 
ATOM     23  C   UNL A   1      43.450  37.660  28.035  1.00  0.00     0.036 A 
ATOM     24  C   UNL A   1      46.016  36.531  27.761  1.00  0.00     0.011 A 
ATOM     25  C   UNL A   1      45.108  36.027  28.703  1.00  0.00     0.010 A 
BRANCH  18  26
ATOM     26  C   UNL A   1      43.454  40.538  26.830  1.00  0.00     0.119 C 
ATOM     27  C   UNL A   1      42.076  40.377  26.204  1.00  0.00     0.027 C 
ENDBRANCH  18  26
ENDBRANCH  16  17
ENDBRANCH   6  16
BRANCH  15  28
ATOM     28  C   UNL A   1      38.663  32.796  34.336  1.00  0.00     0.220 C 
ATOM     29  C   UNL A   1      37.868  31.654  34.989  1.00  0.00     0.114 C 
ATOM     30  O   UNL A   1      39.275  33.605  35.028  1.00  0.00    -0.275 OA
ENDBRANCH  15  28
ENDBRANCH   3   5
ENDBRANCH   2   3
ENDBRANCH   1   2
BRANCH   1  31
ATOM     31  C   UNL A   1      34.305  34.031  30.417  1.00  0.00     0.275 C 
BRANCH  31  32
ATOM     32  O   UNL A   1      35.388  33.320  29.754  1.00  0.00    -0.458 OA
BRANCH  32  33
ATOM     33  C   UNL A   1      35.051  32.328  28.885  1.00  0.00     0.338 C 
ATOM     34  O   UNL A   1      33.985  32.266  28.276  1.00  0.00    -0.246 OA
BRANCH  33  35
ATOM     35  C   UNL A   1      36.255  31.514  28.495  1.00  0.00     0.060 A 
ATOM     36  C   UNL A   1      36.193  30.206  27.994  1.00  0.00     0.016 A 
ATOM     37  C   UNL A   1      37.492  31.993  28.934  1.00  0.00     0.016 A 
ATOM     38  C   UNL A   1      37.301  29.334  28.133  1.00  0.00     0.010 A 
ATOM     39  C   UNL A   1      38.565  31.105  29.118  1.00  0.00     0.010 A 
ATOM     40  C   UNL A   1      38.461  29.736  28.812  1.00  0.00    -0.014 A 
BRANCH  40  41
ATOM     41  C   UNL A   1      39.682  28.879  28.930  1.00  0.00     0.031 A 
ATOM     42  C   UNL A   1      39.979  28.634  30.347  1.00  0.00     0.074 A 
ATOM     43  C   UNL A   1      40.500  28.242  28.048  1.00  0.00     0.049 A 
ATOM     44  N   UNL A   1      40.780  29.364  31.051  1.00  0.00    -0.248 NA
ATOM     45  C   UNL A   1      39.165  27.689  31.114  1.00  0.00     0.031 C 
ATOM     46  C   UNL A   1      40.489  28.266  26.614  1.00  0.00     0.029 A 
ATOM     47  N   UNL A   1      41.544  27.364  28.251  1.00  0.00    -0.354 N 
ATOM     48  C   UNL A   1      40.764  28.785  32.304  1.00  0.00     0.074 A 
ATOM     49  C   UNL A   1      39.552  28.006  32.349  1.00  0.00     0.031 C 
ATOM     50  C   UNL A   1      41.165  27.250  26.048  1.00  0.00     0.029 A 
ATOM     51  C   UNL A   1      41.921  26.638  27.109  1.00  0.00     0.049 A 
ATOM     52  H   UNL A   1      41.988  27.254  29.122  1.00  0.00     0.167 HD
ATOM     53  C   UNL A   1      41.902  28.719  33.049  1.00  0.00     0.034 A 
ATOM     54  C   UNL A   1      42.976  25.826  26.832  1.00  0.00     0.034 A 
ATOM     55  C   UNL A   1      42.948  29.529  32.465  1.00  0.00     0.049 A 
ATOM     56  C   UNL A   1      44.026  26.125  27.814  1.00  0.00     0.074 A 
ATOM     57  C   UNL A   1      43.113  30.866  32.169  1.00  0.00     0.029 A 
ATOM     58  N   UNL A   1      43.916  28.863  31.750  1.00  0.00    -0.354 N 
ATOM     59  N   UNL A   1      44.717  27.231  27.787  1.00  0.00    -0.248 NA
ATOM     60  C   UNL A   1      43.909  25.475  29.107  1.00  0.00     0.031 C 
ATOM     61  C   UNL A   1      43.892  30.897  30.976  1.00  0.00     0.029 A 
ATOM     62  C   UNL A   1      44.226  29.586  30.632  1.00  0.00     0.049 A 
ATOM     63  H   UNL A   1      44.321  28.003  32.003  1.00  0.00     0.167 HD
ATOM     64  C   UNL A   1      44.679  27.673  29.098  1.00  0.00     0.074 A 
ATOM     65  C   UNL A   1      44.240  26.514  29.878  1.00  0.00     0.031 C 
ATOM     66  C   UNL A   1      44.716  29.004  29.397  1.00  0.00     0.034 A 
BRANCH  53  67
ATOM     67  C   UNL A   1      42.200  27.600  34.020  1.00  0.00     0.023 A 
ATOM     68  C   UNL A   1      42.936  26.449  33.688  1.00  0.00     0.031 A 
ATOM     69  C   UNL A   1      41.923  27.768  35.390  1.00  0.00     0.131 A 
ATOM     70  C   UNL A   1      43.379  25.543  34.656  1.00  0.00     0.055 A 
ATOM     71  C   UNL A   1      42.423  26.903  36.370  1.00  0.00     0.041 A 
ATOM     72  F   UNL A   1      41.216  28.821  35.829  1.00  0.00    -0.206 F 
ATOM     73  C   UNL A   1      43.161  25.784  36.006  1.00  0.00     0.022 A 
BRANCH  70  74
ATOM     74  S   UNL A   1      44.271  24.045  34.157  1.00  0.00     0.124 S 
ATOM     75  O   UNL A   1      45.431  24.077  35.040  1.00  0.00    -0.237 OA
ATOM     76  O   UNL A   1      43.283  23.007  34.442  1.00  0.00    -0.237 OA
ATOM     77  O   UNL A   1      44.546  24.263  32.739  1.00  0.00    -0.744 OA
ENDBRANCH  70  74
ENDBRANCH  53  67
BRANCH  54  78
ATOM     78  C   UNL A   1      42.844  24.516  26.140  1.00  0.00     0.023 A 
ATOM     79  C   UNL A   1      41.763  23.679  26.468  1.00  0.00     0.031 A 
ATOM     80  C   UNL A   1      43.876  23.950  25.373  1.00  0.00     0.131 A 
ATOM     81  C   UNL A   1      41.779  22.319  26.137  1.00  0.00     0.055 A 
ATOM     82  C   UNL A   1      43.868  22.596  24.998  1.00  0.00     0.041 A 
ATOM     83  F   UNL A   1      44.946  24.681  25.025  1.00  0.00    -0.206 F 
ATOM     84  C   UNL A   1      42.825  21.766  25.404  1.00  0.00     0.022 A 
BRANCH  81  85
ATOM     85  S   UNL A   1      40.494  21.228  26.796  1.00  0.00     0.124 S 
ATOM     86  O   UNL A   1      40.817  19.952  26.165  1.00  0.00    -0.237 OA
ATOM     87  O   UNL A   1      40.743  21.303  28.231  1.00  0.00    -0.237 OA
ATOM     88  O   UNL A   1      39.264  21.862  26.338  1.00  0.00    -0.744 OA
ENDBRANCH  81  85
ENDBRANCH  54  78
BRANCH  66  89
ATOM     89  C   UNL A   1      45.108  29.998  28.326  1.00  0.00     0.023 A 
ATOM     90  C   UNL A   1      46.456  30.390  28.323  1.00  0.00     0.031 A 
ATOM     91  C   UNL A   1      44.204  30.752  27.555  1.00  0.00     0.131 A 
ATOM     92  C   UNL A   1      46.856  31.548  27.649  1.00  0.00     0.055 A 
ATOM     93  C   UNL A   1      44.623  31.868  26.818  1.00  0.00     0.041 A 
ATOM     94  F   UNL A   1      42.889  30.494  27.568  1.00  0.00    -0.206 F 
ATOM     95  C   UNL A   1      45.950  32.287  26.885  1.00  0.00     0.022 A 
BRANCH  92  96
ATOM     96  S   UNL A   1      48.516  32.220  27.926  1.00  0.00     0.124 S 
ATOM     97  O   UNL A   1      49.050  31.318  28.942  1.00  0.00    -0.237 OA
ATOM     98  O   UNL A   1      49.122  32.103  26.601  1.00  0.00    -0.237 OA
ATOM     99  O   UNL A   1      48.272  33.589  28.373  1.00  0.00    -0.744 OA
ENDBRANCH  92  96
ENDBRANCH  66  89
ENDBRANCH  40  41
ENDBRANCH  33  35
ENDBRANCH  32  33
ENDBRANCH  31  32
ENDBRANCH   1  31
TORSDOF 18
ENDMDL
MODEL 2
REMARK VINA RESULT:     -10.3      4.077      8.767
REMARK SMILES CCn1ccc2ccc(C[NH+]3CCC4(CC3)C[C@H](C(=O)OCCOC(=O)c3ccc(-c5c6nc(c(-c7cc(S(=O)(=O)[O-])ccc7F)c7ccc([nH]7)c(-c7cc(S(=O)(=O)[O-])ccc7F)c7nc(c(-c8cc(S(=O)(=O)[O-])ccc8F)c8ccc5[nH]8)C=C7)C=C6)cc3)N(C(C)=O)C4)cc21
REMARK SMILES IDX 22 1 21 2 19 3 20 4 18 5 11 6 12 7 16 8 13 10 15 11 14 12
REMARK SMILES IDX 17 13 94 14 90 15 10 16 9 17 3 18 4 19 96 20 5 21 6 22 95 23
REMARK SMILES IDX 7 24 8 25 2 26 1 27 91 28 92 29 93 30 23 31 24 32 25 33
REMARK SMILES IDX 26 34 27 35 28 36 89 37 29 38 88 39 30 40 31 41 32 42 82 43
REMARK SMILES IDX 33 44 87 45 81 46 83 47 34 48 86 49 80 50 79 51 35 53 67 54
REMARK SMILES IDX 47 55 66 56 48 57 51 58 65 59 84 60 49 61 50 62 64 64 85 65
REMARK SMILES IDX 52 66 36 67 37 68 45 69 38 70 44 71 46 72 43 73 39 74 40 75
REMARK SMILES IDX 41 76 42 77 68 78 69 79 77 80 70 81 76 82 78 83 75 84 71 85
REMARK SMILES IDX 72 86 73 87 74 88 53 89 54 90 62 91 55 92 61 93 63 94 60 95
REMARK SMILES IDX 56 96 57 97 58 98 59 99
REMARK H PARENT 11 9 83 52 51 63
REMARK Flexibility Score: inf
ROOT
ATOM      1  C   UNL A   1      32.799  29.659  25.764  1.00  0.00     0.274 C 
ENDROOT
BRANCH   1   2
ATOM      2  O   UNL A   1      31.468  29.183  26.048  1.00  0.00    -0.461 OA
BRANCH   2   3
ATOM      3  C   UNL A   1      31.489  27.850  26.287  1.00  0.00     0.328 C 
ATOM      4  O   UNL A   1      31.016  27.384  27.304  1.00  0.00    -0.250 OA
BRANCH   3   5
ATOM      5  C   UNL A   1      32.086  26.974  25.202  1.00  0.00     0.195 C 
ATOM      6  N   UNL A   1      33.934  22.220  23.605  1.00  0.00    -0.331 N 
ATOM      7  C   UNL A   1      32.497  22.358  23.448  1.00  0.00     0.263 C 
ATOM      8  C   UNL A   1      34.612  23.378  23.053  1.00  0.00     0.263 C 
ATOM      9  H   UNL A   1      34.202  21.424  23.026  1.00  0.00     0.348 HD
ATOM     10  C   UNL A   1      31.923  23.515  24.246  1.00  0.00     0.070 C 
ATOM     11  C   UNL A   1      34.165  24.728  23.630  1.00  0.00     0.070 C 
ATOM     12  C   UNL A   1      32.684  24.855  24.119  1.00  0.00     0.001 C 
ATOM     13  C   UNL A   1      32.585  25.590  25.505  1.00  0.00     0.046 C 
ATOM     14  C   UNL A   1      31.900  25.803  23.184  1.00  0.00     0.128 C 
ATOM     15  N   UNL A   1      31.236  26.784  24.047  1.00  0.00    -0.329 N 
BRANCH   6  16
ATOM     16  C   UNL A   1      34.464  21.602  24.817  1.00  0.00     0.299 C 
BRANCH  16  17
ATOM     17  C   UNL A   1      35.971  21.477  24.959  1.00  0.00     0.008 A 
ATOM     18  N   UNL A   1      38.918  23.241  26.444  1.00  0.00    -0.348 N 
ATOM     19  C   UNL A   1      40.086  22.574  26.718  1.00  0.00     0.087 A 
ATOM     20  C   UNL A   1      38.068  22.407  25.724  1.00  0.00     0.048 A 
ATOM     21  C   UNL A   1      39.973  21.290  26.234  1.00  0.00     0.028 A 
ATOM     22  C   UNL A   1      38.682  21.154  25.661  1.00  0.00    -0.000 A 
ATOM     23  C   UNL A   1      36.749  22.606  25.274  1.00  0.00     0.036 A 
ATOM     24  C   UNL A   1      37.947  20.059  25.166  1.00  0.00     0.011 A 
ATOM     25  C   UNL A   1      36.591  20.226  24.855  1.00  0.00     0.010 A 
BRANCH  18  26
ATOM     26  C   UNL A   1      38.480  24.486  27.065  1.00  0.00     0.119 C 
ATOM     27  C   UNL A   1      39.424  25.125  28.072  1.00  0.00     0.027 C 
ENDBRANCH  18  26
ENDBRANCH  16  17
ENDBRANCH   6  16
BRANCH  15  28
ATOM     28  C   UNL A   1      29.846  26.772  24.207  1.00  0.00     0.220 C 
ATOM     29  C   UNL A   1      29.064  27.811  23.388  1.00  0.00     0.114 C 
ATOM     30  O   UNL A   1      29.253  25.917  24.858  1.00  0.00    -0.275 OA
ENDBRANCH  15  28
ENDBRANCH   3   5
ENDBRANCH   2   3
ENDBRANCH   1   2
BRANCH   1  31
ATOM     31  C   UNL A   1      33.326  30.600  26.872  1.00  0.00     0.275 C 
BRANCH  31  32
ATOM     32  O   UNL A   1      34.777  30.702  26.892  1.00  0.00    -0.458 OA
BRANCH  32  33
ATOM     33  C   UNL A   1      35.337  31.563  27.785  1.00  0.00     0.338 C 
ATOM     34  O   UNL A   1      34.807  32.600  28.180  1.00  0.00    -0.246 OA
BRANCH  33  35
ATOM     35  C   UNL A   1      36.508  30.933  28.489  1.00  0.00     0.060 A 
ATOM     36  C   UNL A   1      37.391  31.630  29.325  1.00  0.00     0.016 A 
ATOM     37  C   UNL A   1      36.885  29.664  28.044  1.00  0.00     0.016 A 
ATOM     38  C   UNL A   1      38.709  31.151  29.532  1.00  0.00     0.010 A 
ATOM     39  C   UNL A   1      38.210  29.226  28.208  1.00  0.00     0.010 A 
ATOM     40  C   UNL A   1      39.176  30.004  28.871  1.00  0.00    -0.014 A 
BRANCH  40  41
ATOM     41  C   UNL A   1      40.533  29.419  29.103  1.00  0.00     0.031 A 
ATOM     42  C   UNL A   1      40.619  28.895  30.473  1.00  0.00     0.074 A 
ATOM     43  C   UNL A   1      41.635  29.205  28.333  1.00  0.00     0.049 A 
ATOM     44  N   UNL A   1      41.062  29.577  31.477  1.00  0.00    -0.248 NA
ATOM     45  C   UNL A   1      39.948  27.641  30.821  1.00  0.00     0.031 C 
ATOM     46  C   UNL A   1      41.881  29.583  26.970  1.00  0.00     0.029 A 
ATOM     47  N   UNL A   1      42.814  28.541  28.599  1.00  0.00    -0.354 N 
ATOM     48  C   UNL A   1      40.966  28.714  32.550  1.00  0.00     0.074 A 
ATOM     49  C   UNL A   1      40.008  27.713  32.151  1.00  0.00     0.031 C 
ATOM     50  C   UNL A   1      42.886  28.904  26.391  1.00  0.00     0.029 A 
ATOM     51  C   UNL A   1      43.567  28.218  27.458  1.00  0.00     0.049 A 
ATOM     52  H   UNL A   1      43.104  28.313  29.511  1.00  0.00     0.167 HD
ATOM     53  C   UNL A   1      41.927  28.702  33.516  1.00  0.00     0.034 A 
ATOM     54  C   UNL A   1      44.828  27.738  27.284  1.00  0.00     0.034 A 
ATOM     55  C   UNL A   1      42.818  29.831  33.369  1.00  0.00     0.049 A 
ATOM     56  C   UNL A   1      45.568  27.995  28.527  1.00  0.00     0.074 A 
ATOM     57  C   UNL A   1      42.685  31.205  33.391  1.00  0.00     0.029 A 
ATOM     58  N   UNL A   1      44.038  29.581  32.787  1.00  0.00    -0.354 N 
ATOM     59  N   UNL A   1      45.944  29.191  28.884  1.00  0.00    -0.248 NA
ATOM     60  C   UNL A   1      45.386  27.034  29.599  1.00  0.00     0.031 C 
ATOM     61  C   UNL A   1      43.635  31.693  32.448  1.00  0.00     0.029 A 
ATOM     62  C   UNL A   1      44.351  30.608  31.941  1.00  0.00     0.049 A 
ATOM     63  H   UNL A   1      44.597  28.789  32.953  1.00  0.00     0.167 HD
ATOM     64  C   UNL A   1      45.554  29.275  30.210  1.00  0.00     0.074 A 
ATOM     65  C   UNL A   1      45.292  27.893  30.618  1.00  0.00     0.031 C 
ATOM     66  C   UNL A   1      45.192  30.468  30.766  1.00  0.00     0.034 A 
BRANCH  53  67
ATOM     67  C   UNL A   1      42.318  27.463  34.288  1.00  0.00     0.023 A 
ATOM     68  C   UNL A   1      43.116  26.432  33.762  1.00  0.00     0.031 A 
ATOM     69  C   UNL A   1      42.068  27.391  35.671  1.00  0.00     0.131 A 
ATOM     70  C   UNL A   1      43.640  25.414  34.563  1.00  0.00     0.055 A 
ATOM     71  C   UNL A   1      42.646  26.414  36.490  1.00  0.00     0.041 A 
ATOM     72  F   UNL A   1      41.308  28.311  36.286  1.00  0.00    -0.206 F 
ATOM     73  C   UNL A   1      43.442  25.419  35.937  1.00  0.00     0.022 A 
BRANCH  70  74
ATOM     74  S   UNL A   1      44.610  24.077  33.814  1.00  0.00     0.124 S 
ATOM     75  O   UNL A   1      45.732  23.965  34.739  1.00  0.00    -0.237 OA
ATOM     76  O   UNL A   1      43.655  22.973  33.836  1.00  0.00    -0.237 OA
ATOM     77  O   UNL A   1      44.933  24.588  32.484  1.00  0.00    -0.744 OA
ENDBRANCH  70  74
ENDBRANCH  53  67
BRANCH  54  78
ATOM     78  C   UNL A   1      45.166  26.644  26.335  1.00  0.00     0.023 A 
ATOM     79  C   UNL A   1      44.389  25.473  26.342  1.00  0.00     0.031 A 
ATOM     80  C   UNL A   1      46.373  26.601  25.617  1.00  0.00     0.131 A 
ATOM     81  C   UNL A   1      44.859  24.293  25.754  1.00  0.00     0.055 A 
ATOM     82  C   UNL A   1      46.821  25.431  24.984  1.00  0.00     0.041 A 
ATOM     83  F   UNL A   1      47.174  27.677  25.568  1.00  0.00    -0.206 F 
ATOM     84  C   UNL A   1      46.073  24.259  25.073  1.00  0.00     0.022 A 
BRANCH  81  85
ATOM     85  S   UNL A   1      43.948  22.749  26.005  1.00  0.00     0.124 S 
ATOM     86  O   UNL A   1      43.005  22.761  24.890  1.00  0.00    -0.237 OA
ATOM     87  O   UNL A   1      45.012  21.755  25.922  1.00  0.00    -0.237 OA
ATOM     88  O   UNL A   1      43.361  22.931  27.326  1.00  0.00    -0.744 OA
ENDBRANCH  81  85
ENDBRANCH  54  78
BRANCH  66  89
ATOM     89  C   UNL A   1      45.505  31.756  30.039  1.00  0.00     0.023 A 
ATOM     90  C   UNL A   1      45.020  31.846  28.723  1.00  0.00     0.031 A 
ATOM     91  C   UNL A   1      46.455  32.707  30.454  1.00  0.00     0.131 A 
ATOM     92  C   UNL A   1      45.542  32.794  27.839  1.00  0.00     0.055 A 
ATOM     93  C   UNL A   1      46.920  33.705  29.586  1.00  0.00     0.041 A 
ATOM     94  F   UNL A   1      47.027  32.641  31.664  1.00  0.00    -0.206 F 
ATOM     95  C   UNL A   1      46.484  33.735  28.263  1.00  0.00     0.022 A 
BRANCH  92  96
ATOM     96  S   UNL A   1      45.155  32.684  26.073  1.00  0.00     0.124 S 
ATOM     97  O   UNL A   1      46.009  33.721  25.502  1.00  0.00    -0.237 OA
ATOM     98  O   UNL A   1      45.540  31.309  25.758  1.00  0.00    -0.237 OA
ATOM     99  O   UNL A   1      43.720  32.951  26.008  1.00  0.00    -0.744 OA
ENDBRANCH  92  96
ENDBRANCH  66  89
ENDBRANCH  40  41
ENDBRANCH  33  35
ENDBRANCH  32  33
ENDBRANCH  31  32
ENDBRANCH   1  31
TORSDOF 18
ENDMDL
MODEL 3
REMARK VINA RESULT:     -10.3      4.756     11.388
REMARK SMILES CCn1ccc2ccc(C[NH+]3CCC4(CC3)C[C@H](C(=O)OCCOC(=O)c3ccc(-c5c6nc(c(-c7cc(S(=O)(=O)[O-])ccc7F)c7ccc([nH]7)c(-c7cc(S(=O)(=O)[O-])ccc7F)c7nc(c(-c8cc(S(=O)(=O)[O-])ccc8F)c8ccc5[nH]8)C=C7)C=C6)cc3)N(C(C)=O)C4)cc21
REMARK SMILES IDX 22 1 21 2 19 3 20 4 18 5 11 6 12 7 16 8 13 10 15 11 14 12
REMARK SMILES IDX 17 13 94 14 90 15 10 16 9 17 3 18 4 19 96 20 5 21 6 22 95 23
REMARK SMILES IDX 7 24 8 25 2 26 1 27 91 28 92 29 93 30 23 31 24 32 25 33
REMARK SMILES IDX 26 34 27 35 28 36 89 37 29 38 88 39 30 40 31 41 32 42 82 43
REMARK SMILES IDX 33 44 87 45 81 46 83 47 34 48 86 49 80 50 79 51 35 53 67 54
REMARK SMILES IDX 47 55 66 56 48 57 51 58 65 59 84 60 49 61 50 62 64 64 85 65
REMARK SMILES IDX 52 66 36 67 37 68 45 69 38 70 44 71 46 72 43 73 39 74 40 75
REMARK SMILES IDX 41 76 42 77 68 78 69 79 77 80 70 81 76 82 78 83 75 84 71 85
REMARK SMILES IDX 72 86 73 87 74 88 53 89 54 90 62 91 55 92 61 93 63 94 60 95
REMARK SMILES IDX 56 96 57 97 58 98 59 99
REMARK H PARENT 11 9 83 52 51 63
REMARK Flexibility Score: inf
ROOT
ATOM      1  C   UNL A   1      37.771  22.888  25.621  1.00  0.00     0.274 C 
ENDROOT
BRANCH   1   2
ATOM      2  O   UNL A   1      36.507  22.301  25.250  1.00  0.00    -0.461 OA
BRANCH   2   3
ATOM      3  C   UNL A   1      35.816  23.147  24.449  1.00  0.00     0.328 C 
ATOM      4  O   UNL A   1      36.168  23.362  23.306  1.00  0.00    -0.250 OA
BRANCH   3   5
ATOM      5  C   UNL A   1      34.563  23.768  25.035  1.00  0.00     0.195 C 
ATOM      6  N   UNL A   1      31.001  27.752  25.141  1.00  0.00    -0.331 N 
ATOM      7  C   UNL A   1      30.682  26.724  24.166  1.00  0.00     0.263 C 
ATOM      8  C   UNL A   1      31.310  27.148  26.423  1.00  0.00     0.263 C 
ATOM      9  H   UNL A   1      30.143  28.287  25.272  1.00  0.00     0.348 HD
ATOM     10  C   UNL A   1      31.859  25.819  23.854  1.00  0.00     0.070 C 
ATOM     11  C   UNL A   1      32.436  26.106  26.396  1.00  0.00     0.070 C 
ATOM     12  C   UNL A   1      32.630  25.280  25.081  1.00  0.00     0.001 C 
ATOM     13  C   UNL A   1      34.145  25.165  24.678  1.00  0.00     0.046 C 
ATOM     14  C   UNL A   1      32.239  23.804  25.323  1.00  0.00     0.128 C 
ATOM     15  N   UNL A   1      33.358  22.992  24.835  1.00  0.00    -0.329 N 
BRANCH   6  16
ATOM     16  C   UNL A   1      31.751  28.931  24.717  1.00  0.00     0.299 C 
BRANCH  16  17
ATOM     17  C   UNL A   1      31.974  30.043  25.728  1.00  0.00     0.008 A 
ATOM     18  N   UNL A   1      34.665  31.589  27.817  1.00  0.00    -0.348 N 
ATOM     19  C   UNL A   1      34.549  32.870  28.297  1.00  0.00     0.087 A 
ATOM     20  C   UNL A   1      33.456  31.198  27.248  1.00  0.00     0.048 A 
ATOM     21  C   UNL A   1      33.292  33.336  27.985  1.00  0.00     0.028 A 
ATOM     22  C   UNL A   1      32.615  32.313  27.269  1.00  0.00    -0.000 A 
ATOM     23  C   UNL A   1      33.098  30.017  26.572  1.00  0.00     0.036 A 
ATOM     24  C   UNL A   1      31.396  32.261  26.566  1.00  0.00     0.011 A 
ATOM     25  C   UNL A   1      31.107  31.140  25.775  1.00  0.00     0.010 A 
BRANCH  18  26
ATOM     26  C   UNL A   1      35.912  30.858  27.626  1.00  0.00     0.119 C 
ATOM     27  C   UNL A   1      36.088  29.574  28.423  1.00  0.00     0.027 C 
ENDBRANCH  18  26
ENDBRANCH  16  17
ENDBRANCH   6  16
BRANCH  15  28
ATOM     28  C   UNL A   1      33.224  22.208  23.684  1.00  0.00     0.220 C 
ATOM     29  C   UNL A   1      33.012  20.703  23.913  1.00  0.00     0.114 C 
ATOM     30  O   UNL A   1      33.152  22.683  22.554  1.00  0.00    -0.275 OA
ENDBRANCH  15  28
ENDBRANCH   3   5
ENDBRANCH   2   3
ENDBRANCH   1   2
BRANCH   1  31
ATOM     31  C   UNL A   1      37.604  23.999  26.683  1.00  0.00     0.275 C 
BRANCH  31  32
ATOM     32  O   UNL A   1      38.684  24.974  26.665  1.00  0.00    -0.458 OA
BRANCH  32  33
ATOM     33  C   UNL A   1      39.444  25.094  27.788  1.00  0.00     0.338 C 
ATOM     34  O   UNL A   1      40.364  24.337  28.092  1.00  0.00    -0.246 OA
BRANCH  33  35
ATOM     35  C   UNL A   1      39.261  26.443  28.428  1.00  0.00     0.060 A 
ATOM     36  C   UNL A   1      39.663  27.653  27.844  1.00  0.00     0.016 A 
ATOM     37  C   UNL A   1      38.942  26.443  29.787  1.00  0.00     0.016 A 
ATOM     38  C   UNL A   1      39.942  28.781  28.655  1.00  0.00     0.010 A 
ATOM     39  C   UNL A   1      39.275  27.548  30.589  1.00  0.00     0.010 A 
ATOM     40  C   UNL A   1      39.872  28.704  30.054  1.00  0.00    -0.014 A 
BRANCH  40  41
ATOM     41  C   UNL A   1      40.092  29.880  30.953  1.00  0.00     0.031 A 
ATOM     42  C   UNL A   1      38.850  30.655  31.066  1.00  0.00     0.074 A 
ATOM     43  C   UNL A   1      41.126  30.328  31.717  1.00  0.00     0.049 A 
ATOM     44  N   UNL A   1      38.558  31.660  30.308  1.00  0.00    -0.248 NA
ATOM     45  C   UNL A   1      37.745  30.153  31.886  1.00  0.00     0.031 C 
ATOM     46  C   UNL A   1      42.459  29.812  31.840  1.00  0.00     0.029 A 
ATOM     47  N   UNL A   1      41.202  31.367  32.620  1.00  0.00    -0.354 N 
ATOM     48  C   UNL A   1      37.321  32.080  30.754  1.00  0.00     0.074 A 
ATOM     49  C   UNL A   1      36.767  30.955  31.464  1.00  0.00     0.031 C 
ATOM     50  C   UNL A   1      43.106  30.234  32.940  1.00  0.00     0.029 A 
ATOM     51  C   UNL A   1      42.314  31.310  33.477  1.00  0.00     0.049 A 
ATOM     52  H   UNL A   1      40.534  32.089  32.662  1.00  0.00     0.167 HD
ATOM     53  C   UNL A   1      37.018  33.408  30.800  1.00  0.00     0.034 A 
ATOM     54  C   UNL A   1      42.848  32.192  34.364  1.00  0.00     0.034 A 
ATOM     55  C   UNL A   1      38.018  34.189  30.106  1.00  0.00     0.049 A 
ATOM     56  C   UNL A   1      42.335  33.524  34.018  1.00  0.00     0.074 A 
ATOM     57  C   UNL A   1      38.503  34.251  28.815  1.00  0.00     0.029 A 
ATOM     58  N   UNL A   1      38.946  34.835  30.888  1.00  0.00    -0.354 N 
ATOM     59  N   UNL A   1      42.727  34.171  32.956  1.00  0.00    -0.248 NA
ATOM     60  C   UNL A   1      41.018  33.863  34.525  1.00  0.00     0.031 C 
ATOM     61  C   UNL A   1      39.888  34.560  28.946  1.00  0.00     0.029 A 
ATOM     62  C   UNL A   1      40.176  34.738  30.300  1.00  0.00     0.049 A 
ATOM     63  H   UNL A   1      38.754  35.295  31.737  1.00  0.00     0.167 HD
ATOM     64  C   UNL A   1      41.544  34.603  32.380  1.00  0.00     0.074 A 
ATOM     65  C   UNL A   1      40.533  34.455  33.430  1.00  0.00     0.031 C 
ATOM     66  C   UNL A   1      41.430  34.755  31.029  1.00  0.00     0.034 A 
BRANCH  53  67
ATOM     67  C   UNL A   1      36.091  34.017  31.826  1.00  0.00     0.023 A 
ATOM     68  C   UNL A   1      34.891  34.675  31.505  1.00  0.00     0.031 A 
ATOM     69  C   UNL A   1      36.293  33.758  33.195  1.00  0.00     0.131 A 
ATOM     70  C   UNL A   1      33.954  35.031  32.479  1.00  0.00     0.055 A 
ATOM     71  C   UNL A   1      35.329  34.049  34.166  1.00  0.00     0.041 A 
ATOM     72  F   UNL A   1      37.409  33.147  33.626  1.00  0.00    -0.206 F 
ATOM     73  C   UNL A   1      34.147  34.686  33.810  1.00  0.00     0.022 A 
BRANCH  70  74
ATOM     74  S   UNL A   1      32.454  35.935  32.008  1.00  0.00     0.124 S 
ATOM     75  O   UNL A   1      32.592  36.011  30.558  1.00  0.00    -0.237 OA
ATOM     76  O   UNL A   1      31.407  35.044  32.501  1.00  0.00    -0.237 OA
ATOM     77  O   UNL A   1      32.575  37.202  32.724  1.00  0.00    -0.744 OA
ENDBRANCH  70  74
ENDBRANCH  53  67
BRANCH  54  78
ATOM     78  C   UNL A   1      43.297  31.811  35.730  1.00  0.00     0.023 A 
ATOM     79  C   UNL A   1      42.550  32.249  36.838  1.00  0.00     0.031 A 
ATOM     80  C   UNL A   1      44.565  31.267  35.993  1.00  0.00     0.131 A 
ATOM     81  C   UNL A   1      43.100  32.241  38.125  1.00  0.00     0.055 A 
ATOM     82  C   UNL A   1      45.097  31.213  37.292  1.00  0.00     0.041 A 
ATOM     83  F   UNL A   1      45.342  30.833  34.989  1.00  0.00    -0.206 F 
ATOM     84  C   UNL A   1      44.372  31.727  38.365  1.00  0.00     0.022 A 
BRANCH  81  85
ATOM     85  S   UNL A   1      42.207  33.045  39.479  1.00  0.00     0.124 S 
ATOM     86  O   UNL A   1      41.394  31.953  40.006  1.00  0.00    -0.237 OA
ATOM     87  O   UNL A   1      43.299  33.491  40.337  1.00  0.00    -0.237 OA
ATOM     88  O   UNL A   1      41.472  34.103  38.798  1.00  0.00    -0.744 OA
ENDBRANCH  81  85
ENDBRANCH  54  78
BRANCH  66  89
ATOM     89  C   UNL A   1      42.675  34.755  30.171  1.00  0.00     0.023 A 
ATOM     90  C   UNL A   1      43.142  36.018  29.773  1.00  0.00     0.031 A 
ATOM     91  C   UNL A   1      43.208  33.625  29.522  1.00  0.00     0.131 A 
ATOM     92  C   UNL A   1      44.034  36.140  28.704  1.00  0.00     0.055 A 
ATOM     93  C   UNL A   1      44.161  33.747  28.501  1.00  0.00     0.041 A 
ATOM     94  F   UNL A   1      42.758  32.391  29.786  1.00  0.00    -0.206 F 
ATOM     95  C   UNL A   1      44.558  35.011  28.069  1.00  0.00     0.022 A 
BRANCH  92  96
ATOM     96  S   UNL A   1      44.365  37.773  27.992  1.00  0.00     0.124 S 
ATOM     97  O   UNL A   1      43.947  38.669  29.064  1.00  0.00    -0.237 OA
ATOM     98  O   UNL A   1      45.805  37.716  27.745  1.00  0.00    -0.237 OA
ATOM     99  O   UNL A   1      43.535  37.809  26.790  1.00  0.00    -0.744 OA
ENDBRANCH  92  96
ENDBRANCH  66  89
ENDBRANCH  40  41
ENDBRANCH  33  35
ENDBRANCH  32  33
ENDBRANCH  31  32
ENDBRANCH   1  31
TORSDOF 18
ENDMDL
