MODEL 1
REMARK VINA RESULT:     -12.6      0.000      0.000
REMARK SMILES O=C(OCCOC(=O)c1ccc(N[C@@H]2CCCS(=O)(=O)C2)c(F)c1F)c1ccc(-c2c3nc(c(-c4cc(S(=O)(=O)[O-])ccc4F)c4ccc([nH]4)c(-c4cc(S(=O)(=O)[O-])ccc4F)c4nc(c(-c5cc(S(=O)(=O)[O-])ccc5F)c5ccc2[nH]5)C=C4)C=C3)cc1
REMARK SMILES IDX 4 1 3 2 2 3 1 4 26 5 27 6 88 7 28 8 87 9 29 10 30 11 31 12
REMARK SMILES IDX 81 13 32 14 86 15 80 16 82 17 33 18 85 19 79 20 78 21 34 23
REMARK SMILES IDX 66 24 46 25 65 26 47 27 50 28 64 29 83 30 48 31 49 32 63 34
REMARK SMILES IDX 84 35 51 36 35 37 36 38 44 39 37 40 43 41 45 42 42 43 38 44
REMARK SMILES IDX 39 45 40 46 41 47 67 48 68 49 76 50 69 51 75 52 77 53 74 54
REMARK SMILES IDX 70 55 71 56 72 57 73 58 52 59 53 60 61 61 54 62 60 63 62 64
REMARK SMILES IDX 59 65 55 66 56 67 57 68 58 69 5 70 6 71 7 72 8 73 9 74 10 75
REMARK SMILES IDX 24 76 11 77 22 78 25 79 12 80 23 81 13 82 14 84 15 85 21 86
REMARK SMILES IDX 16 87 18 88 17 89 19 90 20 91
REMARK H PARENT 82 22 50 33 13 83
REMARK Flexibility Score: inf
ROOT
ATOM      1  C   UNL A   1      43.718  20.993  25.413  1.00  0.00     0.275 C 
ENDROOT
BRANCH   1   2
ATOM      2  O   UNL A   1      43.380  22.170  24.659  1.00  0.00    -0.458 OA
BRANCH   2   3
ATOM      3  C   UNL A   1      43.830  23.444  24.773  1.00  0.00     0.338 C 
ATOM      4  O   UNL A   1      44.919  23.710  24.265  1.00  0.00    -0.246 OA
BRANCH   3   5
ATOM      5  C   UNL A   1      43.161  24.525  25.589  1.00  0.00     0.060 A 
ATOM      6  C   UNL A   1      42.981  25.867  25.234  1.00  0.00     0.016 A 
ATOM      7  C   UNL A   1      42.664  24.135  26.846  1.00  0.00     0.016 A 
ATOM      8  C   UNL A   1      42.328  26.784  26.082  1.00  0.00     0.010 A 
ATOM      9  C   UNL A   1      41.990  25.039  27.688  1.00  0.00     0.010 A 
ATOM     10  C   UNL A   1      41.836  26.391  27.326  1.00  0.00    -0.014 A 
BRANCH  10  11
ATOM     11  C   UNL A   1      41.471  27.399  28.374  1.00  0.00     0.031 A 
ATOM     12  C   UNL A   1      42.302  27.355  29.634  1.00  0.00     0.074 A 
ATOM     13  C   UNL A   1      40.559  28.391  28.232  1.00  0.00     0.049 A 
ATOM     14  N   UNL A   1      42.131  27.977  30.768  1.00  0.00    -0.248 NA
ATOM     15  C   UNL A   1      43.527  26.531  29.582  1.00  0.00     0.031 C 
ATOM     16  C   UNL A   1      39.914  28.790  26.982  1.00  0.00     0.029 A 
ATOM     17  N   UNL A   1      39.995  29.253  29.161  1.00  0.00    -0.354 N 
ATOM     18  C   UNL A   1      43.257  27.681  31.528  1.00  0.00     0.074 A 
ATOM     19  C   UNL A   1      44.038  26.721  30.785  1.00  0.00     0.031 C 
ATOM     20  C   UNL A   1      38.998  29.749  27.238  1.00  0.00     0.029 A 
ATOM     21  C   UNL A   1      38.907  29.975  28.675  1.00  0.00     0.049 A 
ATOM     22  H   UNL A   1      40.333  29.346  30.081  1.00  0.00     0.167 HD
ATOM     23  C   UNL A   1      43.635  28.225  32.709  1.00  0.00     0.034 A 
ATOM     24  C   UNL A   1      37.921  30.628  29.351  1.00  0.00     0.034 A 
ATOM     25  C   UNL A   1      42.814  29.156  33.432  1.00  0.00     0.049 A 
ATOM     26  C   UNL A   1      38.111  30.772  30.841  1.00  0.00     0.074 A 
ATOM     27  C   UNL A   1      43.080  29.816  34.616  1.00  0.00     0.029 A 
ATOM     28  N   UNL A   1      41.533  29.526  33.044  1.00  0.00    -0.354 N 
ATOM     29  N   UNL A   1      39.086  30.332  31.599  1.00  0.00    -0.248 NA
ATOM     30  C   UNL A   1      37.076  31.533  31.557  1.00  0.00     0.031 C 
ATOM     31  C   UNL A   1      41.919  30.496  35.000  1.00  0.00     0.029 A 
ATOM     32  C   UNL A   1      40.968  30.341  34.004  1.00  0.00     0.049 A 
ATOM     33  H   UNL A   1      41.093  29.248  32.208  1.00  0.00     0.167 HD
ATOM     34  C   UNL A   1      38.828  30.852  32.859  1.00  0.00     0.074 A 
ATOM     35  C   UNL A   1      37.536  31.501  32.796  1.00  0.00     0.031 C 
ATOM     36  C   UNL A   1      39.647  30.907  33.936  1.00  0.00     0.034 A 
BRANCH  23  37
ATOM     37  C   UNL A   1      44.953  27.773  33.283  1.00  0.00     0.023 A 
ATOM     38  C   UNL A   1      45.039  26.670  34.153  1.00  0.00     0.031 A 
ATOM     39  C   UNL A   1      46.121  28.510  33.035  1.00  0.00     0.131 A 
ATOM     40  C   UNL A   1      46.237  26.409  34.831  1.00  0.00     0.055 A 
ATOM     41  C   UNL A   1      47.336  28.184  33.637  1.00  0.00     0.041 A 
ATOM     42  F   UNL A   1      46.093  29.586  32.233  1.00  0.00    -0.206 F 
ATOM     43  C   UNL A   1      47.394  27.143  34.560  1.00  0.00     0.022 A 
BRANCH  40  44
ATOM     44  S   UNL A   1      46.206  25.242  36.221  1.00  0.00     0.124 S 
ATOM     45  O   UNL A   1      46.901  24.089  35.656  1.00  0.00    -0.237 OA
ATOM     46  O   UNL A   1      46.920  25.970  37.262  1.00  0.00    -0.237 OA
ATOM     47  O   UNL A   1      44.779  25.039  36.467  1.00  0.00    -0.744 OA
ENDBRANCH  40  44
ENDBRANCH  23  37
BRANCH  24  48
ATOM     48  C   UNL A   1      36.553  30.997  28.809  1.00  0.00     0.023 A 
ATOM     49  C   UNL A   1      35.950  32.265  28.784  1.00  0.00     0.031 A 
ATOM     50  C   UNL A   1      35.763  29.918  28.327  1.00  0.00     0.131 A 
ATOM     51  C   UNL A   1      34.652  32.410  28.220  1.00  0.00     0.055 A 
ATOM     52  C   UNL A   1      34.524  30.084  27.701  1.00  0.00     0.041 A 
ATOM     53  F   UNL A   1      36.231  28.662  28.427  1.00  0.00    -0.206 F 
ATOM     54  C   UNL A   1      33.978  31.347  27.609  1.00  0.00     0.022 A 
BRANCH  51  55
ATOM     55  S   UNL A   1      33.730  33.970  28.377  1.00  0.00     0.124 S 
ATOM     56  O   UNL A   1      34.642  34.909  27.728  1.00  0.00    -0.237 OA
ATOM     57  O   UNL A   1      32.484  33.695  27.670  1.00  0.00    -0.237 OA
ATOM     58  O   UNL A   1      33.591  34.139  29.824  1.00  0.00    -0.744 OA
ENDBRANCH  51  55
ENDBRANCH  24  48
BRANCH  36  59
ATOM     59  C   UNL A   1      39.206  31.825  35.034  1.00  0.00     0.023 A 
ATOM     60  C   UNL A   1      38.645  31.355  36.229  1.00  0.00     0.031 A 
ATOM     61  C   UNL A   1      39.266  33.213  34.813  1.00  0.00     0.131 A 
ATOM     62  C   UNL A   1      38.106  32.276  37.136  1.00  0.00     0.055 A 
ATOM     63  C   UNL A   1      38.804  34.124  35.756  1.00  0.00     0.041 A 
ATOM     64  F   UNL A   1      39.760  33.701  33.662  1.00  0.00    -0.206 F 
ATOM     65  C   UNL A   1      38.207  33.655  36.921  1.00  0.00     0.022 A 
BRANCH  62  66
ATOM     66  S   UNL A   1      37.155  31.646  38.542  1.00  0.00     0.124 S 
ATOM     67  O   UNL A   1      35.971  32.499  38.504  1.00  0.00    -0.237 OA
ATOM     68  O   UNL A   1      36.945  30.247  38.182  1.00  0.00    -0.237 OA
ATOM     69  O   UNL A   1      38.045  31.866  39.681  1.00  0.00    -0.744 OA
ENDBRANCH  62  66
ENDBRANCH  36  59
ENDBRANCH  10  11
ENDBRANCH   3   5
ENDBRANCH   2   3
ENDBRANCH   1   2
BRANCH   1  70
ATOM     70  C   UNL A   1      42.517  20.343  26.104  1.00  0.00     0.275 C 
BRANCH  70  71
ATOM     71  O   UNL A   1      41.289  21.000  25.773  1.00  0.00    -0.458 OA
BRANCH  71  72
ATOM     72  C   UNL A   1      40.490  21.317  26.827  1.00  0.00     0.341 C 
ATOM     73  O   UNL A   1      40.739  21.179  28.009  1.00  0.00    -0.246 OA
BRANCH  72  74
ATOM     74  C   UNL A   1      39.278  21.948  26.288  1.00  0.00     0.099 A 
ATOM     75  C   UNL A   1      38.995  23.279  26.584  1.00  0.00     0.021 A 
ATOM     76  C   UNL A   1      38.382  21.199  25.534  1.00  0.00     0.175 A 
ATOM     77  C   UNL A   1      37.813  23.849  26.117  1.00  0.00     0.030 A 
ATOM     78  C   UNL A   1      37.182  21.768  25.116  1.00  0.00     0.182 A 
ATOM     79  F   UNL A   1      38.627  19.912  25.250  1.00  0.00    -0.203 F 
ATOM     80  C   UNL A   1      36.862  23.106  25.399  1.00  0.00     0.074 A 
ATOM     81  F   UNL A   1      36.304  21.022  24.424  1.00  0.00    -0.201 F 
BRANCH  80  82
ATOM     82  N   UNL A   1      35.677  23.638  24.908  1.00  0.00    -0.379 N 
ATOM     83  H   UNL A   1      35.740  24.211  24.110  1.00  0.00     0.160 HD
BRANCH  82  84
ATOM     84  C   UNL A   1      34.342  23.422  25.471  1.00  0.00     0.094 C 
ATOM     85  C   UNL A   1      33.493  22.671  24.412  1.00  0.00     0.027 C 
ATOM     86  C   UNL A   1      33.817  24.708  26.091  1.00  0.00     0.161 C 
ATOM     87  C   UNL A   1      32.002  22.561  24.679  1.00  0.00     0.018 C 
ATOM     88  S   UNL A   1      32.070  24.674  26.266  1.00  0.00     0.152 S 
ATOM     89  C   UNL A   1      31.431  23.937  24.817  1.00  0.00     0.137 C 
ATOM     90  O   UNL A   1      31.577  26.026  26.153  1.00  0.00    -0.229 OA
ATOM     91  O   UNL A   1      31.768  23.777  27.357  1.00  0.00    -0.229 OA
ENDBRANCH  82  84
ENDBRANCH  80  82
ENDBRANCH  72  74
ENDBRANCH  71  72
ENDBRANCH  70  71
ENDBRANCH   1  70
TORSDOF 16
ENDMDL
MODEL 2
REMARK VINA RESULT:     -12.2      1.292      1.533
REMARK SMILES O=C(OCCOC(=O)c1ccc(N[C@@H]2CCCS(=O)(=O)C2)c(F)c1F)c1ccc(-c2c3nc(c(-c4cc(S(=O)(=O)[O-])ccc4F)c4ccc([nH]4)c(-c4cc(S(=O)(=O)[O-])ccc4F)c4nc(c(-c5cc(S(=O)(=O)[O-])ccc5F)c5ccc2[nH]5)C=C4)C=C3)cc1
REMARK SMILES IDX 4 1 3 2 2 3 1 4 26 5 27 6 88 7 28 8 87 9 29 10 30 11 31 12
REMARK SMILES IDX 81 13 32 14 86 15 80 16 82 17 33 18 85 19 79 20 78 21 34 23
REMARK SMILES IDX 66 24 46 25 65 26 47 27 50 28 64 29 83 30 48 31 49 32 63 34
REMARK SMILES IDX 84 35 51 36 35 37 36 38 44 39 37 40 43 41 45 42 42 43 38 44
REMARK SMILES IDX 39 45 40 46 41 47 67 48 68 49 76 50 69 51 75 52 77 53 74 54
REMARK SMILES IDX 70 55 71 56 72 57 73 58 52 59 53 60 61 61 54 62 60 63 62 64
REMARK SMILES IDX 59 65 55 66 56 67 57 68 58 69 5 70 6 71 7 72 8 73 9 74 10 75
REMARK SMILES IDX 24 76 11 77 22 78 25 79 12 80 23 81 13 82 14 84 15 85 21 86
REMARK SMILES IDX 16 87 18 88 17 89 19 90 20 91
REMARK H PARENT 82 22 50 33 13 83
REMARK Flexibility Score: inf
ROOT
ATOM      1  C   UNL A   1      43.932  20.302  25.229  1.00  0.00     0.275 C 
ENDROOT
BRANCH   1   2
ATOM      2  O   UNL A   1      44.252  21.622  25.701  1.00  0.00    -0.458 OA
BRANCH   2   3
ATOM      3  C   UNL A   1      43.993  22.835  25.155  1.00  0.00     0.338 C 
ATOM      4  O   UNL A   1      44.423  23.052  24.023  1.00  0.00    -0.246 OA
BRANCH   3   5
ATOM      5  C   UNL A   1      43.337  23.986  25.881  1.00  0.00     0.060 A 
ATOM      6  C   UNL A   1      43.269  25.321  25.468  1.00  0.00     0.016 A 
ATOM      7  C   UNL A   1      42.724  23.676  27.110  1.00  0.00     0.016 A 
ATOM      8  C   UNL A   1      42.616  26.309  26.233  1.00  0.00     0.010 A 
ATOM      9  C   UNL A   1      42.049  24.651  27.866  1.00  0.00     0.010 A 
ATOM     10  C   UNL A   1      42.009  25.995  27.448  1.00  0.00    -0.014 A 
BRANCH  10  11
ATOM     11  C   UNL A   1      41.633  27.063  28.431  1.00  0.00     0.031 A 
ATOM     12  C   UNL A   1      42.439  27.084  29.708  1.00  0.00     0.074 A 
ATOM     13  C   UNL A   1      40.733  28.053  28.216  1.00  0.00     0.049 A 
ATOM     14  N   UNL A   1      42.251  27.770  30.801  1.00  0.00    -0.248 NA
ATOM     15  C   UNL A   1      43.657  26.248  29.726  1.00  0.00     0.031 C 
ATOM     16  C   UNL A   1      40.115  28.386  26.932  1.00  0.00     0.029 A 
ATOM     17  N   UNL A   1      40.158  28.970  29.083  1.00  0.00    -0.354 N 
ATOM     18  C   UNL A   1      43.359  27.508  31.599  1.00  0.00     0.074 A 
ATOM     19  C   UNL A   1      44.146  26.501  30.927  1.00  0.00     0.031 C 
ATOM     20  C   UNL A   1      39.203  29.365  27.117  1.00  0.00     0.029 A 
ATOM     21  C   UNL A   1      39.086  29.671  28.536  1.00  0.00     0.049 A 
ATOM     22  H   UNL A   1      40.479  29.112  30.004  1.00  0.00     0.167 HD
ATOM     23  C   UNL A   1      43.720  28.114  32.755  1.00  0.00     0.034 A 
ATOM     24  C   UNL A   1      38.094  30.369  29.155  1.00  0.00     0.034 A 
ATOM     25  C   UNL A   1      42.893  29.090  33.408  1.00  0.00     0.049 A 
ATOM     26  C   UNL A   1      38.256  30.595  30.638  1.00  0.00     0.074 A 
ATOM     27  C   UNL A   1      43.142  29.815  34.558  1.00  0.00     0.029 A 
ATOM     28  N   UNL A   1      41.623  29.448  32.975  1.00  0.00    -0.354 N 
ATOM     29  N   UNL A   1      39.211  30.191  31.439  1.00  0.00    -0.248 NA
ATOM     30  C   UNL A   1      37.214  31.404  31.290  1.00  0.00     0.031 C 
ATOM     31  C   UNL A   1      41.980  30.524  34.880  1.00  0.00     0.029 A 
ATOM     32  C   UNL A   1      41.047  30.321  33.876  1.00  0.00     0.049 A 
ATOM     33  H   UNL A   1      41.197  29.127  32.147  1.00  0.00     0.167 HD
ATOM     34  C   UNL A   1      38.934  30.782  32.662  1.00  0.00     0.074 A 
ATOM     35  C   UNL A   1      37.649  31.437  32.537  1.00  0.00     0.031 C 
ATOM     36  C   UNL A   1      39.733  30.891  33.750  1.00  0.00     0.034 A 
BRANCH  23  37
ATOM     37  C   UNL A   1      45.022  27.685  33.379  1.00  0.00     0.023 A 
ATOM     38  C   UNL A   1      45.083  26.623  34.301  1.00  0.00     0.031 A 
ATOM     39  C   UNL A   1      46.199  28.406  33.124  1.00  0.00     0.131 A 
ATOM     40  C   UNL A   1      46.265  26.389  35.018  1.00  0.00     0.055 A 
ATOM     41  C   UNL A   1      47.398  28.104  33.769  1.00  0.00     0.041 A 
ATOM     42  F   UNL A   1      46.194  29.444  32.273  1.00  0.00    -0.206 F 
ATOM     43  C   UNL A   1      47.430  27.107  34.740  1.00  0.00     0.022 A 
BRANCH  40  44
ATOM     44  S   UNL A   1      46.196  25.288  36.459  1.00  0.00     0.124 S 
ATOM     45  O   UNL A   1      45.234  25.978  37.314  1.00  0.00    -0.237 OA
ATOM     46  O   UNL A   1      45.745  24.031  35.876  1.00  0.00    -0.237 OA
ATOM     47  O   UNL A   1      47.571  25.289  36.956  1.00  0.00    -0.744 OA
ENDBRANCH  40  44
ENDBRANCH  23  37
BRANCH  24  48
ATOM     48  C   UNL A   1      36.739  30.718  28.566  1.00  0.00     0.023 A 
ATOM     49  C   UNL A   1      35.734  29.837  28.136  1.00  0.00     0.031 A 
ATOM     50  C   UNL A   1      36.485  32.102  28.368  1.00  0.00     0.131 A 
ATOM     51  C   UNL A   1      34.520  30.363  27.615  1.00  0.00     0.055 A 
ATOM     52  C   UNL A   1      35.257  32.610  27.932  1.00  0.00     0.041 A 
ATOM     53  F   UNL A   1      37.448  32.996  28.649  1.00  0.00    -0.206 F 
ATOM     54  C   UNL A   1      34.248  31.735  27.590  1.00  0.00     0.022 A 
BRANCH  51  55
ATOM     55  S   UNL A   1      33.290  29.279  26.826  1.00  0.00     0.124 S 
ATOM     56  O   UNL A   1      33.293  29.790  25.458  1.00  0.00    -0.237 OA
ATOM     57  O   UNL A   1      33.851  27.946  27.012  1.00  0.00    -0.237 OA
ATOM     58  O   UNL A   1      32.067  29.543  27.585  1.00  0.00    -0.744 OA
ENDBRANCH  51  55
ENDBRANCH  24  48
BRANCH  36  59
ATOM     59  C   UNL A   1      39.279  31.874  34.786  1.00  0.00     0.023 A 
ATOM     60  C   UNL A   1      38.768  31.475  36.029  1.00  0.00     0.031 A 
ATOM     61  C   UNL A   1      39.272  33.241  34.457  1.00  0.00     0.131 A 
ATOM     62  C   UNL A   1      38.211  32.440  36.878  1.00  0.00     0.055 A 
ATOM     63  C   UNL A   1      38.793  34.203  35.340  1.00  0.00     0.041 A 
ATOM     64  F   UNL A   1      39.715  33.658  33.259  1.00  0.00    -0.206 F 
ATOM     65  C   UNL A   1      38.247  33.802  36.554  1.00  0.00     0.022 A 
BRANCH  62  66
ATOM     66  S   UNL A   1      37.324  31.883  38.353  1.00  0.00     0.124 S 
ATOM     67  O   UNL A   1      36.132  32.725  38.318  1.00  0.00    -0.237 OA
ATOM     68  O   UNL A   1      37.112  30.465  38.079  1.00  0.00    -0.237 OA
ATOM     69  O   UNL A   1      38.257  32.171  39.441  1.00  0.00    -0.744 OA
ENDBRANCH  62  66
ENDBRANCH  36  59
ENDBRANCH  10  11
ENDBRANCH   3   5
ENDBRANCH   2   3
ENDBRANCH   1   2
BRANCH   1  70
ATOM     70  C   UNL A   1      42.607  19.762  25.772  1.00  0.00     0.275 C 
BRANCH  70  71
ATOM     71  O   UNL A   1      41.547  20.715  25.641  1.00  0.00    -0.458 OA
BRANCH  71  72
ATOM     72  C   UNL A   1      40.651  20.741  26.663  1.00  0.00     0.341 C 
ATOM     73  O   UNL A   1      40.804  20.305  27.789  1.00  0.00    -0.246 OA
BRANCH  72  74
ATOM     74  C   UNL A   1      39.468  21.474  26.195  1.00  0.00     0.099 A 
ATOM     75  C   UNL A   1      39.298  22.813  26.536  1.00  0.00     0.021 A 
ATOM     76  C   UNL A   1      38.486  20.814  25.465  1.00  0.00     0.175 A 
ATOM     77  C   UNL A   1      38.143  23.481  26.136  1.00  0.00     0.030 A 
ATOM     78  C   UNL A   1      37.315  21.481  25.115  1.00  0.00     0.182 A 
ATOM     79  F   UNL A   1      38.621  19.521  25.140  1.00  0.00    -0.203 F 
ATOM     80  C   UNL A   1      37.109  22.830  25.444  1.00  0.00     0.074 A 
ATOM     81  F   UNL A   1      36.354  20.821  24.446  1.00  0.00    -0.201 F 
BRANCH  80  82
ATOM     82  N   UNL A   1      35.948  23.462  25.021  1.00  0.00    -0.379 N 
ATOM     83  H   UNL A   1      36.052  24.248  24.438  1.00  0.00     0.160 HD
BRANCH  82  84
ATOM     84  C   UNL A   1      34.580  23.062  25.363  1.00  0.00     0.094 C 
ATOM     85  C   UNL A   1      33.828  22.756  24.040  1.00  0.00     0.027 C 
ATOM     86  C   UNL A   1      33.982  24.035  26.367  1.00  0.00     0.161 C 
ATOM     87  C   UNL A   1      32.324  22.563  24.135  1.00  0.00     0.018 C 
ATOM     88  S   UNL A   1      32.228  23.948  26.384  1.00  0.00     0.152 S 
ATOM     89  C   UNL A   1      31.713  23.796  24.722  1.00  0.00     0.137 C 
ATOM     90  O   UNL A   1      31.714  25.250  26.736  1.00  0.00    -0.229 OA
ATOM     91  O   UNL A   1      31.869  22.716  27.046  1.00  0.00    -0.229 OA
ENDBRANCH  82  84
ENDBRANCH  80  82
ENDBRANCH  72  74
ENDBRANCH  71  72
ENDBRANCH  70  71
ENDBRANCH   1  70
TORSDOF 16
ENDMDL
MODEL 3
REMARK VINA RESULT:     -12.1      1.864      2.156
REMARK SMILES O=C(OCCOC(=O)c1ccc(N[C@@H]2CCCS(=O)(=O)C2)c(F)c1F)c1ccc(-c2c3nc(c(-c4cc(S(=O)(=O)[O-])ccc4F)c4ccc([nH]4)c(-c4cc(S(=O)(=O)[O-])ccc4F)c4nc(c(-c5cc(S(=O)(=O)[O-])ccc5F)c5ccc2[nH]5)C=C4)C=C3)cc1
REMARK SMILES IDX 4 1 3 2 2 3 1 4 26 5 27 6 88 7 28 8 87 9 29 10 30 11 31 12
REMARK SMILES IDX 81 13 32 14 86 15 80 16 82 17 33 18 85 19 79 20 78 21 34 23
REMARK SMILES IDX 66 24 46 25 65 26 47 27 50 28 64 29 83 30 48 31 49 32 63 34
REMARK SMILES IDX 84 35 51 36 35 37 36 38 44 39 37 40 43 41 45 42 42 43 38 44
REMARK SMILES IDX 39 45 40 46 41 47 67 48 68 49 76 50 69 51 75 52 77 53 74 54
REMARK SMILES IDX 70 55 71 56 72 57 73 58 52 59 53 60 61 61 54 62 60 63 62 64
REMARK SMILES IDX 59 65 55 66 56 67 57 68 58 69 5 70 6 71 7 72 8 73 9 74 10 75
REMARK SMILES IDX 24 76 11 77 22 78 25 79 12 80 23 81 13 82 14 84 15 85 21 86
REMARK SMILES IDX 16 87 18 88 17 89 19 90 20 91
REMARK H PARENT 82 22 50 33 13 83
REMARK Flexibility Score: inf
ROOT
ATOM      1  C   UNL A   1      43.685  20.767  25.424  1.00  0.00     0.275 C 
ENDROOT
BRANCH   1   2
ATOM      2  O   UNL A   1      44.037  22.066  25.929  1.00  0.00    -0.458 OA
BRANCH   2   3
ATOM      3  C   UNL A   1      43.810  23.299  25.413  1.00  0.00     0.338 C 
ATOM      4  O   UNL A   1      44.251  23.535  24.288  1.00  0.00    -0.246 OA
BRANCH   3   5
ATOM      5  C   UNL A   1      43.177  24.446  26.165  1.00  0.00     0.060 A 
ATOM      6  C   UNL A   1      43.224  25.805  25.835  1.00  0.00     0.016 A 
ATOM      7  C   UNL A   1      42.458  24.106  27.326  1.00  0.00     0.016 A 
ATOM      8  C   UNL A   1      42.580  26.788  26.615  1.00  0.00     0.010 A 
ATOM      9  C   UNL A   1      41.792  25.077  28.096  1.00  0.00     0.010 A 
ATOM     10  C   UNL A   1      41.868  26.444  27.763  1.00  0.00    -0.014 A 
BRANCH  10  11
ATOM     11  C   UNL A   1      41.490  27.474  28.785  1.00  0.00     0.031 A 
ATOM     12  C   UNL A   1      42.293  27.446  30.063  1.00  0.00     0.074 A 
ATOM     13  C   UNL A   1      40.591  28.471  28.605  1.00  0.00     0.049 A 
ATOM     14  N   UNL A   1      42.102  28.090  31.182  1.00  0.00    -0.248 NA
ATOM     15  C   UNL A   1      43.510  26.610  30.053  1.00  0.00     0.031 C 
ATOM     16  C   UNL A   1      39.976  28.853  27.333  1.00  0.00     0.029 A 
ATOM     17  N   UNL A   1      40.014  29.355  29.505  1.00  0.00    -0.354 N 
ATOM     18  C   UNL A   1      43.209  27.798  31.971  1.00  0.00     0.074 A 
ATOM     19  C   UNL A   1      43.997  26.817  31.264  1.00  0.00     0.031 C 
ATOM     20  C   UNL A   1      39.064  29.824  27.552  1.00  0.00     0.029 A 
ATOM     21  C   UNL A   1      38.944  30.077  28.982  1.00  0.00     0.049 A 
ATOM     22  H   UNL A   1      40.333  29.462  30.430  1.00  0.00     0.167 HD
ATOM     23  C   UNL A   1      43.567  28.360  33.150  1.00  0.00     0.034 A 
ATOM     24  C   UNL A   1      37.950  30.752  29.624  1.00  0.00     0.034 A 
ATOM     25  C   UNL A   1      42.739  29.311  33.838  1.00  0.00     0.049 A 
ATOM     26  C   UNL A   1      38.108  30.922  31.115  1.00  0.00     0.074 A 
ATOM     27  C   UNL A   1      42.984  29.991  35.015  1.00  0.00     0.029 A 
ATOM     28  N   UNL A   1      41.470  29.686  33.415  1.00  0.00    -0.354 N 
ATOM     29  N   UNL A   1      39.062  30.487  31.903  1.00  0.00    -0.248 NA
ATOM     30  C   UNL A   1      37.065  31.705  31.794  1.00  0.00     0.031 C 
ATOM     31  C   UNL A   1      41.822  30.689  35.361  1.00  0.00     0.029 A 
ATOM     32  C   UNL A   1      40.892  30.524  34.348  1.00  0.00     0.049 A 
ATOM     33  H   UNL A   1      41.045  29.396  32.575  1.00  0.00     0.167 HD
ATOM     34  C   UNL A   1      38.781  31.032  33.147  1.00  0.00     0.074 A 
ATOM     35  C   UNL A   1      37.497  31.692  33.043  1.00  0.00     0.031 C 
ATOM     36  C   UNL A   1      39.578  31.100  34.240  1.00  0.00     0.034 A 
BRANCH  23  37
ATOM     37  C   UNL A   1      44.867  27.907  33.761  1.00  0.00     0.023 A 
ATOM     38  C   UNL A   1      46.088  28.531  33.444  1.00  0.00     0.031 A 
ATOM     39  C   UNL A   1      44.900  26.778  34.594  1.00  0.00     0.131 A 
ATOM     40  C   UNL A   1      47.295  27.955  33.862  1.00  0.00     0.055 A 
ATOM     41  C   UNL A   1      46.099  26.266  35.089  1.00  0.00     0.041 A 
ATOM     42  F   UNL A   1      43.769  26.128  34.910  1.00  0.00    -0.206 F 
ATOM     43  C   UNL A   1      47.308  26.840  34.703  1.00  0.00     0.022 A 
BRANCH  40  44
ATOM     44  S   UNL A   1      48.840  28.550  33.117  1.00  0.00     0.124 S 
ATOM     45  O   UNL A   1      49.686  27.362  33.201  1.00  0.00    -0.237 OA
ATOM     46  O   UNL A   1      48.417  28.939  31.778  1.00  0.00    -0.237 OA
ATOM     47  O   UNL A   1      49.239  29.652  33.991  1.00  0.00    -0.744 OA
ENDBRANCH  40  44
ENDBRANCH  23  37
BRANCH  24  48
ATOM     48  C   UNL A   1      36.597  31.123  29.045  1.00  0.00     0.023 A 
ATOM     49  C   UNL A   1      35.991  32.389  29.015  1.00  0.00     0.031 A 
ATOM     50  C   UNL A   1      35.826  30.048  28.528  1.00  0.00     0.131 A 
ATOM     51  C   UNL A   1      34.710  32.537  28.415  1.00  0.00     0.055 A 
ATOM     52  C   UNL A   1      34.605  30.216  27.868  1.00  0.00     0.041 A 
ATOM     53  F   UNL A   1      36.294  28.792  28.629  1.00  0.00    -0.206 F 
ATOM     54  C   UNL A   1      34.058  31.478  27.773  1.00  0.00     0.022 A 
BRANCH  51  55
ATOM     55  S   UNL A   1      33.780  34.093  28.561  1.00  0.00     0.124 S 
ATOM     56  O   UNL A   1      33.638  34.208  30.010  1.00  0.00    -0.237 OA
ATOM     57  O   UNL A   1      34.657  35.068  27.924  1.00  0.00    -0.237 OA
ATOM     58  O   UNL A   1      32.539  33.817  27.836  1.00  0.00    -0.744 OA
ENDBRANCH  51  55
ENDBRANCH  24  48
BRANCH  36  59
ATOM     59  C   UNL A   1      39.121  32.042  35.311  1.00  0.00     0.023 A 
ATOM     60  C   UNL A   1      39.561  33.371  35.381  1.00  0.00     0.031 A 
ATOM     61  C   UNL A   1      38.301  31.544  36.339  1.00  0.00     0.131 A 
ATOM     62  C   UNL A   1      39.222  34.141  36.501  1.00  0.00     0.055 A 
ATOM     63  C   UNL A   1      37.902  32.340  37.406  1.00  0.00     0.041 A 
ATOM     64  F   UNL A   1      37.894  30.263  36.328  1.00  0.00    -0.206 F 
ATOM     65  C   UNL A   1      38.374  33.645  37.498  1.00  0.00     0.022 A 
BRANCH  62  66
ATOM     66  S   UNL A   1      40.009  35.759  36.705  1.00  0.00     0.124 S 
ATOM     67  O   UNL A   1      39.419  36.219  37.958  1.00  0.00    -0.237 OA
ATOM     68  O   UNL A   1      41.427  35.418  36.755  1.00  0.00    -0.237 OA
ATOM     69  O   UNL A   1      39.589  36.494  35.513  1.00  0.00    -0.744 OA
ENDBRANCH  62  66
ENDBRANCH  36  59
ENDBRANCH  10  11
ENDBRANCH   3   5
ENDBRANCH   2   3
ENDBRANCH   1   2
BRANCH   1  70
ATOM     70  C   UNL A   1      42.388  20.211  26.014  1.00  0.00     0.275 C 
BRANCH  70  71
ATOM     71  O   UNL A   1      41.267  21.058  25.738  1.00  0.00    -0.458 OA
BRANCH  71  72
ATOM     72  C   UNL A   1      40.434  21.293  26.786  1.00  0.00     0.341 C 
ATOM     73  O   UNL A   1      40.652  21.077  27.963  1.00  0.00    -0.246 OA
BRANCH  72  74
ATOM     74  C   UNL A   1      39.230  21.943  26.256  1.00  0.00     0.099 A 
ATOM     75  C   UNL A   1      38.943  23.263  26.596  1.00  0.00     0.021 A 
ATOM     76  C   UNL A   1      38.341  21.222  25.466  1.00  0.00     0.175 A 
ATOM     77  C   UNL A   1      37.767  23.850  26.135  1.00  0.00     0.030 A 
ATOM     78  C   UNL A   1      37.146  21.806  25.055  1.00  0.00     0.182 A 
ATOM     79  F   UNL A   1      38.588  19.946  25.140  1.00  0.00    -0.203 F 
ATOM     80  C   UNL A   1      36.824  23.134  25.381  1.00  0.00     0.074 A 
ATOM     81  F   UNL A   1      36.276  21.086  24.328  1.00  0.00    -0.201 F 
BRANCH  80  82
ATOM     82  N   UNL A   1      35.645  23.684  24.896  1.00  0.00    -0.379 N 
ATOM     83  H   UNL A   1      35.702  24.198  24.059  1.00  0.00     0.160 HD
BRANCH  82  84
ATOM     84  C   UNL A   1      34.324  23.567  25.519  1.00  0.00     0.094 C 
ATOM     85  C   UNL A   1      33.514  22.508  24.724  1.00  0.00     0.027 C 
ATOM     86  C   UNL A   1      33.733  24.946  25.764  1.00  0.00     0.161 C 
ATOM     87  C   UNL A   1      32.032  22.402  25.037  1.00  0.00     0.018 C 
ATOM     88  S   UNL A   1      31.990  24.874  25.970  1.00  0.00     0.152 S 
ATOM     89  C   UNL A   1      31.388  23.731  24.795  1.00  0.00     0.137 C 
ATOM     90  O   UNL A   1      31.426  26.114  25.493  1.00  0.00    -0.229 OA
ATOM     91  O   UNL A   1      31.738  24.303  27.273  1.00  0.00    -0.229 OA
ENDBRANCH  82  84
ENDBRANCH  80  82
ENDBRANCH  72  74
ENDBRANCH  71  72
ENDBRANCH  70  71
ENDBRANCH   1  70
TORSDOF 16
ENDMDL
