MODEL 1
REMARK VINA RESULT:      -9.7      0.000      0.000
REMARK SMILES CC(C)c1ccc2c(c1)c(SC(C)(C)C)c(CC(C)(C)C(=O)OCCOC(=O)c1ccc(-c3c4nc(c(-c5cc(S(=O)(=O)[O-])ccc5F)c5ccc([nH]5)c(-c5cc(S(=O)(=O)[O-])ccc5F)c5nc(c(-c6cc(S(=O)(=O)[O-])ccc6F)c6ccc3[nH]6)C=C5)C=C4)cc1)n2Cc1ccc(Cl)cc1
REMARK SMILES IDX 24 1 23 2 21 3 22 4 18 5 19 6 20 7 17 8 16 9 4 10 5 11 9 12
REMARK SMILES IDX 6 13 8 14 7 15 10 16 92 17 2 18 1 19 3 20 11 21 12 22 13 23
REMARK SMILES IDX 14 24 15 25 93 26 94 27 95 28 100 29 96 30 99 31 97 32 98 33
REMARK SMILES IDX 25 34 26 35 27 36 28 37 29 38 30 39 91 40 31 41 90 42 32 43
REMARK SMILES IDX 33 44 34 45 84 46 35 47 89 48 83 49 85 50 36 51 88 52 82 53
REMARK SMILES IDX 81 54 37 56 69 57 49 58 68 59 50 60 53 61 67 62 86 63 51 64
REMARK SMILES IDX 52 65 66 67 87 68 54 69 38 70 39 71 47 72 40 73 46 74 48 75
REMARK SMILES IDX 45 76 41 77 42 78 43 79 44 80 70 81 71 82 79 83 72 84 78 85
REMARK SMILES IDX 80 86 77 87 73 88 74 89 75 90 76 91 55 92 56 93 64 94 57 95
REMARK SMILES IDX 63 96 65 97 62 98 58 99 59 100 60 101 61 102
REMARK H PARENT 85 55 53 66
REMARK Flexibility Score: inf
ROOT
ATOM      1  C   UNL A   1      49.394  39.195  30.839  1.00  0.00     0.274 C 
ENDROOT
BRANCH   1   2
ATOM      2  O   UNL A   1      49.238  40.275  29.905  1.00  0.00    -0.462 OA
BRANCH   2   3
ATOM      3  C   UNL A   1      48.845  41.449  30.455  1.00  0.00     0.312 C 
ATOM      4  O   UNL A   1      48.541  41.568  31.637  1.00  0.00    -0.252 OA
BRANCH   3   5
ATOM      5  C   UNL A   1      48.759  42.598  29.459  1.00  0.00     0.068 C 
ATOM      6  C   UNL A   1      49.715  42.084  28.367  1.00  0.00     0.024 C 
ATOM      7  C   UNL A   1      49.290  43.966  29.984  1.00  0.00     0.024 C 
BRANCH   5   8
ATOM      8  C   UNL A   1      47.316  42.806  28.946  1.00  0.00     0.073 C 
BRANCH   8   9
ATOM      9  C   UNL A   1      46.490  41.626  28.664  1.00  0.00     0.034 A 
ATOM     10  C   UNL A   1      44.194  37.581  27.739  1.00  0.00    -0.045 A 
ATOM     11  C   UNL A   1      45.392  37.361  27.084  1.00  0.00     0.006 A 
ATOM     12  C   UNL A   1      44.099  38.703  28.699  1.00  0.00     0.015 A 
ATOM     13  C   UNL A   1      46.285  38.397  27.031  1.00  0.00     0.027 A 
ATOM     14  C   UNL A   1      45.081  39.778  28.739  1.00  0.00     0.014 A 
ATOM     15  C   UNL A   1      46.068  39.587  27.770  1.00  0.00     0.050 A 
ATOM     16  C   UNL A   1      45.506  41.082  29.457  1.00  0.00     0.037 A 
ATOM     17  N   UNL A   1      46.624  40.829  27.557  1.00  0.00    -0.339 N 
BRANCH  10  18
ATOM     18  C   UNL A   1      43.036  36.837  27.015  1.00  0.00     0.013 C 
ATOM     19  C   UNL A   1      43.024  35.328  26.768  1.00  0.00     0.012 C 
ATOM     20  C   UNL A   1      41.667  37.404  27.307  1.00  0.00     0.012 C 
ENDBRANCH  10  18
BRANCH  16  21
ATOM     21  S   UNL A   1      45.060  41.945  31.082  1.00  0.00    -0.118 SA
BRANCH  21  22
ATOM     22  C   UNL A   1      42.998  41.970  31.538  1.00  0.00     0.012 C 
ATOM     23  C   UNL A   1      41.948  41.371  30.550  1.00  0.00     0.023 C 
ATOM     24  C   UNL A   1      42.591  41.436  32.949  1.00  0.00     0.023 C 
ATOM     25  C   UNL A   1      42.654  43.475  31.714  1.00  0.00     0.023 C 
ENDBRANCH  21  22
ENDBRANCH  16  21
BRANCH  17  26
ATOM     26  C   UNL A   1      46.908  41.210  26.194  1.00  0.00     0.158 C 
BRANCH  26  27
ATOM     27  C   UNL A   1      45.739  41.531  25.354  1.00  0.00    -0.028 A 
ATOM     28  C   UNL A   1      43.935  41.376  25.673  1.00  0.00     0.007 A 
ATOM     29  C   UNL A   1      46.271  42.159  23.706  1.00  0.00     0.007 A 
ATOM     30  C   UNL A   1      42.731  42.109  24.511  1.00  0.00     0.021 A 
ATOM     31  C   UNL A   1      45.050  42.840  22.576  1.00  0.00     0.021 A 
ATOM     32  C   UNL A   1      43.317  42.887  23.005  1.00  0.00     0.041 A 
ATOM     33  Cl  UNL A   1      42.171  43.161  21.734  1.00  0.00    -0.084 Cl
ENDBRANCH  26  27
ENDBRANCH  17  26
ENDBRANCH   8   9
ENDBRANCH   5   8
ENDBRANCH   3   5
ENDBRANCH   2   3
ENDBRANCH   1   2
BRANCH   1  34
ATOM     34  C   UNL A   1      50.310  38.112  30.243  1.00  0.00     0.275 C 
BRANCH  34  35
ATOM     35  O   UNL A   1      50.133  36.835  30.937  1.00  0.00    -0.458 OA
BRANCH  35  36
ATOM     36  C   UNL A   1      48.850  36.469  31.756  1.00  0.00     0.338 C 
ATOM     37  O   UNL A   1      49.377  36.288  32.882  1.00  0.00    -0.246 OA
BRANCH  36  38
ATOM     38  C   UNL A   1      46.818  36.502  30.978  1.00  0.00     0.060 A 
ATOM     39  C   UNL A   1      45.551  37.127  31.480  1.00  0.00     0.016 A 
ATOM     40  C   UNL A   1      46.064  35.461  30.082  1.00  0.00     0.016 A 
ATOM     41  C   UNL A   1      44.161  36.512  31.584  1.00  0.00     0.010 A 
ATOM     42  C   UNL A   1      44.678  34.841  30.192  1.00  0.00     0.010 A 
ATOM     43  C   UNL A   1      43.738  35.230  31.125  1.00  0.00    -0.014 A 
BRANCH  43  44
ATOM     44  C   UNL A   1      42.257  34.626  31.427  1.00  0.00     0.031 A 
ATOM     45  C   UNL A   1      42.205  34.342  32.850  1.00  0.00     0.074 A 
ATOM     46  C   UNL A   1      41.004  34.256  30.891  1.00  0.00     0.049 A 
ATOM     47  N   UNL A   1      42.346  33.173  33.373  1.00  0.00    -0.248 NA
ATOM     48  C   UNL A   1      42.177  35.469  33.783  1.00  0.00     0.031 C 
ATOM     49  C   UNL A   1      40.606  34.379  29.527  1.00  0.00     0.029 A 
ATOM     50  N   UNL A   1      39.791  33.589  31.339  1.00  0.00    -0.354 N 
ATOM     51  C   UNL A   1      42.030  33.400  34.687  1.00  0.00     0.074 A 
ATOM     52  C   UNL A   1      42.261  34.804  34.935  1.00  0.00     0.031 C 
ATOM     53  C   UNL A   1      39.294  34.266  29.255  1.00  0.00     0.029 A 
ATOM     54  C   UNL A   1      38.680  33.653  30.400  1.00  0.00     0.049 A 
ATOM     55  H   UNL A   1      39.725  33.132  32.209  1.00  0.00     0.167 HD
ATOM     56  C   UNL A   1      41.213  32.531  35.325  1.00  0.00     0.034 A 
ATOM     57  C   UNL A   1      37.438  33.075  30.216  1.00  0.00     0.034 A 
ATOM     58  C   UNL A   1      41.091  31.272  34.648  1.00  0.00     0.049 A 
ATOM     59  C   UNL A   1      37.252  31.894  31.047  1.00  0.00     0.074 A 
ATOM     60  C   UNL A   1      41.975  30.246  34.481  1.00  0.00     0.029 A 
ATOM     61  N   UNL A   1      40.106  31.114  33.699  1.00  0.00    -0.354 N 
ATOM     62  N   UNL A   1      37.609  30.697  30.700  1.00  0.00    -0.248 NA
ATOM     63  C   UNL A   1      36.890  32.082  32.437  1.00  0.00     0.031 C 
ATOM     64  C   UNL A   1      41.529  29.545  33.340  1.00  0.00     0.029 A 
ATOM     65  C   UNL A   1      40.261  29.943  32.946  1.00  0.00     0.049 A 
ATOM     66  H   UNL A   1      39.370  31.754  33.567  1.00  0.00     0.167 HD
ATOM     67  C   UNL A   1      38.072  30.182  31.887  1.00  0.00     0.074 A 
ATOM     68  C   UNL A   1      37.441  30.975  32.932  1.00  0.00     0.031 C 
ATOM     69  C   UNL A   1      39.290  29.574  31.891  1.00  0.00     0.034 A 
BRANCH  56  70
ATOM     70  C   UNL A   1      40.328  32.948  36.434  1.00  0.00     0.023 A 
ATOM     71  C   UNL A   1      40.707  32.770  37.775  1.00  0.00     0.031 A 
ATOM     72  C   UNL A   1      39.148  33.651  36.177  1.00  0.00     0.131 A 
ATOM     73  C   UNL A   1      39.882  33.193  38.811  1.00  0.00     0.055 A 
ATOM     74  C   UNL A   1      38.367  34.161  37.215  1.00  0.00     0.041 A 
ATOM     75  F   UNL A   1      38.735  33.864  34.918  1.00  0.00    -0.206 F 
ATOM     76  C   UNL A   1      38.725  33.919  38.540  1.00  0.00     0.022 A 
BRANCH  73  77
ATOM     77  S   UNL A   1      40.281  32.742  40.517  1.00  0.00     0.124 S 
ATOM     78  O   UNL A   1      41.522  31.994  40.349  1.00  0.00    -0.237 OA
ATOM     79  O   UNL A   1      40.410  34.055  41.146  1.00  0.00    -0.237 OA
ATOM     80  O   UNL A   1      39.121  31.968  40.952  1.00  0.00    -0.744 OA
ENDBRANCH  73  77
ENDBRANCH  56  70
BRANCH  57  81
ATOM     81  C   UNL A   1      36.253  33.525  29.381  1.00  0.00     0.023 A 
ATOM     82  C   UNL A   1      35.514  34.616  29.838  1.00  0.00     0.031 A 
ATOM     83  C   UNL A   1      35.607  32.693  28.429  1.00  0.00     0.131 A 
ATOM     84  C   UNL A   1      34.141  34.707  29.591  1.00  0.00     0.055 A 
ATOM     85  C   UNL A   1      34.240  32.827  28.121  1.00  0.00     0.041 A 
ATOM     86  F   UNL A   1      36.245  31.664  27.850  1.00  0.00    -0.206 F 
ATOM     87  C   UNL A   1      33.483  33.805  28.757  1.00  0.00     0.022 A 
BRANCH  84  88
ATOM     88  S   UNL A   1      33.185  35.875  30.591  1.00  0.00     0.124 S 
ATOM     89  O   UNL A   1      33.991  36.000  31.802  1.00  0.00    -0.237 OA
ATOM     90  O   UNL A   1      33.167  37.043  29.719  1.00  0.00    -0.237 OA
ATOM     91  O   UNL A   1      31.905  35.195  30.773  1.00  0.00    -0.744 OA
ENDBRANCH  84  88
ENDBRANCH  57  81
BRANCH  69  92
ATOM     92  C   UNL A   1      39.478  28.572  30.730  1.00  0.00     0.023 A 
ATOM     93  C   UNL A   1      40.318  28.917  29.640  1.00  0.00     0.031 A 
ATOM     94  C   UNL A   1      38.900  27.278  30.658  1.00  0.00     0.131 A 
ATOM     95  C   UNL A   1      40.416  28.087  28.491  1.00  0.00     0.055 A 
ATOM     96  C   UNL A   1      39.099  26.407  29.565  1.00  0.00     0.041 A 
ATOM     97  F   UNL A   1      38.070  26.824  31.610  1.00  0.00    -0.206 F 
ATOM     98  C   UNL A   1      39.822  26.826  28.455  1.00  0.00     0.022 A 
BRANCH  95  99
ATOM     99  S   UNL A   1      41.122  28.712  26.922  1.00  0.00     0.124 S 
ATOM    100  O   UNL A   1      42.197  29.586  27.378  1.00  0.00    -0.237 OA
ATOM    101  O   UNL A   1      41.573  27.490  26.257  1.00  0.00    -0.237 OA
ATOM    102  O   UNL A   1      39.995  29.381  26.282  1.00  0.00    -0.744 OA
ENDBRANCH  95  99
ENDBRANCH  69  92
ENDBRANCH  43  44
ENDBRANCH  36  38
ENDBRANCH  35  36
ENDBRANCH  34  35
ENDBRANCH   1  34
TORSDOF 21
ENDMDL
MODEL 2
REMARK VINA RESULT:      -9.5      5.222     12.899
REMARK SMILES CC(C)c1ccc2c(c1)c(SC(C)(C)C)c(CC(C)(C)C(=O)OCCOC(=O)c1ccc(-c3c4nc(c(-c5cc(S(=O)(=O)[O-])ccc5F)c5ccc([nH]5)c(-c5cc(S(=O)(=O)[O-])ccc5F)c5nc(c(-c6cc(S(=O)(=O)[O-])ccc6F)c6ccc3[nH]6)C=C5)C=C4)cc1)n2Cc1ccc(Cl)cc1
REMARK SMILES IDX 24 1 23 2 21 3 22 4 18 5 19 6 20 7 17 8 16 9 4 10 5 11 9 12
REMARK SMILES IDX 6 13 8 14 7 15 10 16 92 17 2 18 1 19 3 20 11 21 12 22 13 23
REMARK SMILES IDX 14 24 15 25 93 26 94 27 95 28 100 29 96 30 99 31 97 32 98 33
REMARK SMILES IDX 25 34 26 35 27 36 28 37 29 38 30 39 91 40 31 41 90 42 32 43
REMARK SMILES IDX 33 44 34 45 84 46 35 47 89 48 83 49 85 50 36 51 88 52 82 53
REMARK SMILES IDX 81 54 37 56 69 57 49 58 68 59 50 60 53 61 67 62 86 63 51 64
REMARK SMILES IDX 52 65 66 67 87 68 54 69 38 70 39 71 47 72 40 73 46 74 48 75
REMARK SMILES IDX 45 76 41 77 42 78 43 79 44 80 70 81 71 82 79 83 72 84 78 85
REMARK SMILES IDX 80 86 77 87 73 88 74 89 75 90 76 91 55 92 56 93 64 94 57 95
REMARK SMILES IDX 63 96 65 97 62 98 58 99 59 100 60 101 61 102
REMARK H PARENT 85 55 53 66
REMARK Flexibility Score: inf
ROOT
ATOM      1  C   UNL A   1      37.168  29.639  30.885  1.00  0.00     0.274 C 
ENDROOT
BRANCH   1   2
ATOM      2  O   UNL A   1      38.340  30.279  30.355  1.00  0.00    -0.462 OA
BRANCH   2   3
ATOM      3  C   UNL A   1      38.752  29.808  29.154  1.00  0.00     0.312 C 
ATOM      4  O   UNL A   1      38.151  30.024  28.107  1.00  0.00    -0.252 OA
BRANCH   3   5
ATOM      5  C   UNL A   1      39.999  28.936  29.228  1.00  0.00     0.068 C 
ATOM      6  C   UNL A   1      40.393  28.898  27.741  1.00  0.00     0.024 C 
ATOM      7  C   UNL A   1      39.753  27.477  29.717  1.00  0.00     0.024 C 
BRANCH   5   8
ATOM      8  C   UNL A   1      41.088  29.568  30.123  1.00  0.00     0.073 C 
BRANCH   8   9
ATOM      9  C   UNL A   1      41.874  28.696  31.003  1.00  0.00     0.034 A 
ATOM     10  C   UNL A   1      44.739  26.168  33.812  1.00  0.00    -0.045 A 
ATOM     11  C   UNL A   1      45.657  26.771  32.971  1.00  0.00     0.006 A 
ATOM     12  C   UNL A   1      43.348  26.669  33.829  1.00  0.00     0.015 A 
ATOM     13  C   UNL A   1      45.170  27.503  31.922  1.00  0.00     0.027 A 
ATOM     14  C   UNL A   1      42.817  27.529  32.780  1.00  0.00     0.014 A 
ATOM     15  C   UNL A   1      43.785  27.781  31.805  1.00  0.00     0.050 A 
ATOM     16  C   UNL A   1      41.580  28.325  32.296  1.00  0.00     0.037 A 
ATOM     17  N   UNL A   1      43.088  28.152  30.677  1.00  0.00    -0.339 N 
BRANCH  10  18
ATOM     18  C   UNL A   1      45.266  24.782  34.284  1.00  0.00     0.013 C 
ATOM     19  C   UNL A   1      45.704  24.489  35.719  1.00  0.00     0.012 C 
ATOM     20  C   UNL A   1      44.587  23.609  33.616  1.00  0.00     0.012 C 
ENDBRANCH  10  18
BRANCH  16  21
ATOM     21  S   UNL A   1      39.955  28.911  33.069  1.00  0.00    -0.118 SA
BRANCH  21  22
ATOM     22  C   UNL A   1      40.174  30.249  34.689  1.00  0.00     0.012 C 
ATOM     23  C   UNL A   1      38.932  30.773  35.474  1.00  0.00     0.023 C 
ATOM     24  C   UNL A   1      41.218  29.852  35.782  1.00  0.00     0.023 C 
ATOM     25  C   UNL A   1      40.887  31.488  34.080  1.00  0.00     0.023 C 
ENDBRANCH  21  22
ENDBRANCH  16  21
BRANCH  17  26
ATOM     26  C   UNL A   1      43.532  27.617  29.411  1.00  0.00     0.158 C 
BRANCH  26  27
ATOM     27  C   UNL A   1      43.319  26.173  29.207  1.00  0.00    -0.028 A 
ATOM     28  C   UNL A   1      44.059  24.707  30.034  1.00  0.00     0.007 A 
ATOM     29  C   UNL A   1      42.112  25.876  27.846  1.00  0.00     0.007 A 
ATOM     30  C   UNL A   1      43.385  23.039  29.721  1.00  0.00     0.021 A 
ATOM     31  C   UNL A   1      41.499  24.213  27.547  1.00  0.00     0.021 A 
ATOM     32  C   UNL A   1      42.067  22.829  28.522  1.00  0.00     0.041 A 
ATOM     33  Cl  UNL A   1      41.764  21.231  27.920  1.00  0.00    -0.084 Cl
ENDBRANCH  26  27
ENDBRANCH  17  26
ENDBRANCH   8   9
ENDBRANCH   5   8
ENDBRANCH   3   5
ENDBRANCH   2   3
ENDBRANCH   1   2
BRANCH   1  34
ATOM     34  C   UNL A   1      36.601  30.462  32.054  1.00  0.00     0.275 C 
BRANCH  34  35
ATOM     35  O   UNL A   1      35.511  31.331  31.605  1.00  0.00    -0.458 OA
BRANCH  35  36
ATOM     36  C   UNL A   1      35.608  32.893  31.578  1.00  0.00     0.338 C 
ATOM     37  O   UNL A   1      34.436  33.172  31.936  1.00  0.00    -0.246 OA
BRANCH  36  38
ATOM     38  C   UNL A   1      37.421  34.026  31.173  1.00  0.00     0.060 A 
ATOM     39  C   UNL A   1      38.242  34.215  29.933  1.00  0.00     0.016 A 
ATOM     40  C   UNL A   1      38.598  34.423  32.130  1.00  0.00     0.016 A 
ATOM     41  C   UNL A   1      39.756  34.139  29.771  1.00  0.00     0.010 A 
ATOM     42  C   UNL A   1      40.109  34.339  31.969  1.00  0.00     0.010 A 
ATOM     43  C   UNL A   1      40.735  33.974  30.794  1.00  0.00    -0.014 A 
BRANCH  43  44
ATOM     44  C   UNL A   1      42.317  33.760  30.479  1.00  0.00     0.031 A 
ATOM     45  C   UNL A   1      42.718  34.847  29.603  1.00  0.00     0.074 A 
ATOM     46  C   UNL A   1      43.464  32.964  30.693  1.00  0.00     0.049 A 
ATOM     47  N   UNL A   1      42.865  34.747  28.327  1.00  0.00    -0.248 NA
ATOM     48  C   UNL A   1      42.785  36.199  30.158  1.00  0.00     0.031 C 
ATOM     49  C   UNL A   1      43.534  31.796  31.507  1.00  0.00     0.029 A 
ATOM     50  N   UNL A   1      44.829  32.879  30.195  1.00  0.00    -0.354 N 
ATOM     51  C   UNL A   1      43.422  35.955  28.001  1.00  0.00     0.074 A 
ATOM     52  C   UNL A   1      43.050  36.881  29.045  1.00  0.00     0.031 C 
ATOM     53  C   UNL A   1      44.758  31.345  31.836  1.00  0.00     0.029 A 
ATOM     54  C   UNL A   1      45.688  31.963  30.931  1.00  0.00     0.049 A 
ATOM     55  H   UNL A   1      45.147  33.400  29.424  1.00  0.00     0.167 HD
ATOM     56  C   UNL A   1      44.475  35.983  27.152  1.00  0.00     0.034 A 
ATOM     57  C   UNL A   1      46.930  31.370  30.803  1.00  0.00     0.034 A 
ATOM     58  C   UNL A   1      44.627  34.770  26.402  1.00  0.00     0.049 A 
ATOM     59  C   UNL A   1      47.461  31.491  29.453  1.00  0.00     0.074 A 
ATOM     60  C   UNL A   1      43.886  34.235  25.389  1.00  0.00     0.029 A 
ATOM     61  N   UNL A   1      45.395  33.753  26.922  1.00  0.00    -0.354 N 
ATOM     62  N   UNL A   1      47.214  30.652  28.496  1.00  0.00    -0.248 NA
ATOM     63  C   UNL A   1      48.085  32.741  29.069  1.00  0.00     0.031 C 
ATOM     64  C   UNL A   1      44.169  32.852  25.406  1.00  0.00     0.029 A 
ATOM     65  C   UNL A   1      45.251  32.550  26.219  1.00  0.00     0.049 A 
ATOM     66  H   UNL A   1      45.984  33.860  27.703  1.00  0.00     0.167 HD
ATOM     67  C   UNL A   1      47.099  31.484  27.409  1.00  0.00     0.074 A 
ATOM     68  C   UNL A   1      47.821  32.697  27.765  1.00  0.00     0.031 C 
ATOM     69  C   UNL A   1      46.012  31.340  26.602  1.00  0.00     0.034 A 
BRANCH  56  70
ATOM     70  C   UNL A   1      45.510  37.039  27.213  1.00  0.00     0.023 A 
ATOM     71  C   UNL A   1      45.435  38.182  26.401  1.00  0.00     0.031 A 
ATOM     72  C   UNL A   1      46.521  36.989  28.177  1.00  0.00     0.131 A 
ATOM     73  C   UNL A   1      46.397  39.182  26.487  1.00  0.00     0.055 A 
ATOM     74  C   UNL A   1      47.429  38.036  28.330  1.00  0.00     0.041 A 
ATOM     75  F   UNL A   1      46.641  35.930  28.993  1.00  0.00    -0.206 F 
ATOM     76  C   UNL A   1      47.379  39.133  27.472  1.00  0.00     0.022 A 
BRANCH  73  77
ATOM     77  S   UNL A   1      46.409  40.522  25.271  1.00  0.00     0.124 S 
ATOM     78  O   UNL A   1      46.975  39.862  24.100  1.00  0.00    -0.237 OA
ATOM     79  O   UNL A   1      44.988  40.857  25.189  1.00  0.00    -0.237 OA
ATOM     80  O   UNL A   1      47.242  41.548  25.894  1.00  0.00    -0.744 OA
ENDBRANCH  73  77
ENDBRANCH  56  70
BRANCH  57  81
ATOM     81  C   UNL A   1      47.827  30.723  31.842  1.00  0.00     0.023 A 
ATOM     82  C   UNL A   1      48.644  29.670  31.430  1.00  0.00     0.031 A 
ATOM     83  C   UNL A   1      47.600  30.822  33.241  1.00  0.00     0.131 A 
ATOM     84  C   UNL A   1      48.969  28.629  32.306  1.00  0.00     0.055 A 
ATOM     85  C   UNL A   1      47.991  29.810  34.137  1.00  0.00     0.041 A 
ATOM     86  F   UNL A   1      46.905  31.843  33.767  1.00  0.00    -0.206 F 
ATOM     87  C   UNL A   1      48.626  28.671  33.656  1.00  0.00     0.022 A 
BRANCH  84  88
ATOM     88  S   UNL A   1      49.619  27.101  31.586  1.00  0.00     0.124 S 
ATOM     89  O   UNL A   1      48.760  26.075  32.168  1.00  0.00    -0.237 OA
ATOM     90  O   UNL A   1      49.426  27.357  30.163  1.00  0.00    -0.237 OA
ATOM     91  O   UNL A   1      51.006  27.075  32.045  1.00  0.00    -0.744 OA
ENDBRANCH  84  88
ENDBRANCH  57  81
BRANCH  69  92
ATOM     92  C   UNL A   1      45.723  29.870  26.221  1.00  0.00     0.023 A 
ATOM     93  C   UNL A   1      46.772  29.059  25.720  1.00  0.00     0.031 A 
ATOM     94  C   UNL A   1      44.471  29.217  26.361  1.00  0.00     0.131 A 
ATOM     95  C   UNL A   1      46.525  27.747  25.234  1.00  0.00     0.055 A 
ATOM     96  C   UNL A   1      44.260  27.872  25.987  1.00  0.00     0.041 A 
ATOM     97  F   UNL A   1      43.383  29.865  26.807  1.00  0.00    -0.206 F 
ATOM     98  C   UNL A   1      45.276  27.144  25.378  1.00  0.00     0.022 A 
BRANCH  95  99
ATOM     99  S   UNL A   1      47.748  26.871  24.193  1.00  0.00     0.124 S 
ATOM    100  O   UNL A   1      49.000  27.098  24.906  1.00  0.00    -0.237 OA
ATOM    101  O   UNL A   1      47.274  25.488  24.225  1.00  0.00    -0.237 OA
ATOM    102  O   UNL A   1      47.632  27.532  22.897  1.00  0.00    -0.744 OA
ENDBRANCH  95  99
ENDBRANCH  69  92
ENDBRANCH  43  44
ENDBRANCH  36  38
ENDBRANCH  35  36
ENDBRANCH  34  35
ENDBRANCH   1  34
TORSDOF 21
ENDMDL
MODEL 3
REMARK VINA RESULT:      -9.4      4.262      8.603
REMARK SMILES CC(C)c1ccc2c(c1)c(SC(C)(C)C)c(CC(C)(C)C(=O)OCCOC(=O)c1ccc(-c3c4nc(c(-c5cc(S(=O)(=O)[O-])ccc5F)c5ccc([nH]5)c(-c5cc(S(=O)(=O)[O-])ccc5F)c5nc(c(-c6cc(S(=O)(=O)[O-])ccc6F)c6ccc3[nH]6)C=C5)C=C4)cc1)n2Cc1ccc(Cl)cc1
REMARK SMILES IDX 24 1 23 2 21 3 22 4 18 5 19 6 20 7 17 8 16 9 4 10 5 11 9 12
REMARK SMILES IDX 6 13 8 14 7 15 10 16 92 17 2 18 1 19 3 20 11 21 12 22 13 23
REMARK SMILES IDX 14 24 15 25 93 26 94 27 95 28 100 29 96 30 99 31 97 32 98 33
REMARK SMILES IDX 25 34 26 35 27 36 28 37 29 38 30 39 91 40 31 41 90 42 32 43
REMARK SMILES IDX 33 44 34 45 84 46 35 47 89 48 83 49 85 50 36 51 88 52 82 53
REMARK SMILES IDX 81 54 37 56 69 57 49 58 68 59 50 60 53 61 67 62 86 63 51 64
REMARK SMILES IDX 52 65 66 67 87 68 54 69 38 70 39 71 47 72 40 73 46 74 48 75
REMARK SMILES IDX 45 76 41 77 42 78 43 79 44 80 70 81 71 82 79 83 72 84 78 85
REMARK SMILES IDX 80 86 77 87 73 88 74 89 75 90 76 91 55 92 56 93 64 94 57 95
REMARK SMILES IDX 63 96 65 97 62 98 58 99 59 100 60 101 61 102
REMARK H PARENT 85 55 53 66
REMARK Flexibility Score: inf
ROOT
ATOM      1  C   UNL A   1      45.229  41.528  25.483  1.00  0.00     0.274 C 
ENDROOT
BRANCH   1   2
ATOM      2  O   UNL A   1      44.874  41.714  24.104  1.00  0.00    -0.462 OA
BRANCH   2   3
ATOM      3  C   UNL A   1      44.298  42.907  23.821  1.00  0.00     0.312 C 
ATOM      4  O   UNL A   1      43.411  43.403  24.507  1.00  0.00    -0.252 OA
BRANCH   3   5
ATOM      5  C   UNL A   1      44.813  43.552  22.540  1.00  0.00     0.068 C 
ATOM      6  C   UNL A   1      43.648  43.231  21.587  1.00  0.00     0.024 C 
ATOM      7  C   UNL A   1      46.117  42.924  21.965  1.00  0.00     0.024 C 
BRANCH   5   8
ATOM      8  C   UNL A   1      45.045  45.070  22.716  1.00  0.00     0.073 C 
BRANCH   8   9
ATOM      9  C   UNL A   1      46.390  45.610  22.491  1.00  0.00     0.034 A 
ATOM     10  C   UNL A   1      50.550  47.745  21.699  1.00  0.00    -0.045 A 
ATOM     11  C   UNL A   1      49.709  48.499  20.901  1.00  0.00     0.006 A 
ATOM     12  C   UNL A   1      49.957  46.835  22.702  1.00  0.00     0.015 A 
ATOM     13  C   UNL A   1      48.410  48.085  20.780  1.00  0.00     0.027 A 
ATOM     14  C   UNL A   1      48.554  46.443  22.666  1.00  0.00     0.014 A 
ATOM     15  C   UNL A   1      47.901  47.033  21.581  1.00  0.00     0.050 A 
ATOM     16  C   UNL A   1      47.446  45.627  23.375  1.00  0.00     0.037 A 
ATOM     17  N   UNL A   1      46.790  46.253  21.349  1.00  0.00    -0.339 N 
BRANCH  10  18
ATOM     18  C   UNL A   1      51.980  47.702  21.089  1.00  0.00     0.013 C 
ATOM     19  C   UNL A   1      52.261  47.758  19.588  1.00  0.00     0.012 C 
ATOM     20  C   UNL A   1      53.021  48.418  21.918  1.00  0.00     0.012 C 
ENDBRANCH  10  18
BRANCH  16  21
ATOM     21  S   UNL A   1      47.232  44.814  25.071  1.00  0.00    -0.118 SA
BRANCH  21  22
ATOM     22  C   UNL A   1      48.234  45.787  26.655  1.00  0.00     0.012 C 
ATOM     23  C   UNL A   1      49.281  46.910  26.375  1.00  0.00     0.023 C 
ATOM     24  C   UNL A   1      47.338  46.335  27.812  1.00  0.00     0.023 C 
ATOM     25  C   UNL A   1      48.974  44.648  27.409  1.00  0.00     0.023 C 
ENDBRANCH  21  22
ENDBRANCH  16  21
BRANCH  17  26
ATOM     26  C   UNL A   1      46.458  45.953  19.976  1.00  0.00     0.158 C 
BRANCH  26  27
ATOM     27  C   UNL A   1      45.315  46.691  19.410  1.00  0.00    -0.028 A 
ATOM     28  C   UNL A   1      44.957  48.492  19.316  1.00  0.00     0.007 A 
ATOM     29  C   UNL A   1      44.059  45.528  18.729  1.00  0.00     0.007 A 
ATOM     30  C   UNL A   1      43.559  49.100  18.311  1.00  0.00     0.021 A 
ATOM     31  C   UNL A   1      42.677  46.168  17.773  1.00  0.00     0.021 A 
ATOM     32  C   UNL A   1      42.475  47.922  17.502  1.00  0.00     0.041 A 
ATOM     33  Cl  UNL A   1      40.932  48.487  16.947  1.00  0.00    -0.084 Cl
ENDBRANCH  26  27
ENDBRANCH  17  26
ENDBRANCH   8   9
ENDBRANCH   5   8
ENDBRANCH   3   5
ENDBRANCH   2   3
ENDBRANCH   1   2
BRANCH   1  34
ATOM     34  C   UNL A   1      44.335  40.449  26.117  1.00  0.00     0.275 C 
BRANCH  34  35
ATOM     35  O   UNL A   1      44.223  40.643  27.564  1.00  0.00    -0.458 OA
BRANCH  35  36
ATOM     36  C   UNL A   1      45.179  39.966  28.602  1.00  0.00     0.338 C 
ATOM     37  O   UNL A   1      45.693  40.997  29.103  1.00  0.00    -0.246 OA
BRANCH  36  38
ATOM     38  C   UNL A   1      45.281  37.829  28.999  1.00  0.00     0.060 A 
ATOM     39  C   UNL A   1      45.167  36.626  28.112  1.00  0.00     0.016 A 
ATOM     40  C   UNL A   1      44.921  37.026  30.297  1.00  0.00     0.016 A 
ATOM     41  C   UNL A   1      44.357  35.354  28.330  1.00  0.00     0.010 A 
ATOM     42  C   UNL A   1      44.105  35.759  30.513  1.00  0.00     0.010 A 
ATOM     43  C   UNL A   1      43.608  34.984  29.485  1.00  0.00    -0.014 A 
BRANCH  43  44
ATOM     44  C   UNL A   1      42.662  33.661  29.542  1.00  0.00     0.031 A 
ATOM     45  C   UNL A   1      41.359  34.099  30.008  1.00  0.00     0.074 A 
ATOM     46  C   UNL A   1      42.573  32.267  29.333  1.00  0.00     0.049 A 
ATOM     47  N   UNL A   1      40.925  33.965  31.214  1.00  0.00    -0.248 NA
ATOM     48  C   UNL A   1      40.540  34.918  29.113  1.00  0.00     0.031 C 
ATOM     49  C   UNL A   1      43.618  31.421  28.858  1.00  0.00     0.029 A 
ATOM     50  N   UNL A   1      41.614  31.198  29.569  1.00  0.00    -0.354 N 
ATOM     51  C   UNL A   1      39.615  34.347  31.098  1.00  0.00     0.074 A 
ATOM     52  C   UNL A   1      39.530  35.201  29.937  1.00  0.00     0.031 C 
ATOM     53  C   UNL A   1      43.273  30.192  28.435  1.00  0.00     0.029 A 
ATOM     54  C   UNL A   1      41.960  29.925  28.953  1.00  0.00     0.049 A 
ATOM     55  H   UNL A   1      40.796  31.324  30.101  1.00  0.00     0.167 HD
ATOM     56  C   UNL A   1      38.659  33.599  31.695  1.00  0.00     0.034 A 
ATOM     57  C   UNL A   1      41.557  28.603  28.996  1.00  0.00     0.034 A 
ATOM     58  C   UNL A   1      39.179  32.713  32.696  1.00  0.00     0.049 A 
ATOM     59  C   UNL A   1      40.702  28.326  30.141  1.00  0.00     0.074 A 
ATOM     60  C   UNL A   1      39.698  32.954  33.935  1.00  0.00     0.029 A 
ATOM     61  N   UNL A   1      39.584  31.450  32.328  1.00  0.00    -0.354 N 
ATOM     62  N   UNL A   1      41.142  27.993  31.314  1.00  0.00    -0.248 NA
ATOM     63  C   UNL A   1      39.301  28.687  30.056  1.00  0.00     0.031 C 
ATOM     64  C   UNL A   1      40.503  31.833  34.231  1.00  0.00     0.029 A 
ATOM     65  C   UNL A   1      40.298  30.793  33.337  1.00  0.00     0.049 A 
ATOM     66  H   UNL A   1      39.390  31.050  31.449  1.00  0.00     0.167 HD
ATOM     67  C   UNL A   1      40.275  28.661  32.144  1.00  0.00     0.074 A 
ATOM     68  C   UNL A   1      39.078  28.900  31.351  1.00  0.00     0.031 C 
ATOM     69  C   UNL A   1      40.799  29.412  33.151  1.00  0.00     0.034 A 
BRANCH  56  70
ATOM     70  C   UNL A   1      37.281  33.508  31.164  1.00  0.00     0.023 A 
ATOM     71  C   UNL A   1      36.233  34.259  31.721  1.00  0.00     0.031 A 
ATOM     72  C   UNL A   1      37.012  32.772  30.007  1.00  0.00     0.131 A 
ATOM     73  C   UNL A   1      34.948  34.190  31.195  1.00  0.00     0.055 A 
ATOM     74  C   UNL A   1      35.746  32.778  29.422  1.00  0.00     0.041 A 
ATOM     75  F   UNL A   1      37.972  32.041  29.418  1.00  0.00    -0.206 F 
ATOM     76  C   UNL A   1      34.702  33.477  30.025  1.00  0.00     0.022 A 
BRANCH  73  77
ATOM     77  S   UNL A   1      33.576  34.978  32.073  1.00  0.00     0.124 S 
ATOM     78  O   UNL A   1      34.234  36.120  32.697  1.00  0.00    -0.237 OA
ATOM     79  O   UNL A   1      32.666  35.292  30.973  1.00  0.00    -0.237 OA
ATOM     80  O   UNL A   1      33.101  33.937  32.980  1.00  0.00    -0.744 OA
ENDBRANCH  73  77
ENDBRANCH  56  70
BRANCH  57  81
ATOM     81  C   UNL A   1      41.785  27.469  28.014  1.00  0.00     0.023 A 
ATOM     82  C   UNL A   1      42.561  26.390  28.438  1.00  0.00     0.031 A 
ATOM     83  C   UNL A   1      41.630  27.608  26.609  1.00  0.00     0.131 A 
ATOM     84  C   UNL A   1      43.359  25.680  27.533  1.00  0.00     0.055 A 
ATOM     85  C   UNL A   1      42.377  26.844  25.693  1.00  0.00     0.041 A 
ATOM     86  F   UNL A   1      40.836  28.553  26.082  1.00  0.00    -0.206 F 
ATOM     87  C   UNL A   1      43.298  25.914  26.161  1.00  0.00     0.022 A 
BRANCH  84  88
ATOM     88  S   UNL A   1      44.664  24.629  28.215  1.00  0.00     0.124 S 
ATOM     89  O   UNL A   1      44.144  24.278  29.533  1.00  0.00    -0.237 OA
ATOM     90  O   UNL A   1      44.693  23.547  27.237  1.00  0.00    -0.237 OA
ATOM     91  O   UNL A   1      45.832  25.506  28.228  1.00  0.00    -0.744 OA
ENDBRANCH  84  88
ENDBRANCH  57  81
BRANCH  69  92
ATOM     92  C   UNL A   1      41.898  28.680  33.953  1.00  0.00     0.023 A 
ATOM     93  C   UNL A   1      41.532  27.662  34.871  1.00  0.00     0.031 A 
ATOM     94  C   UNL A   1      43.294  28.908  33.834  1.00  0.00     0.131 A 
ATOM     95  C   UNL A   1      42.492  27.056  35.725  1.00  0.00     0.055 A 
ATOM     96  C   UNL A   1      44.254  28.215  34.602  1.00  0.00     0.041 A 
ATOM     97  F   UNL A   1      43.785  29.853  33.016  1.00  0.00    -0.206 F 
ATOM     98  C   UNL A   1      43.854  27.317  35.584  1.00  0.00     0.022 A 
BRANCH  95  99
ATOM     99  S   UNL A   1      41.985  26.089  37.193  1.00  0.00     0.124 S 
ATOM    100  O   UNL A   1      43.080  26.326  38.129  1.00  0.00    -0.237 OA
ATOM    101  O   UNL A   1      40.717  26.710  37.573  1.00  0.00    -0.237 OA
ATOM    102  O   UNL A   1      41.876  24.726  36.685  1.00  0.00    -0.744 OA
ENDBRANCH  95  99
ENDBRANCH  69  92
ENDBRANCH  43  44
ENDBRANCH  36  38
ENDBRANCH  35  36
ENDBRANCH  34  35
ENDBRANCH   1  34
TORSDOF 21
ENDMDL
