MODEL 1
REMARK VINA RESULT:     -12.1      0.000      0.000
REMARK SMILES CC[C@H](C)[C@H](NC(=O)[C@H](C(C)C)n1c(=O)[nH]c2ccccc2c1=O)C(=O)OCCOC(=O)c1ccc(-c2c3nc(c(-c4cc(S(=O)(=O)[O-])ccc4F)c4ccc([nH]4)c(-c4cc(S(=O)(=O)[O-])ccc4F)c4nc(c(-c5cc(S(=O)(=O)[O-])ccc5F)c5ccc2[nH]5)C=C4)C=C3)cc1
REMARK SMILES IDX 28 1 27 2 25 3 26 4 5 5 3 6 4 7 2 8 1 9 6 10 7 11 8 13 9 14
REMARK SMILES IDX 13 15 14 16 23 17 15 18 16 19 22 20 24 21 17 22 21 24 18 25
REMARK SMILES IDX 20 26 19 27 10 28 11 29 12 30 29 31 30 32 31 33 32 34 33 35
REMARK SMILES IDX 34 36 95 37 35 38 94 39 36 40 37 41 38 42 88 43 39 44 93 45
REMARK SMILES IDX 87 46 89 47 40 48 92 49 86 50 85 51 41 53 73 54 53 55 72 56
REMARK SMILES IDX 54 57 57 58 71 59 90 60 55 61 56 62 70 64 91 65 58 66 42 67
REMARK SMILES IDX 43 68 51 69 44 70 50 71 52 72 49 73 45 74 46 75 47 76 48 77
REMARK SMILES IDX 74 78 75 79 83 80 76 81 82 82 84 83 81 84 77 85 78 86 79 87
REMARK SMILES IDX 80 88 59 89 60 90 68 91 61 92 67 93 69 94 66 95 62 96 63 97
REMARK SMILES IDX 64 98 65 99
REMARK H PARENT 6 12 16 23 89 52 57 63
REMARK Flexibility Score: inf
ROOT
ATOM      1  C   UNL A   1      33.285  29.090  24.629  1.00  0.00     0.274 C 
ENDROOT
BRANCH   1   2
ATOM      2  O   UNL A   1      32.826  28.041  23.690  1.00  0.00    -0.461 OA
BRANCH   2   3
ATOM      3  C   UNL A   1      33.333  26.756  23.840  1.00  0.00     0.329 C 
ATOM      4  O   UNL A   1      34.281  26.515  24.585  1.00  0.00    -0.250 OA
BRANCH   3   5
ATOM      5  C   UNL A   1      32.450  25.585  23.167  1.00  0.00     0.195 C 
BRANCH   5   6
ATOM      6  C   UNL A   1      31.092  25.199  23.873  1.00  0.00     0.019 C 
ATOM      7  C   UNL A   1      30.545  23.829  23.391  1.00  0.00     0.010 C 
BRANCH   6   8
ATOM      8  C   UNL A   1      31.159  25.256  25.409  1.00  0.00     0.002 C 
ATOM      9  C   UNL A   1      29.822  24.991  26.098  1.00  0.00     0.004 C 
ENDBRANCH   6   8
ENDBRANCH   5   6
BRANCH   5  10
ATOM     10  N   UNL A   1      33.087  24.360  22.670  1.00  0.00    -0.341 N 
ATOM     11  C   UNL A   1      33.977  23.544  23.329  1.00  0.00     0.244 C 
ATOM     12  H   UNL A   1      32.847  24.089  21.754  1.00  0.00     0.164 HD
ATOM     13  O   UNL A   1      34.888  23.067  22.640  1.00  0.00    -0.273 OA
BRANCH  11  14
ATOM     14  C   UNL A   1      33.739  23.028  24.771  1.00  0.00     0.187 C 
BRANCH  14  15
ATOM     15  N   UNL A   1      33.538  21.520  24.973  1.00  0.00    -0.247 N 
ATOM     16  C   UNL A   1      32.249  21.145  25.361  1.00  0.00     0.329 A 
ATOM     17  C   UNL A   1      34.511  20.523  24.811  1.00  0.00     0.264 A 
ATOM     18  O   UNL A   1      31.344  21.945  25.612  1.00  0.00    -0.248 OA
ATOM     19  N   UNL A   1      31.963  19.812  25.469  1.00  0.00    -0.307 N 
ATOM     20  C   UNL A   1      34.098  19.118  24.704  1.00  0.00     0.064 A 
ATOM     21  O   UNL A   1      35.728  20.653  24.731  1.00  0.00    -0.268 OA
ATOM     22  C   UNL A   1      32.824  18.787  25.102  1.00  0.00     0.055 A 
ATOM     23  H   UNL A   1      31.082  19.561  25.832  1.00  0.00     0.171 HD
ATOM     24  C   UNL A   1      34.984  18.130  24.240  1.00  0.00     0.016 A 
ATOM     25  C   UNL A   1      32.427  17.449  25.106  1.00  0.00     0.027 A 
ATOM     26  C   UNL A   1      34.584  16.797  24.207  1.00  0.00     0.001 A 
ATOM     27  C   UNL A   1      33.311  16.455  24.658  1.00  0.00     0.002 A 
ENDBRANCH  14  15
BRANCH  14  28
ATOM     28  C   UNL A   1      34.610  23.891  25.728  1.00  0.00     0.016 C 
ATOM     29  C   UNL A   1      34.486  23.401  27.110  1.00  0.00     0.010 C 
ATOM     30  C   UNL A   1      36.141  23.900  25.470  1.00  0.00     0.010 C 
ENDBRANCH  14  28
ENDBRANCH  11  14
ENDBRANCH   5  10
ENDBRANCH   3   5
ENDBRANCH   2   3
ENDBRANCH   1   2
BRANCH   1  31
ATOM     31  C   UNL A   1      32.191  29.946  25.425  1.00  0.00     0.275 C 
BRANCH  31  32
ATOM     32  O   UNL A   1      32.486  30.194  26.863  1.00  0.00    -0.458 OA
BRANCH  32  33
ATOM     33  C   UNL A   1      33.279  31.277  27.218  1.00  0.00     0.338 C 
ATOM     34  O   UNL A   1      32.885  32.432  27.297  1.00  0.00    -0.246 OA
BRANCH  33  35
ATOM     35  C   UNL A   1      34.650  30.860  27.727  1.00  0.00     0.060 A 
ATOM     36  C   UNL A   1      35.020  29.540  27.965  1.00  0.00     0.016 A 
ATOM     37  C   UNL A   1      35.639  31.834  27.942  1.00  0.00     0.016 A 
ATOM     38  C   UNL A   1      36.289  29.239  28.537  1.00  0.00     0.010 A 
ATOM     39  C   UNL A   1      36.826  31.563  28.638  1.00  0.00     0.010 A 
ATOM     40  C   UNL A   1      37.186  30.250  28.942  1.00  0.00    -0.014 A 
BRANCH  40  41
ATOM     41  C   UNL A   1      38.514  29.967  29.583  1.00  0.00     0.031 A 
ATOM     42  C   UNL A   1      38.883  30.513  30.943  1.00  0.00     0.074 A 
ATOM     43  C   UNL A   1      39.485  29.318  28.905  1.00  0.00     0.049 A 
ATOM     44  N   UNL A   1      39.863  30.161  31.741  1.00  0.00    -0.248 NA
ATOM     45  C   UNL A   1      38.085  31.641  31.439  1.00  0.00     0.031 C 
ATOM     46  C   UNL A   1      39.401  28.895  27.509  1.00  0.00     0.029 A 
ATOM     47  N   UNL A   1      40.745  28.916  29.297  1.00  0.00    -0.354 N 
ATOM     48  C   UNL A   1      39.784  30.998  32.853  1.00  0.00     0.074 A 
ATOM     49  C   UNL A   1      38.695  31.917  32.588  1.00  0.00     0.031 C 
ATOM     50  C   UNL A   1      40.551  28.302  27.158  1.00  0.00     0.029 A 
ATOM     51  C   UNL A   1      41.429  28.224  28.325  1.00  0.00     0.049 A 
ATOM     52  H   UNL A   1      41.120  29.108  30.187  1.00  0.00     0.167 HD
ATOM     53  C   UNL A   1      40.535  30.979  33.986  1.00  0.00     0.034 A 
ATOM     54  C   UNL A   1      42.584  27.524  28.367  1.00  0.00     0.034 A 
ATOM     55  C   UNL A   1      41.627  30.054  34.211  1.00  0.00     0.049 A 
ATOM     56  C   UNL A   1      43.289  27.327  29.684  1.00  0.00     0.074 A 
ATOM     57  C   UNL A   1      42.323  29.813  35.386  1.00  0.00     0.029 A 
ATOM     58  N   UNL A   1      42.199  29.239  33.246  1.00  0.00    -0.354 N 
ATOM     59  N   UNL A   1      43.031  27.879  30.844  1.00  0.00    -0.248 NA
ATOM     60  C   UNL A   1      44.398  26.361  29.716  1.00  0.00     0.031 C 
ATOM     61  C   UNL A   1      43.356  28.911  35.114  1.00  0.00     0.029 A 
ATOM     62  C   UNL A   1      43.253  28.519  33.792  1.00  0.00     0.049 A 
ATOM     63  H   UNL A   1      41.902  29.180  32.309  1.00  0.00     0.167 HD
ATOM     64  C   UNL A   1      43.920  27.303  31.750  1.00  0.00     0.074 A 
ATOM     65  C   UNL A   1      44.709  26.345  31.007  1.00  0.00     0.031 C 
ATOM     66  C   UNL A   1      44.055  27.554  33.077  1.00  0.00     0.034 A 
BRANCH  53  67
ATOM     67  C   UNL A   1      40.186  31.909  35.137  1.00  0.00     0.023 A 
ATOM     68  C   UNL A   1      39.322  31.485  36.172  1.00  0.00     0.031 A 
ATOM     69  C   UNL A   1      40.527  33.273  35.092  1.00  0.00     0.131 A 
ATOM     70  C   UNL A   1      38.803  32.420  37.082  1.00  0.00     0.055 A 
ATOM     71  C   UNL A   1      40.049  34.189  36.031  1.00  0.00     0.041 A 
ATOM     72  F   UNL A   1      41.318  33.747  34.115  1.00  0.00    -0.206 F 
ATOM     73  C   UNL A   1      39.169  33.766  37.022  1.00  0.00     0.022 A 
BRANCH  70  74
ATOM     74  S   UNL A   1      37.555  31.953  38.318  1.00  0.00     0.124 S 
ATOM     75  O   UNL A   1      36.510  32.944  38.070  1.00  0.00    -0.237 OA
ATOM     76  O   UNL A   1      37.227  30.587  37.920  1.00  0.00    -0.237 OA
ATOM     77  O   UNL A   1      38.253  32.091  39.590  1.00  0.00    -0.744 OA
ENDBRANCH  70  74
ENDBRANCH  53  67
BRANCH  54  78
ATOM     78  C   UNL A   1      42.980  26.768  27.143  1.00  0.00     0.023 A 
ATOM     79  C   UNL A   1      42.571  25.439  26.941  1.00  0.00     0.031 A 
ATOM     80  C   UNL A   1      43.937  27.315  26.268  1.00  0.00     0.131 A 
ATOM     81  C   UNL A   1      43.171  24.681  25.926  1.00  0.00     0.055 A 
ATOM     82  C   UNL A   1      44.486  26.574  25.222  1.00  0.00     0.041 A 
ATOM     83  F   UNL A   1      44.374  28.571  26.445  1.00  0.00    -0.206 F 
ATOM     84  C   UNL A   1      44.117  25.243  25.060  1.00  0.00     0.022 A 
BRANCH  81  85
ATOM     85  S   UNL A   1      42.865  22.897  25.789  1.00  0.00     0.124 S 
ATOM     86  O   UNL A   1      41.442  22.808  26.106  1.00  0.00    -0.237 OA
ATOM     87  O   UNL A   1      43.218  22.643  24.395  1.00  0.00    -0.237 OA
ATOM     88  O   UNL A   1      43.769  22.317  26.776  1.00  0.00    -0.744 OA
ENDBRANCH  81  85
ENDBRANCH  54  78
BRANCH  66  89
ATOM     89  C   UNL A   1      45.104  26.801  33.867  1.00  0.00     0.023 A 
ATOM     90  C   UNL A   1      44.773  25.592  34.512  1.00  0.00     0.031 A 
ATOM     91  C   UNL A   1      46.379  27.345  34.104  1.00  0.00     0.131 A 
ATOM     92  C   UNL A   1      45.690  24.985  35.381  1.00  0.00     0.055 A 
ATOM     93  C   UNL A   1      47.306  26.714  34.937  1.00  0.00     0.041 A 
ATOM     94  F   UNL A   1      46.744  28.503  33.529  1.00  0.00    -0.206 F 
ATOM     95  C   UNL A   1      46.959  25.536  35.589  1.00  0.00     0.022 A 
BRANCH  92  96
ATOM     96  S   UNL A   1      45.251  23.501  36.329  1.00  0.00     0.124 S 
ATOM     97  O   UNL A   1      44.011  23.083  35.680  1.00  0.00    -0.237 OA
ATOM     98  O   UNL A   1      46.401  22.633  36.093  1.00  0.00    -0.237 OA
ATOM     99  O   UNL A   1      45.103  23.987  37.697  1.00  0.00    -0.744 OA
ENDBRANCH  92  96
ENDBRANCH  66  89
ENDBRANCH  40  41
ENDBRANCH  33  35
ENDBRANCH  32  33
ENDBRANCH  31  32
ENDBRANCH   1  31
TORSDOF 20
ENDMDL
MODEL 2
REMARK VINA RESULT:     -12.1      2.127      2.772
REMARK SMILES CC[C@H](C)[C@H](NC(=O)[C@H](C(C)C)n1c(=O)[nH]c2ccccc2c1=O)C(=O)OCCOC(=O)c1ccc(-c2c3nc(c(-c4cc(S(=O)(=O)[O-])ccc4F)c4ccc([nH]4)c(-c4cc(S(=O)(=O)[O-])ccc4F)c4nc(c(-c5cc(S(=O)(=O)[O-])ccc5F)c5ccc2[nH]5)C=C4)C=C3)cc1
REMARK SMILES IDX 28 1 27 2 25 3 26 4 5 5 3 6 4 7 2 8 1 9 6 10 7 11 8 13 9 14
REMARK SMILES IDX 13 15 14 16 23 17 15 18 16 19 22 20 24 21 17 22 21 24 18 25
REMARK SMILES IDX 20 26 19 27 10 28 11 29 12 30 29 31 30 32 31 33 32 34 33 35
REMARK SMILES IDX 34 36 95 37 35 38 94 39 36 40 37 41 38 42 88 43 39 44 93 45
REMARK SMILES IDX 87 46 89 47 40 48 92 49 86 50 85 51 41 53 73 54 53 55 72 56
REMARK SMILES IDX 54 57 57 58 71 59 90 60 55 61 56 62 70 64 91 65 58 66 42 67
REMARK SMILES IDX 43 68 51 69 44 70 50 71 52 72 49 73 45 74 46 75 47 76 48 77
REMARK SMILES IDX 74 78 75 79 83 80 76 81 82 82 84 83 81 84 77 85 78 86 79 87
REMARK SMILES IDX 80 88 59 89 60 90 68 91 61 92 67 93 69 94 66 95 62 96 63 97
REMARK SMILES IDX 64 98 65 99
REMARK H PARENT 6 12 16 23 89 52 57 63
REMARK Flexibility Score: inf
ROOT
ATOM      1  C   UNL A   1      31.947  29.592  25.729  1.00  0.00     0.274 C 
ENDROOT
BRANCH   1   2
ATOM      2  O   UNL A   1      31.808  28.250  25.117  1.00  0.00    -0.461 OA
BRANCH   2   3
ATOM      3  C   UNL A   1      31.402  27.197  25.928  1.00  0.00     0.329 C 
ATOM      4  O   UNL A   1      31.031  27.375  27.086  1.00  0.00    -0.250 OA
BRANCH   3   5
ATOM      5  C   UNL A   1      31.224  25.781  25.175  1.00  0.00     0.195 C 
BRANCH   5   6
ATOM      6  C   UNL A   1      30.305  25.747  23.893  1.00  0.00     0.019 C 
ATOM      7  C   UNL A   1      30.312  24.359  23.198  1.00  0.00     0.010 C 
BRANCH   6   8
ATOM      8  C   UNL A   1      28.866  26.225  24.155  1.00  0.00     0.002 C 
ATOM      9  C   UNL A   1      28.522  27.555  23.487  1.00  0.00     0.004 C 
ENDBRANCH   6   8
ENDBRANCH   5   6
BRANCH   5  10
ATOM     10  N   UNL A   1      31.006  24.548  25.943  1.00  0.00    -0.341 N 
ATOM     11  C   UNL A   1      31.541  23.303  25.709  1.00  0.00     0.244 C 
ATOM     12  H   UNL A   1      30.405  24.623  26.718  1.00  0.00     0.164 HD
ATOM     13  O   UNL A   1      30.789  22.343  25.916  1.00  0.00    -0.273 OA
BRANCH  11  14
ATOM     14  C   UNL A   1      33.052  23.069  25.454  1.00  0.00     0.187 C 
BRANCH  14  15
ATOM     15  N   UNL A   1      33.496  21.677  24.984  1.00  0.00    -0.247 N 
ATOM     16  C   UNL A   1      34.589  21.146  25.672  1.00  0.00     0.329 A 
ATOM     17  C   UNL A   1      32.917  20.924  23.951  1.00  0.00     0.264 A 
ATOM     18  O   UNL A   1      35.223  21.756  26.537  1.00  0.00    -0.248 OA
ATOM     19  N   UNL A   1      34.986  19.870  25.379  1.00  0.00    -0.307 N 
ATOM     20  C   UNL A   1      33.221  19.492  23.842  1.00  0.00     0.064 A 
ATOM     21  O   UNL A   1      32.142  21.300  23.078  1.00  0.00    -0.268 OA
ATOM     22  C   UNL A   1      34.309  19.007  24.529  1.00  0.00     0.055 A 
ATOM     23  H   UNL A   1      35.813  19.539  25.802  1.00  0.00     0.171 HD
ATOM     24  C   UNL A   1      32.445  18.642  23.035  1.00  0.00     0.016 A 
ATOM     25  C   UNL A   1      34.685  17.672  24.374  1.00  0.00     0.027 A 
ATOM     26  C   UNL A   1      32.793  17.301  22.901  1.00  0.00     0.001 A 
ATOM     27  C   UNL A   1      33.925  16.821  23.558  1.00  0.00     0.002 A 
ENDBRANCH  14  15
BRANCH  14  28
ATOM     28  C   UNL A   1      33.635  24.380  24.852  1.00  0.00     0.016 C 
ATOM     29  C   UNL A   1      34.696  24.911  25.723  1.00  0.00     0.010 C 
ATOM     30  C   UNL A   1      34.311  24.275  23.459  1.00  0.00     0.010 C 
ENDBRANCH  14  28
ENDBRANCH  11  14
ENDBRANCH   5  10
ENDBRANCH   3   5
ENDBRANCH   2   3
ENDBRANCH   1   2
BRANCH   1  31
ATOM     31  C   UNL A   1      33.399  30.081  26.196  1.00  0.00     0.275 C 
BRANCH  31  32
ATOM     32  O   UNL A   1      33.531  30.427  27.638  1.00  0.00    -0.458 OA
BRANCH  32  33
ATOM     33  C   UNL A   1      34.326  31.503  28.009  1.00  0.00     0.338 C 
ATOM     34  O   UNL A   1      33.943  32.663  28.067  1.00  0.00    -0.246 OA
BRANCH  33  35
ATOM     35  C   UNL A   1      35.675  31.073  28.565  1.00  0.00     0.060 A 
ATOM     36  C   UNL A   1      36.869  31.739  28.303  1.00  0.00     0.016 A 
ATOM     37  C   UNL A   1      35.752  29.969  29.430  1.00  0.00     0.016 A 
ATOM     38  C   UNL A   1      38.105  31.216  28.779  1.00  0.00     0.010 A 
ATOM     39  C   UNL A   1      36.970  29.368  29.777  1.00  0.00     0.010 A 
ATOM     40  C   UNL A   1      38.181  29.987  29.469  1.00  0.00    -0.014 A 
BRANCH  40  41
ATOM     41  C   UNL A   1      39.472  29.390  29.949  1.00  0.00     0.031 A 
ATOM     42  C   UNL A   1      40.200  29.920  31.163  1.00  0.00     0.074 A 
ATOM     43  C   UNL A   1      40.103  28.435  29.231  1.00  0.00     0.049 A 
ATOM     44  N   UNL A   1      41.170  29.370  31.855  1.00  0.00    -0.248 NA
ATOM     45  C   UNL A   1      39.833  31.267  31.616  1.00  0.00     0.031 C 
ATOM     46  C   UNL A   1      39.672  27.938  27.927  1.00  0.00     0.029 A 
ATOM     47  N   UNL A   1      41.255  27.723  29.492  1.00  0.00    -0.354 N 
ATOM     48  C   UNL A   1      41.509  30.284  32.850  1.00  0.00     0.074 A 
ATOM     49  C   UNL A   1      40.680  31.452  32.624  1.00  0.00     0.031 C 
ATOM     50  C   UNL A   1      40.542  27.013  27.498  1.00  0.00     0.029 A 
ATOM     51  C   UNL A   1      41.551  26.785  28.531  1.00  0.00     0.049 A 
ATOM     52  H   UNL A   1      41.813  27.874  30.289  1.00  0.00     0.167 HD
ATOM     53  C   UNL A   1      42.409  30.147  33.861  1.00  0.00     0.034 A 
ATOM     54  C   UNL A   1      42.465  25.790  28.502  1.00  0.00     0.034 A 
ATOM     55  C   UNL A   1      43.232  28.969  34.049  1.00  0.00     0.049 A 
ATOM     56  C   UNL A   1      43.303  25.511  29.721  1.00  0.00     0.074 A 
ATOM     57  C   UNL A   1      44.027  28.639  35.136  1.00  0.00     0.029 A 
ATOM     58  N   UNL A   1      43.391  27.947  33.126  1.00  0.00    -0.354 N 
ATOM     59  N   UNL A   1      43.404  26.209  30.826  1.00  0.00    -0.248 NA
ATOM     60  C   UNL A   1      44.099  24.273  29.723  1.00  0.00     0.031 C 
ATOM     61  C   UNL A   1      44.716  27.459  34.842  1.00  0.00     0.029 A 
ATOM     62  C   UNL A   1      44.288  27.004  33.608  1.00  0.00     0.049 A 
ATOM     63  H   UNL A   1      42.934  27.897  32.255  1.00  0.00     0.167 HD
ATOM     64  C   UNL A   1      44.246  25.481  31.666  1.00  0.00     0.074 A 
ATOM     65  C   UNL A   1      44.609  24.277  30.950  1.00  0.00     0.031 C 
ATOM     66  C   UNL A   1      44.667  25.792  32.918  1.00  0.00     0.034 A 
BRANCH  53  67
ATOM     67  C   UNL A   1      42.523  31.231  34.921  1.00  0.00     0.023 A 
ATOM     68  C   UNL A   1      41.514  31.400  35.893  1.00  0.00     0.031 A 
ATOM     69  C   UNL A   1      43.514  32.226  34.830  1.00  0.00     0.131 A 
ATOM     70  C   UNL A   1      41.497  32.551  36.698  1.00  0.00     0.055 A 
ATOM     71  C   UNL A   1      43.522  33.343  35.668  1.00  0.00     0.041 A 
ATOM     72  F   UNL A   1      44.485  32.141  33.905  1.00  0.00    -0.206 F 
ATOM     73  C   UNL A   1      42.501  33.518  36.596  1.00  0.00     0.022 A 
BRANCH  70  74
ATOM     74  S   UNL A   1      40.125  32.897  37.838  1.00  0.00     0.124 S 
ATOM     75  O   UNL A   1      40.723  32.565  39.129  1.00  0.00    -0.237 OA
ATOM     76  O   UNL A   1      39.888  34.320  37.609  1.00  0.00    -0.237 OA
ATOM     77  O   UNL A   1      39.066  32.000  37.393  1.00  0.00    -0.744 OA
ENDBRANCH  70  74
ENDBRANCH  53  67
BRANCH  54  78
ATOM     78  C   UNL A   1      42.429  24.852  27.342  1.00  0.00     0.023 A 
ATOM     79  C   UNL A   1      41.599  23.717  27.346  1.00  0.00     0.031 A 
ATOM     80  C   UNL A   1      43.375  24.986  26.310  1.00  0.00     0.131 A 
ATOM     81  C   UNL A   1      41.784  22.727  26.371  1.00  0.00     0.055 A 
ATOM     82  C   UNL A   1      43.512  24.027  25.307  1.00  0.00     0.041 A 
ATOM     83  F   UNL A   1      44.204  26.042  26.287  1.00  0.00    -0.206 F 
ATOM     84  C   UNL A   1      42.726  22.880  25.346  1.00  0.00     0.022 A 
BRANCH  81  85
ATOM     85  S   UNL A   1      40.919  21.135  26.482  1.00  0.00     0.124 S 
ATOM     86  O   UNL A   1      39.647  21.435  25.832  1.00  0.00    -0.237 OA
ATOM     87  O   UNL A   1      41.818  20.258  25.736  1.00  0.00    -0.237 OA
ATOM     88  O   UNL A   1      40.851  20.882  27.916  1.00  0.00    -0.744 OA
ENDBRANCH  81  85
ENDBRANCH  54  78
BRANCH  66  89
ATOM     89  C   UNL A   1      45.592  24.840  33.644  1.00  0.00     0.023 A 
ATOM     90  C   UNL A   1      46.988  25.016  33.574  1.00  0.00     0.031 A 
ATOM     91  C   UNL A   1      45.106  23.683  34.280  1.00  0.00     0.131 A 
ATOM     92  C   UNL A   1      47.847  24.042  34.101  1.00  0.00     0.055 A 
ATOM     93  C   UNL A   1      45.965  22.735  34.842  1.00  0.00     0.041 A 
ATOM     94  F   UNL A   1      43.785  23.454  34.363  1.00  0.00    -0.206 F 
ATOM     95  C   UNL A   1      47.342  22.906  34.743  1.00  0.00     0.022 A 
BRANCH  92  96
ATOM     96  S   UNL A   1      49.648  24.169  33.912  1.00  0.00     0.124 S 
ATOM     97  O   UNL A   1      50.013  22.800  33.557  1.00  0.00    -0.237 OA
ATOM     98  O   UNL A   1      49.776  25.147  32.835  1.00  0.00    -0.237 OA
ATOM     99  O   UNL A   1      50.110  24.615  35.223  1.00  0.00    -0.744 OA
ENDBRANCH  92  96
ENDBRANCH  66  89
ENDBRANCH  40  41
ENDBRANCH  33  35
ENDBRANCH  32  33
ENDBRANCH  31  32
ENDBRANCH   1  31
TORSDOF 20
ENDMDL
MODEL 3
REMARK VINA RESULT:     -11.9      2.061      2.773
REMARK SMILES CC[C@H](C)[C@H](NC(=O)[C@H](C(C)C)n1c(=O)[nH]c2ccccc2c1=O)C(=O)OCCOC(=O)c1ccc(-c2c3nc(c(-c4cc(S(=O)(=O)[O-])ccc4F)c4ccc([nH]4)c(-c4cc(S(=O)(=O)[O-])ccc4F)c4nc(c(-c5cc(S(=O)(=O)[O-])ccc5F)c5ccc2[nH]5)C=C4)C=C3)cc1
REMARK SMILES IDX 28 1 27 2 25 3 26 4 5 5 3 6 4 7 2 8 1 9 6 10 7 11 8 13 9 14
REMARK SMILES IDX 13 15 14 16 23 17 15 18 16 19 22 20 24 21 17 22 21 24 18 25
REMARK SMILES IDX 20 26 19 27 10 28 11 29 12 30 29 31 30 32 31 33 32 34 33 35
REMARK SMILES IDX 34 36 95 37 35 38 94 39 36 40 37 41 38 42 88 43 39 44 93 45
REMARK SMILES IDX 87 46 89 47 40 48 92 49 86 50 85 51 41 53 73 54 53 55 72 56
REMARK SMILES IDX 54 57 57 58 71 59 90 60 55 61 56 62 70 64 91 65 58 66 42 67
REMARK SMILES IDX 43 68 51 69 44 70 50 71 52 72 49 73 45 74 46 75 47 76 48 77
REMARK SMILES IDX 74 78 75 79 83 80 76 81 82 82 84 83 81 84 77 85 78 86 79 87
REMARK SMILES IDX 80 88 59 89 60 90 68 91 61 92 67 93 69 94 66 95 62 96 63 97
REMARK SMILES IDX 64 98 65 99
REMARK H PARENT 6 12 16 23 89 52 57 63
REMARK Flexibility Score: inf
ROOT
ATOM      1  C   UNL A   1      33.222  29.452  26.897  1.00  0.00     0.274 C 
ENDROOT
BRANCH   1   2
ATOM      2  O   UNL A   1      32.136  28.716  26.211  1.00  0.00    -0.461 OA
BRANCH   2   3
ATOM      3  C   UNL A   1      31.630  27.572  26.818  1.00  0.00     0.329 C 
ATOM      4  O   UNL A   1      31.061  27.612  27.906  1.00  0.00    -0.250 OA
BRANCH   3   5
ATOM      5  C   UNL A   1      31.630  26.248  25.895  1.00  0.00     0.195 C 
BRANCH   5   6
ATOM      6  C   UNL A   1      30.938  26.346  24.480  1.00  0.00     0.019 C 
ATOM      7  C   UNL A   1      29.389  26.364  24.581  1.00  0.00     0.010 C 
BRANCH   6   8
ATOM      8  C   UNL A   1      31.447  27.519  23.626  1.00  0.00     0.002 C 
ATOM      9  C   UNL A   1      30.766  27.637  22.263  1.00  0.00     0.004 C 
ENDBRANCH   6   8
ENDBRANCH   5   6
BRANCH   5  10
ATOM     10  N   UNL A   1      31.332  24.933  26.475  1.00  0.00    -0.341 N 
ATOM     11  C   UNL A   1      31.725  23.699  26.014  1.00  0.00     0.244 C 
ATOM     12  H   UNL A   1      30.784  24.936  27.293  1.00  0.00     0.164 HD
ATOM     13  O   UNL A   1      30.892  22.789  26.121  1.00  0.00    -0.273 OA
BRANCH  11  14
ATOM     14  C   UNL A   1      33.189  23.373  25.620  1.00  0.00     0.187 C 
BRANCH  14  15
ATOM     15  N   UNL A   1      33.498  21.963  25.099  1.00  0.00    -0.247 N 
ATOM     16  C   UNL A   1      34.469  21.268  25.825  1.00  0.00     0.329 A 
ATOM     17  C   UNL A   1      32.910  21.340  23.988  1.00  0.00     0.264 A 
ATOM     18  O   UNL A   1      35.107  21.752  26.763  1.00  0.00    -0.248 OA
ATOM     19  N   UNL A   1      34.733  19.970  25.483  1.00  0.00    -0.307 N 
ATOM     20  C   UNL A   1      33.049  19.889  23.815  1.00  0.00     0.064 A 
ATOM     21  O   UNL A   1      32.249  21.850  23.091  1.00  0.00    -0.268 OA
ATOM     22  C   UNL A   1      34.020  19.240  24.542  1.00  0.00     0.055 A 
ATOM     23  H   UNL A   1      35.482  19.521  25.938  1.00  0.00     0.171 HD
ATOM     24  C   UNL A   1      32.238  19.181  22.911  1.00  0.00     0.016 A 
ATOM     25  C   UNL A   1      34.247  17.879  24.333  1.00  0.00     0.027 A 
ATOM     26  C   UNL A   1      32.434  17.816  22.721  1.00  0.00     0.001 A 
ATOM     27  C   UNL A   1      33.452  17.169  23.421  1.00  0.00     0.002 A 
ENDBRANCH  14  15
BRANCH  14  28
ATOM     28  C   UNL A   1      33.798  24.653  24.980  1.00  0.00     0.016 C 
ATOM     29  C   UNL A   1      35.116  24.939  25.571  1.00  0.00     0.010 C 
ATOM     30  C   UNL A   1      34.073  24.615  23.453  1.00  0.00     0.010 C 
ENDBRANCH  14  28
ENDBRANCH  11  14
ENDBRANCH   5  10
ENDBRANCH   3   5
ENDBRANCH   2   3
ENDBRANCH   1   2
BRANCH   1  31
ATOM     31  C   UNL A   1      32.982  30.982  27.304  1.00  0.00     0.275 C 
BRANCH  31  32
ATOM     32  O   UNL A   1      34.210  31.789  27.536  1.00  0.00    -0.458 OA
BRANCH  32  33
ATOM     33  C   UNL A   1      34.655  31.993  28.836  1.00  0.00     0.338 C 
ATOM     34  O   UNL A   1      34.021  32.578  29.704  1.00  0.00    -0.246 OA
BRANCH  33  35
ATOM     35  C   UNL A   1      35.923  31.216  29.153  1.00  0.00     0.060 A 
ATOM     36  C   UNL A   1      35.966  30.120  30.010  1.00  0.00     0.016 A 
ATOM     37  C   UNL A   1      37.131  31.571  28.531  1.00  0.00     0.016 A 
ATOM     38  C   UNL A   1      37.210  29.507  30.334  1.00  0.00     0.010 A 
ATOM     39  C   UNL A   1      38.371  31.072  28.955  1.00  0.00     0.010 A 
ATOM     40  C   UNL A   1      38.439  30.015  29.862  1.00  0.00    -0.014 A 
BRANCH  40  41
ATOM     41  C   UNL A   1      39.769  29.415  30.216  1.00  0.00     0.031 A 
ATOM     42  C   UNL A   1      40.616  29.949  31.348  1.00  0.00     0.074 A 
ATOM     43  C   UNL A   1      40.323  28.454  29.444  1.00  0.00     0.049 A 
ATOM     44  N   UNL A   1      41.647  29.400  31.944  1.00  0.00    -0.248 NA
ATOM     45  C   UNL A   1      40.299  31.300  31.827  1.00  0.00     0.031 C 
ATOM     46  C   UNL A   1      39.763  27.951  28.192  1.00  0.00     0.029 A 
ATOM     47  N   UNL A   1      41.493  27.739  29.594  1.00  0.00    -0.354 N 
ATOM     48  C   UNL A   1      42.087  30.318  32.895  1.00  0.00     0.074 A 
ATOM     49  C   UNL A   1      41.243  31.488  32.745  1.00  0.00     0.031 C 
ATOM     50  C   UNL A   1      40.584  27.020  27.684  1.00  0.00     0.029 A 
ATOM     51  C   UNL A   1      41.689  26.794  28.614  1.00  0.00     0.049 A 
ATOM     52  H   UNL A   1      42.128  27.892  30.331  1.00  0.00     0.167 HD
ATOM     53  C   UNL A   1      43.081  30.183  33.813  1.00  0.00     0.034 A 
ATOM     54  C   UNL A   1      42.592  25.796  28.500  1.00  0.00     0.034 A 
ATOM     55  C   UNL A   1      43.915  29.004  33.925  1.00  0.00     0.049 A 
ATOM     56  C   UNL A   1      43.547  25.520  29.633  1.00  0.00     0.074 A 
ATOM     57  C   UNL A   1      44.813  28.676  34.930  1.00  0.00     0.029 A 
ATOM     58  N   UNL A   1      43.979  27.975  32.997  1.00  0.00    -0.354 N 
ATOM     59  N   UNL A   1      43.759  26.224  30.718  1.00  0.00    -0.248 NA
ATOM     60  C   UNL A   1      44.335  24.280  29.563  1.00  0.00     0.031 C 
ATOM     61  C   UNL A   1      45.466  27.493  34.576  1.00  0.00     0.029 A 
ATOM     62  C   UNL A   1      44.916  27.032  33.393  1.00  0.00     0.049 A 
ATOM     63  H   UNL A   1      43.438  27.922  32.176  1.00  0.00     0.167 HD
ATOM     64  C   UNL A   1      44.677  25.498  31.474  1.00  0.00     0.074 A 
ATOM     65  C   UNL A   1      44.964  24.289  30.733  1.00  0.00     0.031 C 
ATOM     66  C   UNL A   1      45.221  25.815  32.676  1.00  0.00     0.034 A 
BRANCH  53  67
ATOM     67  C   UNL A   1      43.304  31.273  34.849  1.00  0.00     0.023 A 
ATOM     68  C   UNL A   1      42.434  31.408  35.953  1.00  0.00     0.031 A 
ATOM     69  C   UNL A   1      44.237  32.302  34.625  1.00  0.00     0.131 A 
ATOM     70  C   UNL A   1      42.489  32.560  36.756  1.00  0.00     0.055 A 
ATOM     71  C   UNL A   1      44.322  33.421  35.457  1.00  0.00     0.041 A 
ATOM     72  F   UNL A   1      45.072  32.250  33.573  1.00  0.00    -0.206 F 
ATOM     73  C   UNL A   1      43.434  33.561  36.517  1.00  0.00     0.022 A 
BRANCH  70  74
ATOM     74  S   UNL A   1      41.278  32.859  38.076  1.00  0.00     0.124 S 
ATOM     75  O   UNL A   1      40.016  32.611  37.382  1.00  0.00    -0.237 OA
ATOM     76  O   UNL A   1      41.651  31.854  39.068  1.00  0.00    -0.237 OA
ATOM     77  O   UNL A   1      41.514  34.245  38.461  1.00  0.00    -0.744 OA
ENDBRANCH  70  74
ENDBRANCH  53  67
BRANCH  54  78
ATOM     78  C   UNL A   1      42.438  24.852  27.356  1.00  0.00     0.023 A 
ATOM     79  C   UNL A   1      41.565  23.752  27.427  1.00  0.00     0.031 A 
ATOM     80  C   UNL A   1      43.317  24.938  26.260  1.00  0.00     0.131 A 
ATOM     81  C   UNL A   1      41.642  22.749  26.452  1.00  0.00     0.055 A 
ATOM     82  C   UNL A   1      43.346  23.966  25.261  1.00  0.00     0.041 A 
ATOM     83  F   UNL A   1      44.186  25.957  26.170  1.00  0.00    -0.206 F 
ATOM     84  C   UNL A   1      42.518  22.854  25.365  1.00  0.00     0.022 A 
BRANCH  81  85
ATOM     85  S   UNL A   1      40.721  21.196  26.638  1.00  0.00     0.124 S 
ATOM     86  O   UNL A   1      41.524  20.269  25.845  1.00  0.00    -0.237 OA
ATOM     87  O   UNL A   1      40.770  20.995  28.084  1.00  0.00    -0.237 OA
ATOM     88  O   UNL A   1      39.403  21.510  26.098  1.00  0.00    -0.744 OA
ENDBRANCH  81  85
ENDBRANCH  54  78
BRANCH  66  89
ATOM     89  C   UNL A   1      46.211  24.863  33.313  1.00  0.00     0.023 A 
ATOM     90  C   UNL A   1      45.752  23.763  34.066  1.00  0.00     0.031 A 
ATOM     91  C   UNL A   1      47.593  25.120  33.300  1.00  0.00     0.131 A 
ATOM     92  C   UNL A   1      46.659  22.983  34.795  1.00  0.00     0.055 A 
ATOM     93  C   UNL A   1      48.499  24.315  33.994  1.00  0.00     0.041 A 
ATOM     94  F   UNL A   1      48.086  26.164  32.614  1.00  0.00    -0.206 F 
ATOM     95  C   UNL A   1      48.033  23.248  34.756  1.00  0.00     0.022 A 
BRANCH  92  96
ATOM     96  S   UNL A   1      46.093  21.642  35.879  1.00  0.00     0.124 S 
ATOM     97  O   UNL A   1      45.125  20.954  35.029  1.00  0.00    -0.237 OA
ATOM     98  O   UNL A   1      47.330  20.909  36.134  1.00  0.00    -0.237 OA
ATOM     99  O   UNL A   1      45.526  22.335  37.031  1.00  0.00    -0.744 OA
ENDBRANCH  92  96
ENDBRANCH  66  89
ENDBRANCH  40  41
ENDBRANCH  33  35
ENDBRANCH  32  33
ENDBRANCH  31  32
ENDBRANCH   1  31
TORSDOF 20
ENDMDL
