MODEL 1
REMARK VINA RESULT:     -11.9      0.000      0.000
REMARK SMILES CC(C)Cc1ccc(S(=O)(=O)Nc2cnc(N3CCCC3)c(C(=O)OCCOC(=O)c3ccc(-c4c5nc(c(-c6cc(S(=O)(=O)[O-])ccc6F)c6ccc([nH]6)c(-c6cc(S(=O)(=O)[O-])ccc6F)c6nc(c(-c7cc(S(=O)(=O)[O-])ccc7F)c7ccc4[nH]7)C=C6)C=C5)cc3)c2)cc1
REMARK SMILES IDX 26 1 25 2 23 3 24 4 22 5 13 6 14 7 94 8 15 9 16 10 12 11
REMARK SMILES IDX 9 13 10 14 11 15 8 16 5 17 6 18 96 19 7 20 95 21 4 22 2 23
REMARK SMILES IDX 1 24 3 25 17 26 18 27 21 28 19 29 20 30 27 31 28 32 29 33
REMARK SMILES IDX 30 34 31 35 32 36 93 37 33 38 92 39 34 40 35 41 36 42 86 43
REMARK SMILES IDX 37 44 91 45 85 46 87 47 38 48 90 49 84 50 83 51 39 53 71 54
REMARK SMILES IDX 51 55 70 56 52 57 55 58 69 59 88 60 53 61 54 62 68 64 89 65
REMARK SMILES IDX 56 66 40 67 41 68 49 69 42 70 48 71 50 72 47 73 43 74 44 75
REMARK SMILES IDX 45 76 46 77 72 78 73 79 81 80 74 81 80 82 82 83 79 84 75 85
REMARK SMILES IDX 76 86 77 87 78 88 57 89 58 90 66 91 59 92 65 93 67 94 64 95
REMARK SMILES IDX 60 96 61 97 62 98 63 99
REMARK H PARENT 12 12 87 52 55 63
REMARK Flexibility Score: inf
ROOT
ATOM      1  C   UNL A   1      31.926  29.822  26.672  1.00  0.00     0.275 C 
ENDROOT
BRANCH   1   2
ATOM      2  O   UNL A   1      31.402  29.326  25.422  1.00  0.00    -0.458 OA
BRANCH   2   3
ATOM      3  C   UNL A   1      31.318  27.977  25.342  1.00  0.00     0.342 C 
ATOM      4  O   UNL A   1      30.933  27.244  26.240  1.00  0.00    -0.246 OA
BRANCH   3   5
ATOM      5  C   UNL A   1      31.902  27.472  24.089  1.00  0.00     0.104 A 
ATOM      6  C   UNL A   1      33.463  25.786  23.436  1.00  0.00     0.068 A 
ATOM      7  C   UNL A   1      32.739  25.691  22.253  1.00  0.00     0.140 A 
ATOM      8  C   UNL A   1      33.114  26.792  24.307  1.00  0.00     0.048 A 
ATOM      9  N   UNL A   1      31.654  26.446  21.957  1.00  0.00    -0.236 NA
ATOM     10  C   UNL A   1      31.188  27.312  22.883  1.00  0.00     0.143 A 
BRANCH   6  11
ATOM     11  N   UNL A   1      34.479  24.831  23.719  1.00  0.00    -0.278 N 
ATOM     12  H   UNL A   1      35.180  24.696  23.042  1.00  0.00     0.180 HD
BRANCH  11  13
ATOM     13  S   UNL A   1      34.571  23.911  25.132  1.00  0.00     0.261 S 
ATOM     14  O   UNL A   1      33.689  24.556  26.086  1.00  0.00    -0.201 OA
ATOM     15  O   UNL A   1      35.989  23.801  25.410  1.00  0.00    -0.201 OA
BRANCH  13  16
ATOM     16  C   UNL A   1      33.976  22.241  24.944  1.00  0.00     0.087 A 
ATOM     17  C   UNL A   1      33.227  19.525  24.866  1.00  0.00    -0.048 A 
ATOM     18  C   UNL A   1      34.576  19.884  24.804  1.00  0.00     0.005 A 
ATOM     19  C   UNL A   1      32.263  20.543  24.919  1.00  0.00     0.005 A 
ATOM     20  C   UNL A   1      34.947  21.230  24.856  1.00  0.00     0.022 A 
ATOM     21  C   UNL A   1      32.628  21.896  24.917  1.00  0.00     0.022 A 
BRANCH  17  22
ATOM     22  C   UNL A   1      32.823  18.066  24.886  1.00  0.00     0.038 C 
BRANCH  22  23
ATOM     23  C   UNL A   1      33.966  17.091  24.536  1.00  0.00    -0.013 C 
ATOM     24  C   UNL A   1      33.830  15.766  25.289  1.00  0.00     0.008 C 
ATOM     25  C   UNL A   1      34.001  16.831  23.028  1.00  0.00     0.008 C 
ENDBRANCH  22  23
ENDBRANCH  17  22
ENDBRANCH  13  16
ENDBRANCH  11  13
ENDBRANCH   6  11
BRANCH  10  26
ATOM     26  N   UNL A   1      29.990  27.907  22.552  1.00  0.00    -0.356 N 
ATOM     27  C   UNL A   1      29.863  29.778  22.042  1.00  0.00     0.118 C 
ATOM     28  C   UNL A   1      28.434  27.275  23.339  1.00  0.00     0.118 C 
ATOM     29  C   UNL A   1      27.853  30.396  22.792  1.00  0.00     0.023 C 
ATOM     30  C   UNL A   1      27.134  28.702  23.598  1.00  0.00     0.023 C 
ENDBRANCH  10  26
ENDBRANCH   3   5
ENDBRANCH   2   3
ENDBRANCH   1   2
BRANCH   1  31
ATOM     31  C   UNL A   1      31.635  31.314  26.772  1.00  0.00     0.275 C 
BRANCH  31  32
ATOM     32  O   UNL A   1      32.881  32.017  26.621  1.00  0.00    -0.458 OA
BRANCH  32  33
ATOM     33  C   UNL A   1      33.073  33.009  27.513  1.00  0.00     0.338 C 
ATOM     34  O   UNL A   1      32.327  33.933  27.785  1.00  0.00    -0.246 OA
BRANCH  33  35
ATOM     35  C   UNL A   1      34.308  32.764  28.254  1.00  0.00     0.060 A 
ATOM     36  C   UNL A   1      35.673  33.792  28.043  1.00  0.00     0.016 A 
ATOM     37  C   UNL A   1      34.601  31.285  28.959  1.00  0.00     0.016 A 
ATOM     38  C   UNL A   1      37.486  33.120  28.619  1.00  0.00     0.010 A 
ATOM     39  C   UNL A   1      36.119  30.740  29.508  1.00  0.00     0.010 A 
ATOM     40  C   UNL A   1      37.602  31.561  29.379  1.00  0.00    -0.014 A 
BRANCH  40  41
ATOM     41  C   UNL A   1      38.843  31.044  30.075  1.00  0.00     0.031 A 
ATOM     42  C   UNL A   1      39.638  29.888  29.497  1.00  0.00     0.074 A 
ATOM     43  C   UNL A   1      39.192  31.491  31.307  1.00  0.00     0.049 A 
ATOM     44  N   UNL A   1      40.559  29.145  30.063  1.00  0.00    -0.248 NA
ATOM     45  C   UNL A   1      39.371  29.521  28.098  1.00  0.00     0.031 C 
ATOM     46  C   UNL A   1      38.633  32.647  31.992  1.00  0.00     0.029 A 
ATOM     47  N   UNL A   1      40.082  31.007  32.245  1.00  0.00    -0.354 N 
ATOM     48  C   UNL A   1      40.967  28.223  29.101  1.00  0.00     0.074 A 
ATOM     49  C   UNL A   1      40.134  28.449  27.939  1.00  0.00     0.031 C 
ATOM     50  C   UNL A   1      39.095  32.746  33.237  1.00  0.00     0.029 A 
ATOM     51  C   UNL A   1      40.006  31.651  33.467  1.00  0.00     0.049 A 
ATOM     52  H   UNL A   1      40.712  30.272  32.062  1.00  0.00     0.167 HD
ATOM     53  C   UNL A   1      41.970  27.309  29.163  1.00  0.00     0.034 A 
ATOM     54  C   UNL A   1      40.583  31.435  34.662  1.00  0.00     0.034 A 
ATOM     55  C   UNL A   1      42.825  27.131  30.316  1.00  0.00     0.049 A 
ATOM     56  C   UNL A   1      41.628  30.375  34.740  1.00  0.00     0.074 A 
ATOM     57  C   UNL A   1      43.910  26.281  30.463  1.00  0.00     0.029 A 
ATOM     58  N   UNL A   1      42.696  27.811  31.522  1.00  0.00    -0.354 N 
ATOM     59  N   UNL A   1      42.011  29.545  33.800  1.00  0.00    -0.248 NA
ATOM     60  C   UNL A   1      42.363  30.265  36.000  1.00  0.00     0.031 C 
ATOM     61  C   UNL A   1      44.381  26.388  31.777  1.00  0.00     0.029 A 
ATOM     62  C   UNL A   1      43.647  27.363  32.430  1.00  0.00     0.049 A 
ATOM     63  H   UNL A   1      42.027  28.509  31.705  1.00  0.00     0.167 HD
ATOM     64  C   UNL A   1      43.070  28.837  34.343  1.00  0.00     0.074 A 
ATOM     65  C   UNL A   1      43.272  29.356  35.684  1.00  0.00     0.031 C 
ATOM     66  C   UNL A   1      43.814  27.856  33.776  1.00  0.00     0.034 A 
BRANCH  53  67
ATOM     67  C   UNL A   1      42.189  26.412  27.960  1.00  0.00     0.023 A 
ATOM     68  C   UNL A   1      41.548  25.167  27.825  1.00  0.00     0.031 A 
ATOM     69  C   UNL A   1      43.060  26.810  26.928  1.00  0.00     0.131 A 
ATOM     70  C   UNL A   1      41.843  24.337  26.731  1.00  0.00     0.055 A 
ATOM     71  C   UNL A   1      43.287  26.015  25.802  1.00  0.00     0.041 A 
ATOM     72  F   UNL A   1      43.717  27.979  27.001  1.00  0.00    -0.206 F 
ATOM     73  C   UNL A   1      42.688  24.763  25.705  1.00  0.00     0.022 A 
BRANCH  70  74
ATOM     74  S   UNL A   1      41.221  22.632  26.738  1.00  0.00     0.124 S 
ATOM     75  O   UNL A   1      39.775  22.847  26.737  1.00  0.00    -0.237 OA
ATOM     76  O   UNL A   1      41.787  22.083  25.511  1.00  0.00    -0.237 OA
ATOM     77  O   UNL A   1      41.759  22.073  27.976  1.00  0.00    -0.744 OA
ENDBRANCH  70  74
ENDBRANCH  53  67
BRANCH  54  78
ATOM     78  C   UNL A   1      40.213  32.278  35.839  1.00  0.00     0.023 A 
ATOM     79  C   UNL A   1      39.138  31.937  36.673  1.00  0.00     0.031 A 
ATOM     80  C   UNL A   1      40.963  33.425  36.170  1.00  0.00     0.131 A 
ATOM     81  C   UNL A   1      38.816  32.752  37.773  1.00  0.00     0.055 A 
ATOM     82  C   UNL A   1      40.669  34.203  37.293  1.00  0.00     0.041 A 
ATOM     83  F   UNL A   1      42.019  33.785  35.424  1.00  0.00    -0.206 F 
ATOM     84  C   UNL A   1      39.581  33.874  38.095  1.00  0.00     0.022 A 
BRANCH  81  85
ATOM     85  S   UNL A   1      37.331  32.361  38.737  1.00  0.00     0.124 S 
ATOM     86  O   UNL A   1      36.274  32.917  37.901  1.00  0.00    -0.237 OA
ATOM     87  O   UNL A   1      37.395  30.905  38.809  1.00  0.00    -0.237 OA
ATOM     88  O   UNL A   1      37.557  33.057  40.003  1.00  0.00    -0.744 OA
ENDBRANCH  81  85
ENDBRANCH  54  78
BRANCH  66  89
ATOM     89  C   UNL A   1      44.916  27.291  34.628  1.00  0.00     0.023 A 
ATOM     90  C   UNL A   1      46.210  27.838  34.591  1.00  0.00     0.031 A 
ATOM     91  C   UNL A   1      44.692  26.163  35.433  1.00  0.00     0.131 A 
ATOM     92  C   UNL A   1      47.252  27.203  35.278  1.00  0.00     0.055 A 
ATOM     93  C   UNL A   1      45.718  25.583  36.179  1.00  0.00     0.041 A 
ATOM     94  F   UNL A   1      43.476  25.596  35.494  1.00  0.00    -0.206 F 
ATOM     95  C   UNL A   1      47.012  26.092  36.089  1.00  0.00     0.022 A 
BRANCH  92  96
ATOM     96  S   UNL A   1      48.946  27.776  34.984  1.00  0.00     0.124 S 
ATOM     97  O   UNL A   1      49.511  27.744  36.329  1.00  0.00    -0.237 OA
ATOM     98  O   UNL A   1      49.459  26.775  34.053  1.00  0.00    -0.237 OA
ATOM     99  O   UNL A   1      48.762  29.111  34.418  1.00  0.00    -0.744 OA
ENDBRANCH  92  96
ENDBRANCH  66  89
ENDBRANCH  40  41
ENDBRANCH  33  35
ENDBRANCH  32  33
ENDBRANCH  31  32
ENDBRANCH   1  31
TORSDOF 20
ENDMDL
MODEL 2
REMARK VINA RESULT:     -11.4      4.096      8.912
REMARK SMILES CC(C)Cc1ccc(S(=O)(=O)Nc2cnc(N3CCCC3)c(C(=O)OCCOC(=O)c3ccc(-c4c5nc(c(-c6cc(S(=O)(=O)[O-])ccc6F)c6ccc([nH]6)c(-c6cc(S(=O)(=O)[O-])ccc6F)c6nc(c(-c7cc(S(=O)(=O)[O-])ccc7F)c7ccc4[nH]7)C=C6)C=C5)cc3)c2)cc1
REMARK SMILES IDX 26 1 25 2 23 3 24 4 22 5 13 6 14 7 94 8 15 9 16 10 12 11
REMARK SMILES IDX 9 13 10 14 11 15 8 16 5 17 6 18 96 19 7 20 95 21 4 22 2 23
REMARK SMILES IDX 1 24 3 25 17 26 18 27 21 28 19 29 20 30 27 31 28 32 29 33
REMARK SMILES IDX 30 34 31 35 32 36 93 37 33 38 92 39 34 40 35 41 36 42 86 43
REMARK SMILES IDX 37 44 91 45 85 46 87 47 38 48 90 49 84 50 83 51 39 53 71 54
REMARK SMILES IDX 51 55 70 56 52 57 55 58 69 59 88 60 53 61 54 62 68 64 89 65
REMARK SMILES IDX 56 66 40 67 41 68 49 69 42 70 48 71 50 72 47 73 43 74 44 75
REMARK SMILES IDX 45 76 46 77 72 78 73 79 81 80 74 81 80 82 82 83 79 84 75 85
REMARK SMILES IDX 76 86 77 87 78 88 57 89 58 90 66 91 59 92 65 93 67 94 64 95
REMARK SMILES IDX 60 96 61 97 62 98 63 99
REMARK H PARENT 12 12 87 52 55 63
REMARK Flexibility Score: inf
ROOT
ATOM      1  C   UNL A   1      36.877  20.512  24.968  1.00  0.00     0.275 C 
ENDROOT
BRANCH   1   2
ATOM      2  O   UNL A   1      35.460  20.511  25.246  1.00  0.00    -0.458 OA
BRANCH   2   3
ATOM      3  C   UNL A   1      34.773  21.527  24.674  1.00  0.00     0.342 C 
ATOM      4  O   UNL A   1      35.171  22.205  23.739  1.00  0.00    -0.246 OA
BRANCH   3   5
ATOM      5  C   UNL A   1      33.541  21.833  25.418  1.00  0.00     0.104 A 
ATOM      6  C   UNL A   1      32.321  23.782  26.067  1.00  0.00     0.068 A 
ATOM      7  C   UNL A   1      31.179  22.993  25.988  1.00  0.00     0.140 A 
ATOM      8  C   UNL A   1      33.534  23.150  25.911  1.00  0.00     0.048 A 
ATOM      9  N   UNL A   1      31.178  21.679  25.662  1.00  0.00    -0.236 NA
ATOM     10  C   UNL A   1      32.346  21.087  25.325  1.00  0.00     0.143 A 
BRANCH   6  11
ATOM     11  N   UNL A   1      32.196  25.187  26.251  1.00  0.00    -0.278 N 
ATOM     12  H   UNL A   1      31.637  25.502  26.997  1.00  0.00     0.180 HD
BRANCH  11  13
ATOM     13  S   UNL A   1      32.936  26.356  25.282  1.00  0.00     0.261 S 
ATOM     14  O   UNL A   1      33.736  25.626  24.318  1.00  0.00    -0.201 OA
ATOM     15  O   UNL A   1      33.568  27.264  26.217  1.00  0.00    -0.201 OA
BRANCH  13  16
ATOM     16  C   UNL A   1      31.787  27.341  24.340  1.00  0.00     0.087 A 
ATOM     17  C   UNL A   1      30.168  29.128  22.879  1.00  0.00    -0.048 A 
ATOM     18  C   UNL A   1      30.669  29.496  24.130  1.00  0.00     0.005 A 
ATOM     19  C   UNL A   1      30.449  27.841  22.396  1.00  0.00     0.005 A 
ATOM     20  C   UNL A   1      31.482  28.616  24.848  1.00  0.00     0.022 A 
ATOM     21  C   UNL A   1      31.220  26.935  23.136  1.00  0.00     0.022 A 
BRANCH  17  22
ATOM     22  C   UNL A   1      29.348  30.105  22.064  1.00  0.00     0.038 C 
BRANCH  22  23
ATOM     23  C   UNL A   1      27.878  30.224  22.516  1.00  0.00    -0.013 C 
ATOM     24  C   UNL A   1      27.336  28.891  23.036  1.00  0.00     0.008 C 
ATOM     25  C   UNL A   1      27.739  31.298  23.598  1.00  0.00     0.008 C 
ENDBRANCH  22  23
ENDBRANCH  17  22
ENDBRANCH  13  16
ENDBRANCH  11  13
ENDBRANCH   6  11
BRANCH  10  26
ATOM     26  N   UNL A   1      32.215  19.801  24.850  1.00  0.00    -0.356 N 
ATOM     27  C   UNL A   1      32.857  18.256  25.839  1.00  0.00     0.118 C 
ATOM     28  C   UNL A   1      32.215  19.524  23.016  1.00  0.00     0.118 C 
ATOM     29  C   UNL A   1      33.465  16.819  24.241  1.00  0.00     0.023 C 
ATOM     30  C   UNL A   1      33.015  17.810  22.552  1.00  0.00     0.023 C 
ENDBRANCH  10  26
ENDBRANCH   3   5
ENDBRANCH   2   3
ENDBRANCH   1   2
BRANCH   1  31
ATOM     31  C   UNL A   1      37.558  21.525  25.878  1.00  0.00     0.275 C 
BRANCH  31  32
ATOM     32  O   UNL A   1      38.935  21.623  25.476  1.00  0.00    -0.458 OA
BRANCH  32  33
ATOM     33  C   UNL A   1      39.822  21.485  26.482  1.00  0.00     0.338 C 
ATOM     34  O   UNL A   1      40.184  20.460  27.032  1.00  0.00    -0.246 OA
BRANCH  33  35
ATOM     35  C   UNL A   1      40.431  22.781  26.774  1.00  0.00     0.060 A 
ATOM     36  C   UNL A   1      41.399  22.994  28.183  1.00  0.00     0.016 A 
ATOM     37  C   UNL A   1      39.877  24.169  26.043  1.00  0.00     0.016 A 
ATOM     38  C   UNL A   1      41.741  24.870  28.842  1.00  0.00     0.010 A 
ATOM     39  C   UNL A   1      40.220  25.757  26.558  1.00  0.00     0.010 A 
ATOM     40  C   UNL A   1      41.118  26.210  27.928  1.00  0.00    -0.014 A 
BRANCH  40  41
ATOM     41  C   UNL A   1      41.503  27.655  28.166  1.00  0.00     0.031 A 
ATOM     42  C   UNL A   1      42.961  28.074  28.224  1.00  0.00     0.074 A 
ATOM     43  C   UNL A   1      40.570  28.584  28.487  1.00  0.00     0.049 A 
ATOM     44  N   UNL A   1      43.489  29.190  28.667  1.00  0.00    -0.248 NA
ATOM     45  C   UNL A   1      43.956  27.120  27.711  1.00  0.00     0.031 C 
ATOM     46  C   UNL A   1      39.127  28.421  28.394  1.00  0.00     0.029 A 
ATOM     47  N   UNL A   1      40.680  29.860  29.004  1.00  0.00    -0.354 N 
ATOM     48  C   UNL A   1      44.867  29.066  28.500  1.00  0.00     0.074 A 
ATOM     49  C   UNL A   1      45.099  27.732  27.989  1.00  0.00     0.031 C 
ATOM     50  C   UNL A   1      38.483  29.471  28.902  1.00  0.00     0.029 A 
ATOM     51  C   UNL A   1      39.467  30.415  29.372  1.00  0.00     0.049 A 
ATOM     52  H   UNL A   1      41.539  30.330  29.102  1.00  0.00     0.167 HD
ATOM     53  C   UNL A   1      45.840  29.991  28.708  1.00  0.00     0.034 A 
ATOM     54  C   UNL A   1      39.127  31.551  30.008  1.00  0.00     0.034 A 
ATOM     55  C   UNL A   1      45.585  31.336  29.172  1.00  0.00     0.049 A 
ATOM     56  C   UNL A   1      40.215  32.527  30.302  1.00  0.00     0.074 A 
ATOM     57  C   UNL A   1      46.487  32.373  29.354  1.00  0.00     0.029 A 
ATOM     58  N   UNL A   1      44.337  31.838  29.529  1.00  0.00    -0.354 N 
ATOM     59  N   UNL A   1      41.502  32.389  30.099  1.00  0.00    -0.248 NA
ATOM     60  C   UNL A   1      39.808  33.825  30.840  1.00  0.00     0.031 C 
ATOM     61  C   UNL A   1      45.802  33.466  29.897  1.00  0.00     0.029 A 
ATOM     62  C   UNL A   1      44.457  33.147  29.977  1.00  0.00     0.049 A 
ATOM     63  H   UNL A   1      43.493  31.336  29.473  1.00  0.00     0.167 HD
ATOM     64  C   UNL A   1      42.062  33.608  30.445  1.00  0.00     0.074 A 
ATOM     65  C   UNL A   1      40.965  34.468  30.850  1.00  0.00     0.031 C 
ATOM     66  C   UNL A   1      43.365  33.982  30.418  1.00  0.00     0.034 A 
BRANCH  53  67
ATOM     67  C   UNL A   1      47.277  29.578  28.455  1.00  0.00     0.023 A 
ATOM     68  C   UNL A   1      48.063  28.954  29.442  1.00  0.00     0.031 A 
ATOM     69  C   UNL A   1      47.875  29.817  27.203  1.00  0.00     0.131 A 
ATOM     70  C   UNL A   1      49.413  28.662  29.187  1.00  0.00     0.055 A 
ATOM     71  C   UNL A   1      49.195  29.449  26.929  1.00  0.00     0.041 A 
ATOM     72  F   UNL A   1      47.187  30.424  26.223  1.00  0.00    -0.206 F 
ATOM     73  C   UNL A   1      49.977  28.881  27.929  1.00  0.00     0.022 A 
BRANCH  70  74
ATOM     74  S   UNL A   1      50.464  28.123  30.565  1.00  0.00     0.124 S 
ATOM     75  O   UNL A   1      50.089  29.074  31.609  1.00  0.00    -0.237 OA
ATOM     76  O   UNL A   1      50.035  26.745  30.771  1.00  0.00    -0.237 OA
ATOM     77  O   UNL A   1      51.821  28.282  30.047  1.00  0.00    -0.744 OA
ENDBRANCH  70  74
ENDBRANCH  53  67
BRANCH  54  78
ATOM     78  C   UNL A   1      37.697  31.825  30.344  1.00  0.00     0.023 A 
ATOM     79  C   UNL A   1      36.785  32.250  29.366  1.00  0.00     0.031 A 
ATOM     80  C   UNL A   1      37.211  31.625  31.652  1.00  0.00     0.131 A 
ATOM     81  C   UNL A   1      35.447  32.499  29.716  1.00  0.00     0.055 A 
ATOM     82  C   UNL A   1      35.869  31.825  31.982  1.00  0.00     0.041 A 
ATOM     83  F   UNL A   1      38.032  31.192  32.622  1.00  0.00    -0.206 F 
ATOM     84  C   UNL A   1      34.980  32.278  31.013  1.00  0.00     0.022 A 
BRANCH  81  85
ATOM     85  S   UNL A   1      34.336  33.189  28.459  1.00  0.00     0.124 S 
ATOM     86  O   UNL A   1      33.446  34.015  29.265  1.00  0.00    -0.237 OA
ATOM     87  O   UNL A   1      35.269  33.904  27.595  1.00  0.00    -0.237 OA
ATOM     88  O   UNL A   1      33.721  32.004  27.864  1.00  0.00    -0.744 OA
ENDBRANCH  81  85
ENDBRANCH  54  78
BRANCH  66  89
ATOM     89  C   UNL A   1      43.652  35.395  30.844  1.00  0.00     0.023 A 
ATOM     90  C   UNL A   1      43.787  35.725  32.203  1.00  0.00     0.031 A 
ATOM     91  C   UNL A   1      43.728  36.427  29.896  1.00  0.00     0.131 A 
ATOM     92  C   UNL A   1      43.904  37.068  32.582  1.00  0.00     0.055 A 
ATOM     93  C   UNL A   1      43.926  37.754  30.275  1.00  0.00     0.041 A 
ATOM     94  F   UNL A   1      43.594  36.165  28.585  1.00  0.00    -0.206 F 
ATOM     95  C   UNL A   1      43.997  38.083  31.627  1.00  0.00     0.022 A 
BRANCH  92  96
ATOM     96  S   UNL A   1      43.799  37.473  34.346  1.00  0.00     0.124 S 
ATOM     97  O   UNL A   1      43.545  36.164  34.939  1.00  0.00    -0.237 OA
ATOM     98  O   UNL A   1      45.112  38.051  34.614  1.00  0.00    -0.237 OA
ATOM     99  O   UNL A   1      42.682  38.413  34.414  1.00  0.00    -0.744 OA
ENDBRANCH  92  96
ENDBRANCH  66  89
ENDBRANCH  40  41
ENDBRANCH  33  35
ENDBRANCH  32  33
ENDBRANCH  31  32
ENDBRANCH   1  31
TORSDOF 20
ENDMDL
MODEL 3
REMARK VINA RESULT:     -11.4      2.742      7.907
REMARK SMILES CC(C)Cc1ccc(S(=O)(=O)Nc2cnc(N3CCCC3)c(C(=O)OCCOC(=O)c3ccc(-c4c5nc(c(-c6cc(S(=O)(=O)[O-])ccc6F)c6ccc([nH]6)c(-c6cc(S(=O)(=O)[O-])ccc6F)c6nc(c(-c7cc(S(=O)(=O)[O-])ccc7F)c7ccc4[nH]7)C=C6)C=C5)cc3)c2)cc1
REMARK SMILES IDX 26 1 25 2 23 3 24 4 22 5 13 6 14 7 94 8 15 9 16 10 12 11
REMARK SMILES IDX 9 13 10 14 11 15 8 16 5 17 6 18 96 19 7 20 95 21 4 22 2 23
REMARK SMILES IDX 1 24 3 25 17 26 18 27 21 28 19 29 20 30 27 31 28 32 29 33
REMARK SMILES IDX 30 34 31 35 32 36 93 37 33 38 92 39 34 40 35 41 36 42 86 43
REMARK SMILES IDX 37 44 91 45 85 46 87 47 38 48 90 49 84 50 83 51 39 53 71 54
REMARK SMILES IDX 51 55 70 56 52 57 55 58 69 59 88 60 53 61 54 62 68 64 89 65
REMARK SMILES IDX 56 66 40 67 41 68 49 69 42 70 48 71 50 72 47 73 43 74 44 75
REMARK SMILES IDX 45 76 46 77 72 78 73 79 81 80 74 81 80 82 82 83 79 84 75 85
REMARK SMILES IDX 76 86 77 87 78 88 57 89 58 90 66 91 59 92 65 93 67 94 64 95
REMARK SMILES IDX 60 96 61 97 62 98 63 99
REMARK H PARENT 12 12 87 52 55 63
REMARK Flexibility Score: inf
ROOT
ATOM      1  C   UNL A   1      32.695  29.042  26.643  1.00  0.00     0.275 C 
ENDROOT
BRANCH   1   2
ATOM      2  O   UNL A   1      32.963  29.186  25.232  1.00  0.00    -0.458 OA
BRANCH   2   3
ATOM      3  C   UNL A   1      31.865  29.136  24.442  1.00  0.00     0.342 C 
ATOM      4  O   UNL A   1      30.799  29.681  24.687  1.00  0.00    -0.246 OA
BRANCH   3   5
ATOM      5  C   UNL A   1      32.050  28.208  23.315  1.00  0.00     0.104 A 
ATOM      6  C   UNL A   1      33.238  26.180  22.890  1.00  0.00     0.068 A 
ATOM      7  C   UNL A   1      32.219  25.867  21.997  1.00  0.00     0.140 A 
ATOM      8  C   UNL A   1      33.217  27.435  23.453  1.00  0.00     0.048 A 
ATOM      9  N   UNL A   1      31.159  26.668  21.735  1.00  0.00    -0.236 NA
ATOM     10  C   UNL A   1      31.029  27.826  22.420  1.00  0.00     0.143 A 
BRANCH   6  11
ATOM     11  N   UNL A   1      34.213  25.197  23.220  1.00  0.00    -0.278 N 
ATOM     12  H   UNL A   1      34.968  25.077  22.600  1.00  0.00     0.180 HD
BRANCH  11  13
ATOM     13  S   UNL A   1      34.169  24.220  24.596  1.00  0.00     0.261 S 
ATOM     14  O   UNL A   1      33.135  24.775  25.447  1.00  0.00    -0.201 OA
ATOM     15  O   UNL A   1      35.542  24.168  25.056  1.00  0.00    -0.201 OA
BRANCH  13  16
ATOM     16  C   UNL A   1      33.697  22.532  24.265  1.00  0.00     0.087 A 
ATOM     17  C   UNL A   1      32.947  19.824  24.043  1.00  0.00    -0.048 A 
ATOM     18  C   UNL A   1      34.038  20.188  24.836  1.00  0.00     0.005 A 
ATOM     19  C   UNL A   1      32.273  20.826  23.329  1.00  0.00     0.005 A 
ATOM     20  C   UNL A   1      34.402  21.532  24.957  1.00  0.00     0.022 A 
ATOM     21  C   UNL A   1      32.666  22.169  23.405  1.00  0.00     0.022 A 
BRANCH  17  22
ATOM     22  C   UNL A   1      32.503  18.378  23.967  1.00  0.00     0.038 C 
BRANCH  22  23
ATOM     23  C   UNL A   1      33.546  17.372  24.494  1.00  0.00    -0.013 C 
ATOM     24  C   UNL A   1      32.958  16.460  25.574  1.00  0.00     0.008 C 
ATOM     25  C   UNL A   1      34.097  16.525  23.344  1.00  0.00     0.008 C 
ENDBRANCH  22  23
ENDBRANCH  17  22
ENDBRANCH  13  16
ENDBRANCH  11  13
ENDBRANCH   6  11
BRANCH  10  26
ATOM     26  N   UNL A   1      29.838  28.484  22.202  1.00  0.00    -0.356 N 
ATOM     27  C   UNL A   1      29.764  30.330  21.601  1.00  0.00     0.118 C 
ATOM     28  C   UNL A   1      28.357  28.002  23.208  1.00  0.00     0.118 C 
ATOM     29  C   UNL A   1      27.905  31.123  22.551  1.00  0.00     0.023 C 
ATOM     30  C   UNL A   1      27.190  29.526  23.537  1.00  0.00     0.023 C 
ENDBRANCH  10  26
ENDBRANCH   3   5
ENDBRANCH   2   3
ENDBRANCH   1   2
BRANCH   1  31
ATOM     31  C   UNL A   1      34.001  29.191  27.411  1.00  0.00     0.275 C 
BRANCH  31  32
ATOM     32  O   UNL A   1      34.440  30.554  27.275  1.00  0.00    -0.458 OA
BRANCH  32  33
ATOM     33  C   UNL A   1      34.959  31.089  28.398  1.00  0.00     0.338 C 
ATOM     34  O   UNL A   1      34.506  31.990  29.082  1.00  0.00    -0.246 OA
BRANCH  33  35
ATOM     35  C   UNL A   1      36.141  30.330  28.796  1.00  0.00     0.060 A 
ATOM     36  C   UNL A   1      36.166  29.467  30.287  1.00  0.00     0.016 A 
ATOM     37  C   UNL A   1      37.619  30.617  28.087  1.00  0.00     0.016 A 
ATOM     38  C   UNL A   1      37.949  28.921  31.057  1.00  0.00     0.010 A 
ATOM     39  C   UNL A   1      39.123  30.099  28.699  1.00  0.00     0.010 A 
ATOM     40  C   UNL A   1      39.395  29.267  30.157  1.00  0.00    -0.014 A 
BRANCH  40  41
ATOM     41  C   UNL A   1      40.760  28.704  30.490  1.00  0.00     0.031 A 
ATOM     42  C   UNL A   1      41.660  29.387  31.502  1.00  0.00     0.074 A 
ATOM     43  C   UNL A   1      41.280  27.668  29.785  1.00  0.00     0.049 A 
ATOM     44  N   UNL A   1      42.941  29.213  31.729  1.00  0.00    -0.248 NA
ATOM     45  C   UNL A   1      41.043  30.391  32.382  1.00  0.00     0.031 C 
ATOM     46  C   UNL A   1      40.560  26.817  28.851  1.00  0.00     0.029 A 
ATOM     47  N   UNL A   1      42.562  27.162  29.704  1.00  0.00    -0.354 N 
ATOM     48  C   UNL A   1      43.280  30.089  32.759  1.00  0.00     0.074 A 
ATOM     49  C   UNL A   1      42.087  30.851  33.057  1.00  0.00     0.031 C 
ATOM     50  C   UNL A   1      41.382  25.972  28.228  1.00  0.00     0.029 A 
ATOM     51  C   UNL A   1      42.719  26.207  28.714  1.00  0.00     0.049 A 
ATOM     52  H   UNL A   1      43.296  27.452  30.293  1.00  0.00     0.167 HD
ATOM     53  C   UNL A   1      44.459  30.213  33.423  1.00  0.00     0.034 A 
ATOM     54  C   UNL A   1      43.788  25.557  28.220  1.00  0.00     0.034 A 
ATOM     55  C   UNL A   1      45.627  29.407  33.144  1.00  0.00     0.049 A 
ATOM     56  C   UNL A   1      45.095  25.760  28.907  1.00  0.00     0.074 A 
ATOM     57  C   UNL A   1      46.850  29.404  33.797  1.00  0.00     0.029 A 
ATOM     58  N   UNL A   1      45.724  28.460  32.130  1.00  0.00    -0.354 N 
ATOM     59  N   UNL A   1      45.371  26.571  29.899  1.00  0.00    -0.248 NA
ATOM     60  C   UNL A   1      46.209  24.921  28.466  1.00  0.00     0.031 C 
ATOM     61  C   UNL A   1      47.706  28.520  33.129  1.00  0.00     0.029 A 
ATOM     62  C   UNL A   1      46.998  27.907  32.109  1.00  0.00     0.049 A 
ATOM     63  H   UNL A   1      44.994  28.217  31.515  1.00  0.00     0.167 HD
ATOM     64  C   UNL A   1      46.689  26.309  30.234  1.00  0.00     0.074 A 
ATOM     65  C   UNL A   1      47.140  25.251  29.348  1.00  0.00     0.031 C 
ATOM     66  C   UNL A   1      47.450  26.885  31.197  1.00  0.00     0.034 A 
BRANCH  53  67
ATOM     67  C   UNL A   1      44.556  31.271  34.504  1.00  0.00     0.023 A 
ATOM     68  C   UNL A   1      44.205  31.011  35.842  1.00  0.00     0.031 A 
ATOM     69  C   UNL A   1      45.006  32.567  34.189  1.00  0.00     0.131 A 
ATOM     70  C   UNL A   1      44.236  32.046  36.792  1.00  0.00     0.055 A 
ATOM     71  C   UNL A   1      45.114  33.570  35.157  1.00  0.00     0.041 A 
ATOM     72  F   UNL A   1      45.342  32.887  32.930  1.00  0.00    -0.206 F 
ATOM     73  C   UNL A   1      44.714  33.316  36.465  1.00  0.00     0.022 A 
BRANCH  70  74
ATOM     74  S   UNL A   1      43.510  31.749  38.428  1.00  0.00     0.124 S 
ATOM     75  O   UNL A   1      43.765  33.022  39.099  1.00  0.00    -0.237 OA
ATOM     76  O   UNL A   1      42.117  31.461  38.109  1.00  0.00    -0.237 OA
ATOM     77  O   UNL A   1      44.278  30.617  38.945  1.00  0.00    -0.744 OA
ENDBRANCH  70  74
ENDBRANCH  53  67
BRANCH  54  78
ATOM     78  C   UNL A   1      43.633  24.629  27.059  1.00  0.00     0.023 A 
ATOM     79  C   UNL A   1      42.937  23.417  27.181  1.00  0.00     0.031 A 
ATOM     80  C   UNL A   1      44.150  24.965  25.792  1.00  0.00     0.131 A 
ATOM     81  C   UNL A   1      42.808  22.566  26.069  1.00  0.00     0.055 A 
ATOM     82  C   UNL A   1      43.976  24.139  24.678  1.00  0.00     0.041 A 
ATOM     83  F   UNL A   1      44.802  26.124  25.609  1.00  0.00    -0.206 F 
ATOM     84  C   UNL A   1      43.312  22.924  24.818  1.00  0.00     0.022 A 
BRANCH  81  85
ATOM     85  S   UNL A   1      42.032  20.945  26.303  1.00  0.00     0.124 S 
ATOM     86  O   UNL A   1      42.796  20.110  25.384  1.00  0.00    -0.237 OA
ATOM     87  O   UNL A   1      42.258  20.707  27.725  1.00  0.00    -0.237 OA
ATOM     88  O   UNL A   1      40.640  21.178  25.925  1.00  0.00    -0.744 OA
ENDBRANCH  81  85
ENDBRANCH  54  78
BRANCH  66  89
ATOM     89  C   UNL A   1      48.855  26.363  31.323  1.00  0.00     0.023 A 
ATOM     90  C   UNL A   1      49.147  25.272  32.159  1.00  0.00     0.031 A 
ATOM     91  C   UNL A   1      49.916  26.997  30.658  1.00  0.00     0.131 A 
ATOM     92  C   UNL A   1      50.479  24.900  32.376  1.00  0.00     0.055 A 
ATOM     93  C   UNL A   1      51.235  26.570  30.816  1.00  0.00     0.041 A 
ATOM     94  F   UNL A   1      49.691  28.051  29.858  1.00  0.00    -0.206 F 
ATOM     95  C   UNL A   1      51.524  25.527  31.693  1.00  0.00     0.022 A 
BRANCH  92  96
ATOM     96  S   UNL A   1      50.829  23.675  33.664  1.00  0.00     0.124 S 
ATOM     97  O   UNL A   1      50.432  22.431  33.011  1.00  0.00    -0.237 OA
ATOM     98  O   UNL A   1      52.261  23.851  33.885  1.00  0.00    -0.237 OA
ATOM     99  O   UNL A   1      49.974  24.094  34.774  1.00  0.00    -0.744 OA
ENDBRANCH  92  96
ENDBRANCH  66  89
ENDBRANCH  40  41
ENDBRANCH  33  35
ENDBRANCH  32  33
ENDBRANCH  31  32
ENDBRANCH   1  31
TORSDOF 20
ENDMDL
