MODEL 1
REMARK VINA RESULT:     -11.8      0.000      0.000
REMARK SMILES O=C(Cc1ccc(F)c(F)c1)NC1(C(=O)OCCOC(=O)c2ccc(-c3c4nc(c(-c5cc(S(=O)(=O)[O-])ccc5F)c5ccc([nH]5)c(-c5cc(S(=O)(=O)[O-])ccc5F)c5nc(c(-c6cc(S(=O)(=O)[O-])ccc6F)c6ccc3[nH]6)C=C5)C=C4)cc2)CCCC1
REMARK SMILES IDX 17 1 16 2 14 3 15 4 13 5 85 6 88 7 86 8 87 9 12 10 1 11 2 12
REMARK SMILES IDX 3 14 4 15 5 16 11 17 6 18 9 19 7 20 10 21 8 22 18 23 19 24
REMARK SMILES IDX 20 25 21 26 22 27 23 28 84 29 24 30 83 31 25 32 26 33 27 34
REMARK SMILES IDX 77 35 28 36 82 37 76 38 78 39 29 40 81 41 75 42 74 43 30 45
REMARK SMILES IDX 62 46 42 47 61 48 43 49 46 50 60 51 79 52 44 53 45 54 59 56
REMARK SMILES IDX 80 57 47 58 31 59 32 60 40 61 33 62 39 63 41 64 38 65 34 66
REMARK SMILES IDX 35 67 36 68 37 69 63 70 64 71 72 72 65 73 71 74 73 75 70 76
REMARK SMILES IDX 66 77 67 78 68 79 69 80 48 81 49 82 57 83 50 84 56 85 58 86
REMARK SMILES IDX 55 87 51 88 52 89 53 90 54 91
REMARK H PARENT 12 13 78 44 46 55
REMARK Flexibility Score: inf
ROOT
ATOM      1  C   UNL A   1      36.100  20.626  25.218  1.00  0.00     0.274 C 
ENDROOT
BRANCH   1   2
ATOM      2  O   UNL A   1      35.899  21.859  24.495  1.00  0.00    -0.460 OA
BRANCH   2   3
ATOM      3  C   UNL A   1      35.067  22.786  25.064  1.00  0.00     0.331 C 
ATOM      4  O   UNL A   1      35.274  23.267  26.171  1.00  0.00    -0.249 OA
BRANCH   3   5
ATOM      5  C   UNL A   1      33.766  23.025  24.207  1.00  0.00     0.138 C 
ATOM      6  C   UNL A   1      34.102  24.094  23.147  1.00  0.00     0.040 C 
ATOM      7  C   UNL A   1      32.658  23.747  25.023  1.00  0.00     0.040 C 
ATOM      8  C   UNL A   1      34.017  25.427  23.889  1.00  0.00     0.003 C 
ATOM      9  C   UNL A   1      32.944  25.244  24.953  1.00  0.00     0.003 C 
BRANCH   5  10
ATOM     10  N   UNL A   1      33.111  21.840  23.580  1.00  0.00    -0.340 N 
ATOM     11  O   UNL A   1      32.185  20.785  25.375  1.00  0.00    -0.275 OA
ATOM     12  C   UNL A   1      32.481  20.779  24.184  1.00  0.00     0.225 C 
ATOM     13  H   UNL A   1      33.133  21.816  22.596  1.00  0.00     0.164 HD
BRANCH  12  14
ATOM     14  C   UNL A   1      32.200  19.527  23.315  1.00  0.00     0.135 C 
BRANCH  14  15
ATOM     15  C   UNL A   1      32.724  18.178  23.790  1.00  0.00    -0.036 A 
ATOM     16  C   UNL A   1      33.796  17.539  23.135  1.00  0.00     0.007 A 
ATOM     17  C   UNL A   1      32.153  17.525  24.889  1.00  0.00     0.046 A 
ATOM     18  C   UNL A   1      34.403  16.397  23.671  1.00  0.00     0.043 A 
ATOM     19  C   UNL A   1      32.741  16.371  25.405  1.00  0.00     0.159 A 
ATOM     20  C   UNL A   1      33.879  15.831  24.823  1.00  0.00     0.158 A 
ATOM     21  F   UNL A   1      32.207  15.808  26.498  1.00  0.00    -0.204 F 
ATOM     22  F   UNL A   1      34.469  14.760  25.366  1.00  0.00    -0.204 F 
ENDBRANCH  14  15
ENDBRANCH  12  14
ENDBRANCH   5  10
ENDBRANCH   3   5
ENDBRANCH   2   3
ENDBRANCH   1   2
BRANCH   1  23
ATOM     23  C   UNL A   1      37.518  20.092  25.004  1.00  0.00     0.275 C 
BRANCH  23  24
ATOM     24  O   UNL A   1      38.486  21.122  25.278  1.00  0.00    -0.458 OA
BRANCH  24  25
ATOM     25  C   UNL A   1      39.506  20.733  26.084  1.00  0.00     0.338 C 
ATOM     26  O   UNL A   1      40.051  19.648  26.098  1.00  0.00    -0.246 OA
BRANCH  25  27
ATOM     27  C   UNL A   1      40.059  21.916  26.771  1.00  0.00     0.060 A 
ATOM     28  C   UNL A   1      39.542  23.131  26.355  1.00  0.00     0.016 A 
ATOM     29  C   UNL A   1      41.063  21.887  27.745  1.00  0.00     0.016 A 
ATOM     30  C   UNL A   1      40.011  24.307  26.925  1.00  0.00     0.010 A 
ATOM     31  C   UNL A   1      41.557  23.099  28.290  1.00  0.00     0.010 A 
ATOM     32  C   UNL A   1      41.032  24.333  27.877  1.00  0.00    -0.014 A 
BRANCH  32  33
ATOM     33  C   UNL A   1      41.539  25.684  28.287  1.00  0.00     0.031 A 
ATOM     34  C   UNL A   1      42.934  26.112  27.892  1.00  0.00     0.074 A 
ATOM     35  C   UNL A   1      40.704  26.643  28.744  1.00  0.00     0.049 A 
ATOM     36  N   UNL A   1      43.486  27.300  27.958  1.00  0.00    -0.248 NA
ATOM     37  C   UNL A   1      43.789  25.085  27.282  1.00  0.00     0.031 C 
ATOM     38  C   UNL A   1      39.274  26.471  28.988  1.00  0.00     0.029 A 
ATOM     39  N   UNL A   1      40.930  27.977  29.026  1.00  0.00    -0.354 N 
ATOM     40  C   UNL A   1      44.732  27.181  27.356  1.00  0.00     0.074 A 
ATOM     41  C   UNL A   1      44.866  25.791  26.960  1.00  0.00     0.031 C 
ATOM     42  C   UNL A   1      38.753  27.648  29.379  1.00  0.00     0.029 A 
ATOM     43  C   UNL A   1      39.813  28.655  29.468  1.00  0.00     0.049 A 
ATOM     44  H   UNL A   1      41.809  28.406  28.920  1.00  0.00     0.167 HD
ATOM     45  C   UNL A   1      45.679  28.128  27.137  1.00  0.00     0.034 A 
ATOM     46  C   UNL A   1      39.656  29.920  29.925  1.00  0.00     0.034 A 
ATOM     47  C   UNL A   1      45.619  29.495  27.601  1.00  0.00     0.049 A 
ATOM     48  C   UNL A   1      40.838  30.872  29.949  1.00  0.00     0.074 A 
ATOM     49  C   UNL A   1      46.594  30.477  27.499  1.00  0.00     0.029 A 
ATOM     50  N   UNL A   1      44.557  30.073  28.279  1.00  0.00    -0.354 N 
ATOM     51  N   UNL A   1      42.031  30.727  29.425  1.00  0.00    -0.248 NA
ATOM     52  C   UNL A   1      40.645  32.161  30.636  1.00  0.00     0.031 C 
ATOM     53  C   UNL A   1      46.163  31.608  28.201  1.00  0.00     0.029 A 
ATOM     54  C   UNL A   1      44.880  31.372  28.659  1.00  0.00     0.049 A 
ATOM     55  H   UNL A   1      43.698  29.629  28.464  1.00  0.00     0.167 HD
ATOM     56  C   UNL A   1      42.717  31.913  29.701  1.00  0.00     0.074 A 
ATOM     57  C   UNL A   1      41.797  32.774  30.406  1.00  0.00     0.031 C 
ATOM     58  C   UNL A   1      43.997  32.248  29.394  1.00  0.00     0.034 A 
BRANCH  45  59
ATOM     59  C   UNL A   1      46.928  27.690  26.421  1.00  0.00     0.023 A 
ATOM     60  C   UNL A   1      47.086  27.868  25.036  1.00  0.00     0.031 A 
ATOM     61  C   UNL A   1      47.984  27.107  27.143  1.00  0.00     0.131 A 
ATOM     62  C   UNL A   1      48.267  27.439  24.411  1.00  0.00     0.055 A 
ATOM     63  C   UNL A   1      49.176  26.733  26.525  1.00  0.00     0.041 A 
ATOM     64  F   UNL A   1      47.871  26.898  28.464  1.00  0.00    -0.206 F 
ATOM     65  C   UNL A   1      49.320  26.892  25.150  1.00  0.00     0.022 A 
BRANCH  62  66
ATOM     66  S   UNL A   1      48.377  27.507  22.602  1.00  0.00     0.124 S 
ATOM     67  O   UNL A   1      49.605  28.273  22.408  1.00  0.00    -0.237 OA
ATOM     68  O   UNL A   1      48.434  26.096  22.241  1.00  0.00    -0.237 OA
ATOM     69  O   UNL A   1      47.152  28.203  22.212  1.00  0.00    -0.744 OA
ENDBRANCH  62  66
ENDBRANCH  45  59
BRANCH  46  70
ATOM     70  C   UNL A   1      38.358  30.359  30.535  1.00  0.00     0.023 A 
ATOM     71  C   UNL A   1      37.376  31.045  29.795  1.00  0.00     0.031 A 
ATOM     72  C   UNL A   1      38.156  30.230  31.923  1.00  0.00     0.131 A 
ATOM     73  C   UNL A   1      36.279  31.624  30.457  1.00  0.00     0.055 A 
ATOM     74  C   UNL A   1      37.026  30.741  32.561  1.00  0.00     0.041 A 
ATOM     75  F   UNL A   1      39.076  29.624  32.690  1.00  0.00    -0.206 F 
ATOM     76  C   UNL A   1      36.089  31.460  31.831  1.00  0.00     0.022 A 
BRANCH  73  77
ATOM     77  S   UNL A   1      35.174  32.727  29.528  1.00  0.00     0.124 S 
ATOM     78  O   UNL A   1      34.708  31.849  28.460  1.00  0.00    -0.237 OA
ATOM     79  O   UNL A   1      34.187  33.091  30.537  1.00  0.00    -0.237 OA
ATOM     80  O   UNL A   1      36.056  33.812  29.101  1.00  0.00    -0.744 OA
ENDBRANCH  73  77
ENDBRANCH  46  70
BRANCH  58  81
ATOM     81  C   UNL A   1      44.490  33.622  29.811  1.00  0.00     0.023 A 
ATOM     82  C   UNL A   1      44.342  34.749  28.979  1.00  0.00     0.031 A 
ATOM     83  C   UNL A   1      45.131  33.813  31.049  1.00  0.00     0.131 A 
ATOM     84  C   UNL A   1      44.877  35.991  29.364  1.00  0.00     0.055 A 
ATOM     85  C   UNL A   1      45.604  35.064  31.457  1.00  0.00     0.041 A 
ATOM     86  F   UNL A   1      45.314  32.783  31.891  1.00  0.00    -0.206 F 
ATOM     87  C   UNL A   1      45.492  36.159  30.606  1.00  0.00     0.022 A 
BRANCH  84  88
ATOM     88  S   UNL A   1      44.851  37.365  28.176  1.00  0.00     0.124 S 
ATOM     89  O   UNL A   1      44.424  38.482  29.012  1.00  0.00    -0.237 OA
ATOM     90  O   UNL A   1      46.234  37.405  27.716  1.00  0.00    -0.237 OA
ATOM     91  O   UNL A   1      43.878  36.935  27.173  1.00  0.00    -0.744 OA
ENDBRANCH  84  88
ENDBRANCH  58  81
ENDBRANCH  32  33
ENDBRANCH  25  27
ENDBRANCH  24  25
ENDBRANCH  23  24
ENDBRANCH   1  23
TORSDOF 17
ENDMDL
MODEL 2
REMARK VINA RESULT:     -11.7      5.251      7.805
REMARK SMILES O=C(Cc1ccc(F)c(F)c1)NC1(C(=O)OCCOC(=O)c2ccc(-c3c4nc(c(-c5cc(S(=O)(=O)[O-])ccc5F)c5ccc([nH]5)c(-c5cc(S(=O)(=O)[O-])ccc5F)c5nc(c(-c6cc(S(=O)(=O)[O-])ccc6F)c6ccc3[nH]6)C=C5)C=C4)cc2)CCCC1
REMARK SMILES IDX 17 1 16 2 14 3 15 4 13 5 85 6 88 7 86 8 87 9 12 10 1 11 2 12
REMARK SMILES IDX 3 14 4 15 5 16 11 17 6 18 9 19 7 20 10 21 8 22 18 23 19 24
REMARK SMILES IDX 20 25 21 26 22 27 23 28 84 29 24 30 83 31 25 32 26 33 27 34
REMARK SMILES IDX 77 35 28 36 82 37 76 38 78 39 29 40 81 41 75 42 74 43 30 45
REMARK SMILES IDX 62 46 42 47 61 48 43 49 46 50 60 51 79 52 44 53 45 54 59 56
REMARK SMILES IDX 80 57 47 58 31 59 32 60 40 61 33 62 39 63 41 64 38 65 34 66
REMARK SMILES IDX 35 67 36 68 37 69 63 70 64 71 72 72 65 73 71 74 73 75 70 76
REMARK SMILES IDX 66 77 67 78 68 79 69 80 48 81 49 82 57 83 50 84 56 85 58 86
REMARK SMILES IDX 55 87 51 88 52 89 53 90 54 91
REMARK H PARENT 12 13 78 44 46 55
REMARK Flexibility Score: inf
ROOT
ATOM      1  C   UNL A   1      31.720  28.830  27.280  1.00  0.00     0.274 C 
ENDROOT
BRANCH   1   2
ATOM      2  O   UNL A   1      32.131  27.717  26.457  1.00  0.00    -0.460 OA
BRANCH   2   3
ATOM      3  C   UNL A   1      31.155  26.846  26.053  1.00  0.00     0.331 C 
ATOM      4  O   UNL A   1      30.367  26.330  26.834  1.00  0.00    -0.249 OA
BRANCH   3   5
ATOM      5  C   UNL A   1      31.278  26.481  24.524  1.00  0.00     0.138 C 
ATOM      6  C   UNL A   1      31.552  27.792  23.758  1.00  0.00     0.040 C 
ATOM      7  C   UNL A   1      29.911  26.056  23.918  1.00  0.00     0.040 C 
ATOM      8  C   UNL A   1      30.187  28.463  23.623  1.00  0.00     0.003 C 
ATOM      9  C   UNL A   1      29.174  27.332  23.524  1.00  0.00     0.003 C 
BRANCH   5  10
ATOM     10  N   UNL A   1      32.251  25.421  24.132  1.00  0.00    -0.340 N 
ATOM     11  O   UNL A   1      34.255  26.386  24.629  1.00  0.00    -0.275 OA
ATOM     12  C   UNL A   1      33.624  25.473  24.105  1.00  0.00     0.225 C 
ATOM     13  H   UNL A   1      31.854  24.564  23.854  1.00  0.00     0.164 HD
BRANCH  12  14
ATOM     14  C   UNL A   1      34.366  24.353  23.331  1.00  0.00     0.135 C 
BRANCH  14  15
ATOM     15  C   UNL A   1      33.828  22.931  23.412  1.00  0.00    -0.036 A 
ATOM     16  C   UNL A   1      34.253  22.046  24.424  1.00  0.00     0.007 A 
ATOM     17  C   UNL A   1      32.899  22.453  22.481  1.00  0.00     0.046 A 
ATOM     18  C   UNL A   1      33.630  20.808  24.619  1.00  0.00     0.043 A 
ATOM     19  C   UNL A   1      32.300  21.207  22.659  1.00  0.00     0.159 A 
ATOM     20  C   UNL A   1      32.637  20.405  23.741  1.00  0.00     0.158 A 
ATOM     21  F   UNL A   1      31.366  20.807  21.785  1.00  0.00    -0.204 F 
ATOM     22  F   UNL A   1      32.009  19.239  23.934  1.00  0.00    -0.204 F 
ENDBRANCH  14  15
ENDBRANCH  12  14
ENDBRANCH   5  10
ENDBRANCH   3   5
ENDBRANCH   2   3
ENDBRANCH   1   2
BRANCH   1  23
ATOM     23  C   UNL A   1      31.936  30.158  26.552  1.00  0.00     0.275 C 
BRANCH  23  24
ATOM     24  O   UNL A   1      33.342  30.449  26.451  1.00  0.00    -0.458 OA
BRANCH  24  25
ATOM     25  C   UNL A   1      33.762  31.469  27.243  1.00  0.00     0.338 C 
ATOM     26  O   UNL A   1      33.117  32.439  27.585  1.00  0.00    -0.246 OA
BRANCH  25  27
ATOM     27  C   UNL A   1      35.047  31.101  27.867  1.00  0.00     0.060 A 
ATOM     28  C   UNL A   1      35.093  29.828  28.409  1.00  0.00     0.016 A 
ATOM     29  C   UNL A   1      36.160  31.942  27.977  1.00  0.00     0.016 A 
ATOM     30  C   UNL A   1      36.252  29.392  29.037  1.00  0.00     0.010 A 
ATOM     31  C   UNL A   1      37.322  31.494  28.655  1.00  0.00     0.010 A 
ATOM     32  C   UNL A   1      37.377  30.203  29.200  1.00  0.00    -0.014 A 
BRANCH  32  33
ATOM     33  C   UNL A   1      38.493  29.648  30.035  1.00  0.00     0.031 A 
ATOM     34  C   UNL A   1      39.433  28.623  29.442  1.00  0.00     0.074 A 
ATOM     35  C   UNL A   1      38.867  30.233  31.194  1.00  0.00     0.049 A 
ATOM     36  N   UNL A   1      40.574  28.178  29.910  1.00  0.00    -0.248 NA
ATOM     37  C   UNL A   1      39.074  28.086  28.122  1.00  0.00     0.031 C 
ATOM     38  C   UNL A   1      38.201  31.374  31.817  1.00  0.00     0.029 A 
ATOM     39  N   UNL A   1      39.944  29.985  32.024  1.00  0.00    -0.354 N 
ATOM     40  C   UNL A   1      41.098  27.347  28.926  1.00  0.00     0.074 A 
ATOM     41  C   UNL A   1      40.127  27.326  27.848  1.00  0.00     0.031 C 
ATOM     42  C   UNL A   1      38.881  31.726  32.923  1.00  0.00     0.029 A 
ATOM     43  C   UNL A   1      40.004  30.808  33.128  1.00  0.00     0.049 A 
ATOM     44  H   UNL A   1      40.610  29.283  31.843  1.00  0.00     0.167 HD
ATOM     45  C   UNL A   1      42.273  26.669  28.905  1.00  0.00     0.034 A 
ATOM     46  C   UNL A   1      40.835  30.813  34.198  1.00  0.00     0.034 A 
ATOM     47  C   UNL A   1      43.215  26.591  29.997  1.00  0.00     0.049 A 
ATOM     48  C   UNL A   1      41.976  29.816  34.279  1.00  0.00     0.074 A 
ATOM     49  C   UNL A   1      44.377  25.836  30.073  1.00  0.00     0.029 A 
ATOM     50  N   UNL A   1      43.103  27.252  31.210  1.00  0.00    -0.354 N 
ATOM     51  N   UNL A   1      42.427  28.994  33.362  1.00  0.00    -0.248 NA
ATOM     52  C   UNL A   1      42.716  29.747  35.551  1.00  0.00     0.031 C 
ATOM     53  C   UNL A   1      44.907  25.961  31.362  1.00  0.00     0.029 A 
ATOM     54  C   UNL A   1      44.134  26.870  32.063  1.00  0.00     0.049 A 
ATOM     55  H   UNL A   1      42.396  27.898  31.436  1.00  0.00     0.167 HD
ATOM     56  C   UNL A   1      43.513  28.333  33.941  1.00  0.00     0.074 A 
ATOM     57  C   UNL A   1      43.671  28.873  35.271  1.00  0.00     0.031 C 
ATOM     58  C   UNL A   1      44.303  27.364  33.410  1.00  0.00     0.034 A 
BRANCH  45  59
ATOM     59  C   UNL A   1      42.575  25.869  27.666  1.00  0.00     0.023 A 
ATOM     60  C   UNL A   1      42.161  24.534  27.530  1.00  0.00     0.031 A 
ATOM     61  C   UNL A   1      43.269  26.465  26.597  1.00  0.00     0.131 A 
ATOM     62  C   UNL A   1      42.469  23.827  26.358  1.00  0.00     0.055 A 
ATOM     63  C   UNL A   1      43.525  25.773  25.414  1.00  0.00     0.041 A 
ATOM     64  F   UNL A   1      43.703  27.731  26.690  1.00  0.00    -0.206 F 
ATOM     65  C   UNL A   1      43.131  24.445  25.292  1.00  0.00     0.022 A 
BRANCH  62  66
ATOM     66  S   UNL A   1      42.090  22.055  26.277  1.00  0.00     0.124 S 
ATOM     67  O   UNL A   1      42.509  21.601  27.601  1.00  0.00    -0.237 OA
ATOM     68  O   UNL A   1      40.655  22.056  26.021  1.00  0.00    -0.237 OA
ATOM     69  O   UNL A   1      42.921  21.579  25.174  1.00  0.00    -0.744 OA
ENDBRANCH  62  66
ENDBRANCH  45  59
BRANCH  46  70
ATOM     70  C   UNL A   1      40.566  31.706  35.373  1.00  0.00     0.023 A 
ATOM     71  C   UNL A   1      39.488  31.487  36.251  1.00  0.00     0.031 A 
ATOM     72  C   UNL A   1      41.308  32.893  35.535  1.00  0.00     0.131 A 
ATOM     73  C   UNL A   1      39.150  32.467  37.201  1.00  0.00     0.055 A 
ATOM     74  C   UNL A   1      41.013  33.824  36.530  1.00  0.00     0.041 A 
ATOM     75  F   UNL A   1      42.322  33.180  34.703  1.00  0.00    -0.206 F 
ATOM     76  C   UNL A   1      39.917  33.623  37.358  1.00  0.00     0.022 A 
BRANCH  73  77
ATOM     77  S   UNL A   1      37.601  32.287  38.135  1.00  0.00     0.124 S 
ATOM     78  O   UNL A   1      36.702  33.158  37.387  1.00  0.00    -0.237 OA
ATOM     79  O   UNL A   1      37.346  30.855  38.029  1.00  0.00    -0.237 OA
ATOM     80  O   UNL A   1      37.955  32.758  39.474  1.00  0.00    -0.744 OA
ENDBRANCH  73  77
ENDBRANCH  46  70
BRANCH  58  81
ATOM     81  C   UNL A   1      45.431  26.820  34.267  1.00  0.00     0.023 A 
ATOM     82  C   UNL A   1      45.255  25.703  35.108  1.00  0.00     0.031 A 
ATOM     83  C   UNL A   1      46.699  27.430  34.260  1.00  0.00     0.131 A 
ATOM     84  C   UNL A   1      46.300  25.271  35.943  1.00  0.00     0.055 A 
ATOM     85  C   UNL A   1      47.757  26.957  35.045  1.00  0.00     0.041 A 
ATOM     86  F   UNL A   1      46.939  28.503  33.488  1.00  0.00    -0.206 F 
ATOM     87  C   UNL A   1      47.555  25.882  35.905  1.00  0.00     0.022 A 
BRANCH  84  88
ATOM     88  S   UNL A   1      45.969  23.965  37.161  1.00  0.00     0.124 S 
ATOM     89  O   UNL A   1      45.448  22.891  36.323  1.00  0.00    -0.237 OA
ATOM     90  O   UNL A   1      47.288  23.739  37.741  1.00  0.00    -0.237 OA
ATOM     91  O   UNL A   1      44.993  24.575  38.063  1.00  0.00    -0.744 OA
ENDBRANCH  84  88
ENDBRANCH  58  81
ENDBRANCH  32  33
ENDBRANCH  25  27
ENDBRANCH  24  25
ENDBRANCH  23  24
ENDBRANCH   1  23
TORSDOF 17
ENDMDL
MODEL 3
REMARK VINA RESULT:     -11.6      2.780      8.562
REMARK SMILES O=C(Cc1ccc(F)c(F)c1)NC1(C(=O)OCCOC(=O)c2ccc(-c3c4nc(c(-c5cc(S(=O)(=O)[O-])ccc5F)c5ccc([nH]5)c(-c5cc(S(=O)(=O)[O-])ccc5F)c5nc(c(-c6cc(S(=O)(=O)[O-])ccc6F)c6ccc3[nH]6)C=C5)C=C4)cc2)CCCC1
REMARK SMILES IDX 17 1 16 2 14 3 15 4 13 5 85 6 88 7 86 8 87 9 12 10 1 11 2 12
REMARK SMILES IDX 3 14 4 15 5 16 11 17 6 18 9 19 7 20 10 21 8 22 18 23 19 24
REMARK SMILES IDX 20 25 21 26 22 27 23 28 84 29 24 30 83 31 25 32 26 33 27 34
REMARK SMILES IDX 77 35 28 36 82 37 76 38 78 39 29 40 81 41 75 42 74 43 30 45
REMARK SMILES IDX 62 46 42 47 61 48 43 49 46 50 60 51 79 52 44 53 45 54 59 56
REMARK SMILES IDX 80 57 47 58 31 59 32 60 40 61 33 62 39 63 41 64 38 65 34 66
REMARK SMILES IDX 35 67 36 68 37 69 63 70 64 71 72 72 65 73 71 74 73 75 70 76
REMARK SMILES IDX 66 77 67 78 68 79 69 80 48 81 49 82 57 83 50 84 56 85 58 86
REMARK SMILES IDX 55 87 51 88 52 89 53 90 54 91
REMARK H PARENT 12 13 78 44 46 55
REMARK Flexibility Score: inf
ROOT
ATOM      1  C   UNL A   1      35.397  20.740  24.671  1.00  0.00     0.274 C 
ENDROOT
BRANCH   1   2
ATOM      2  O   UNL A   1      34.938  22.034  24.225  1.00  0.00    -0.460 OA
BRANCH   2   3
ATOM      3  C   UNL A   1      33.602  22.303  24.363  1.00  0.00     0.331 C 
ATOM      4  O   UNL A   1      32.735  21.644  23.804  1.00  0.00    -0.249 OA
BRANCH   3   5
ATOM      5  C   UNL A   1      33.343  23.628  25.177  1.00  0.00     0.138 C 
ATOM      6  C   UNL A   1      34.553  23.839  26.109  1.00  0.00     0.040 C 
ATOM      7  C   UNL A   1      32.193  23.458  26.209  1.00  0.00     0.040 C 
ATOM      8  C   UNL A   1      34.308  22.907  27.294  1.00  0.00     0.003 C 
ATOM      9  C   UNL A   1      32.797  22.838  27.465  1.00  0.00     0.003 C 
BRANCH   5  10
ATOM     10  N   UNL A   1      33.033  24.872  24.414  1.00  0.00    -0.340 N 
ATOM     11  O   UNL A   1      34.422  24.701  22.615  1.00  0.00    -0.275 OA
ATOM     12  C   UNL A   1      33.640  25.369  23.287  1.00  0.00     0.225 C 
ATOM     13  H   UNL A   1      32.289  25.411  24.768  1.00  0.00     0.164 HD
BRANCH  12  14
ATOM     14  C   UNL A   1      33.348  26.843  22.909  1.00  0.00     0.135 C 
BRANCH  14  15
ATOM     15  C   UNL A   1      32.977  27.820  24.018  1.00  0.00    -0.036 A 
ATOM     16  C   UNL A   1      33.781  27.960  25.167  1.00  0.00     0.007 A 
ATOM     17  C   UNL A   1      31.821  28.605  23.935  1.00  0.00     0.046 A 
ATOM     18  C   UNL A   1      33.552  28.980  26.098  1.00  0.00     0.043 A 
ATOM     19  C   UNL A   1      31.578  29.602  24.879  1.00  0.00     0.159 A 
ATOM     20  C   UNL A   1      32.457  29.813  25.933  1.00  0.00     0.158 A 
ATOM     21  F   UNL A   1      30.497  30.380  24.734  1.00  0.00    -0.204 F 
ATOM     22  F   UNL A   1      32.245  30.813  26.795  1.00  0.00    -0.204 F 
ENDBRANCH  14  15
ENDBRANCH  12  14
ENDBRANCH   5  10
ENDBRANCH   3   5
ENDBRANCH   2   3
ENDBRANCH   1   2
BRANCH   1  23
ATOM     23  C   UNL A   1      36.925  20.667  24.659  1.00  0.00     0.275 C 
BRANCH  23  24
ATOM     24  O   UNL A   1      37.471  21.462  25.728  1.00  0.00    -0.458 OA
BRANCH  24  25
ATOM     25  C   UNL A   1      38.749  21.151  26.062  1.00  0.00     0.338 C 
ATOM     26  O   UNL A   1      39.337  20.118  25.814  1.00  0.00    -0.246 OA
BRANCH  25  27
ATOM     27  C   UNL A   1      39.434  22.367  26.543  1.00  0.00     0.060 A 
ATOM     28  C   UNL A   1      39.001  23.550  25.969  1.00  0.00     0.016 A 
ATOM     29  C   UNL A   1      40.480  22.389  27.472  1.00  0.00     0.016 A 
ATOM     30  C   UNL A   1      39.595  24.748  26.338  1.00  0.00     0.010 A 
ATOM     31  C   UNL A   1      41.101  23.618  27.809  1.00  0.00     0.010 A 
ATOM     32  C   UNL A   1      40.662  24.820  27.237  1.00  0.00    -0.014 A 
BRANCH  32  33
ATOM     33  C   UNL A   1      41.300  26.166  27.419  1.00  0.00     0.031 A 
ATOM     34  C   UNL A   1      40.577  27.238  28.202  1.00  0.00     0.074 A 
ATOM     35  C   UNL A   1      42.611  26.366  27.161  1.00  0.00     0.049 A 
ATOM     36  N   UNL A   1      41.032  28.382  28.653  1.00  0.00    -0.248 NA
ATOM     37  C   UNL A   1      39.187  26.952  28.581  1.00  0.00     0.031 C 
ATOM     38  C   UNL A   1      43.523  25.373  26.598  1.00  0.00     0.029 A 
ATOM     39  N   UNL A   1      43.422  27.460  27.400  1.00  0.00    -0.354 N 
ATOM     40  C   UNL A   1      40.006  28.934  29.411  1.00  0.00     0.074 A 
ATOM     41  C   UNL A   1      38.891  28.008  29.328  1.00  0.00     0.031 C 
ATOM     42  C   UNL A   1      44.759  25.899  26.537  1.00  0.00     0.029 A 
ATOM     43  C   UNL A   1      44.731  27.287  27.005  1.00  0.00     0.049 A 
ATOM     44  H   UNL A   1      43.093  28.289  27.816  1.00  0.00     0.167 HD
ATOM     45  C   UNL A   1      39.983  30.090  30.120  1.00  0.00     0.034 A 
ATOM     46  C   UNL A   1      45.781  28.142  26.984  1.00  0.00     0.034 A 
ATOM     47  C   UNL A   1      41.036  31.078  30.147  1.00  0.00     0.049 A 
ATOM     48  C   UNL A   1      45.623  29.554  27.518  1.00  0.00     0.074 A 
ATOM     49  C   UNL A   1      41.030  32.319  30.766  1.00  0.00     0.029 A 
ATOM     50  N   UNL A   1      42.263  30.968  29.512  1.00  0.00    -0.354 N 
ATOM     51  N   UNL A   1      44.624  30.081  28.185  1.00  0.00    -0.248 NA
ATOM     52  C   UNL A   1      46.739  30.486  27.288  1.00  0.00     0.031 C 
ATOM     53  C   UNL A   1      42.205  32.996  30.420  1.00  0.00     0.029 A 
ATOM     54  C   UNL A   1      42.992  32.144  29.667  1.00  0.00     0.049 A 
ATOM     55  H   UNL A   1      42.575  30.173  29.022  1.00  0.00     0.167 HD
ATOM     56  C   UNL A   1      45.006  31.395  28.469  1.00  0.00     0.074 A 
ATOM     57  C   UNL A   1      46.336  31.570  27.933  1.00  0.00     0.031 C 
ATOM     58  C   UNL A   1      44.309  32.365  29.116  1.00  0.00     0.034 A 
BRANCH  45  59
ATOM     59  C   UNL A   1      38.717  30.401  30.875  1.00  0.00     0.023 A 
ATOM     60  C   UNL A   1      37.678  31.148  30.297  1.00  0.00     0.031 A 
ATOM     61  C   UNL A   1      38.545  29.919  32.185  1.00  0.00     0.131 A 
ATOM     62  C   UNL A   1      36.519  31.416  31.041  1.00  0.00     0.055 A 
ATOM     63  C   UNL A   1      37.368  30.143  32.898  1.00  0.00     0.041 A 
ATOM     64  F   UNL A   1      39.519  29.218  32.786  1.00  0.00    -0.206 F 
ATOM     65  C   UNL A   1      36.350  30.901  32.330  1.00  0.00     0.022 A 
BRANCH  62  66
ATOM     66  S   UNL A   1      35.270  32.535  30.348  1.00  0.00     0.124 S 
ATOM     67  O   UNL A   1      34.295  32.600  31.433  1.00  0.00    -0.237 OA
ATOM     68  O   UNL A   1      36.042  33.747  30.102  1.00  0.00    -0.237 OA
ATOM     69  O   UNL A   1      34.811  31.833  29.151  1.00  0.00    -0.744 OA
ENDBRANCH  62  66
ENDBRANCH  45  59
BRANCH  46  70
ATOM     70  C   UNL A   1      47.070  27.758  26.319  1.00  0.00     0.023 A 
ATOM     71  C   UNL A   1      47.314  28.011  24.956  1.00  0.00     0.031 A 
ATOM     72  C   UNL A   1      48.016  26.984  27.018  1.00  0.00     0.131 A 
ATOM     73  C   UNL A   1      48.438  27.442  24.330  1.00  0.00     0.055 A 
ATOM     74  C   UNL A   1      49.168  26.487  26.408  1.00  0.00     0.041 A 
ATOM     75  F   UNL A   1      47.819  26.673  28.309  1.00  0.00    -0.206 F 
ATOM     76  C   UNL A   1      49.375  26.699  25.052  1.00  0.00     0.022 A 
BRANCH  73  77
ATOM     77  S   UNL A   1      48.588  27.556  22.522  1.00  0.00     0.124 S 
ATOM     78  O   UNL A   1      47.370  28.278  22.169  1.00  0.00    -0.237 OA
ATOM     79  O   UNL A   1      49.838  28.291  22.366  1.00  0.00    -0.237 OA
ATOM     80  O   UNL A   1      48.631  26.159  22.095  1.00  0.00    -0.744 OA
ENDBRANCH  73  77
ENDBRANCH  46  70
BRANCH  58  81
ATOM     81  C   UNL A   1      44.974  33.716  29.297  1.00  0.00     0.023 A 
ATOM     82  C   UNL A   1      44.771  34.773  28.388  1.00  0.00     0.031 A 
ATOM     83  C   UNL A   1      45.837  33.955  30.383  1.00  0.00     0.131 A 
ATOM     84  C   UNL A   1      45.462  35.988  28.545  1.00  0.00     0.055 A 
ATOM     85  C   UNL A   1      46.472  35.187  30.573  1.00  0.00     0.041 A 
ATOM     86  F   UNL A   1      46.083  32.993  31.287  1.00  0.00    -0.206 F 
ATOM     87  C   UNL A   1      46.298  36.207  29.642  1.00  0.00     0.022 A 
BRANCH  84  88
ATOM     88  S   UNL A   1      45.336  37.246  27.241  1.00  0.00     0.124 S 
ATOM     89  O   UNL A   1      45.795  38.446  27.930  1.00  0.00    -0.237 OA
ATOM     90  O   UNL A   1      46.228  36.720  26.214  1.00  0.00    -0.237 OA
ATOM     91  O   UNL A   1      43.916  37.237  26.890  1.00  0.00    -0.744 OA
ENDBRANCH  84  88
ENDBRANCH  58  81
ENDBRANCH  32  33
ENDBRANCH  25  27
ENDBRANCH  24  25
ENDBRANCH  23  24
ENDBRANCH   1  23
TORSDOF 17
ENDMDL
