MODEL 1
REMARK VINA RESULT:     -12.2      0.000      0.000
REMARK SMILES C[C@@H]1CN(S(=O)(=O)c2ccc(Cl)c(C(=O)OCCOC(=O)c3ccc(-c4c5nc(c(-c6cc(S(=O)(=O)[O-])ccc6F)c6ccc([nH]6)c(-c6cc(S(=O)(=O)[O-])ccc6F)c6nc(c(-c7cc(S(=O)(=O)[O-])ccc7F)c7ccc4[nH]7)C=C6)C=C5)cc3)c2Cl)C[C@H]1C
REMARK SMILES IDX 18 1 17 2 16 3 14 4 15 5 13 6 8 7 9 8 85 9 10 10 86 11 11 12
REMARK SMILES IDX 12 13 5 14 6 15 7 16 4 17 1 18 2 19 3 20 88 21 87 22 89 23
REMARK SMILES IDX 19 24 20 25 21 26 22 27 23 28 84 29 24 30 83 31 25 32 26 33
REMARK SMILES IDX 27 34 77 35 28 36 82 37 76 38 78 39 29 40 81 41 75 42 74 43
REMARK SMILES IDX 30 45 62 46 42 47 61 48 43 49 46 50 60 51 79 52 44 53 45 54
REMARK SMILES IDX 59 56 80 57 47 58 31 59 32 60 40 61 33 62 39 63 41 64 38 65
REMARK SMILES IDX 34 66 35 67 36 68 37 69 63 70 64 71 72 72 65 73 71 74 73 75
REMARK SMILES IDX 70 76 66 77 67 78 68 79 69 80 48 81 49 82 57 83 50 84 56 85
REMARK SMILES IDX 58 86 55 87 51 88 52 89 53 90 54 91
REMARK H PARENT 78 44 46 55
REMARK Flexibility Score: inf
ROOT
ATOM      1  C   UNL A   1      37.200  21.256  24.503  1.00  0.00     0.275 C 
ENDROOT
BRANCH   1   2
ATOM      2  C   UNL A   1      36.789  22.484  23.685  1.00  0.00     0.275 C 
BRANCH   2   3
ATOM      3  O   UNL A   1      35.678  23.144  24.326  1.00  0.00    -0.458 OA
BRANCH   3   4
ATOM      4  C   UNL A   1      34.554  23.354  23.588  1.00  0.00     0.341 C 
ATOM      5  O   UNL A   1      34.499  23.568  22.393  1.00  0.00    -0.246 OA
BRANCH   4   6
ATOM      6  C   UNL A   1      33.393  23.243  24.509  1.00  0.00     0.098 A 
ATOM      7  C   UNL A   1      31.585  24.291  25.743  1.00  0.00     0.102 A 
ATOM      8  C   UNL A   1      30.931  23.051  25.813  1.00  0.00     0.025 A 
ATOM      9  C   UNL A   1      32.860  24.380  25.161  1.00  0.00     0.077 A 
ATOM     10  C   UNL A   1      31.541  21.903  25.318  1.00  0.00     0.023 A 
ATOM     11  Cl  UNL A   1      33.840  25.794  25.371  1.00  0.00    -0.082 Cl
ATOM     12  C   UNL A   1      32.758  22.000  24.644  1.00  0.00     0.057 A 
ATOM     13  Cl  UNL A   1      33.448  20.520  24.064  1.00  0.00    -0.083 Cl
BRANCH   7  14
ATOM     14  S   UNL A   1      30.608  25.733  26.156  1.00  0.00     0.244 S 
ATOM     15  O   UNL A   1      31.466  26.616  26.923  1.00  0.00    -0.207 OA
ATOM     16  O   UNL A   1      29.353  25.287  26.707  1.00  0.00    -0.207 OA
BRANCH  14  17
ATOM     17  N   UNL A   1      30.324  26.491  24.666  1.00  0.00    -0.197 NA
ATOM     18  C   UNL A   1      31.689  26.088  21.210  1.00  0.00     0.009 C 
ATOM     19  C   UNL A   1      31.696  26.416  22.696  1.00  0.00     0.005 C 
ATOM     20  C   UNL A   1      30.588  25.683  23.449  1.00  0.00     0.106 C 
ATOM     21  C   UNL A   1      31.407  27.878  23.028  1.00  0.00     0.005 C 
ATOM     22  C   UNL A   1      31.051  27.796  24.516  1.00  0.00     0.106 C 
ATOM     23  C   UNL A   1      32.588  28.804  22.761  1.00  0.00     0.009 C 
ENDBRANCH  14  17
ENDBRANCH   7  14
ENDBRANCH   4   6
ENDBRANCH   3   4
ENDBRANCH   2   3
ENDBRANCH   1   2
BRANCH   1  24
ATOM     24  O   UNL A   1      37.637  21.675  25.808  1.00  0.00    -0.458 OA
BRANCH  24  25
ATOM     25  C   UNL A   1      38.929  21.387  26.101  1.00  0.00     0.338 C 
ATOM     26  O   UNL A   1      39.559  20.392  25.788  1.00  0.00    -0.246 OA
BRANCH  25  27
ATOM     27  C   UNL A   1      39.541  22.580  26.700  1.00  0.00     0.060 A 
ATOM     28  C   UNL A   1      39.096  23.808  26.230  1.00  0.00     0.016 A 
ATOM     29  C   UNL A   1      40.580  22.516  27.622  1.00  0.00     0.016 A 
ATOM     30  C   UNL A   1      39.720  24.981  26.636  1.00  0.00     0.010 A 
ATOM     31  C   UNL A   1      41.170  23.709  28.075  1.00  0.00     0.010 A 
ATOM     32  C   UNL A   1      40.760  24.958  27.570  1.00  0.00    -0.014 A 
BRANCH  32  33
ATOM     33  C   UNL A   1      41.428  26.238  27.960  1.00  0.00     0.031 A 
ATOM     34  C   UNL A   1      40.673  27.277  28.750  1.00  0.00     0.074 A 
ATOM     35  C   UNL A   1      42.727  26.456  27.662  1.00  0.00     0.049 A 
ATOM     36  N   UNL A   1      41.008  28.510  29.037  1.00  0.00    -0.248 NA
ATOM     37  C   UNL A   1      39.361  26.876  29.278  1.00  0.00     0.031 C 
ATOM     38  C   UNL A   1      43.613  25.502  26.990  1.00  0.00     0.029 A 
ATOM     39  N   UNL A   1      43.537  27.543  27.896  1.00  0.00    -0.354 N 
ATOM     40  C   UNL A   1      39.932  29.047  29.738  1.00  0.00     0.074 A 
ATOM     41  C   UNL A   1      38.928  28.007  29.816  1.00  0.00     0.031 C 
ATOM     42  C   UNL A   1      44.844  26.027  26.901  1.00  0.00     0.029 A 
ATOM     43  C   UNL A   1      44.814  27.397  27.403  1.00  0.00     0.049 A 
ATOM     44  H   UNL A   1      43.232  28.350  28.371  1.00  0.00     0.167 HD
ATOM     45  C   UNL A   1      39.799  30.291  30.264  1.00  0.00     0.034 A 
ATOM     46  C   UNL A   1      45.833  28.275  27.305  1.00  0.00     0.034 A 
ATOM     47  C   UNL A   1      40.831  31.302  30.211  1.00  0.00     0.049 A 
ATOM     48  C   UNL A   1      45.625  29.683  27.800  1.00  0.00     0.074 A 
ATOM     49  C   UNL A   1      40.801  32.591  30.716  1.00  0.00     0.029 A 
ATOM     50  N   UNL A   1      42.078  31.141  29.621  1.00  0.00    -0.354 N 
ATOM     51  N   UNL A   1      44.575  30.205  28.392  1.00  0.00    -0.248 NA
ATOM     52  C   UNL A   1      46.732  30.626  27.600  1.00  0.00     0.031 C 
ATOM     53  C   UNL A   1      41.993  33.232  30.364  1.00  0.00     0.029 A 
ATOM     54  C   UNL A   1      42.808  32.318  29.715  1.00  0.00     0.049 A 
ATOM     55  H   UNL A   1      42.399  30.312  29.198  1.00  0.00     0.167 HD
ATOM     56  C   UNL A   1      44.904  31.533  28.646  1.00  0.00     0.074 A 
ATOM     57  C   UNL A   1      46.258  31.723  28.171  1.00  0.00     0.031 C 
ATOM     58  C   UNL A   1      44.152  32.506  29.220  1.00  0.00     0.034 A 
BRANCH  45  59
ATOM     59  C   UNL A   1      38.464  30.656  30.874  1.00  0.00     0.023 A 
ATOM     60  C   UNL A   1      37.444  31.289  30.141  1.00  0.00     0.031 A 
ATOM     61  C   UNL A   1      38.217  30.375  32.231  1.00  0.00     0.131 A 
ATOM     62  C   UNL A   1      36.257  31.676  30.784  1.00  0.00     0.055 A 
ATOM     63  C   UNL A   1      37.004  30.689  32.844  1.00  0.00     0.041 A 
ATOM     64  F   UNL A   1      39.159  29.792  32.991  1.00  0.00    -0.206 F 
ATOM     65  C   UNL A   1      36.019  31.357  32.124  1.00  0.00     0.022 A 
BRANCH  62  66
ATOM     66  S   UNL A   1      35.081  32.726  29.886  1.00  0.00     0.124 S 
ATOM     67  O   UNL A   1      34.468  31.768  28.969  1.00  0.00    -0.237 OA
ATOM     68  O   UNL A   1      34.224  33.227  30.955  1.00  0.00    -0.237 OA
ATOM     69  O   UNL A   1      35.932  33.729  29.249  1.00  0.00    -0.744 OA
ENDBRANCH  62  66
ENDBRANCH  45  59
BRANCH  46  70
ATOM     70  C   UNL A   1      47.106  27.886  26.628  1.00  0.00     0.023 A 
ATOM     71  C   UNL A   1      47.261  28.006  25.238  1.00  0.00     0.031 A 
ATOM     72  C   UNL A   1      48.174  27.334  27.362  1.00  0.00     0.131 A 
ATOM     73  C   UNL A   1      48.437  27.546  24.623  1.00  0.00     0.055 A 
ATOM     74  C   UNL A   1      49.367  26.942  26.754  1.00  0.00     0.041 A 
ATOM     75  F   UNL A   1      48.078  27.179  28.693  1.00  0.00    -0.206 F 
ATOM     76  C   UNL A   1      49.499  27.035  25.373  1.00  0.00     0.022 A 
BRANCH  73  77
ATOM     77  S   UNL A   1      48.523  27.530  22.811  1.00  0.00     0.124 S 
ATOM     78  O   UNL A   1      48.521  26.099  22.526  1.00  0.00    -0.237 OA
ATOM     79  O   UNL A   1      47.314  28.259  22.442  1.00  0.00    -0.237 OA
ATOM     80  O   UNL A   1      49.778  28.222  22.522  1.00  0.00    -0.744 OA
ENDBRANCH  73  77
ENDBRANCH  46  70
BRANCH  58  81
ATOM     81  C   UNL A   1      44.803  33.858  29.395  1.00  0.00     0.023 A 
ATOM     82  C   UNL A   1      44.765  34.834  28.384  1.00  0.00     0.031 A 
ATOM     83  C   UNL A   1      45.489  34.166  30.585  1.00  0.00     0.131 A 
ATOM     84  C   UNL A   1      45.449  36.048  28.557  1.00  0.00     0.055 A 
ATOM     85  C   UNL A   1      46.112  35.400  30.777  1.00  0.00     0.041 A 
ATOM     86  F   UNL A   1      45.564  33.270  31.582  1.00  0.00    -0.206 F 
ATOM     87  C   UNL A   1      46.106  36.344  29.754  1.00  0.00     0.022 A 
BRANCH  84  88
ATOM     88  S   UNL A   1      45.553  37.197  27.157  1.00  0.00     0.124 S 
ATOM     89  O   UNL A   1      44.146  37.475  26.888  1.00  0.00    -0.237 OA
ATOM     90  O   UNL A   1      46.326  38.301  27.714  1.00  0.00    -0.237 OA
ATOM     91  O   UNL A   1      46.239  36.420  26.126  1.00  0.00    -0.744 OA
ENDBRANCH  84  88
ENDBRANCH  58  81
ENDBRANCH  32  33
ENDBRANCH  25  27
ENDBRANCH  24  25
ENDBRANCH   1  24
TORSDOF 16
ENDMDL
MODEL 2
REMARK VINA RESULT:     -11.6      1.811      2.349
REMARK SMILES C[C@@H]1CN(S(=O)(=O)c2ccc(Cl)c(C(=O)OCCOC(=O)c3ccc(-c4c5nc(c(-c6cc(S(=O)(=O)[O-])ccc6F)c6ccc([nH]6)c(-c6cc(S(=O)(=O)[O-])ccc6F)c6nc(c(-c7cc(S(=O)(=O)[O-])ccc7F)c7ccc4[nH]7)C=C6)C=C5)cc3)c2Cl)C[C@H]1C
REMARK SMILES IDX 18 1 17 2 16 3 14 4 15 5 13 6 8 7 9 8 85 9 10 10 86 11 11 12
REMARK SMILES IDX 12 13 5 14 6 15 7 16 4 17 1 18 2 19 3 20 88 21 87 22 89 23
REMARK SMILES IDX 19 24 20 25 21 26 22 27 23 28 84 29 24 30 83 31 25 32 26 33
REMARK SMILES IDX 27 34 77 35 28 36 82 37 76 38 78 39 29 40 81 41 75 42 74 43
REMARK SMILES IDX 30 45 62 46 42 47 61 48 43 49 46 50 60 51 79 52 44 53 45 54
REMARK SMILES IDX 59 56 80 57 47 58 31 59 32 60 40 61 33 62 39 63 41 64 38 65
REMARK SMILES IDX 34 66 35 67 36 68 37 69 63 70 64 71 72 72 65 73 71 74 73 75
REMARK SMILES IDX 70 76 66 77 67 78 68 79 69 80 48 81 49 82 57 83 50 84 56 85
REMARK SMILES IDX 58 86 55 87 51 88 52 89 53 90 54 91
REMARK H PARENT 78 44 46 55
REMARK Flexibility Score: inf
ROOT
ATOM      1  C   UNL A   1      36.414  21.277  24.642  1.00  0.00     0.275 C 
ENDROOT
BRANCH   1   2
ATOM      2  C   UNL A   1      36.166  22.503  23.758  1.00  0.00     0.275 C 
BRANCH   2   3
ATOM      3  O   UNL A   1      35.349  23.456  24.469  1.00  0.00    -0.458 OA
BRANCH   3   4
ATOM      4  C   UNL A   1      34.004  23.246  24.492  1.00  0.00     0.341 C 
ATOM      5  O   UNL A   1      33.420  22.344  25.059  1.00  0.00    -0.246 OA
BRANCH   4   6
ATOM      6  C   UNL A   1      33.371  24.345  23.719  1.00  0.00     0.098 A 
ATOM      7  C   UNL A   1      32.800  26.692  23.491  1.00  0.00     0.102 A 
ATOM      8  C   UNL A   1      32.658  26.511  22.107  1.00  0.00     0.025 A 
ATOM      9  C   UNL A   1      33.078  25.592  24.318  1.00  0.00     0.077 A 
ATOM     10  C   UNL A   1      32.780  25.244  21.546  1.00  0.00     0.023 A 
ATOM     11  Cl  UNL A   1      32.910  25.705  26.040  1.00  0.00    -0.082 Cl
ATOM     12  C   UNL A   1      33.161  24.166  22.343  1.00  0.00     0.057 A 
ATOM     13  Cl  UNL A   1      33.287  22.624  21.563  1.00  0.00    -0.083 Cl
BRANCH   7  14
ATOM     14  S   UNL A   1      32.893  28.384  24.069  1.00  0.00     0.244 S 
ATOM     15  O   UNL A   1      33.350  29.186  22.950  1.00  0.00    -0.207 OA
ATOM     16  O   UNL A   1      33.620  28.399  25.313  1.00  0.00    -0.207 OA
BRANCH  14  17
ATOM     17  N   UNL A   1      31.280  28.819  24.362  1.00  0.00    -0.197 NA
ATOM     18  C   UNL A   1      27.966  27.232  23.682  1.00  0.00     0.009 C 
ATOM     19  C   UNL A   1      29.304  27.883  23.368  1.00  0.00     0.005 C 
ATOM     20  C   UNL A   1      30.308  27.706  24.504  1.00  0.00     0.106 C 
ATOM     21  C   UNL A   1      29.253  29.401  23.208  1.00  0.00     0.005 C 
ATOM     22  C   UNL A   1      30.731  29.780  23.348  1.00  0.00     0.106 C 
ATOM     23  C   UNL A   1      28.658  29.850  21.879  1.00  0.00     0.009 C 
ENDBRANCH  14  17
ENDBRANCH   7  14
ENDBRANCH   4   6
ENDBRANCH   3   4
ENDBRANCH   2   3
ENDBRANCH   1   2
BRANCH   1  24
ATOM     24  O   UNL A   1      37.083  21.684  25.849  1.00  0.00    -0.458 OA
BRANCH  24  25
ATOM     25  C   UNL A   1      38.396  21.358  25.916  1.00  0.00     0.338 C 
ATOM     26  O   UNL A   1      38.948  20.386  25.429  1.00  0.00    -0.246 OA
BRANCH  25  27
ATOM     27  C   UNL A   1      39.121  22.487  26.514  1.00  0.00     0.060 A 
ATOM     28  C   UNL A   1      38.719  23.757  26.124  1.00  0.00     0.016 A 
ATOM     29  C   UNL A   1      40.216  22.323  27.355  1.00  0.00     0.016 A 
ATOM     30  C   UNL A   1      39.441  24.873  26.528  1.00  0.00     0.010 A 
ATOM     31  C   UNL A   1      40.908  23.460  27.809  1.00  0.00     0.010 A 
ATOM     32  C   UNL A   1      40.541  24.751  27.383  1.00  0.00    -0.014 A 
BRANCH  32  33
ATOM     33  C   UNL A   1      41.311  25.972  27.770  1.00  0.00     0.031 A 
ATOM     34  C   UNL A   1      40.663  27.041  28.615  1.00  0.00     0.074 A 
ATOM     35  C   UNL A   1      42.608  26.109  27.421  1.00  0.00     0.049 A 
ATOM     36  N   UNL A   1      41.095  28.240  28.915  1.00  0.00    -0.248 NA
ATOM     37  C   UNL A   1      39.350  26.716  29.192  1.00  0.00     0.031 C 
ATOM     38  C   UNL A   1      43.397  25.114  26.690  1.00  0.00     0.029 A 
ATOM     39  N   UNL A   1      43.500  27.132  27.643  1.00  0.00    -0.354 N 
ATOM     40  C   UNL A   1      40.088  28.832  29.673  1.00  0.00     0.074 A 
ATOM     41  C   UNL A   1      39.019  27.861  29.772  1.00  0.00     0.031 C 
ATOM     42  C   UNL A   1      44.656  25.556  26.559  1.00  0.00     0.029 A 
ATOM     43  C   UNL A   1      44.742  26.912  27.092  1.00  0.00     0.049 A 
ATOM     44  H   UNL A   1      43.272  27.946  28.148  1.00  0.00     0.167 HD
ATOM     45  C   UNL A   1      40.064  30.069  30.232  1.00  0.00     0.034 A 
ATOM     46  C   UNL A   1      45.814  27.721  26.969  1.00  0.00     0.034 A 
ATOM     47  C   UNL A   1      41.160  31.008  30.156  1.00  0.00     0.049 A 
ATOM     48  C   UNL A   1      45.725  29.127  27.503  1.00  0.00     0.074 A 
ATOM     49  C   UNL A   1      41.240  32.283  30.690  1.00  0.00     0.029 A 
ATOM     50  N   UNL A   1      42.367  30.777  29.508  1.00  0.00    -0.354 N 
ATOM     51  N   UNL A   1      44.739  29.704  28.151  1.00  0.00    -0.248 NA
ATOM     52  C   UNL A   1      46.886  29.997  27.276  1.00  0.00     0.031 C 
ATOM     53  C   UNL A   1      42.458  32.850  30.300  1.00  0.00     0.029 A 
ATOM     54  C   UNL A   1      43.180  31.900  29.597  1.00  0.00     0.049 A 
ATOM     55  H   UNL A   1      42.612  29.939  29.054  1.00  0.00     0.167 HD
ATOM     56  C   UNL A   1      45.170  31.000  28.420  1.00  0.00     0.074 A 
ATOM     57  C   UNL A   1      46.513  31.109  27.890  1.00  0.00     0.031 C 
ATOM     58  C   UNL A   1      44.512  32.008  29.048  1.00  0.00     0.034 A 
BRANCH  45  59
ATOM     59  C   UNL A   1      38.784  30.508  30.907  1.00  0.00     0.023 A 
ATOM     60  C   UNL A   1      37.707  31.068  30.197  1.00  0.00     0.031 A 
ATOM     61  C   UNL A   1      38.651  30.376  32.302  1.00  0.00     0.131 A 
ATOM     62  C   UNL A   1      36.577  31.531  30.891  1.00  0.00     0.055 A 
ATOM     63  C   UNL A   1      37.493  30.765  32.976  1.00  0.00     0.041 A 
ATOM     64  F   UNL A   1      39.653  29.871  33.039  1.00  0.00    -0.206 F 
ATOM     65  C   UNL A   1      36.452  31.360  32.272  1.00  0.00     0.022 A 
BRANCH  62  66
ATOM     66  S   UNL A   1      35.329  32.489  29.985  1.00  0.00     0.124 S 
ATOM     67  O   UNL A   1      34.329  32.729  31.022  1.00  0.00    -0.237 OA
ATOM     68  O   UNL A   1      36.087  33.656  29.543  1.00  0.00    -0.237 OA
ATOM     69  O   UNL A   1      34.906  31.582  28.920  1.00  0.00    -0.744 OA
ENDBRANCH  62  66
ENDBRANCH  45  59
BRANCH  46  70
ATOM     70  C   UNL A   1      47.029  27.263  26.229  1.00  0.00     0.023 A 
ATOM     71  C   UNL A   1      48.055  26.557  26.874  1.00  0.00     0.031 A 
ATOM     72  C   UNL A   1      47.204  27.578  24.867  1.00  0.00     0.131 A 
ATOM     73  C   UNL A   1      49.224  26.222  26.170  1.00  0.00     0.055 A 
ATOM     74  C   UNL A   1      48.338  27.183  24.155  1.00  0.00     0.041 A 
ATOM     75  F   UNL A   1      46.264  28.268  24.200  1.00  0.00    -0.206 F 
ATOM     76  C   UNL A   1      49.363  26.511  24.811  1.00  0.00     0.022 A 
BRANCH  73  77
ATOM     77  S   UNL A   1      50.610  25.489  27.083  1.00  0.00     0.124 S 
ATOM     78  O   UNL A   1      50.960  26.564  28.005  1.00  0.00    -0.237 OA
ATOM     79  O   UNL A   1      49.994  24.309  27.679  1.00  0.00    -0.237 OA
ATOM     80  O   UNL A   1      51.598  25.214  26.041  1.00  0.00    -0.744 OA
ENDBRANCH  73  77
ENDBRANCH  46  70
BRANCH  58  81
ATOM     81  C   UNL A   1      45.261  33.308  29.224  1.00  0.00     0.023 A 
ATOM     82  C   UNL A   1      45.142  34.361  28.301  1.00  0.00     0.031 A 
ATOM     83  C   UNL A   1      46.124  33.486  30.321  1.00  0.00     0.131 A 
ATOM     84  C   UNL A   1      45.916  35.522  28.460  1.00  0.00     0.055 A 
ATOM     85  C   UNL A   1      46.841  34.668  30.510  1.00  0.00     0.041 A 
ATOM     86  F   UNL A   1      46.283  32.511  31.231  1.00  0.00    -0.206 F 
ATOM     87  C   UNL A   1      46.749  35.689  29.568  1.00  0.00     0.022 A 
BRANCH  84  88
ATOM     88  S   UNL A   1      45.894  36.771  27.145  1.00  0.00     0.124 S 
ATOM     89  O   UNL A   1      46.661  36.116  26.090  1.00  0.00    -0.237 OA
ATOM     90  O   UNL A   1      44.467  36.933  26.890  1.00  0.00    -0.237 OA
ATOM     91  O   UNL A   1      46.548  37.926  27.759  1.00  0.00    -0.744 OA
ENDBRANCH  84  88
ENDBRANCH  58  81
ENDBRANCH  32  33
ENDBRANCH  25  27
ENDBRANCH  24  25
ENDBRANCH   1  24
TORSDOF 16
ENDMDL
MODEL 3
REMARK VINA RESULT:     -11.6      2.246      2.757
REMARK SMILES C[C@@H]1CN(S(=O)(=O)c2ccc(Cl)c(C(=O)OCCOC(=O)c3ccc(-c4c5nc(c(-c6cc(S(=O)(=O)[O-])ccc6F)c6ccc([nH]6)c(-c6cc(S(=O)(=O)[O-])ccc6F)c6nc(c(-c7cc(S(=O)(=O)[O-])ccc7F)c7ccc4[nH]7)C=C6)C=C5)cc3)c2Cl)C[C@H]1C
REMARK SMILES IDX 18 1 17 2 16 3 14 4 15 5 13 6 8 7 9 8 85 9 10 10 86 11 11 12
REMARK SMILES IDX 12 13 5 14 6 15 7 16 4 17 1 18 2 19 3 20 88 21 87 22 89 23
REMARK SMILES IDX 19 24 20 25 21 26 22 27 23 28 84 29 24 30 83 31 25 32 26 33
REMARK SMILES IDX 27 34 77 35 28 36 82 37 76 38 78 39 29 40 81 41 75 42 74 43
REMARK SMILES IDX 30 45 62 46 42 47 61 48 43 49 46 50 60 51 79 52 44 53 45 54
REMARK SMILES IDX 59 56 80 57 47 58 31 59 32 60 40 61 33 62 39 63 41 64 38 65
REMARK SMILES IDX 34 66 35 67 36 68 37 69 63 70 64 71 72 72 65 73 71 74 73 75
REMARK SMILES IDX 70 76 66 77 67 78 68 79 69 80 48 81 49 82 57 83 50 84 56 85
REMARK SMILES IDX 58 86 55 87 51 88 52 89 53 90 54 91
REMARK H PARENT 78 44 46 55
REMARK Flexibility Score: inf
ROOT
ATOM      1  C   UNL A   1      36.690  21.135  24.593  1.00  0.00     0.275 C 
ENDROOT
BRANCH   1   2
ATOM      2  C   UNL A   1      36.034  22.379  23.986  1.00  0.00     0.275 C 
BRANCH   2   3
ATOM      3  O   UNL A   1      34.610  22.336  24.214  1.00  0.00    -0.458 OA
BRANCH   3   4
ATOM      4  C   UNL A   1      34.113  23.052  25.259  1.00  0.00     0.341 C 
ATOM      5  O   UNL A   1      34.576  23.115  26.381  1.00  0.00    -0.246 OA
BRANCH   4   6
ATOM      6  C   UNL A   1      32.911  23.775  24.770  1.00  0.00     0.098 A 
ATOM      7  C   UNL A   1      31.923  25.691  23.656  1.00  0.00     0.102 A 
ATOM      8  C   UNL A   1      30.773  24.931  23.396  1.00  0.00     0.025 A 
ATOM      9  C   UNL A   1      32.969  25.143  24.417  1.00  0.00     0.077 A 
ATOM     10  C   UNL A   1      30.654  23.638  23.895  1.00  0.00     0.023 A 
ATOM     11  Cl  UNL A   1      34.229  26.148  25.056  1.00  0.00    -0.082 Cl
ATOM     12  C   UNL A   1      31.729  23.049  24.559  1.00  0.00     0.057 A 
ATOM     13  Cl  UNL A   1      31.494  21.438  25.150  1.00  0.00    -0.083 Cl
BRANCH   7  14
ATOM     14  S   UNL A   1      32.088  27.224  22.748  1.00  0.00     0.244 S 
ATOM     15  O   UNL A   1      31.001  27.265  21.789  1.00  0.00    -0.207 OA
ATOM     16  O   UNL A   1      33.452  27.341  22.299  1.00  0.00    -0.207 OA
BRANCH  14  17
ATOM     17  N   UNL A   1      31.777  28.431  23.899  1.00  0.00    -0.197 NA
ATOM     18  C   UNL A   1      33.795  30.105  26.562  1.00  0.00     0.009 C 
ATOM     19  C   UNL A   1      33.075  28.972  25.846  1.00  0.00     0.005 C 
ATOM     20  C   UNL A   1      32.942  29.236  24.348  1.00  0.00     0.106 C 
ATOM     21  C   UNL A   1      31.624  28.766  26.274  1.00  0.00     0.005 C 
ATOM     22  C   UNL A   1      31.075  27.918  25.123  1.00  0.00     0.106 C 
ATOM     23  C   UNL A   1      31.484  28.076  27.625  1.00  0.00     0.009 C 
ENDBRANCH  14  17
ENDBRANCH   7  14
ENDBRANCH   4   6
ENDBRANCH   3   4
ENDBRANCH   2   3
ENDBRANCH   1   2
BRANCH   1  24
ATOM     24  O   UNL A   1      37.295  21.479  25.852  1.00  0.00    -0.458 OA
BRANCH  24  25
ATOM     25  C   UNL A   1      38.609  21.168  25.962  1.00  0.00     0.338 C 
ATOM     26  O   UNL A   1      39.185  20.195  25.507  1.00  0.00    -0.246 OA
BRANCH  25  27
ATOM     27  C   UNL A   1      39.305  22.315  26.560  1.00  0.00     0.060 A 
ATOM     28  C   UNL A   1      38.884  23.575  26.156  1.00  0.00     0.016 A 
ATOM     29  C   UNL A   1      40.393  22.179  27.415  1.00  0.00     0.016 A 
ATOM     30  C   UNL A   1      39.579  24.708  26.561  1.00  0.00     0.010 A 
ATOM     31  C   UNL A   1      41.057  23.332  27.869  1.00  0.00     0.010 A 
ATOM     32  C   UNL A   1      40.670  24.613  27.429  1.00  0.00    -0.014 A 
BRANCH  32  33
ATOM     33  C   UNL A   1      41.412  25.851  27.817  1.00  0.00     0.031 A 
ATOM     34  C   UNL A   1      40.742  26.902  28.667  1.00  0.00     0.074 A 
ATOM     35  C   UNL A   1      42.704  26.020  27.464  1.00  0.00     0.049 A 
ATOM     36  N   UNL A   1      41.145  28.110  28.968  1.00  0.00    -0.248 NA
ATOM     37  C   UNL A   1      39.439  26.544  29.248  1.00  0.00     0.031 C 
ATOM     38  C   UNL A   1      43.515  25.046  26.728  1.00  0.00     0.029 A 
ATOM     39  N   UNL A   1      43.572  27.064  27.686  1.00  0.00    -0.354 N 
ATOM     40  C   UNL A   1      40.128  28.675  29.732  1.00  0.00     0.074 A 
ATOM     41  C   UNL A   1      39.082  27.678  29.832  1.00  0.00     0.031 C 
ATOM     42  C   UNL A   1      44.762  25.519  26.593  1.00  0.00     0.029 A 
ATOM     43  C   UNL A   1      44.817  26.875  27.129  1.00  0.00     0.049 A 
ATOM     44  H   UNL A   1      43.326  27.871  28.194  1.00  0.00     0.167 HD
ATOM     45  C   UNL A   1      40.075  29.910  30.294  1.00  0.00     0.034 A 
ATOM     46  C   UNL A   1      45.869  27.710  27.005  1.00  0.00     0.034 A 
ATOM     47  C   UNL A   1      41.148  30.876  30.216  1.00  0.00     0.049 A 
ATOM     48  C   UNL A   1      45.748  29.112  27.543  1.00  0.00     0.074 A 
ATOM     49  C   UNL A   1      41.199  32.151  30.754  1.00  0.00     0.029 A 
ATOM     50  N   UNL A   1      42.358  30.676  29.564  1.00  0.00    -0.354 N 
ATOM     51  N   UNL A   1      44.751  29.664  28.196  1.00  0.00    -0.248 NA
ATOM     52  C   UNL A   1      46.886  30.011  27.313  1.00  0.00     0.031 C 
ATOM     53  C   UNL A   1      42.402  32.748  30.361  1.00  0.00     0.029 A 
ATOM     54  C   UNL A   1      43.144  31.817  29.653  1.00  0.00     0.049 A 
ATOM     55  H   UNL A   1      42.622  29.845  29.107  1.00  0.00     0.167 HD
ATOM     56  C   UNL A   1      45.151  30.969  28.467  1.00  0.00     0.074 A 
ATOM     57  C   UNL A   1      46.488  31.112  27.932  1.00  0.00     0.031 C 
ATOM     58  C   UNL A   1      44.471  31.959  29.099  1.00  0.00     0.034 A 
BRANCH  45  59
ATOM     59  C   UNL A   1      38.787  30.317  30.975  1.00  0.00     0.023 A 
ATOM     60  C   UNL A   1      37.779  31.042  30.316  1.00  0.00     0.031 A 
ATOM     61  C   UNL A   1      38.577  29.981  32.326  1.00  0.00     0.131 A 
ATOM     62  C   UNL A   1      36.641  31.461  31.025  1.00  0.00     0.055 A 
ATOM     63  C   UNL A   1      37.408  30.331  33.002  1.00  0.00     0.041 A 
ATOM     64  F   UNL A   1      39.512  29.309  33.016  1.00  0.00    -0.206 F 
ATOM     65  C   UNL A   1      36.437  31.088  32.356  1.00  0.00     0.022 A 
BRANCH  62  66
ATOM     66  S   UNL A   1      35.494  32.620  30.228  1.00  0.00     0.124 S 
ATOM     67  O   UNL A   1      35.243  31.957  28.950  1.00  0.00    -0.237 OA
ATOM     68  O   UNL A   1      34.376  32.650  31.164  1.00  0.00    -0.237 OA
ATOM     69  O   UNL A   1      36.265  33.859  30.137  1.00  0.00    -0.744 OA
ENDBRANCH  62  66
ENDBRANCH  45  59
BRANCH  46  70
ATOM     70  C   UNL A   1      47.091  27.284  26.259  1.00  0.00     0.023 A 
ATOM     71  C   UNL A   1      48.111  26.550  26.885  1.00  0.00     0.031 A 
ATOM     72  C   UNL A   1      47.282  27.656  24.914  1.00  0.00     0.131 A 
ATOM     73  C   UNL A   1      49.287  26.245  26.180  1.00  0.00     0.055 A 
ATOM     74  C   UNL A   1      48.423  27.291  24.199  1.00  0.00     0.041 A 
ATOM     75  F   UNL A   1      46.350  28.374  24.267  1.00  0.00    -0.206 F 
ATOM     76  C   UNL A   1      49.441  26.592  24.837  1.00  0.00     0.022 A 
BRANCH  73  77
ATOM     77  S   UNL A   1      50.663  25.473  27.076  1.00  0.00     0.124 S 
ATOM     78  O   UNL A   1      51.607  25.205  25.996  1.00  0.00    -0.237 OA
ATOM     79  O   UNL A   1      51.045  26.524  28.013  1.00  0.00    -0.237 OA
ATOM     80  O   UNL A   1      50.056  24.290  27.683  1.00  0.00    -0.744 OA
ENDBRANCH  73  77
ENDBRANCH  46  70
BRANCH  58  81
ATOM     81  C   UNL A   1      45.189  33.276  29.276  1.00  0.00     0.023 A 
ATOM     82  C   UNL A   1      46.006  33.530  30.391  1.00  0.00     0.031 A 
ATOM     83  C   UNL A   1      45.036  34.300  28.322  1.00  0.00     0.131 A 
ATOM     84  C   UNL A   1      46.592  34.795  30.556  1.00  0.00     0.055 A 
ATOM     85  C   UNL A   1      45.674  35.534  28.458  1.00  0.00     0.041 A 
ATOM     86  F   UNL A   1      44.262  34.117  27.240  1.00  0.00    -0.206 F 
ATOM     87  C   UNL A   1      46.446  35.791  29.587  1.00  0.00     0.022 A 
BRANCH  84  88
ATOM     88  S   UNL A   1      47.467  35.156  32.103  1.00  0.00     0.124 S 
ATOM     89  O   UNL A   1      48.201  36.371  31.761  1.00  0.00    -0.237 OA
ATOM     90  O   UNL A   1      46.372  35.319  33.053  1.00  0.00    -0.237 OA
ATOM     91  O   UNL A   1      48.296  33.971  32.312  1.00  0.00    -0.744 OA
ENDBRANCH  84  88
ENDBRANCH  58  81
ENDBRANCH  32  33
ENDBRANCH  25  27
ENDBRANCH  24  25
ENDBRANCH   1  24
TORSDOF 16
ENDMDL
