MODEL 1
REMARK VINA RESULT:     -11.0      0.000      0.000
REMARK SMILES CCc1nc(C)c(C(=O)OCCOC(=O)c2ccc(-c3c4nc(c(-c5cc(S(=O)(=O)[O-])ccc5F)c5ccc([nH]5)c(-c5cc(S(=O)(=O)[O-])ccc5F)c5nc(c(-c6cc(S(=O)(=O)[O-])ccc6F)c6ccc3[nH]6)C=C5)C=C4)cc2)c(SCc2cnc(Cl)s2)n1
REMARK SMILES IDX 11 1 10 2 8 3 9 4 7 5 3 6 4 7 88 8 5 9 79 10 6 11 2 12 1 13
REMARK SMILES IDX 80 14 81 15 82 16 83 17 87 18 84 19 85 20 86 21 12 22 13 23
REMARK SMILES IDX 14 24 15 25 16 26 17 27 78 28 18 29 77 30 19 31 20 32 21 33
REMARK SMILES IDX 71 34 22 35 76 36 70 37 72 38 23 39 75 40 69 41 68 42 24 44
REMARK SMILES IDX 56 45 36 46 55 47 37 48 40 49 54 50 73 51 38 52 39 53 53 55
REMARK SMILES IDX 74 56 41 57 25 58 26 59 34 60 27 61 33 62 35 63 32 64 28 65
REMARK SMILES IDX 29 66 30 67 31 68 57 69 58 70 66 71 59 72 65 73 67 74 64 75
REMARK SMILES IDX 60 76 61 77 62 78 63 79 42 80 43 81 51 82 44 83 50 84 52 85
REMARK SMILES IDX 49 86 45 87 46 88 47 89 48 90
REMARK H PARENT 72 43 40 54
REMARK Flexibility Score: inf
ROOT
ATOM      1  C   UNL A   1      35.932  22.193  24.378  1.00  0.00     0.275 C 
ENDROOT
BRANCH   1   2
ATOM      2  O   UNL A   1      35.745  23.616  24.195  1.00  0.00    -0.458 OA
BRANCH   2   3
ATOM      3  C   UNL A   1      34.599  23.950  23.550  1.00  0.00     0.342 C 
ATOM      4  O   UNL A   1      34.295  23.425  22.498  1.00  0.00    -0.246 OA
BRANCH   3   5
ATOM      5  C   UNL A   1      33.700  24.893  24.243  1.00  0.00     0.113 A 
ATOM      6  C   UNL A   1      32.616  26.866  25.792  1.00  0.00     0.129 A 
ATOM      7  N   UNL A   1      32.968  27.184  24.548  1.00  0.00    -0.237 NA
ATOM      8  N   UNL A   1      32.619  25.612  26.245  1.00  0.00    -0.226 NA
ATOM      9  C   UNL A   1      33.473  26.194  23.769  1.00  0.00     0.057 A 
ATOM     10  C   UNL A   1      33.125  24.600  25.482  1.00  0.00     0.115 A 
ATOM     11  C   UNL A   1      33.726  26.671  22.368  1.00  0.00     0.068 C 
BRANCH   6  12
ATOM     12  C   UNL A   1      32.281  27.966  26.762  1.00  0.00     0.074 C 
ATOM     13  C   UNL A   1      33.505  28.721  27.251  1.00  0.00     0.012 C 
ENDBRANCH   6  12
BRANCH  10  14
ATOM     14  S   UNL A   1      32.834  23.128  26.453  1.00  0.00    -0.100 SA
BRANCH  14  15
ATOM     15  C   UNL A   1      31.666  21.923  25.750  1.00  0.00     0.125 C 
BRANCH  15  16
ATOM     16  C   UNL A   1      32.293  20.795  24.997  1.00  0.00     0.036 A 
ATOM     17  C   UNL A   1      32.153  20.477  23.655  1.00  0.00     0.129 A 
ATOM     18  S   UNL A   1      33.232  19.567  25.749  1.00  0.00    -0.107 S 
ATOM     19  N   UNL A   1      32.819  19.341  23.224  1.00  0.00    -0.233 NA
ATOM     20  C   UNL A   1      33.430  18.811  24.251  1.00  0.00     0.183 A 
ATOM     21  Cl  UNL A   1      34.408  17.407  24.130  1.00  0.00    -0.051 Cl
ENDBRANCH  15  16
ENDBRANCH  14  15
ENDBRANCH  10  14
ENDBRANCH   3   5
ENDBRANCH   2   3
ENDBRANCH   1   2
BRANCH   1  22
ATOM     22  C   UNL A   1      37.387  21.770  24.655  1.00  0.00     0.275 C 
BRANCH  22  23
ATOM     23  O   UNL A   1      37.755  21.842  26.047  1.00  0.00    -0.458 OA
BRANCH  23  24
ATOM     24  C   UNL A   1      39.092  21.933  26.278  1.00  0.00     0.338 C 
ATOM     25  O   UNL A   1      39.929  21.121  25.910  1.00  0.00    -0.246 OA
BRANCH  24  26
ATOM     26  C   UNL A   1      39.458  23.246  26.874  1.00  0.00     0.060 A 
ATOM     27  C   UNL A   1      38.789  24.377  26.386  1.00  0.00     0.016 A 
ATOM     28  C   UNL A   1      40.421  23.396  27.877  1.00  0.00     0.016 A 
ATOM     29  C   UNL A   1      39.075  25.648  26.889  1.00  0.00     0.010 A 
ATOM     30  C   UNL A   1      40.730  24.680  28.361  1.00  0.00     0.010 A 
ATOM     31  C   UNL A   1      40.068  25.815  27.862  1.00  0.00    -0.014 A 
BRANCH  31  32
ATOM     32  C   UNL A   1      40.509  27.192  28.212  1.00  0.00     0.031 A 
ATOM     33  C   UNL A   1      41.952  27.559  28.001  1.00  0.00     0.074 A 
ATOM     34  C   UNL A   1      39.644  28.122  28.658  1.00  0.00     0.049 A 
ATOM     35  N   UNL A   1      42.556  28.704  28.190  1.00  0.00    -0.248 NA
ATOM     36  C   UNL A   1      42.827  26.488  27.504  1.00  0.00     0.031 C 
ATOM     37  C   UNL A   1      38.213  27.914  28.854  1.00  0.00     0.029 A 
ATOM     38  N   UNL A   1      39.845  29.432  29.022  1.00  0.00    -0.354 N 
ATOM     39  C   UNL A   1      43.877  28.502  27.809  1.00  0.00     0.074 A 
ATOM     40  C   UNL A   1      43.993  27.111  27.422  1.00  0.00     0.031 C 
ATOM     41  C   UNL A   1      37.663  29.053  29.312  1.00  0.00     0.029 A 
ATOM     42  C   UNL A   1      38.707  30.065  29.469  1.00  0.00     0.049 A 
ATOM     43  H   UNL A   1      40.721  29.876  28.969  1.00  0.00     0.167 HD
ATOM     44  C   UNL A   1      44.899  29.392  27.774  1.00  0.00     0.034 A 
ATOM     45  C   UNL A   1      38.532  31.310  29.962  1.00  0.00     0.034 A 
ATOM     46  C   UNL A   1      44.795  30.762  28.215  1.00  0.00     0.049 A 
ATOM     47  C   UNL A   1      39.716  32.249  30.034  1.00  0.00     0.074 A 
ATOM     48  C   UNL A   1      45.777  31.736  28.245  1.00  0.00     0.029 A 
ATOM     49  N   UNL A   1      43.642  31.348  28.725  1.00  0.00    -0.354 N 
ATOM     50  N   UNL A   1      40.957  32.050  29.653  1.00  0.00    -0.248 NA
ATOM     51  C   UNL A   1      39.471  33.586  30.596  1.00  0.00     0.031 C 
ATOM     52  C   UNL A   1      45.243  32.883  28.841  1.00  0.00     0.029 A 
ATOM     53  C   UNL A   1      43.901  32.656  29.107  1.00  0.00     0.049 A 
ATOM     54  H   UNL A   1      42.770  30.900  28.804  1.00  0.00     0.167 HD
ATOM     55  C   UNL A   1      41.626  33.251  29.890  1.00  0.00     0.074 A 
ATOM     56  C   UNL A   1      40.652  34.167  30.441  1.00  0.00     0.031 C 
ATOM     57  C   UNL A   1      42.927  33.567  29.660  1.00  0.00     0.034 A 
BRANCH  44  58
ATOM     58  C   UNL A   1      46.235  28.876  27.299  1.00  0.00     0.023 A 
ATOM     59  C   UNL A   1      46.493  28.652  25.935  1.00  0.00     0.031 A 
ATOM     60  C   UNL A   1      47.242  28.553  28.225  1.00  0.00     0.131 A 
ATOM     61  C   UNL A   1      47.698  28.053  25.541  1.00  0.00     0.055 A 
ATOM     62  C   UNL A   1      48.471  28.030  27.820  1.00  0.00     0.041 A 
ATOM     63  F   UNL A   1      47.041  28.721  29.540  1.00  0.00    -0.206 F 
ATOM     64  C   UNL A   1      48.699  27.762  26.472  1.00  0.00     0.022 A 
BRANCH  61  65
ATOM     65  S   UNL A   1      47.880  27.520  23.817  1.00  0.00     0.124 S 
ATOM     66  O   UNL A   1      47.572  26.095  23.914  1.00  0.00    -0.237 OA
ATOM     67  O   UNL A   1      46.894  28.343  23.127  1.00  0.00    -0.237 OA
ATOM     68  O   UNL A   1      49.276  27.828  23.509  1.00  0.00    -0.744 OA
ENDBRANCH  61  65
ENDBRANCH  44  58
BRANCH  45  69
ATOM     69  C   UNL A   1      37.199  31.747  30.475  1.00  0.00     0.023 A 
ATOM     70  C   UNL A   1      36.291  32.441  29.658  1.00  0.00     0.031 A 
ATOM     71  C   UNL A   1      36.853  31.551  31.824  1.00  0.00     0.131 A 
ATOM     72  C   UNL A   1      35.110  32.962  30.211  1.00  0.00     0.055 A 
ATOM     73  C   UNL A   1      35.652  32.022  32.355  1.00  0.00     0.041 A 
ATOM     74  F   UNL A   1      37.686  30.899  32.651  1.00  0.00    -0.206 F 
ATOM     75  C   UNL A   1      34.778  32.747  31.550  1.00  0.00     0.022 A 
BRANCH  72  76
ATOM     76  S   UNL A   1      34.055  34.017  29.177  1.00  0.00     0.124 S 
ATOM     77  O   UNL A   1      35.023  34.963  28.635  1.00  0.00    -0.237 OA
ATOM     78  O   UNL A   1      33.498  33.055  28.232  1.00  0.00    -0.237 OA
ATOM     79  O   UNL A   1      33.098  34.578  30.128  1.00  0.00    -0.744 OA
ENDBRANCH  72  76
ENDBRANCH  45  69
BRANCH  57  80
ATOM     80  C   UNL A   1      43.357  34.987  29.946  1.00  0.00     0.023 A 
ATOM     81  C   UNL A   1      43.292  36.000  28.972  1.00  0.00     0.031 A 
ATOM     82  C   UNL A   1      43.841  35.331  31.222  1.00  0.00     0.131 A 
ATOM     83  C   UNL A   1      43.752  37.293  29.275  1.00  0.00     0.055 A 
ATOM     84  C   UNL A   1      44.243  36.630  31.534  1.00  0.00     0.041 A 
ATOM     85  F   UNL A   1      43.928  34.405  32.191  1.00  0.00    -0.206 F 
ATOM     86  C   UNL A   1      44.211  37.618  30.554  1.00  0.00     0.022 A 
BRANCH  83  87
ATOM     87  S   UNL A   1      43.822  38.530  27.949  1.00  0.00     0.124 S 
ATOM     88  O   UNL A   1      44.386  39.686  28.640  1.00  0.00    -0.237 OA
ATOM     89  O   UNL A   1      44.689  37.887  26.968  1.00  0.00    -0.237 OA
ATOM     90  O   UNL A   1      42.425  38.675  27.540  1.00  0.00    -0.744 OA
ENDBRANCH  83  87
ENDBRANCH  57  80
ENDBRANCH  31  32
ENDBRANCH  24  26
ENDBRANCH  23  24
ENDBRANCH  22  23
ENDBRANCH   1  22
TORSDOF 18
ENDMDL
MODEL 2
REMARK VINA RESULT:     -10.9      5.491     10.428
REMARK SMILES CCc1nc(C)c(C(=O)OCCOC(=O)c2ccc(-c3c4nc(c(-c5cc(S(=O)(=O)[O-])ccc5F)c5ccc([nH]5)c(-c5cc(S(=O)(=O)[O-])ccc5F)c5nc(c(-c6cc(S(=O)(=O)[O-])ccc6F)c6ccc3[nH]6)C=C5)C=C4)cc2)c(SCc2cnc(Cl)s2)n1
REMARK SMILES IDX 11 1 10 2 8 3 9 4 7 5 3 6 4 7 88 8 5 9 79 10 6 11 2 12 1 13
REMARK SMILES IDX 80 14 81 15 82 16 83 17 87 18 84 19 85 20 86 21 12 22 13 23
REMARK SMILES IDX 14 24 15 25 16 26 17 27 78 28 18 29 77 30 19 31 20 32 21 33
REMARK SMILES IDX 71 34 22 35 76 36 70 37 72 38 23 39 75 40 69 41 68 42 24 44
REMARK SMILES IDX 56 45 36 46 55 47 37 48 40 49 54 50 73 51 38 52 39 53 53 55
REMARK SMILES IDX 74 56 41 57 25 58 26 59 34 60 27 61 33 62 35 63 32 64 28 65
REMARK SMILES IDX 29 66 30 67 31 68 57 69 58 70 66 71 59 72 65 73 67 74 64 75
REMARK SMILES IDX 60 76 61 77 62 78 63 79 42 80 43 81 51 82 44 83 50 84 52 85
REMARK SMILES IDX 49 86 45 87 46 88 47 89 48 90
REMARK H PARENT 72 43 40 54
REMARK Flexibility Score: inf
ROOT
ATOM      1  C   UNL A   1      32.024  30.774  26.610  1.00  0.00     0.275 C 
ENDROOT
BRANCH   1   2
ATOM      2  O   UNL A   1      31.449  30.079  25.479  1.00  0.00    -0.458 OA
BRANCH   2   3
ATOM      3  C   UNL A   1      32.319  29.279  24.813  1.00  0.00     0.342 C 
ATOM      4  O   UNL A   1      32.950  29.692  23.862  1.00  0.00    -0.246 OA
BRANCH   3   5
ATOM      5  C   UNL A   1      32.536  27.929  25.370  1.00  0.00     0.113 A 
ATOM      6  C   UNL A   1      33.308  25.350  25.838  1.00  0.00     0.129 A 
ATOM      7  N   UNL A   1      34.091  26.320  26.304  1.00  0.00    -0.237 NA
ATOM      8  N   UNL A   1      32.106  25.583  25.308  1.00  0.00    -0.226 NA
ATOM      9  C   UNL A   1      33.688  27.600  26.101  1.00  0.00     0.057 A 
ATOM     10  C   UNL A   1      31.680  26.861  25.092  1.00  0.00     0.115 A 
ATOM     11  C   UNL A   1      34.610  28.580  26.768  1.00  0.00     0.068 C 
BRANCH   6  12
ATOM     12  C   UNL A   1      33.823  23.937  25.823  1.00  0.00     0.074 C 
ATOM     13  C   UNL A   1      35.339  23.856  25.863  1.00  0.00     0.012 C 
ENDBRANCH   6  12
BRANCH  10  14
ATOM     14  S   UNL A   1      30.015  26.672  24.469  1.00  0.00    -0.100 SA
BRANCH  14  15
ATOM     15  C   UNL A   1      29.708  27.318  22.797  1.00  0.00     0.125 C 
BRANCH  15  16
ATOM     16  C   UNL A   1      29.002  28.635  22.744  1.00  0.00     0.036 A 
ATOM     17  C   UNL A   1      27.691  28.920  23.093  1.00  0.00     0.129 A 
ATOM     18  S   UNL A   1      29.705  30.055  22.077  1.00  0.00    -0.107 S 
ATOM     19  N   UNL A   1      27.280  30.228  22.903  1.00  0.00    -0.233 NA
ATOM     20  C   UNL A   1      28.278  30.901  22.394  1.00  0.00     0.183 A 
ATOM     21  Cl  UNL A   1      28.191  32.579  22.047  1.00  0.00    -0.051 Cl
ENDBRANCH  15  16
ENDBRANCH  14  15
ENDBRANCH  10  14
ENDBRANCH   3   5
ENDBRANCH   2   3
ENDBRANCH   1   2
BRANCH   1  22
ATOM     22  C   UNL A   1      31.882  32.306  26.559  1.00  0.00     0.275 C 
BRANCH  22  23
ATOM     23  O   UNL A   1      32.014  32.943  27.846  1.00  0.00    -0.458 OA
BRANCH  23  24
ATOM     24  C   UNL A   1      33.045  33.825  27.942  1.00  0.00     0.338 C 
ATOM     25  O   UNL A   1      32.943  35.040  27.856  1.00  0.00    -0.246 OA
BRANCH  24  26
ATOM     26  C   UNL A   1      34.305  33.153  28.358  1.00  0.00     0.060 A 
ATOM     27  C   UNL A   1      34.184  31.937  29.045  1.00  0.00     0.016 A 
ATOM     28  C   UNL A   1      35.578  33.673  28.099  1.00  0.00     0.016 A 
ATOM     29  C   UNL A   1      35.317  31.243  29.474  1.00  0.00     0.010 A 
ATOM     30  C   UNL A   1      36.717  32.989  28.559  1.00  0.00     0.010 A 
ATOM     31  C   UNL A   1      36.594  31.776  29.259  1.00  0.00    -0.014 A 
BRANCH  31  32
ATOM     32  C   UNL A   1      37.762  31.136  29.921  1.00  0.00     0.031 A 
ATOM     33  C   UNL A   1      38.096  31.535  31.332  1.00  0.00     0.074 A 
ATOM     34  C   UNL A   1      38.487  30.179  29.311  1.00  0.00     0.049 A 
ATOM     35  N   UNL A   1      39.034  31.085  32.125  1.00  0.00    -0.248 NA
ATOM     36  C   UNL A   1      37.250  32.580  31.927  1.00  0.00     0.031 C 
ATOM     37  C   UNL A   1      38.238  29.662  27.969  1.00  0.00     0.029 A 
ATOM     38  N   UNL A   1      39.580  29.469  29.746  1.00  0.00    -0.354 N 
ATOM     39  C   UNL A   1      38.876  31.769  33.324  1.00  0.00     0.074 A 
ATOM     40  C   UNL A   1      37.780  32.698  33.135  1.00  0.00     0.031 C 
ATOM     41  C   UNL A   1      39.157  28.723  27.683  1.00  0.00     0.029 A 
ATOM     42  C   UNL A   1      40.078  28.589  28.811  1.00  0.00     0.049 A 
ATOM     43  H   UNL A   1      39.971  29.579  30.642  1.00  0.00     0.167 HD
ATOM     44  C   UNL A   1      39.571  31.634  34.480  1.00  0.00     0.034 A 
ATOM     45  C   UNL A   1      41.160  27.782  28.855  1.00  0.00     0.034 A 
ATOM     46  C   UNL A   1      40.699  30.750  34.648  1.00  0.00     0.049 A 
ATOM     47  C   UNL A   1      42.000  27.741  30.113  1.00  0.00     0.074 A 
ATOM     48  C   UNL A   1      41.486  30.559  35.769  1.00  0.00     0.029 A 
ATOM     49  N   UNL A   1      41.216  29.924  33.657  1.00  0.00    -0.354 N 
ATOM     50  N   UNL A   1      41.829  28.381  31.246  1.00  0.00    -0.248 NA
ATOM     51  C   UNL A   1      43.177  26.858  30.098  1.00  0.00     0.031 C 
ATOM     52  C   UNL A   1      42.522  29.679  35.436  1.00  0.00     0.029 A 
ATOM     53  C   UNL A   1      42.334  29.252  34.131  1.00  0.00     0.049 A 
ATOM     54  H   UNL A   1      40.844  29.830  32.751  1.00  0.00     0.167 HD
ATOM     55  C   UNL A   1      42.849  27.944  32.090  1.00  0.00     0.074 A 
ATOM     56  C   UNL A   1      43.627  26.984  31.337  1.00  0.00     0.031 C 
ATOM     57  C   UNL A   1      43.110  28.298  33.375  1.00  0.00     0.034 A 
BRANCH  44  58
ATOM     58  C   UNL A   1      39.158  32.519  35.630  1.00  0.00     0.023 A 
ATOM     59  C   UNL A   1      39.607  33.848  35.732  1.00  0.00     0.031 A 
ATOM     60  C   UNL A   1      38.348  32.013  36.662  1.00  0.00     0.131 A 
ATOM     61  C   UNL A   1      39.306  34.600  36.877  1.00  0.00     0.055 A 
ATOM     62  C   UNL A   1      37.988  32.793  37.761  1.00  0.00     0.041 A 
ATOM     63  F   UNL A   1      37.913  30.745  36.629  1.00  0.00    -0.206 F 
ATOM     64  C   UNL A   1      38.480  34.090  37.881  1.00  0.00     0.022 A 
BRANCH  61  65
ATOM     65  S   UNL A   1      40.133  36.198  37.108  1.00  0.00     0.124 S 
ATOM     66  O   UNL A   1      39.979  36.804  35.788  1.00  0.00    -0.237 OA
ATOM     67  O   UNL A   1      39.357  36.803  38.185  1.00  0.00    -0.237 OA
ATOM     68  O   UNL A   1      41.503  35.826  37.458  1.00  0.00    -0.744 OA
ENDBRANCH  61  65
ENDBRANCH  44  58
BRANCH  45  69
ATOM     69  C   UNL A   1      41.557  26.973  27.664  1.00  0.00     0.023 A 
ATOM     70  C   UNL A   1      41.465  25.571  27.667  1.00  0.00     0.031 A 
ATOM     71  C   UNL A   1      42.120  27.593  26.534  1.00  0.00     0.131 A 
ATOM     72  C   UNL A   1      41.981  24.834  26.589  1.00  0.00     0.055 A 
ATOM     73  C   UNL A   1      42.579  26.858  25.440  1.00  0.00     0.041 A 
ATOM     74  F   UNL A   1      42.237  28.930  26.479  1.00  0.00    -0.206 F 
ATOM     75  C   UNL A   1      42.525  25.468  25.470  1.00  0.00     0.022 A 
BRANCH  72  76
ATOM     76  S   UNL A   1      42.022  23.024  26.711  1.00  0.00     0.124 S 
ATOM     77  O   UNL A   1      43.363  22.725  26.223  1.00  0.00    -0.237 OA
ATOM     78  O   UNL A   1      41.795  22.811  28.136  1.00  0.00    -0.237 OA
ATOM     79  O   UNL A   1      40.931  22.598  25.837  1.00  0.00    -0.744 OA
ENDBRANCH  72  76
ENDBRANCH  45  69
BRANCH  57  80
ATOM     80  C   UNL A   1      44.251  27.593  34.071  1.00  0.00     0.023 A 
ATOM     81  C   UNL A   1      44.055  26.438  34.850  1.00  0.00     0.031 A 
ATOM     82  C   UNL A   1      45.562  28.091  33.951  1.00  0.00     0.131 A 
ATOM     83  C   UNL A   1      45.143  25.850  35.517  1.00  0.00     0.055 A 
ATOM     84  C   UNL A   1      46.648  27.470  34.570  1.00  0.00     0.041 A 
ATOM     85  F   UNL A   1      45.809  29.192  33.223  1.00  0.00    -0.206 F 
ATOM     86  C   UNL A   1      46.440  26.350  35.369  1.00  0.00     0.022 A 
BRANCH  83  87
ATOM     87  S   UNL A   1      44.831  24.470  36.654  1.00  0.00     0.124 S 
ATOM     88  O   UNL A   1      46.144  24.271  37.259  1.00  0.00    -0.237 OA
ATOM     89  O   UNL A   1      43.800  25.016  37.531  1.00  0.00    -0.237 OA
ATOM     90  O   UNL A   1      44.386  23.393  35.772  1.00  0.00    -0.744 OA
ENDBRANCH  83  87
ENDBRANCH  57  80
ENDBRANCH  31  32
ENDBRANCH  24  26
ENDBRANCH  23  24
ENDBRANCH  22  23
ENDBRANCH   1  22
TORSDOF 18
ENDMDL
MODEL 3
REMARK VINA RESULT:     -10.8      2.074      2.532
REMARK SMILES CCc1nc(C)c(C(=O)OCCOC(=O)c2ccc(-c3c4nc(c(-c5cc(S(=O)(=O)[O-])ccc5F)c5ccc([nH]5)c(-c5cc(S(=O)(=O)[O-])ccc5F)c5nc(c(-c6cc(S(=O)(=O)[O-])ccc6F)c6ccc3[nH]6)C=C5)C=C4)cc2)c(SCc2cnc(Cl)s2)n1
REMARK SMILES IDX 11 1 10 2 8 3 9 4 7 5 3 6 4 7 88 8 5 9 79 10 6 11 2 12 1 13
REMARK SMILES IDX 80 14 81 15 82 16 83 17 87 18 84 19 85 20 86 21 12 22 13 23
REMARK SMILES IDX 14 24 15 25 16 26 17 27 78 28 18 29 77 30 19 31 20 32 21 33
REMARK SMILES IDX 71 34 22 35 76 36 70 37 72 38 23 39 75 40 69 41 68 42 24 44
REMARK SMILES IDX 56 45 36 46 55 47 37 48 40 49 54 50 73 51 38 52 39 53 53 55
REMARK SMILES IDX 74 56 41 57 25 58 26 59 34 60 27 61 33 62 35 63 32 64 28 65
REMARK SMILES IDX 29 66 30 67 31 68 57 69 58 70 66 71 59 72 65 73 67 74 64 75
REMARK SMILES IDX 60 76 61 77 62 78 63 79 42 80 43 81 51 82 44 83 50 84 52 85
REMARK SMILES IDX 49 86 45 87 46 88 47 89 48 90
REMARK H PARENT 72 43 40 54
REMARK Flexibility Score: inf
ROOT
ATOM      1  C   UNL A   1      36.280  21.724  25.315  1.00  0.00     0.275 C 
ENDROOT
BRANCH   1   2
ATOM      2  O   UNL A   1      35.188  21.378  26.199  1.00  0.00    -0.458 OA
BRANCH   2   3
ATOM      3  C   UNL A   1      34.415  22.430  26.570  1.00  0.00     0.342 C 
ATOM      4  O   UNL A   1      34.515  22.923  27.675  1.00  0.00    -0.246 OA
BRANCH   3   5
ATOM      5  C   UNL A   1      33.536  23.005  25.533  1.00  0.00     0.113 A 
ATOM      6  C   UNL A   1      31.555  24.281  24.150  1.00  0.00     0.129 A 
ATOM      7  N   UNL A   1      32.632  24.992  24.480  1.00  0.00    -0.237 NA
ATOM      8  N   UNL A   1      31.482  22.961  24.320  1.00  0.00    -0.226 NA
ATOM      9  C   UNL A   1      33.629  24.347  25.136  1.00  0.00     0.057 A 
ATOM     10  C   UNL A   1      32.472  22.290  24.978  1.00  0.00     0.115 A 
ATOM     11  C   UNL A   1      34.817  25.242  25.350  1.00  0.00     0.068 C 
BRANCH   6  12
ATOM     12  C   UNL A   1      30.333  24.997  23.643  1.00  0.00     0.074 C 
ATOM     13  C   UNL A   1      29.810  26.041  24.614  1.00  0.00     0.012 C 
ENDBRANCH   6  12
BRANCH  10  14
ATOM     14  S   UNL A   1      31.985  20.573  24.876  1.00  0.00    -0.100 SA
BRANCH  14  15
ATOM     15  C   UNL A   1      32.461  19.694  23.356  1.00  0.00     0.125 C 
BRANCH  15  16
ATOM     16  C   UNL A   1      33.208  18.417  23.569  1.00  0.00     0.036 A 
ATOM     17  C   UNL A   1      33.255  17.304  22.744  1.00  0.00     0.129 A 
ATOM     18  S   UNL A   1      34.067  18.057  25.014  1.00  0.00    -0.107 S 
ATOM     19  N   UNL A   1      33.998  16.231  23.208  1.00  0.00    -0.233 NA
ATOM     20  C   UNL A   1      34.479  16.545  24.383  1.00  0.00     0.183 A 
ATOM     21  Cl  UNL A   1      35.496  15.497  25.284  1.00  0.00    -0.051 Cl
ENDBRANCH  15  16
ENDBRANCH  14  15
ENDBRANCH  10  14
ENDBRANCH   3   5
ENDBRANCH   2   3
ENDBRANCH   1   2
BRANCH   1  22
ATOM     22  C   UNL A   1      37.501  20.791  25.413  1.00  0.00     0.275 C 
BRANCH  22  23
ATOM     23  O   UNL A   1      38.764  21.477  25.298  1.00  0.00    -0.458 OA
BRANCH  23  24
ATOM     24  C   UNL A   1      39.607  21.297  26.350  1.00  0.00     0.338 C 
ATOM     25  O   UNL A   1      40.098  20.229  26.686  1.00  0.00    -0.246 OA
BRANCH  24  26
ATOM     26  C   UNL A   1      40.027  22.595  26.945  1.00  0.00     0.060 A 
ATOM     27  C   UNL A   1      39.373  23.747  26.488  1.00  0.00     0.016 A 
ATOM     28  C   UNL A   1      41.026  22.710  27.917  1.00  0.00     0.016 A 
ATOM     29  C   UNL A   1      39.709  25.006  26.993  1.00  0.00     0.010 A 
ATOM     30  C   UNL A   1      41.384  23.980  28.402  1.00  0.00     0.010 A 
ATOM     31  C   UNL A   1      40.736  25.137  27.934  1.00  0.00    -0.014 A 
BRANCH  31  32
ATOM     32  C   UNL A   1      41.226  26.498  28.282  1.00  0.00     0.031 A 
ATOM     33  C   UNL A   1      42.646  26.860  27.944  1.00  0.00     0.074 A 
ATOM     34  C   UNL A   1      40.418  27.422  28.836  1.00  0.00     0.049 A 
ATOM     35  N   UNL A   1      43.278  27.992  28.109  1.00  0.00    -0.248 NA
ATOM     36  C   UNL A   1      43.456  25.796  27.333  1.00  0.00     0.031 C 
ATOM     37  C   UNL A   1      39.009  27.221  29.162  1.00  0.00     0.029 A 
ATOM     38  N   UNL A   1      40.668  28.718  29.219  1.00  0.00    -0.354 N 
ATOM     39  C   UNL A   1      44.554  27.791  27.596  1.00  0.00     0.074 A 
ATOM     40  C   UNL A   1      44.617  26.411  27.159  1.00  0.00     0.031 C 
ATOM     41  C   UNL A   1      38.520  28.349  29.706  1.00  0.00     0.029 A 
ATOM     42  C   UNL A   1      39.586  29.347  29.792  1.00  0.00     0.049 A 
ATOM     43  H   UNL A   1      41.541  29.156  29.095  1.00  0.00     0.167 HD
ATOM     44  C   UNL A   1      45.579  28.673  27.491  1.00  0.00     0.034 A 
ATOM     45  C   UNL A   1      39.473  30.578  30.336  1.00  0.00     0.034 A 
ATOM     46  C   UNL A   1      45.533  30.029  27.981  1.00  0.00     0.049 A 
ATOM     47  C   UNL A   1      40.670  31.503  30.323  1.00  0.00     0.074 A 
ATOM     48  C   UNL A   1      46.526  30.992  27.946  1.00  0.00     0.029 A 
ATOM     49  N   UNL A   1      44.442  30.609  28.616  1.00  0.00    -0.354 N 
ATOM     50  N   UNL A   1      41.866  31.305  29.819  1.00  0.00    -0.248 NA
ATOM     51  C   UNL A   1      40.496  32.824  30.946  1.00  0.00     0.031 C 
ATOM     52  C   UNL A   1      46.064  32.126  28.625  1.00  0.00     0.029 A 
ATOM     53  C   UNL A   1      44.751  31.902  29.011  1.00  0.00     0.049 A 
ATOM     54  H   UNL A   1      43.576  30.166  28.765  1.00  0.00     0.167 HD
ATOM     55  C   UNL A   1      42.569  32.492  30.026  1.00  0.00     0.074 A 
ATOM     56  C   UNL A   1      41.662  33.399  30.696  1.00  0.00     0.031 C 
ATOM     57  C   UNL A   1      43.845  32.804  29.682  1.00  0.00     0.034 A 
BRANCH  44  58
ATOM     58  C   UNL A   1      46.857  28.159  26.874  1.00  0.00     0.023 A 
ATOM     59  C   UNL A   1      47.080  28.222  25.487  1.00  0.00     0.031 A 
ATOM     60  C   UNL A   1      47.839  27.553  27.676  1.00  0.00     0.131 A 
ATOM     61  C   UNL A   1      48.222  27.622  24.936  1.00  0.00     0.055 A 
ATOM     62  C   UNL A   1      49.011  27.027  27.130  1.00  0.00     0.041 A 
ATOM     63  F   UNL A   1      47.667  27.443  29.002  1.00  0.00    -0.206 F 
ATOM     64  C   UNL A   1      49.200  27.046  25.750  1.00  0.00     0.022 A 
BRANCH  61  65
ATOM     65  S   UNL A   1      48.337  27.470  23.133  1.00  0.00     0.124 S 
ATOM     66  O   UNL A   1      49.621  28.113  22.862  1.00  0.00    -0.237 OA
ATOM     67  O   UNL A   1      48.290  26.025  22.934  1.00  0.00    -0.237 OA
ATOM     68  O   UNL A   1      47.168  28.204  22.652  1.00  0.00    -0.744 OA
ENDBRANCH  61  65
ENDBRANCH  44  58
BRANCH  45  69
ATOM     69  C   UNL A   1      38.201  31.010  30.988  1.00  0.00     0.023 A 
ATOM     70  C   UNL A   1      37.190  31.661  30.262  1.00  0.00     0.031 A 
ATOM     71  C   UNL A   1      38.018  30.854  32.374  1.00  0.00     0.131 A 
ATOM     72  C   UNL A   1      36.072  32.182  30.932  1.00  0.00     0.055 A 
ATOM     73  C   UNL A   1      36.878  31.323  33.027  1.00  0.00     0.041 A 
ATOM     74  F   UNL A   1      38.954  30.243  33.118  1.00  0.00    -0.206 F 
ATOM     75  C   UNL A   1      35.902  32.006  32.307  1.00  0.00     0.022 A 
BRANCH  72  76
ATOM     76  S   UNL A   1      34.883  33.184  29.996  1.00  0.00     0.124 S 
ATOM     77  O   UNL A   1      34.303  32.193  29.098  1.00  0.00    -0.237 OA
ATOM     78  O   UNL A   1      34.009  33.683  31.053  1.00  0.00    -0.237 OA
ATOM     79  O   UNL A   1      35.720  34.195  29.355  1.00  0.00    -0.744 OA
ENDBRANCH  72  76
ENDBRANCH  45  69
BRANCH  57  80
ATOM     80  C   UNL A   1      44.317  34.211  29.968  1.00  0.00     0.023 A 
ATOM     81  C   UNL A   1      44.963  34.555  31.170  1.00  0.00     0.031 A 
ATOM     82  C   UNL A   1      44.114  35.227  29.016  1.00  0.00     0.131 A 
ATOM     83  C   UNL A   1      45.337  35.888  31.407  1.00  0.00     0.055 A 
ATOM     84  C   UNL A   1      44.540  36.538  29.233  1.00  0.00     0.041 A 
ATOM     85  F   UNL A   1      43.501  34.958  27.851  1.00  0.00    -0.206 F 
ATOM     86  C   UNL A   1      45.143  36.878  30.440  1.00  0.00     0.022 A 
BRANCH  83  87
ATOM     87  S   UNL A   1      46.005  36.334  33.034  1.00  0.00     0.124 S 
ATOM     88  O   UNL A   1      44.873  37.017  33.652  1.00  0.00    -0.237 OA
ATOM     89  O   UNL A   1      46.349  35.032  33.598  1.00  0.00    -0.237 OA
ATOM     90  O   UNL A   1      47.146  37.190  32.714  1.00  0.00    -0.744 OA
ENDBRANCH  83  87
ENDBRANCH  57  80
ENDBRANCH  31  32
ENDBRANCH  24  26
ENDBRANCH  23  24
ENDBRANCH  22  23
ENDBRANCH   1  22
TORSDOF 18
ENDMDL
