MODEL 1
REMARK VINA RESULT:     -10.7      0.000      0.000
REMARK SMILES COc1cc(/C=C/C(=O)OCCOC(=O)c2ccc(-c3c4nc(c(-c5cc(S(=O)(=O)[O-])ccc5F)c5ccc([nH]5)c(-c5cc(S(=O)(=O)[O-])ccc5F)c5nc(c(-c6cc(S(=O)(=O)[O-])ccc6F)c6ccc3[nH]6)C=C5)C=C4)cc2)cc(OC)c1O
REMARK SMILES IDX 12 1 11 2 10 3 8 4 9 5 7 6 6 7 5 8 3 9 4 10 83 11 80 12
REMARK SMILES IDX 79 13 2 14 1 15 84 16 81 18 82 19 13 20 14 21 15 22 16 23
REMARK SMILES IDX 17 24 78 25 18 26 77 27 19 28 20 29 21 30 71 31 22 32 76 33
REMARK SMILES IDX 70 34 72 35 23 36 75 37 69 38 68 39 24 41 56 42 36 43 55 44
REMARK SMILES IDX 37 45 40 46 54 47 73 48 38 49 39 50 53 52 74 53 41 54 25 55
REMARK SMILES IDX 26 56 34 57 27 58 33 59 35 60 32 61 28 62 29 63 30 64 31 65
REMARK SMILES IDX 57 66 58 67 66 68 59 69 65 70 67 71 64 72 60 73 61 74 62 75
REMARK SMILES IDX 63 76 42 77 43 78 51 79 44 80 50 81 52 82 49 83 45 84 46 85
REMARK SMILES IDX 47 86 48 87
REMARK H PARENT 84 17 72 40 40 51
REMARK Flexibility Score: inf
ROOT
ATOM      1  C   UNL A   1      36.267  20.797  25.334  1.00  0.00     0.275 C 
ENDROOT
BRANCH   1   2
ATOM      2  C   UNL A   1      35.242  21.901  25.612  1.00  0.00     0.275 C 
BRANCH   2   3
ATOM      3  O   UNL A   1      34.388  22.129  24.477  1.00  0.00    -0.459 OA
BRANCH   3   4
ATOM      4  C   UNL A   1      34.774  23.128  23.649  1.00  0.00     0.330 C 
ATOM      5  O   UNL A   1      35.603  23.041  22.755  1.00  0.00    -0.247 OA
BRANCH   4   6
ATOM      6  C   UNL A   1      34.047  24.390  23.892  1.00  0.00     0.094 C 
ATOM      7  C   UNL A   1      33.822  25.362  22.993  1.00  0.00     0.016 C 
BRANCH   7   8
ATOM      8  C   UNL A   1      33.147  26.620  23.354  1.00  0.00    -0.018 A 
ATOM      9  C   UNL A   1      32.996  28.645  24.724  1.00  0.00     0.165 A 
ATOM     10  C   UNL A   1      33.648  27.459  24.354  1.00  0.00     0.058 A 
ATOM     11  C   UNL A   1      31.817  29.010  24.057  1.00  0.00     0.200 A 
ATOM     12  C   UNL A   1      31.324  28.209  23.010  1.00  0.00     0.165 A 
ATOM     13  C   UNL A   1      31.997  27.023  22.673  1.00  0.00     0.058 A 
BRANCH   9  14
ATOM     14  O   UNL A   1      33.640  29.270  25.755  1.00  0.00    -0.493 OA
ATOM     15  C   UNL A   1      33.221  29.098  27.097  1.00  0.00     0.278 C 
ENDBRANCH   9  14
BRANCH  11  16
ATOM     16  O   UNL A   1      31.111  30.114  24.443  1.00  0.00    -0.502 OA
ATOM     17  H   UNL A   1      31.183  30.911  23.955  1.00  0.00     0.293 HD
ENDBRANCH  11  16
BRANCH  12  18
ATOM     18  O   UNL A   1      30.193  28.394  22.254  1.00  0.00    -0.493 OA
ATOM     19  C   UNL A   1      28.924  28.199  22.861  1.00  0.00     0.278 C 
ENDBRANCH  12  18
ENDBRANCH   7   8
ENDBRANCH   4   6
ENDBRANCH   3   4
ENDBRANCH   2   3
ENDBRANCH   1   2
BRANCH   1  20
ATOM     20  O   UNL A   1      37.526  21.324  24.876  1.00  0.00    -0.458 OA
BRANCH  20  21
ATOM     21  C   UNL A   1      38.601  20.967  25.623  1.00  0.00     0.338 C 
ATOM     22  O   UNL A   1      39.020  19.837  25.800  1.00  0.00    -0.246 OA
BRANCH  21  23
ATOM     23  C   UNL A   1      39.291  22.171  26.120  1.00  0.00     0.060 A 
ATOM     24  C   UNL A   1      38.720  23.416  25.841  1.00  0.00     0.016 A 
ATOM     25  C   UNL A   1      40.515  22.089  26.790  1.00  0.00     0.016 A 
ATOM     26  C   UNL A   1      39.370  24.586  26.230  1.00  0.00     0.010 A 
ATOM     27  C   UNL A   1      41.168  23.265  27.176  1.00  0.00     0.010 A 
ATOM     28  C   UNL A   1      40.604  24.521  26.893  1.00  0.00    -0.014 A 
BRANCH  28  29
ATOM     29  C   UNL A   1      41.316  25.775  27.251  1.00  0.00     0.031 A 
ATOM     30  C   UNL A   1      40.637  26.808  28.106  1.00  0.00     0.074 A 
ATOM     31  C   UNL A   1      42.576  25.974  26.823  1.00  0.00     0.049 A 
ATOM     32  N   UNL A   1      41.074  27.977  28.499  1.00  0.00    -0.248 NA
ATOM     33  C   UNL A   1      39.285  26.479  28.578  1.00  0.00     0.031 C 
ATOM     34  C   UNL A   1      43.349  25.030  26.014  1.00  0.00     0.029 A 
ATOM     35  N   UNL A   1      43.429  27.034  27.006  1.00  0.00    -0.354 N 
ATOM     36  C   UNL A   1      40.051  28.529  29.263  1.00  0.00     0.074 A 
ATOM     37  C   UNL A   1      38.959  27.577  29.247  1.00  0.00     0.031 C 
ATOM     38  C   UNL A   1      44.562  25.554  25.771  1.00  0.00     0.029 A 
ATOM     39  C   UNL A   1      44.639  26.884  26.368  1.00  0.00     0.049 A 
ATOM     40  H   UNL A   1      43.197  27.826  27.542  1.00  0.00     0.167 HD
ATOM     41  C   UNL A   1      40.031  29.715  29.921  1.00  0.00     0.034 A 
ATOM     42  C   UNL A   1      45.681  27.733  26.256  1.00  0.00     0.034 A 
ATOM     43  C   UNL A   1      41.124  30.659  29.918  1.00  0.00     0.049 A 
ATOM     44  C   UNL A   1      45.604  29.078  26.933  1.00  0.00     0.074 A 
ATOM     45  C   UNL A   1      41.213  31.881  30.565  1.00  0.00     0.029 A 
ATOM     46  N   UNL A   1      42.316  30.495  29.224  1.00  0.00    -0.354 N 
ATOM     47  N   UNL A   1      44.633  29.585  27.658  1.00  0.00    -0.248 NA
ATOM     48  C   UNL A   1      46.765  29.965  26.780  1.00  0.00     0.031 C 
ATOM     49  C   UNL A   1      42.426  32.482  30.207  1.00  0.00     0.029 A 
ATOM     50  C   UNL A   1      43.130  31.606  29.398  1.00  0.00     0.049 A 
ATOM     51  H   UNL A   1      42.551  29.704  28.685  1.00  0.00     0.167 HD
ATOM     52  C   UNL A   1      45.080  30.839  28.068  1.00  0.00     0.074 A 
ATOM     53  C   UNL A   1      46.412  31.004  27.521  1.00  0.00     0.031 C 
ATOM     54  C   UNL A   1      44.450  31.767  28.832  1.00  0.00     0.034 A 
BRANCH  41  55
ATOM     55  C   UNL A   1      38.761  30.078  30.654  1.00  0.00     0.023 A 
ATOM     56  C   UNL A   1      37.730  30.807  30.035  1.00  0.00     0.031 A 
ATOM     57  C   UNL A   1      38.590  29.711  32.001  1.00  0.00     0.131 A 
ATOM     58  C   UNL A   1      36.607  31.202  30.779  1.00  0.00     0.055 A 
ATOM     59  C   UNL A   1      37.437  30.042  32.715  1.00  0.00     0.041 A 
ATOM     60  F   UNL A   1      39.548  29.031  32.650  1.00  0.00    -0.206 F 
ATOM     61  C   UNL A   1      36.443  30.805  32.109  1.00  0.00     0.022 A 
BRANCH  58  62
ATOM     62  S   UNL A   1      35.427  32.357  30.026  1.00  0.00     0.124 S 
ATOM     63  O   UNL A   1      36.263  33.535  29.809  1.00  0.00    -0.237 OA
ATOM     64  O   UNL A   1      35.006  31.641  28.827  1.00  0.00    -0.237 OA
ATOM     65  O   UNL A   1      34.398  32.514  31.053  1.00  0.00    -0.744 OA
ENDBRANCH  58  62
ENDBRANCH  41  55
BRANCH  42  66
ATOM     66  C   UNL A   1      46.869  27.361  25.438  1.00  0.00     0.023 A 
ATOM     67  C   UNL A   1      47.012  27.807  24.115  1.00  0.00     0.031 A 
ATOM     68  C   UNL A   1      47.862  26.511  25.959  1.00  0.00     0.131 A 
ATOM     69  C   UNL A   1      48.101  27.371  23.344  1.00  0.00     0.055 A 
ATOM     70  C   UNL A   1      48.970  26.121  25.205  1.00  0.00     0.041 A 
ATOM     71  F   UNL A   1      47.774  26.054  27.219  1.00  0.00    -0.206 F 
ATOM     72  C   UNL A   1      49.088  26.541  23.884  1.00  0.00     0.022 A 
BRANCH  69  73
ATOM     73  S   UNL A   1      48.170  27.839  21.593  1.00  0.00     0.124 S 
ATOM     74  O   UNL A   1      46.851  28.429  21.389  1.00  0.00    -0.237 OA
ATOM     75  O   UNL A   1      49.298  28.764  21.570  1.00  0.00    -0.237 OA
ATOM     76  O   UNL A   1      48.396  26.567  20.909  1.00  0.00    -0.744 OA
ENDBRANCH  69  73
ENDBRANCH  42  66
BRANCH  54  77
ATOM     77  C   UNL A   1      45.218  33.026  29.152  1.00  0.00     0.023 A 
ATOM     78  C   UNL A   1      45.231  34.129  28.279  1.00  0.00     0.031 A 
ATOM     79  C   UNL A   1      45.965  33.115  30.340  1.00  0.00     0.131 A 
ATOM     80  C   UNL A   1      46.017  35.252  28.581  1.00  0.00     0.055 A 
ATOM     81  C   UNL A   1      46.700  34.257  30.664  1.00  0.00     0.041 A 
ATOM     82  F   UNL A   1      45.990  32.091  31.209  1.00  0.00    -0.206 F 
ATOM     83  C   UNL A   1      46.739  35.329  29.776  1.00  0.00     0.022 A 
BRANCH  80  84
ATOM     84  S   UNL A   1      46.155  36.578  27.353  1.00  0.00     0.124 S 
ATOM     85  O   UNL A   1      44.766  37.003  27.205  1.00  0.00    -0.237 OA
ATOM     86  O   UNL A   1      47.044  37.527  28.015  1.00  0.00    -0.237 OA
ATOM     87  O   UNL A   1      46.725  35.907  26.185  1.00  0.00    -0.744 OA
ENDBRANCH  80  84
ENDBRANCH  54  77
ENDBRANCH  28  29
ENDBRANCH  21  23
ENDBRANCH  20  21
ENDBRANCH   1  20
TORSDOF 18
ENDMDL
MODEL 2
REMARK VINA RESULT:     -10.7      4.753     10.226
REMARK SMILES COc1cc(/C=C/C(=O)OCCOC(=O)c2ccc(-c3c4nc(c(-c5cc(S(=O)(=O)[O-])ccc5F)c5ccc([nH]5)c(-c5cc(S(=O)(=O)[O-])ccc5F)c5nc(c(-c6cc(S(=O)(=O)[O-])ccc6F)c6ccc3[nH]6)C=C5)C=C4)cc2)cc(OC)c1O
REMARK SMILES IDX 12 1 11 2 10 3 8 4 9 5 7 6 6 7 5 8 3 9 4 10 83 11 80 12
REMARK SMILES IDX 79 13 2 14 1 15 84 16 81 18 82 19 13 20 14 21 15 22 16 23
REMARK SMILES IDX 17 24 78 25 18 26 77 27 19 28 20 29 21 30 71 31 22 32 76 33
REMARK SMILES IDX 70 34 72 35 23 36 75 37 69 38 68 39 24 41 56 42 36 43 55 44
REMARK SMILES IDX 37 45 40 46 54 47 73 48 38 49 39 50 53 52 74 53 41 54 25 55
REMARK SMILES IDX 26 56 34 57 27 58 33 59 35 60 32 61 28 62 29 63 30 64 31 65
REMARK SMILES IDX 57 66 58 67 66 68 59 69 65 70 67 71 64 72 60 73 61 74 62 75
REMARK SMILES IDX 63 76 42 77 43 78 51 79 44 80 50 81 52 82 49 83 45 84 46 85
REMARK SMILES IDX 47 86 48 87
REMARK H PARENT 84 17 72 40 40 51
REMARK Flexibility Score: inf
ROOT
ATOM      1  C   UNL A   1      31.637  30.086  25.618  1.00  0.00     0.275 C 
ENDROOT
BRANCH   1   2
ATOM      2  C   UNL A   1      31.476  28.693  25.000  1.00  0.00     0.275 C 
BRANCH   2   3
ATOM      3  O   UNL A   1      32.055  28.627  23.685  1.00  0.00    -0.459 OA
BRANCH   3   4
ATOM      4  C   UNL A   1      33.349  28.232  23.637  1.00  0.00     0.330 C 
ATOM      5  O   UNL A   1      34.246  28.781  23.013  1.00  0.00    -0.247 OA
BRANCH   4   6
ATOM      6  C   UNL A   1      33.621  27.048  24.476  1.00  0.00     0.094 C 
ATOM      7  C   UNL A   1      33.997  25.835  24.039  1.00  0.00     0.016 C 
BRANCH   7   8
ATOM      8  C   UNL A   1      34.174  24.696  24.954  1.00  0.00    -0.018 A 
ATOM      9  C   UNL A   1      33.318  23.205  26.699  1.00  0.00     0.165 A 
ATOM     10  C   UNL A   1      33.149  24.272  25.804  1.00  0.00     0.058 A 
ATOM     11  C   UNL A   1      34.547  22.529  26.727  1.00  0.00     0.200 A 
ATOM     12  C   UNL A   1      35.576  22.903  25.843  1.00  0.00     0.165 A 
ATOM     13  C   UNL A   1      35.375  23.983  24.967  1.00  0.00     0.058 A 
BRANCH   9  14
ATOM     14  O   UNL A   1      32.200  23.007  27.461  1.00  0.00    -0.493 OA
ATOM     15  C   UNL A   1      30.911  22.963  26.876  1.00  0.00     0.278 C 
ENDBRANCH   9  14
BRANCH  11  16
ATOM     16  O   UNL A   1      34.777  21.539  27.640  1.00  0.00    -0.502 OA
ATOM     17  H   UNL A   1      35.141  21.749  28.478  1.00  0.00     0.293 HD
ENDBRANCH  11  16
BRANCH  12  18
ATOM     18  O   UNL A   1      36.838  22.373  25.729  1.00  0.00    -0.493 OA
ATOM     19  C   UNL A   1      37.011  21.172  24.991  1.00  0.00     0.278 C 
ENDBRANCH  12  18
ENDBRANCH   7   8
ENDBRANCH   4   6
ENDBRANCH   3   4
ENDBRANCH   2   3
ENDBRANCH   1   2
BRANCH   1  20
ATOM     20  O   UNL A   1      33.011  30.396  25.913  1.00  0.00    -0.458 OA
BRANCH  20  21
ATOM     21  C   UNL A   1      33.192  31.269  26.935  1.00  0.00     0.338 C 
ATOM     22  O   UNL A   1      32.403  32.115  27.319  1.00  0.00    -0.246 OA
BRANCH  21  23
ATOM     23  C   UNL A   1      34.465  30.982  27.622  1.00  0.00     0.060 A 
ATOM     24  C   UNL A   1      34.740  29.655  27.965  1.00  0.00     0.016 A 
ATOM     25  C   UNL A   1      35.346  32.004  27.988  1.00  0.00     0.016 A 
ATOM     26  C   UNL A   1      35.897  29.343  28.676  1.00  0.00     0.010 A 
ATOM     27  C   UNL A   1      36.506  31.688  28.705  1.00  0.00     0.010 A 
ATOM     28  C   UNL A   1      36.786  30.357  29.060  1.00  0.00    -0.014 A 
BRANCH  28  29
ATOM     29  C   UNL A   1      37.986  30.020  29.868  1.00  0.00     0.031 A 
ATOM     30  C   UNL A   1      39.020  29.076  29.321  1.00  0.00     0.074 A 
ATOM     31  C   UNL A   1      38.154  30.577  31.082  1.00  0.00     0.049 A 
ATOM     32  N   UNL A   1      40.116  28.631  29.881  1.00  0.00    -0.248 NA
ATOM     33  C   UNL A   1      38.785  28.565  27.964  1.00  0.00     0.031 C 
ATOM     34  C   UNL A   1      37.234  31.531  31.704  1.00  0.00     0.029 A 
ATOM     35  N   UNL A   1      39.153  30.422  32.010  1.00  0.00    -0.354 N 
ATOM     36  C   UNL A   1      40.703  27.783  28.948  1.00  0.00     0.074 A 
ATOM     37  C   UNL A   1      39.820  27.752  27.800  1.00  0.00     0.031 C 
ATOM     38  C   UNL A   1      37.713  31.875  32.911  1.00  0.00     0.029 A 
ATOM     39  C   UNL A   1      38.947  31.138  33.166  1.00  0.00     0.049 A 
ATOM     40  H   UNL A   1      39.942  29.852  31.862  1.00  0.00     0.167 HD
ATOM     41  C   UNL A   1      41.873  27.102  29.040  1.00  0.00     0.034 A 
ATOM     42  C   UNL A   1      39.658  31.176  34.311  1.00  0.00     0.034 A 
ATOM     43  C   UNL A   1      42.737  27.134  30.197  1.00  0.00     0.049 A 
ATOM     44  C   UNL A   1      40.915  30.350  34.419  1.00  0.00     0.074 A 
ATOM     45  C   UNL A   1      43.951  26.496  30.387  1.00  0.00     0.029 A 
ATOM     46  N   UNL A   1      42.474  27.834  31.369  1.00  0.00    -0.354 N 
ATOM     47  N   UNL A   1      41.463  29.557  33.526  1.00  0.00    -0.248 NA
ATOM     48  C   UNL A   1      41.652  30.426  35.687  1.00  0.00     0.031 C 
ATOM     49  C   UNL A   1      44.386  26.754  31.693  1.00  0.00     0.029 A 
ATOM     50  C   UNL A   1      43.484  27.615  32.295  1.00  0.00     0.049 A 
ATOM     51  H   UNL A   1      41.684  28.404  31.520  1.00  0.00     0.167 HD
ATOM     52  C   UNL A   1      42.623  29.063  34.118  1.00  0.00     0.074 A 
ATOM     53  C   UNL A   1      42.701  29.657  35.437  1.00  0.00     0.031 C 
ATOM     54  C   UNL A   1      43.542  28.200  33.615  1.00  0.00     0.034 A 
BRANCH  41  55
ATOM     55  C   UNL A   1      42.254  26.221  27.874  1.00  0.00     0.023 A 
ATOM     56  C   UNL A   1      41.769  24.907  27.748  1.00  0.00     0.031 A 
ATOM     57  C   UNL A   1      43.137  26.693  26.887  1.00  0.00     0.131 A 
ATOM     58  C   UNL A   1      42.221  24.091  26.698  1.00  0.00     0.055 A 
ATOM     59  C   UNL A   1      43.524  25.903  25.804  1.00  0.00     0.041 A 
ATOM     60  F   UNL A   1      43.648  27.932  26.964  1.00  0.00    -0.206 F 
ATOM     61  C   UNL A   1      43.077  24.588  25.712  1.00  0.00     0.022 A 
BRANCH  58  62
ATOM     62  S   UNL A   1      41.780  22.331  26.713  1.00  0.00     0.124 S 
ATOM     63  O   UNL A   1      42.548  21.844  27.856  1.00  0.00    -0.237 OA
ATOM     64  O   UNL A   1      40.332  22.370  26.885  1.00  0.00    -0.237 OA
ATOM     65  O   UNL A   1      42.242  21.851  25.412  1.00  0.00    -0.744 OA
ENDBRANCH  58  62
ENDBRANCH  41  55
BRANCH  42  66
ATOM     66  C   UNL A   1      39.182  31.988  35.466  1.00  0.00     0.023 A 
ATOM     67  C   UNL A   1      38.523  31.393  36.553  1.00  0.00     0.031 A 
ATOM     68  C   UNL A   1      39.341  33.385  35.475  1.00  0.00     0.131 A 
ATOM     69  C   UNL A   1      38.012  32.195  37.585  1.00  0.00     0.055 A 
ATOM     70  C   UNL A   1      38.876  34.174  36.529  1.00  0.00     0.041 A 
ATOM     71  F   UNL A   1      39.962  34.006  34.459  1.00  0.00    -0.206 F 
ATOM     72  C   UNL A   1      38.196  33.581  37.587  1.00  0.00     0.022 A 
BRANCH  69  73
ATOM     73  S   UNL A   1      37.030  31.410  38.892  1.00  0.00     0.124 S 
ATOM     74  O   UNL A   1      37.891  31.581  40.057  1.00  0.00    -0.237 OA
ATOM     75  O   UNL A   1      35.808  32.208  38.875  1.00  0.00    -0.237 OA
ATOM     76  O   UNL A   1      36.878  30.033  38.425  1.00  0.00    -0.744 OA
ENDBRANCH  69  73
ENDBRANCH  42  66
BRANCH  54  77
ATOM     77  C   UNL A   1      44.733  27.885  34.487  1.00  0.00     0.023 A 
ATOM     78  C   UNL A   1      45.912  28.651  34.436  1.00  0.00     0.031 A 
ATOM     79  C   UNL A   1      44.694  26.791  35.369  1.00  0.00     0.131 A 
ATOM     80  C   UNL A   1      47.021  28.280  35.212  1.00  0.00     0.055 A 
ATOM     81  C   UNL A   1      45.780  26.460  36.181  1.00  0.00     0.041 A 
ATOM     82  F   UNL A   1      43.594  26.024  35.458  1.00  0.00    -0.206 F 
ATOM     83  C   UNL A   1      46.957  27.199  36.095  1.00  0.00     0.022 A 
BRANCH  80  84
ATOM     84  S   UNL A   1      48.582  29.175  34.989  1.00  0.00     0.124 S 
ATOM     85  O   UNL A   1      48.998  29.410  36.368  1.00  0.00    -0.237 OA
ATOM     86  O   UNL A   1      49.386  28.219  34.235  1.00  0.00    -0.237 OA
ATOM     87  O   UNL A   1      48.189  30.373  34.248  1.00  0.00    -0.744 OA
ENDBRANCH  80  84
ENDBRANCH  54  77
ENDBRANCH  28  29
ENDBRANCH  21  23
ENDBRANCH  20  21
ENDBRANCH   1  20
TORSDOF 18
ENDMDL
MODEL 3
REMARK VINA RESULT:     -10.7      4.117      6.853
REMARK SMILES COc1cc(/C=C/C(=O)OCCOC(=O)c2ccc(-c3c4nc(c(-c5cc(S(=O)(=O)[O-])ccc5F)c5ccc([nH]5)c(-c5cc(S(=O)(=O)[O-])ccc5F)c5nc(c(-c6cc(S(=O)(=O)[O-])ccc6F)c6ccc3[nH]6)C=C5)C=C4)cc2)cc(OC)c1O
REMARK SMILES IDX 12 1 11 2 10 3 8 4 9 5 7 6 6 7 5 8 3 9 4 10 83 11 80 12
REMARK SMILES IDX 79 13 2 14 1 15 84 16 81 18 82 19 13 20 14 21 15 22 16 23
REMARK SMILES IDX 17 24 78 25 18 26 77 27 19 28 20 29 21 30 71 31 22 32 76 33
REMARK SMILES IDX 70 34 72 35 23 36 75 37 69 38 68 39 24 41 56 42 36 43 55 44
REMARK SMILES IDX 37 45 40 46 54 47 73 48 38 49 39 50 53 52 74 53 41 54 25 55
REMARK SMILES IDX 26 56 34 57 27 58 33 59 35 60 32 61 28 62 29 63 30 64 31 65
REMARK SMILES IDX 57 66 58 67 66 68 59 69 65 70 67 71 64 72 60 73 61 74 62 75
REMARK SMILES IDX 63 76 42 77 43 78 51 79 44 80 50 81 52 82 49 83 45 84 46 85
REMARK SMILES IDX 47 86 48 87
REMARK H PARENT 84 17 72 40 40 51
REMARK Flexibility Score: inf
ROOT
ATOM      1  C   UNL A   1      43.435  19.127  25.500  1.00  0.00     0.275 C 
ENDROOT
BRANCH   1   2
ATOM      2  C   UNL A   1      44.421  19.516  24.394  1.00  0.00     0.275 C 
BRANCH   2   3
ATOM      3  O   UNL A   1      44.568  20.944  24.294  1.00  0.00    -0.459 OA
BRANCH   3   4
ATOM      4  C   UNL A   1      45.826  21.414  24.465  1.00  0.00     0.330 C 
ATOM      5  O   UNL A   1      46.822  20.739  24.685  1.00  0.00    -0.247 OA
BRANCH   4   6
ATOM      6  C   UNL A   1      45.918  22.879  24.317  1.00  0.00     0.094 C 
ATOM      7  C   UNL A   1      46.672  23.707  25.058  1.00  0.00     0.016 C 
BRANCH   7   8
ATOM      8  C   UNL A   1      46.639  25.168  24.877  1.00  0.00    -0.018 A 
ATOM      9  C   UNL A   1      47.707  27.257  24.173  1.00  0.00     0.165 A 
ATOM     10  C   UNL A   1      47.719  25.862  24.323  1.00  0.00     0.058 A 
ATOM     11  C   UNL A   1      46.569  27.974  24.570  1.00  0.00     0.200 A 
ATOM     12  C   UNL A   1      45.449  27.291  25.080  1.00  0.00     0.165 A 
ATOM     13  C   UNL A   1      45.500  25.895  25.226  1.00  0.00     0.058 A 
BRANCH   9  14
ATOM     14  O   UNL A   1      48.889  27.715  23.659  1.00  0.00    -0.493 OA
ATOM     15  C   UNL A   1      49.490  27.099  22.535  1.00  0.00     0.278 C 
ENDBRANCH   9  14
BRANCH  11  16
ATOM     16  O   UNL A   1      46.551  29.339  24.514  1.00  0.00    -0.502 OA
ATOM     17  H   UNL A   1      46.100  29.774  23.816  1.00  0.00     0.293 HD
ENDBRANCH  11  16
BRANCH  12  18
ATOM     18  O   UNL A   1      44.261  27.815  25.525  1.00  0.00    -0.493 OA
ATOM     19  C   UNL A   1      43.045  27.278  25.024  1.00  0.00     0.278 C 
ENDBRANCH  12  18
ENDBRANCH   7   8
ENDBRANCH   4   6
ENDBRANCH   3   4
ENDBRANCH   2   3
ENDBRANCH   1   2
BRANCH   1  20
ATOM     20  O   UNL A   1      42.299  20.009  25.553  1.00  0.00    -0.458 OA
BRANCH  20  21
ATOM     21  C   UNL A   1      41.796  20.220  26.795  1.00  0.00     0.338 C 
ATOM     22  O   UNL A   1      41.229  19.403  27.499  1.00  0.00    -0.246 OA
BRANCH  21  23
ATOM     23  C   UNL A   1      42.133  21.581  27.250  1.00  0.00     0.060 A 
ATOM     24  C   UNL A   1      42.328  22.568  26.279  1.00  0.00     0.016 A 
ATOM     25  C   UNL A   1      42.324  21.875  28.604  1.00  0.00     0.016 A 
ATOM     26  C   UNL A   1      42.716  23.852  26.656  1.00  0.00     0.010 A 
ATOM     27  C   UNL A   1      42.716  23.164  28.979  1.00  0.00     0.010 A 
ATOM     28  C   UNL A   1      42.922  24.160  28.008  1.00  0.00    -0.014 A 
BRANCH  28  29
ATOM     29  C   UNL A   1      43.391  25.515  28.394  1.00  0.00     0.031 A 
ATOM     30  C   UNL A   1      42.395  26.614  28.639  1.00  0.00     0.074 A 
ATOM     31  C   UNL A   1      44.708  25.751  28.541  1.00  0.00     0.049 A 
ATOM     32  N   UNL A   1      42.604  27.869  28.949  1.00  0.00    -0.248 NA
ATOM     33  C   UNL A   1      40.977  26.251  28.515  1.00  0.00     0.031 C 
ATOM     34  C   UNL A   1      45.766  24.755  28.360  1.00  0.00     0.029 A 
ATOM     35  N   UNL A   1      45.383  26.899  28.873  1.00  0.00    -0.354 N 
ATOM     36  C   UNL A   1      41.345  28.449  29.056  1.00  0.00     0.074 A 
ATOM     37  C   UNL A   1      40.381  27.414  28.741  1.00  0.00     0.031 C 
ATOM     38  C   UNL A   1      46.956  25.336  28.585  1.00  0.00     0.029 A 
ATOM     39  C   UNL A   1      46.750  26.752  28.882  1.00  0.00     0.049 A 
ATOM     40  H   UNL A   1      44.931  27.747  29.085  1.00  0.00     0.167 HD
ATOM     41  C   UNL A   1      41.025  29.724  29.391  1.00  0.00     0.034 A 
ATOM     42  C   UNL A   1      47.728  27.658  29.083  1.00  0.00     0.034 A 
ATOM     43  C   UNL A   1      41.999  30.749  29.690  1.00  0.00     0.049 A 
ATOM     44  C   UNL A   1      47.349  29.088  29.378  1.00  0.00     0.074 A 
ATOM     45  C   UNL A   1      41.782  32.066  30.057  1.00  0.00     0.029 A 
ATOM     46  N   UNL A   1      43.377  30.575  29.645  1.00  0.00    -0.354 N 
ATOM     47  N   UNL A   1      46.153  29.622  29.482  1.00  0.00    -0.248 NA
ATOM     48  C   UNL A   1      48.451  30.036  29.588  1.00  0.00     0.031 C 
ATOM     49  C   UNL A   1      43.023  32.704  30.167  1.00  0.00     0.029 A 
ATOM     50  C   UNL A   1      44.020  31.769  29.943  1.00  0.00     0.049 A 
ATOM     51  H   UNL A   1      43.832  29.728  29.431  1.00  0.00     0.167 HD
ATOM     52  C   UNL A   1      46.363  30.963  29.796  1.00  0.00     0.074 A 
ATOM     53  C   UNL A   1      47.797  31.151  29.876  1.00  0.00     0.031 C 
ATOM     54  C   UNL A   1      45.453  31.949  30.003  1.00  0.00     0.034 A 
BRANCH  41  55
ATOM     55  C   UNL A   1      39.560  30.092  29.397  1.00  0.00     0.023 A 
ATOM     56  C   UNL A   1      38.891  30.452  30.580  1.00  0.00     0.031 A 
ATOM     57  C   UNL A   1      38.815  30.057  28.205  1.00  0.00     0.131 A 
ATOM     58  C   UNL A   1      37.509  30.697  30.557  1.00  0.00     0.055 A 
ATOM     59  C   UNL A   1      37.456  30.376  28.174  1.00  0.00     0.041 A 
ATOM     60  F   UNL A   1      39.395  29.702  27.047  1.00  0.00    -0.206 F 
ATOM     61  C   UNL A   1      36.792  30.684  29.357  1.00  0.00     0.022 A 
BRANCH  58  62
ATOM     62  S   UNL A   1      36.635  30.902  32.133  1.00  0.00     0.124 S 
ATOM     63  O   UNL A   1      37.543  31.784  32.862  1.00  0.00    -0.237 OA
ATOM     64  O   UNL A   1      35.367  31.490  31.718  1.00  0.00    -0.237 OA
ATOM     65  O   UNL A   1      36.549  29.540  32.657  1.00  0.00    -0.744 OA
ENDBRANCH  58  62
ENDBRANCH  41  55
BRANCH  42  66
ATOM     66  C   UNL A   1      49.159  27.260  28.968  1.00  0.00     0.023 A 
ATOM     67  C   UNL A   1      49.838  27.328  27.741  1.00  0.00     0.031 A 
ATOM     68  C   UNL A   1      49.857  26.761  30.082  1.00  0.00     0.131 A 
ATOM     69  C   UNL A   1      51.160  26.866  27.648  1.00  0.00     0.055 A 
ATOM     70  C   UNL A   1      51.188  26.350  29.996  1.00  0.00     0.041 A 
ATOM     71  F   UNL A   1      49.254  26.673  31.278  1.00  0.00    -0.206 F 
ATOM     72  C   UNL A   1      51.844  26.390  28.770  1.00  0.00     0.022 A 
BRANCH  69  73
ATOM     73  S   UNL A   1      51.953  26.821  26.017  1.00  0.00     0.124 S 
ATOM     74  O   UNL A   1      53.353  26.616  26.371  1.00  0.00    -0.237 OA
ATOM     75  O   UNL A   1      51.279  25.692  25.383  1.00  0.00    -0.237 OA
ATOM     76  O   UNL A   1      51.638  28.130  25.449  1.00  0.00    -0.744 OA
ENDBRANCH  69  73
ENDBRANCH  42  66
BRANCH  54  77
ATOM     77  C   UNL A   1      45.990  33.308  30.379  1.00  0.00     0.023 A 
ATOM     78  C   UNL A   1      46.263  34.291  29.410  1.00  0.00     0.031 A 
ATOM     79  C   UNL A   1      46.249  33.617  31.726  1.00  0.00     0.131 A 
ATOM     80  C   UNL A   1      46.830  35.515  29.797  1.00  0.00     0.055 A 
ATOM     81  C   UNL A   1      46.759  34.858  32.111  1.00  0.00     0.041 A 
ATOM     82  F   UNL A   1      46.007  32.716  32.692  1.00  0.00    -0.206 F 
ATOM     83  C   UNL A   1      47.064  35.811  31.143  1.00  0.00     0.022 A 
BRANCH  80  84
ATOM     84  S   UNL A   1      47.339  36.688  28.511  1.00  0.00     0.124 S 
ATOM     85  O   UNL A   1      46.492  37.842  28.798  1.00  0.00    -0.237 OA
ATOM     86  O   UNL A   1      48.761  36.857  28.788  1.00  0.00    -0.237 OA
ATOM     87  O   UNL A   1      47.029  35.988  27.265  1.00  0.00    -0.744 OA
ENDBRANCH  80  84
ENDBRANCH  54  77
ENDBRANCH  28  29
ENDBRANCH  21  23
ENDBRANCH  20  21
ENDBRANCH   1  20
TORSDOF 18
ENDMDL
