MODEL 1
REMARK VINA RESULT:     -12.4      0.000      0.000
REMARK SMILES Cn1cc(C(=O)OCCOC(=O)c2ccc(-c3c4nc(c(-c5cc(S(=O)(=O)[O-])ccc5F)c5ccc([nH]5)c(-c5cc(S(=O)(=O)[O-])ccc5F)c5nc(c(-c6cc(S(=O)(=O)[O-])ccc6F)c6ccc3[nH]6)C=C5)C=C4)cc2)c(C(=O)Nc2ccc(-n3cncn3)cc2)n1
REMARK SMILES IDX 8 1 7 2 5 3 6 4 4 5 1 6 2 7 3 8 91 9 76 10 77 11 78 12 79 13
REMARK SMILES IDX 80 15 81 16 90 17 82 18 89 19 83 20 84 21 85 22 88 23 86 24
REMARK SMILES IDX 87 25 9 26 10 27 11 28 12 29 13 30 14 31 75 32 15 33 74 34
REMARK SMILES IDX 16 35 17 36 18 37 68 38 19 39 73 40 67 41 69 42 20 43 72 44
REMARK SMILES IDX 66 45 65 46 21 48 53 49 33 50 52 51 34 52 37 53 51 54 70 55
REMARK SMILES IDX 35 56 36 57 50 59 71 60 38 61 22 62 23 63 31 64 24 65 30 66
REMARK SMILES IDX 32 67 29 68 25 69 26 70 27 71 28 72 54 73 55 74 63 75 56 76
REMARK SMILES IDX 62 77 64 78 61 79 57 80 58 81 59 82 60 83 39 84 40 85 48 86
REMARK SMILES IDX 41 87 47 88 49 89 46 90 42 91 43 92 44 93 45 94
REMARK H PARENT 79 14 69 47 37 58
REMARK Flexibility Score: inf
ROOT
ATOM      1  C   UNL A   1      35.974  20.981  24.768  1.00  0.00     0.275 C 
ENDROOT
BRANCH   1   2
ATOM      2  O   UNL A   1      35.821  22.396  24.924  1.00  0.00    -0.458 OA
BRANCH   2   3
ATOM      3  C   UNL A   1      35.643  23.178  23.822  1.00  0.00     0.342 C 
ATOM      4  O   UNL A   1      36.246  23.056  22.765  1.00  0.00    -0.246 OA
BRANCH   3   5
ATOM      5  C   UNL A   1      34.707  24.227  24.134  1.00  0.00     0.111 A 
ATOM      6  C   UNL A   1      33.755  26.959  26.276  1.00  0.00     0.173 C 
ATOM      7  N   UNL A   1      33.933  25.913  25.299  1.00  0.00    -0.274 N 
ATOM      8  C   UNL A   1      35.015  25.128  25.146  1.00  0.00     0.125 A 
ATOM      9  N   UNL A   1      32.952  25.622  24.452  1.00  0.00    -0.167 NA
ATOM     10  C   UNL A   1      33.384  24.579  23.693  1.00  0.00     0.165 A 
BRANCH  10  11
ATOM     11  C   UNL A   1      32.406  24.123  22.656  1.00  0.00     0.277 C 
ATOM     12  O   UNL A   1      31.795  24.953  21.968  1.00  0.00    -0.267 OA
ATOM     13  N   UNL A   1      32.243  22.830  22.217  1.00  0.00    -0.321 N 
ATOM     14  H   UNL A   1      32.106  22.774  21.244  1.00  0.00     0.170 HD
BRANCH  13  15
ATOM     15  C   UNL A   1      32.227  21.586  22.834  1.00  0.00     0.041 A 
ATOM     16  C   UNL A   1      32.025  20.463  22.034  1.00  0.00     0.028 A 
ATOM     17  C   UNL A   1      32.323  21.432  24.206  1.00  0.00     0.028 A 
ATOM     18  C   UNL A   1      32.196  19.187  22.573  1.00  0.00     0.030 A 
ATOM     19  C   UNL A   1      32.417  20.157  24.771  1.00  0.00     0.030 A 
ATOM     20  C   UNL A   1      32.492  19.043  23.933  1.00  0.00     0.067 A 
BRANCH  20  21
ATOM     21  N   UNL A   1      33.041  17.823  24.401  1.00  0.00    -0.221 N 
ATOM     22  C   UNL A   1      33.633  16.811  23.679  1.00  0.00     0.225 A 
ATOM     23  N   UNL A   1      32.840  17.390  25.672  1.00  0.00    -0.155 NA
ATOM     24  N   UNL A   1      33.701  15.710  24.394  1.00  0.00    -0.223 NA
ATOM     25  C   UNL A   1      33.178  16.104  25.587  1.00  0.00     0.246 A 
ENDBRANCH  20  21
ENDBRANCH  13  15
ENDBRANCH  10  11
ENDBRANCH   3   5
ENDBRANCH   2   3
ENDBRANCH   1   2
BRANCH   1  26
ATOM     26  C   UNL A   1      37.334  20.574  25.354  1.00  0.00     0.275 C 
BRANCH  26  27
ATOM     27  O   UNL A   1      38.258  21.686  25.341  1.00  0.00    -0.458 OA
BRANCH  27  28
ATOM     28  C   UNL A   1      39.402  21.493  26.058  1.00  0.00     0.338 C 
ATOM     29  O   UNL A   1      40.095  20.489  26.037  1.00  0.00    -0.246 OA
BRANCH  28  30
ATOM     30  C   UNL A   1      39.802  22.742  26.762  1.00  0.00     0.060 A 
ATOM     31  C   UNL A   1      39.095  23.912  26.456  1.00  0.00     0.016 A 
ATOM     32  C   UNL A   1      40.815  22.782  27.730  1.00  0.00     0.016 A 
ATOM     33  C   UNL A   1      39.414  25.119  27.087  1.00  0.00     0.010 A 
ATOM     34  C   UNL A   1      41.140  23.997  28.356  1.00  0.00     0.010 A 
ATOM     35  C   UNL A   1      40.464  25.181  28.014  1.00  0.00    -0.014 A 
BRANCH  35  36
ATOM     36  C   UNL A   1      40.988  26.517  28.417  1.00  0.00     0.031 A 
ATOM     37  C   UNL A   1      42.433  26.825  28.118  1.00  0.00     0.074 A 
ATOM     38  C   UNL A   1      40.214  27.469  28.970  1.00  0.00     0.049 A 
ATOM     39  N   UNL A   1      43.091  27.950  28.241  1.00  0.00    -0.248 NA
ATOM     40  C   UNL A   1      43.240  25.709  27.598  1.00  0.00     0.031 C 
ATOM     41  C   UNL A   1      38.795  27.333  29.291  1.00  0.00     0.029 A 
ATOM     42  N   UNL A   1      40.522  28.755  29.352  1.00  0.00    -0.354 N 
ATOM     43  C   UNL A   1      44.370  27.692  27.763  1.00  0.00     0.074 A 
ATOM     44  C   UNL A   1      44.416  26.288  27.415  1.00  0.00     0.031 C 
ATOM     45  C   UNL A   1      38.357  28.488  29.826  1.00  0.00     0.029 A 
ATOM     46  C   UNL A   1      39.461  29.447  29.890  1.00  0.00     0.049 A 
ATOM     47  H   UNL A   1      41.420  29.145  29.248  1.00  0.00     0.167 HD
ATOM     48  C   UNL A   1      45.410  28.546  27.601  1.00  0.00     0.034 A 
ATOM     49  C   UNL A   1      39.391  30.706  30.374  1.00  0.00     0.034 A 
ATOM     50  C   UNL A   1      45.398  29.928  28.002  1.00  0.00     0.049 A 
ATOM     51  C   UNL A   1      40.613  31.600  30.324  1.00  0.00     0.074 A 
ATOM     52  C   UNL A   1      46.406  30.870  27.886  1.00  0.00     0.029 A 
ATOM     53  N   UNL A   1      44.335  30.562  28.629  1.00  0.00    -0.354 N 
ATOM     54  N   UNL A   1      41.798  31.358  29.815  1.00  0.00    -0.248 NA
ATOM     55  C   UNL A   1      40.478  32.944  30.909  1.00  0.00     0.031 C 
ATOM     56  C   UNL A   1      45.979  32.050  28.507  1.00  0.00     0.029 A 
ATOM     57  C   UNL A   1      44.680  31.865  28.950  1.00  0.00     0.049 A 
ATOM     58  H   UNL A   1      43.463  30.146  28.819  1.00  0.00     0.167 HD
ATOM     59  C   UNL A   1      42.532  32.532  29.984  1.00  0.00     0.074 A 
ATOM     60  C   UNL A   1      41.659  33.481  30.641  1.00  0.00     0.031 C 
ATOM     61  C   UNL A   1      43.811  32.804  29.618  1.00  0.00     0.034 A 
BRANCH  48  62
ATOM     62  C   UNL A   1      46.663  27.972  26.995  1.00  0.00     0.023 A 
ATOM     63  C   UNL A   1      46.929  28.096  25.619  1.00  0.00     0.031 A 
ATOM     64  C   UNL A   1      47.569  27.246  27.785  1.00  0.00     0.131 A 
ATOM     65  C   UNL A   1      48.040  27.446  25.063  1.00  0.00     0.055 A 
ATOM     66  C   UNL A   1      48.709  26.658  27.237  1.00  0.00     0.041 A 
ATOM     67  F   UNL A   1      47.347  27.077  29.099  1.00  0.00    -0.206 F 
ATOM     68  C   UNL A   1      48.943  26.745  25.866  1.00  0.00     0.022 A 
BRANCH  65  69
ATOM     69  S   UNL A   1      48.213  27.414  23.258  1.00  0.00     0.124 S 
ATOM     70  O   UNL A   1      48.189  25.979  22.983  1.00  0.00    -0.237 OA
ATOM     71  O   UNL A   1      47.049  28.171  22.815  1.00  0.00    -0.237 OA
ATOM     72  O   UNL A   1      49.503  28.062  23.027  1.00  0.00    -0.744 OA
ENDBRANCH  65  69
ENDBRANCH  48  62
BRANCH  49  73
ATOM     73  C   UNL A   1      38.136  31.214  31.001  1.00  0.00     0.023 A 
ATOM     74  C   UNL A   1      37.120  31.805  30.230  1.00  0.00     0.031 A 
ATOM     75  C   UNL A   1      37.989  31.218  32.400  1.00  0.00     0.131 A 
ATOM     76  C   UNL A   1      36.031  32.426  30.866  1.00  0.00     0.055 A 
ATOM     77  C   UNL A   1      36.881  31.794  33.024  1.00  0.00     0.041 A 
ATOM     78  F   UNL A   1      38.936  30.677  33.182  1.00  0.00    -0.206 F 
ATOM     79  C   UNL A   1      35.902  32.415  32.257  1.00  0.00     0.022 A 
BRANCH  76  80
ATOM     80  S   UNL A   1      34.836  33.344  29.854  1.00  0.00     0.124 S 
ATOM     81  O   UNL A   1      33.926  33.864  30.868  1.00  0.00    -0.237 OA
ATOM     82  O   UNL A   1      35.687  34.324  29.191  1.00  0.00    -0.237 OA
ATOM     83  O   UNL A   1      34.273  32.318  28.979  1.00  0.00    -0.744 OA
ENDBRANCH  76  80
ENDBRANCH  49  73
BRANCH  61  84
ATOM     84  C   UNL A   1      44.332  34.196  29.884  1.00  0.00     0.023 A 
ATOM     85  C   UNL A   1      44.198  35.231  28.942  1.00  0.00     0.031 A 
ATOM     86  C   UNL A   1      44.961  34.492  31.106  1.00  0.00     0.131 A 
ATOM     87  C   UNL A   1      44.720  36.505  29.222  1.00  0.00     0.055 A 
ATOM     88  C   UNL A   1      45.438  35.772  31.398  1.00  0.00     0.041 A 
ATOM     89  F   UNL A   1      45.115  33.542  32.043  1.00  0.00    -0.206 F 
ATOM     90  C   UNL A   1      45.326  36.784  30.450  1.00  0.00     0.022 A 
BRANCH  87  91
ATOM     91  S   UNL A   1      44.647  37.784  27.937  1.00  0.00     0.124 S 
ATOM     92  O   UNL A   1      44.410  38.992  28.722  1.00  0.00    -0.237 OA
ATOM     93  O   UNL A   1      45.961  37.676  27.313  1.00  0.00    -0.237 OA
ATOM     94  O   UNL A   1      43.528  37.363  27.096  1.00  0.00    -0.744 OA
ENDBRANCH  87  91
ENDBRANCH  61  84
ENDBRANCH  35  36
ENDBRANCH  28  30
ENDBRANCH  27  28
ENDBRANCH  26  27
ENDBRANCH   1  26
TORSDOF 17
ENDMDL
MODEL 2
REMARK VINA RESULT:     -12.1      1.113      7.489
REMARK SMILES Cn1cc(C(=O)OCCOC(=O)c2ccc(-c3c4nc(c(-c5cc(S(=O)(=O)[O-])ccc5F)c5ccc([nH]5)c(-c5cc(S(=O)(=O)[O-])ccc5F)c5nc(c(-c6cc(S(=O)(=O)[O-])ccc6F)c6ccc3[nH]6)C=C5)C=C4)cc2)c(C(=O)Nc2ccc(-n3cncn3)cc2)n1
REMARK SMILES IDX 8 1 7 2 5 3 6 4 4 5 1 6 2 7 3 8 91 9 76 10 77 11 78 12 79 13
REMARK SMILES IDX 80 15 81 16 90 17 82 18 89 19 83 20 84 21 85 22 88 23 86 24
REMARK SMILES IDX 87 25 9 26 10 27 11 28 12 29 13 30 14 31 75 32 15 33 74 34
REMARK SMILES IDX 16 35 17 36 18 37 68 38 19 39 73 40 67 41 69 42 20 43 72 44
REMARK SMILES IDX 66 45 65 46 21 48 53 49 33 50 52 51 34 52 37 53 51 54 70 55
REMARK SMILES IDX 35 56 36 57 50 59 71 60 38 61 22 62 23 63 31 64 24 65 30 66
REMARK SMILES IDX 32 67 29 68 25 69 26 70 27 71 28 72 54 73 55 74 63 75 56 76
REMARK SMILES IDX 62 77 64 78 61 79 57 80 58 81 59 82 60 83 39 84 40 85 48 86
REMARK SMILES IDX 41 87 47 88 49 89 46 90 42 91 43 92 44 93 45 94
REMARK H PARENT 79 14 69 47 37 58
REMARK Flexibility Score: inf
ROOT
ATOM      1  C   UNL A   1      36.619  23.105  23.843  1.00  0.00     0.275 C 
ENDROOT
BRANCH   1   2
ATOM      2  O   UNL A   1      35.289  23.484  24.214  1.00  0.00    -0.458 OA
BRANCH   2   3
ATOM      3  C   UNL A   1      34.386  23.799  23.243  1.00  0.00     0.342 C 
ATOM      4  O   UNL A   1      34.281  23.233  22.165  1.00  0.00    -0.246 OA
BRANCH   3   5
ATOM      5  C   UNL A   1      33.644  24.964  23.651  1.00  0.00     0.111 A 
ATOM      6  C   UNL A   1      33.010  28.489  23.284  1.00  0.00     0.173 C 
ATOM      7  N   UNL A   1      33.097  27.085  23.604  1.00  0.00    -0.274 N 
ATOM      8  C   UNL A   1      33.806  26.150  22.947  1.00  0.00     0.125 A 
ATOM      9  N   UNL A   1      32.456  26.605  24.664  1.00  0.00    -0.167 NA
ATOM     10  C   UNL A   1      32.756  25.281  24.739  1.00  0.00     0.165 A 
BRANCH  10  11
ATOM     11  C   UNL A   1      32.099  24.561  25.875  1.00  0.00     0.277 C 
ATOM     12  O   UNL A   1      31.647  25.198  26.837  1.00  0.00    -0.267 OA
ATOM     13  N   UNL A   1      31.743  23.233  25.888  1.00  0.00    -0.321 N 
ATOM     14  H   UNL A   1      30.868  23.079  26.313  1.00  0.00     0.170 HD
BRANCH  13  15
ATOM     15  C   UNL A   1      32.336  22.061  25.439  1.00  0.00     0.041 A 
ATOM     16  C   UNL A   1      33.396  21.539  26.179  1.00  0.00     0.028 A 
ATOM     17  C   UNL A   1      31.968  21.444  24.255  1.00  0.00     0.028 A 
ATOM     18  C   UNL A   1      33.891  20.269  25.882  1.00  0.00     0.030 A 
ATOM     19  C   UNL A   1      32.513  20.206  23.902  1.00  0.00     0.030 A 
ATOM     20  C   UNL A   1      33.373  19.560  24.792  1.00  0.00     0.067 A 
BRANCH  20  21
ATOM     21  N   UNL A   1      33.574  18.159  24.714  1.00  0.00    -0.221 N 
ATOM     22  C   UNL A   1      34.432  17.457  23.898  1.00  0.00     0.225 A 
ATOM     23  N   UNL A   1      32.736  17.281  25.323  1.00  0.00    -0.155 NA
ATOM     24  N   UNL A   1      34.096  16.186  23.857  1.00  0.00    -0.223 NA
ATOM     25  C   UNL A   1      33.040  16.136  24.715  1.00  0.00     0.246 A 
ENDBRANCH  20  21
ENDBRANCH  13  15
ENDBRANCH  10  11
ENDBRANCH   3   5
ENDBRANCH   2   3
ENDBRANCH   1   2
BRANCH   1  26
ATOM     26  C   UNL A   1      36.908  21.716  24.431  1.00  0.00     0.275 C 
BRANCH  26  27
ATOM     27  O   UNL A   1      37.307  21.813  25.818  1.00  0.00    -0.458 OA
BRANCH  27  28
ATOM     28  C   UNL A   1      38.634  21.603  26.052  1.00  0.00     0.338 C 
ATOM     29  O   UNL A   1      39.265  20.607  25.734  1.00  0.00    -0.246 OA
BRANCH  28  30
ATOM     30  C   UNL A   1      39.272  22.825  26.611  1.00  0.00     0.060 A 
ATOM     31  C   UNL A   1      38.652  24.055  26.353  1.00  0.00     0.016 A 
ATOM     32  C   UNL A   1      40.427  22.789  27.403  1.00  0.00     0.016 A 
ATOM     33  C   UNL A   1      39.194  25.242  26.855  1.00  0.00     0.010 A 
ATOM     34  C   UNL A   1      40.976  23.984  27.899  1.00  0.00     0.010 A 
ATOM     35  C   UNL A   1      40.382  25.223  27.600  1.00  0.00    -0.014 A 
BRANCH  35  36
ATOM     36  C   UNL A   1      41.102  26.506  27.837  1.00  0.00     0.031 A 
ATOM     37  C   UNL A   1      40.343  27.624  28.505  1.00  0.00     0.074 A 
ATOM     38  C   UNL A   1      42.404  26.679  27.542  1.00  0.00     0.049 A 
ATOM     39  N   UNL A   1      40.772  28.780  28.942  1.00  0.00    -0.248 NA
ATOM     40  C   UNL A   1      38.904  27.397  28.714  1.00  0.00     0.031 C 
ATOM     41  C   UNL A   1      43.276  25.683  26.924  1.00  0.00     0.029 A 
ATOM     42  N   UNL A   1      43.223  27.767  27.738  1.00  0.00    -0.354 N 
ATOM     43  C   UNL A   1      39.671  29.394  29.528  1.00  0.00     0.074 A 
ATOM     44  C   UNL A   1      38.540  28.513  29.325  1.00  0.00     0.031 C 
ATOM     45  C   UNL A   1      44.508  26.210  26.787  1.00  0.00     0.029 A 
ATOM     46  C   UNL A   1      44.515  27.580  27.304  1.00  0.00     0.049 A 
ATOM     47  H   UNL A   1      42.912  28.604  28.153  1.00  0.00     0.167 HD
ATOM     48  C   UNL A   1      39.603  30.571  30.198  1.00  0.00     0.034 A 
ATOM     49  C   UNL A   1      45.576  28.414  27.323  1.00  0.00     0.034 A 
ATOM     50  C   UNL A   1      40.705  31.484  30.350  1.00  0.00     0.049 A 
ATOM     51  C   UNL A   1      45.439  29.790  27.941  1.00  0.00     0.074 A 
ATOM     52  C   UNL A   1      40.730  32.704  31.004  1.00  0.00     0.029 A 
ATOM     53  N   UNL A   1      41.970  31.297  29.812  1.00  0.00    -0.354 N 
ATOM     54  N   UNL A   1      44.405  30.332  28.543  1.00  0.00    -0.248 NA
ATOM     55  C   UNL A   1      46.623  30.664  27.889  1.00  0.00     0.031 C 
ATOM     56  C   UNL A   1      41.988  33.286  30.801  1.00  0.00     0.029 A 
ATOM     57  C   UNL A   1      42.767  32.398  30.077  1.00  0.00     0.049 A 
ATOM     58  H   UNL A   1      42.258  30.497  29.315  1.00  0.00     0.167 HD
ATOM     59  C   UNL A   1      44.829  31.589  28.972  1.00  0.00     0.074 A 
ATOM     60  C   UNL A   1      46.210  31.728  28.563  1.00  0.00     0.031 C 
ATOM     61  C   UNL A   1      44.141  32.539  29.655  1.00  0.00     0.034 A 
BRANCH  48  62
ATOM     62  C   UNL A   1      38.262  30.939  30.775  1.00  0.00     0.023 A 
ATOM     63  C   UNL A   1      37.295  31.604  29.999  1.00  0.00     0.031 A 
ATOM     64  C   UNL A   1      37.969  30.676  32.122  1.00  0.00     0.131 A 
ATOM     65  C   UNL A   1      36.105  32.043  30.597  1.00  0.00     0.055 A 
ATOM     66  C   UNL A   1      36.755  31.056  32.694  1.00  0.00     0.041 A 
ATOM     67  F   UNL A   1      38.869  30.066  32.910  1.00  0.00    -0.206 F 
ATOM     68  C   UNL A   1      35.820  31.756  31.934  1.00  0.00     0.022 A 
BRANCH  65  69
ATOM     69  S   UNL A   1      34.997  33.114  29.641  1.00  0.00     0.124 S 
ATOM     70  O   UNL A   1      34.478  32.186  28.639  1.00  0.00    -0.237 OA
ATOM     71  O   UNL A   1      34.047  33.567  30.649  1.00  0.00    -0.237 OA
ATOM     72  O   UNL A   1      35.889  34.147  29.116  1.00  0.00    -0.744 OA
ENDBRANCH  65  69
ENDBRANCH  48  62
BRANCH  49  73
ATOM     73  C   UNL A   1      46.873  28.016  26.702  1.00  0.00     0.023 A 
ATOM     74  C   UNL A   1      47.073  28.092  25.312  1.00  0.00     0.031 A 
ATOM     75  C   UNL A   1      47.891  27.443  27.485  1.00  0.00     0.131 A 
ATOM     76  C   UNL A   1      48.239  27.550  24.744  1.00  0.00     0.055 A 
ATOM     77  C   UNL A   1      49.069  26.950  26.920  1.00  0.00     0.041 A 
ATOM     78  F   UNL A   1      47.745  27.337  28.815  1.00  0.00    -0.206 F 
ATOM     79  C   UNL A   1      49.240  26.988  25.540  1.00  0.00     0.022 A 
BRANCH  76  80
ATOM     80  S   UNL A   1      48.383  27.491  22.935  1.00  0.00     0.124 S 
ATOM     81  O   UNL A   1      48.353  26.055  22.681  1.00  0.00    -0.237 OA
ATOM     82  O   UNL A   1      47.208  28.243  22.511  1.00  0.00    -0.237 OA
ATOM     83  O   UNL A   1      49.664  28.143  22.675  1.00  0.00    -0.744 OA
ENDBRANCH  76  80
ENDBRANCH  49  73
BRANCH  61  84
ATOM     84  C   UNL A   1      44.881  33.798  30.037  1.00  0.00     0.023 A 
ATOM     85  C   UNL A   1      44.887  34.937  29.213  1.00  0.00     0.031 A 
ATOM     86  C   UNL A   1      45.583  33.860  31.255  1.00  0.00     0.131 A 
ATOM     87  C   UNL A   1      45.610  36.076  29.598  1.00  0.00     0.055 A 
ATOM     88  C   UNL A   1      46.262  35.012  31.655  1.00  0.00     0.041 A 
ATOM     89  F   UNL A   1      45.609  32.803  32.083  1.00  0.00    -0.206 F 
ATOM     90  C   UNL A   1      46.286  36.125  30.821  1.00  0.00     0.022 A 
BRANCH  87  91
ATOM     91  S   UNL A   1      45.706  37.483  28.455  1.00  0.00     0.124 S 
ATOM     92  O   UNL A   1      44.448  37.368  27.724  1.00  0.00    -0.237 OA
ATOM     93  O   UNL A   1      45.813  38.618  29.364  1.00  0.00    -0.237 OA
ATOM     94  O   UNL A   1      46.907  37.206  27.669  1.00  0.00    -0.744 OA
ENDBRANCH  87  91
ENDBRANCH  61  84
ENDBRANCH  35  36
ENDBRANCH  28  30
ENDBRANCH  27  28
ENDBRANCH  26  27
ENDBRANCH   1  26
TORSDOF 17
ENDMDL
MODEL 3
REMARK VINA RESULT:     -12.0      2.402      2.749
REMARK SMILES Cn1cc(C(=O)OCCOC(=O)c2ccc(-c3c4nc(c(-c5cc(S(=O)(=O)[O-])ccc5F)c5ccc([nH]5)c(-c5cc(S(=O)(=O)[O-])ccc5F)c5nc(c(-c6cc(S(=O)(=O)[O-])ccc6F)c6ccc3[nH]6)C=C5)C=C4)cc2)c(C(=O)Nc2ccc(-n3cncn3)cc2)n1
REMARK SMILES IDX 8 1 7 2 5 3 6 4 4 5 1 6 2 7 3 8 91 9 76 10 77 11 78 12 79 13
REMARK SMILES IDX 80 15 81 16 90 17 82 18 89 19 83 20 84 21 85 22 88 23 86 24
REMARK SMILES IDX 87 25 9 26 10 27 11 28 12 29 13 30 14 31 75 32 15 33 74 34
REMARK SMILES IDX 16 35 17 36 18 37 68 38 19 39 73 40 67 41 69 42 20 43 72 44
REMARK SMILES IDX 66 45 65 46 21 48 53 49 33 50 52 51 34 52 37 53 51 54 70 55
REMARK SMILES IDX 35 56 36 57 50 59 71 60 38 61 22 62 23 63 31 64 24 65 30 66
REMARK SMILES IDX 32 67 29 68 25 69 26 70 27 71 28 72 54 73 55 74 63 75 56 76
REMARK SMILES IDX 62 77 64 78 61 79 57 80 58 81 59 82 60 83 39 84 40 85 48 86
REMARK SMILES IDX 41 87 47 88 49 89 46 90 42 91 43 92 44 93 45 94
REMARK H PARENT 79 14 69 47 37 58
REMARK Flexibility Score: inf
ROOT
ATOM      1  C   UNL A   1      36.014  20.956  24.745  1.00  0.00     0.275 C 
ENDROOT
BRANCH   1   2
ATOM      2  O   UNL A   1      35.781  22.356  24.933  1.00  0.00    -0.458 OA
BRANCH   2   3
ATOM      3  C   UNL A   1      35.639  23.165  23.846  1.00  0.00     0.342 C 
ATOM      4  O   UNL A   1      36.272  23.067  22.805  1.00  0.00    -0.246 OA
BRANCH   3   5
ATOM      5  C   UNL A   1      34.698  24.210  24.157  1.00  0.00     0.111 A 
ATOM      6  C   UNL A   1      33.725  26.931  26.304  1.00  0.00     0.173 C 
ATOM      7  N   UNL A   1      33.912  25.889  25.324  1.00  0.00    -0.274 N 
ATOM      8  C   UNL A   1      34.997  25.108  25.174  1.00  0.00     0.125 A 
ATOM      9  N   UNL A   1      32.937  25.599  24.470  1.00  0.00    -0.167 NA
ATOM     10  C   UNL A   1      33.376  24.561  23.710  1.00  0.00     0.165 A 
BRANCH  10  11
ATOM     11  C   UNL A   1      32.406  24.106  22.665  1.00  0.00     0.277 C 
ATOM     12  O   UNL A   1      31.802  24.937  21.971  1.00  0.00    -0.267 OA
ATOM     13  N   UNL A   1      32.244  22.814  22.225  1.00  0.00    -0.321 N 
ATOM     14  H   UNL A   1      32.115  22.757  21.251  1.00  0.00     0.170 HD
BRANCH  13  15
ATOM     15  C   UNL A   1      32.220  21.570  22.843  1.00  0.00     0.041 A 
ATOM     16  C   UNL A   1      32.035  20.445  22.040  1.00  0.00     0.028 A 
ATOM     17  C   UNL A   1      32.292  21.417  24.216  1.00  0.00     0.028 A 
ATOM     18  C   UNL A   1      32.200  19.170  22.583  1.00  0.00     0.030 A 
ATOM     19  C   UNL A   1      32.379  20.142  24.784  1.00  0.00     0.030 A 
ATOM     20  C   UNL A   1      32.471  19.028  23.948  1.00  0.00     0.067 A 
BRANCH  20  21
ATOM     21  N   UNL A   1      33.015  17.810  24.426  1.00  0.00    -0.221 N 
ATOM     22  C   UNL A   1      33.601  16.789  23.713  1.00  0.00     0.225 A 
ATOM     23  N   UNL A   1      32.815  17.390  25.702  1.00  0.00    -0.155 NA
ATOM     24  N   UNL A   1      33.665  15.693  24.438  1.00  0.00    -0.223 NA
ATOM     25  C   UNL A   1      33.146  16.102  25.629  1.00  0.00     0.246 A 
ENDBRANCH  20  21
ENDBRANCH  13  15
ENDBRANCH  10  11
ENDBRANCH   3   5
ENDBRANCH   2   3
ENDBRANCH   1   2
BRANCH   1  26
ATOM     26  C   UNL A   1      37.286  20.569  25.513  1.00  0.00     0.275 C 
BRANCH  26  27
ATOM     27  O   UNL A   1      38.241  21.656  25.514  1.00  0.00    -0.458 OA
BRANCH  27  28
ATOM     28  C   UNL A   1      39.399  21.404  26.190  1.00  0.00     0.338 C 
ATOM     29  O   UNL A   1      40.000  20.342  26.203  1.00  0.00    -0.246 OA
BRANCH  28  30
ATOM     30  C   UNL A   1      39.941  22.652  26.793  1.00  0.00     0.060 A 
ATOM     31  C   UNL A   1      39.376  23.867  26.384  1.00  0.00     0.016 A 
ATOM     32  C   UNL A   1      40.949  22.654  27.767  1.00  0.00     0.016 A 
ATOM     33  C   UNL A   1      39.832  25.077  26.917  1.00  0.00     0.010 A 
ATOM     34  C   UNL A   1      41.413  23.871  28.295  1.00  0.00     0.010 A 
ATOM     35  C   UNL A   1      40.880  25.094  27.848  1.00  0.00    -0.014 A 
BRANCH  35  36
ATOM     36  C   UNL A   1      41.556  26.389  28.146  1.00  0.00     0.031 A 
ATOM     37  C   UNL A   1      42.971  26.571  27.660  1.00  0.00     0.074 A 
ATOM     38  C   UNL A   1      40.936  27.410  28.765  1.00  0.00     0.049 A 
ATOM     39  N   UNL A   1      43.726  27.640  27.670  1.00  0.00    -0.248 NA
ATOM     40  C   UNL A   1      43.614  25.384  27.074  1.00  0.00     0.031 C 
ATOM     41  C   UNL A   1      39.563  27.396  29.265  1.00  0.00     0.029 A 
ATOM     42  N   UNL A   1      41.391  28.673  29.071  1.00  0.00    -0.354 N 
ATOM     43  C   UNL A   1      44.910  27.270  27.042  1.00  0.00     0.074 A 
ATOM     44  C   UNL A   1      44.799  25.861  26.730  1.00  0.00     0.031 C 
ATOM     45  C   UNL A   1      39.290  28.593  29.819  1.00  0.00     0.029 A 
ATOM     46  C   UNL A   1      40.466  29.459  29.718  1.00  0.00     0.049 A 
ATOM     47  H   UNL A   1      42.297  28.985  28.845  1.00  0.00     0.167 HD
ATOM     48  C   UNL A   1      45.985  28.033  26.728  1.00  0.00     0.034 A 
ATOM     49  C   UNL A   1      40.558  30.726  30.174  1.00  0.00     0.034 A 
ATOM     50  C   UNL A   1      46.134  29.417  27.090  1.00  0.00     0.049 A 
ATOM     51  C   UNL A   1      41.831  31.516  29.947  1.00  0.00     0.074 A 
ATOM     52  C   UNL A   1      47.191  30.271  26.824  1.00  0.00     0.029 A 
ATOM     53  N   UNL A   1      45.213  30.147  27.828  1.00  0.00    -0.354 N 
ATOM     54  N   UNL A   1      42.919  31.169  29.300  1.00  0.00    -0.248 NA
ATOM     55  C   UNL A   1      41.879  32.877  30.507  1.00  0.00     0.031 C 
ATOM     56  C   UNL A   1      46.942  31.492  27.461  1.00  0.00     0.029 A 
ATOM     57  C   UNL A   1      45.699  31.422  28.068  1.00  0.00     0.049 A 
ATOM     58  H   UNL A   1      44.342  29.807  28.136  1.00  0.00     0.167 HD
ATOM     59  C   UNL A   1      43.760  32.281  29.344  1.00  0.00     0.074 A 
ATOM     60  C   UNL A   1      43.056  33.310  30.079  1.00  0.00     0.031 C 
ATOM     61  C   UNL A   1      44.999  32.441  28.814  1.00  0.00     0.034 A 
BRANCH  48  62
ATOM     62  C   UNL A   1      47.102  27.347  25.986  1.00  0.00     0.023 A 
ATOM     63  C   UNL A   1      48.124  26.668  26.676  1.00  0.00     0.031 A 
ATOM     64  C   UNL A   1      47.177  27.418  24.586  1.00  0.00     0.131 A 
ATOM     65  C   UNL A   1      49.214  26.146  25.966  1.00  0.00     0.055 A 
ATOM     66  C   UNL A   1      48.230  26.837  23.880  1.00  0.00     0.041 A 
ATOM     67  F   UNL A   1      46.240  28.076  23.885  1.00  0.00    -0.206 F 
ATOM     68  C   UNL A   1      49.264  26.208  24.570  1.00  0.00     0.022 A 
BRANCH  65  69
ATOM     69  S   UNL A   1      50.631  25.506  26.899  1.00  0.00     0.124 S 
ATOM     70  O   UNL A   1      51.582  25.209  25.829  1.00  0.00    -0.237 OA
ATOM     71  O   UNL A   1      50.972  26.628  27.765  1.00  0.00    -0.237 OA
ATOM     72  O   UNL A   1      50.090  24.333  27.582  1.00  0.00    -0.744 OA
ENDBRANCH  65  69
ENDBRANCH  48  62
BRANCH  49  73
ATOM     73  C   UNL A   1      39.437  31.347  30.939  1.00  0.00     0.023 A 
ATOM     74  C   UNL A   1      39.433  31.369  32.344  1.00  0.00     0.031 A 
ATOM     75  C   UNL A   1      38.297  31.825  30.268  1.00  0.00     0.131 A 
ATOM     76  C   UNL A   1      38.288  31.805  33.033  1.00  0.00     0.055 A 
ATOM     77  C   UNL A   1      37.181  32.303  30.957  1.00  0.00     0.041 A 
ATOM     78  F   UNL A   1      38.246  31.816  28.927  1.00  0.00    -0.206 F 
ATOM     79  C   UNL A   1      37.167  32.279  32.348  1.00  0.00     0.022 A 
BRANCH  76  80
ATOM     80  S   UNL A   1      38.242  31.643  34.841  1.00  0.00     0.124 S 
ATOM     81  O   UNL A   1      36.970  32.279  35.163  1.00  0.00    -0.237 OA
ATOM     82  O   UNL A   1      38.301  30.197  35.019  1.00  0.00    -0.237 OA
ATOM     83  O   UNL A   1      39.431  32.371  35.277  1.00  0.00    -0.744 OA
ENDBRANCH  76  80
ENDBRANCH  49  73
BRANCH  61  84
ATOM     84  C   UNL A   1      45.658  33.790  28.974  1.00  0.00     0.023 A 
ATOM     85  C   UNL A   1      46.553  34.060  30.024  1.00  0.00     0.031 A 
ATOM     86  C   UNL A   1      45.394  34.817  28.050  1.00  0.00     0.131 A 
ATOM     87  C   UNL A   1      47.122  35.337  30.149  1.00  0.00     0.055 A 
ATOM     88  C   UNL A   1      45.999  36.072  28.152  1.00  0.00     0.041 A 
ATOM     89  F   UNL A   1      44.550  34.615  27.026  1.00  0.00    -0.206 F 
ATOM     90  C   UNL A   1      46.861  36.340  29.210  1.00  0.00     0.022 A 
BRANCH  87  91
ATOM     91  S   UNL A   1      48.171  35.694  31.586  1.00  0.00     0.124 S 
ATOM     92  O   UNL A   1      49.430  36.079  30.958  1.00  0.00    -0.237 OA
ATOM     93  O   UNL A   1      47.436  36.765  32.250  1.00  0.00    -0.237 OA
ATOM     94  O   UNL A   1      48.202  34.426  32.312  1.00  0.00    -0.744 OA
ENDBRANCH  87  91
ENDBRANCH  61  84
ENDBRANCH  35  36
ENDBRANCH  28  30
ENDBRANCH  27  28
ENDBRANCH  26  27
ENDBRANCH   1  26
TORSDOF 17
ENDMDL
