MODEL 1
REMARK VINA RESULT:      -9.2      0.000      0.000
REMARK SMILES O=C(OCCOC(=O)c1cccc([C@@H]2CCC[N@@H+](Cc3cccc(OCCO)c3)C2)c1)c1ccc(-c2c3nc(c(-c4cc(S(=O)(=O)[O-])ccc4F)c4ccc([nH]4)c(-c4cc(S(=O)(=O)[O-])ccc4F)c4nc(c(-c5cc(S(=O)(=O)[O-])ccc5F)c5ccc2[nH]5)C=C4)C=C3)cc1
REMARK SMILES IDX 7 1 8 2 6 3 5 4 4 5 3 6 2 7 1 8 32 9 33 10 94 11 34 12 93 13
REMARK SMILES IDX 35 14 36 15 37 16 87 17 38 18 92 19 86 20 88 21 39 22 91 23
REMARK SMILES IDX 85 24 84 25 40 27 72 28 52 29 71 30 53 31 56 32 70 33 89 34
REMARK SMILES IDX 54 35 55 36 69 38 90 39 57 40 41 41 42 42 50 43 43 44 49 45
REMARK SMILES IDX 51 46 48 47 44 48 45 49 46 50 47 51 73 52 74 53 82 54 75 55
REMARK SMILES IDX 81 56 83 57 80 58 76 59 77 60 78 61 79 62 58 63 59 64 67 65
REMARK SMILES IDX 60 66 66 67 68 68 65 69 61 70 62 71 63 72 64 73 9 74 10 75
REMARK SMILES IDX 31 76 11 77 13 78 12 79 14 80 15 81 30 82 16 83 18 84 17 85
REMARK SMILES IDX 19 87 20 88 21 89 29 90 22 91 24 92 23 93 25 94 26 95 27 96
REMARK SMILES IDX 28 97
REMARK H PARENT 88 26 56 37 18 86 28 98
REMARK Flexibility Score: inf
ROOT
ATOM      1  C   UNL A   1      42.845  22.671  28.115  1.00  0.00     0.338 C 
ATOM      2  O   UNL A   1      41.952  22.778  28.944  1.00  0.00    -0.246 OA
ENDROOT
BRANCH   1   3
ATOM      3  O   UNL A   1      42.919  21.800  27.079  1.00  0.00    -0.458 OA
BRANCH   3   4
ATOM      4  C   UNL A   1      41.883  21.893  26.104  1.00  0.00     0.275 C 
BRANCH   4   5
ATOM      5  C   UNL A   1      40.756  20.890  26.358  1.00  0.00     0.275 C 
BRANCH   5   6
ATOM      6  O   UNL A   1      39.542  21.506  26.823  1.00  0.00    -0.458 OA
BRANCH   6   7
ATOM      7  C   UNL A   1      38.947  22.683  26.516  1.00  0.00     0.338 C 
ATOM      8  O   UNL A   1      37.965  22.633  25.772  1.00  0.00    -0.246 OA
BRANCH   7   9
ATOM      9  C   UNL A   1      39.374  24.052  26.989  1.00  0.00     0.060 A 
ATOM     10  C   UNL A   1      39.241  24.583  28.273  1.00  0.00     0.016 A 
ATOM     11  C   UNL A   1      39.993  24.875  26.022  1.00  0.00     0.016 A 
ATOM     12  C   UNL A   1      39.683  25.883  28.574  1.00  0.00     0.010 A 
ATOM     13  C   UNL A   1      40.461  26.164  26.323  1.00  0.00     0.010 A 
ATOM     14  C   UNL A   1      40.295  26.685  27.606  1.00  0.00    -0.014 A 
BRANCH  14  15
ATOM     15  C   UNL A   1      40.745  28.062  27.972  1.00  0.00     0.031 A 
ATOM     16  C   UNL A   1      39.744  29.018  28.504  1.00  0.00     0.074 A 
ATOM     17  C   UNL A   1      42.045  28.396  27.839  1.00  0.00     0.049 A 
ATOM     18  N   UNL A   1      39.936  30.186  29.045  1.00  0.00    -0.248 NA
ATOM     19  C   UNL A   1      38.335  28.613  28.390  1.00  0.00     0.031 C 
ATOM     20  C   UNL A   1      42.951  27.512  27.145  1.00  0.00     0.029 A 
ATOM     21  N   UNL A   1      42.852  29.459  28.192  1.00  0.00    -0.354 N 
ATOM     22  C   UNL A   1      38.671  30.659  29.351  1.00  0.00     0.074 A 
ATOM     23  C   UNL A   1      37.719  29.664  28.907  1.00  0.00     0.031 C 
ATOM     24  C   UNL A   1      44.173  28.050  27.137  1.00  0.00     0.029 A 
ATOM     25  C   UNL A   1      44.207  29.246  27.923  1.00  0.00     0.049 A 
ATOM     26  H   UNL A   1      42.507  30.288  28.594  1.00  0.00     0.167 HD
ATOM     27  C   UNL A   1      38.346  31.830  29.944  1.00  0.00     0.034 A 
ATOM     28  C   UNL A   1      45.358  29.863  28.309  1.00  0.00     0.034 A 
ATOM     29  C   UNL A   1      39.308  32.834  30.279  1.00  0.00     0.049 A 
ATOM     30  C   UNL A   1      44.828  31.279  29.214  1.00  0.00     0.074 A 
ATOM     31  C   UNL A   1      39.114  34.086  30.828  1.00  0.00     0.029 A 
ATOM     32  N   UNL A   1      40.664  32.690  30.049  1.00  0.00    -0.354 N 
ATOM     33  N   UNL A   1      43.576  31.816  29.243  1.00  0.00    -0.248 NA
ATOM     34  C   UNL A   1      45.642  32.129  30.107  1.00  0.00     0.031 C 
ATOM     35  C   UNL A   1      40.352  34.738  30.848  1.00  0.00     0.029 A 
ATOM     36  C   UNL A   1      41.314  33.850  30.395  1.00  0.00     0.049 A 
ATOM     37  H   UNL A   1      41.097  31.881  29.691  1.00  0.00     0.167 HD
ATOM     38  C   UNL A   1      43.619  33.043  29.968  1.00  0.00     0.074 A 
ATOM     39  C   UNL A   1      44.942  33.177  30.446  1.00  0.00     0.031 C 
ATOM     40  C   UNL A   1      42.733  33.989  30.394  1.00  0.00     0.034 A 
BRANCH  27  41
ATOM     41  C   UNL A   1      36.890  32.094  30.128  1.00  0.00     0.023 A 
ATOM     42  C   UNL A   1      36.147  32.732  29.124  1.00  0.00     0.031 A 
ATOM     43  C   UNL A   1      36.288  31.856  31.373  1.00  0.00     0.131 A 
ATOM     44  C   UNL A   1      34.882  33.237  29.432  1.00  0.00     0.055 A 
ATOM     45  C   UNL A   1      34.987  32.271  31.638  1.00  0.00     0.041 A 
ATOM     46  F   UNL A   1      36.979  31.276  32.367  1.00  0.00    -0.206 F 
ATOM     47  C   UNL A   1      34.285  32.991  30.673  1.00  0.00     0.022 A 
BRANCH  44  48
ATOM     48  S   UNL A   1      34.136  34.413  28.275  1.00  0.00     0.124 S 
ATOM     49  O   UNL A   1      32.803  33.841  28.099  1.00  0.00    -0.237 OA
ATOM     50  O   UNL A   1      34.197  35.669  29.014  1.00  0.00    -0.237 OA
ATOM     51  O   UNL A   1      35.004  34.334  27.103  1.00  0.00    -0.744 OA
ENDBRANCH  44  48
ENDBRANCH  27  41
BRANCH  28  52
ATOM     52  C   UNL A   1      46.946  29.131  27.836  1.00  0.00     0.023 A 
ATOM     53  C   UNL A   1      47.444  28.590  26.533  1.00  0.00     0.031 A 
ATOM     54  C   UNL A   1      48.036  28.973  28.716  1.00  0.00     0.131 A 
ATOM     55  C   UNL A   1      48.592  27.844  26.180  1.00  0.00     0.055 A 
ATOM     56  C   UNL A   1      49.295  28.327  28.359  1.00  0.00     0.041 A 
ATOM     57  F   UNL A   1      47.949  29.376  29.990  1.00  0.00    -0.206 F 
ATOM     58  C   UNL A   1      49.556  27.708  27.122  1.00  0.00     0.022 A 
BRANCH  55  59
ATOM     59  S   UNL A   1      48.644  27.027  24.505  1.00  0.00     0.124 S 
ATOM     60  O   UNL A   1      47.271  26.584  24.297  1.00  0.00    -0.237 OA
ATOM     61  O   UNL A   1      49.088  28.114  23.638  1.00  0.00    -0.237 OA
ATOM     62  O   UNL A   1      49.601  25.942  24.695  1.00  0.00    -0.744 OA
ENDBRANCH  55  59
ENDBRANCH  28  52
BRANCH  40  63
ATOM     63  C   UNL A   1      43.329  35.258  31.030  1.00  0.00     0.023 A 
ATOM     64  C   UNL A   1      43.296  35.427  32.431  1.00  0.00     0.031 A 
ATOM     65  C   UNL A   1      43.779  36.344  30.254  1.00  0.00     0.131 A 
ATOM     66  C   UNL A   1      43.621  36.670  33.000  1.00  0.00     0.055 A 
ATOM     67  C   UNL A   1      44.172  37.556  30.835  1.00  0.00     0.041 A 
ATOM     68  F   UNL A   1      43.795  36.270  28.913  1.00  0.00    -0.206 F 
ATOM     69  C   UNL A   1      44.079  37.730  32.214  1.00  0.00     0.022 A 
BRANCH  66  70
ATOM     70  S   UNL A   1      43.305  36.931  34.770  1.00  0.00     0.124 S 
ATOM     71  O   UNL A   1      43.689  35.640  35.333  1.00  0.00    -0.237 OA
ATOM     72  O   UNL A   1      44.181  38.054  35.086  1.00  0.00    -0.237 OA
ATOM     73  O   UNL A   1      41.875  37.229  34.822  1.00  0.00    -0.744 OA
ENDBRANCH  66  70
ENDBRANCH  40  63
ENDBRANCH  14  15
ENDBRANCH   7   9
ENDBRANCH   6   7
ENDBRANCH   5   6
ENDBRANCH   4   5
ENDBRANCH   3   4
ENDBRANCH   1   3
BRANCH   1  74
ATOM     74  C   UNL A   1      44.092  23.445  28.113  1.00  0.00     0.060 A 
ATOM     75  C   UNL A   1      44.899  23.469  26.975  1.00  0.00     0.016 A 
ATOM     76  C   UNL A   1      44.406  24.204  29.249  1.00  0.00     0.020 A 
ATOM     77  C   UNL A   1      46.020  24.292  26.970  1.00  0.00     0.001 A 
ATOM     78  C   UNL A   1      45.533  25.018  29.272  1.00  0.00    -0.038 A 
ATOM     79  C   UNL A   1      46.336  25.054  28.108  1.00  0.00     0.004 A 
BRANCH  78  80
ATOM     80  C   UNL A   1      45.831  25.907  30.482  1.00  0.00     0.074 C 
ATOM     81  C   UNL A   1      45.943  25.204  31.836  1.00  0.00     0.020 C 
ATOM     82  C   UNL A   1      44.898  27.147  30.592  1.00  0.00     0.270 C 
ATOM     83  C   UNL A   1      44.647  25.256  32.657  1.00  0.00     0.062 C 
ATOM     84  N   UNL A   1      43.719  27.188  31.433  1.00  0.00    -0.331 N 
ATOM     85  C   UNL A   1      43.987  26.661  32.754  1.00  0.00     0.262 C 
ATOM     86  H   UNL A   1      43.039  26.513  31.083  1.00  0.00     0.348 HD
BRANCH  84  87
ATOM     87  C   UNL A   1      42.839  28.400  31.252  1.00  0.00     0.299 C 
BRANCH  87  88
ATOM     88  C   UNL A   1      41.559  28.836  32.033  1.00  0.00     0.010 A 
ATOM     89  C   UNL A   1      40.397  28.064  31.961  1.00  0.00     0.010 A 
ATOM     90  C   UNL A   1      41.353  30.075  32.673  1.00  0.00     0.056 A 
ATOM     91  C   UNL A   1      39.177  28.506  32.530  1.00  0.00     0.004 A 
ATOM     92  C   UNL A   1      40.125  30.612  33.277  1.00  0.00     0.119 A 
ATOM     93  C   UNL A   1      39.044  29.751  33.178  1.00  0.00     0.046 A 
BRANCH  92  94
ATOM     94  O   UNL A   1      39.819  31.814  33.969  1.00  0.00    -0.491 OA
BRANCH  94  95
ATOM     95  C   UNL A   1      39.108  33.239  34.267  1.00  0.00     0.257 C 
BRANCH  95  96
ATOM     96  C   UNL A   1      37.559  33.800  34.390  1.00  0.00     0.197 C 
BRANCH  96  97
ATOM     97  O   UNL A   1      37.130  35.016  33.778  1.00  0.00    -0.393 OA
ATOM     98  H   UNL A   1      37.704  35.218  33.022  1.00  0.00     0.210 HD
ENDBRANCH  96  97
ENDBRANCH  95  96
ENDBRANCH  94  95
ENDBRANCH  92  94
ENDBRANCH  87  88
ENDBRANCH  84  87
ENDBRANCH  78  80
ENDBRANCH   1  74
TORSDOF 21
ENDMDL
MODEL 2
REMARK VINA RESULT:      -9.1      4.114     10.381
REMARK SMILES O=C(OCCOC(=O)c1cccc([C@@H]2CCC[N@@H+](Cc3cccc(OCCO)c3)C2)c1)c1ccc(-c2c3nc(c(-c4cc(S(=O)(=O)[O-])ccc4F)c4ccc([nH]4)c(-c4cc(S(=O)(=O)[O-])ccc4F)c4nc(c(-c5cc(S(=O)(=O)[O-])ccc5F)c5ccc2[nH]5)C=C4)C=C3)cc1
REMARK SMILES IDX 7 1 8 2 6 3 5 4 4 5 3 6 2 7 1 8 32 9 33 10 94 11 34 12 93 13
REMARK SMILES IDX 35 14 36 15 37 16 87 17 38 18 92 19 86 20 88 21 39 22 91 23
REMARK SMILES IDX 85 24 84 25 40 27 72 28 52 29 71 30 53 31 56 32 70 33 89 34
REMARK SMILES IDX 54 35 55 36 69 38 90 39 57 40 41 41 42 42 50 43 43 44 49 45
REMARK SMILES IDX 51 46 48 47 44 48 45 49 46 50 47 51 73 52 74 53 82 54 75 55
REMARK SMILES IDX 81 56 83 57 80 58 76 59 77 60 78 61 79 62 58 63 59 64 67 65
REMARK SMILES IDX 60 66 66 67 68 68 65 69 61 70 62 71 63 72 64 73 9 74 10 75
REMARK SMILES IDX 31 76 11 77 13 78 12 79 14 80 15 81 30 82 16 83 18 84 17 85
REMARK SMILES IDX 19 87 20 88 21 89 29 90 22 91 24 92 23 93 25 94 26 95 27 96
REMARK SMILES IDX 28 97
REMARK H PARENT 88 26 56 37 18 86 28 98
REMARK Flexibility Score: inf
ROOT
ATOM      1  C   UNL A   1      34.205  23.578  23.007  1.00  0.00     0.338 C 
ATOM      2  O   UNL A   1      34.201  23.305  21.814  1.00  0.00    -0.246 OA
ENDROOT
BRANCH   1   3
ATOM      3  O   UNL A   1      35.260  23.957  23.770  1.00  0.00    -0.458 OA
BRANCH   3   4
ATOM      4  C   UNL A   1      36.155  22.918  24.164  1.00  0.00     0.275 C 
BRANCH   4   5
ATOM      5  C   UNL A   1      36.398  22.905  25.674  1.00  0.00     0.275 C 
BRANCH   5   6
ATOM      6  O   UNL A   1      37.393  21.948  26.080  1.00  0.00    -0.458 OA
BRANCH   6   7
ATOM      7  C   UNL A   1      38.739  22.034  26.200  1.00  0.00     0.338 C 
ATOM      8  O   UNL A   1      39.384  21.004  25.987  1.00  0.00    -0.246 OA
BRANCH   7   9
ATOM      9  C   UNL A   1      39.527  23.264  26.579  1.00  0.00     0.060 A 
ATOM     10  C   UNL A   1      39.370  24.557  26.077  1.00  0.00     0.016 A 
ATOM     11  C   UNL A   1      40.521  23.082  27.566  1.00  0.00     0.016 A 
ATOM     12  C   UNL A   1      40.182  25.616  26.521  1.00  0.00     0.010 A 
ATOM     13  C   UNL A   1      41.317  24.140  28.033  1.00  0.00     0.010 A 
ATOM     14  C   UNL A   1      41.161  25.419  27.499  1.00  0.00    -0.014 A 
BRANCH  14  15
ATOM     15  C   UNL A   1      42.002  26.574  27.937  1.00  0.00     0.031 A 
ATOM     16  C   UNL A   1      43.348  26.740  27.335  1.00  0.00     0.074 A 
ATOM     17  C   UNL A   1      41.516  27.449  28.841  1.00  0.00     0.049 A 
ATOM     18  N   UNL A   1      44.166  27.748  27.429  1.00  0.00    -0.248 NA
ATOM     19  C   UNL A   1      43.848  25.608  26.541  1.00  0.00     0.031 C 
ATOM     20  C   UNL A   1      40.289  27.157  29.542  1.00  0.00     0.029 A 
ATOM     21  N   UNL A   1      41.894  28.669  29.365  1.00  0.00    -0.354 N 
ATOM     22  C   UNL A   1      45.281  27.381  26.693  1.00  0.00     0.074 A 
ATOM     23  C   UNL A   1      45.045  26.047  26.188  1.00  0.00     0.031 C 
ATOM     24  C   UNL A   1      40.010  28.158  30.380  1.00  0.00     0.029 A 
ATOM     25  C   UNL A   1      40.937  29.236  30.210  1.00  0.00     0.049 A 
ATOM     26  H   UNL A   1      42.757  29.098  29.164  1.00  0.00     0.167 HD
ATOM     27  C   UNL A   1      46.404  28.104  26.476  1.00  0.00     0.034 A 
ATOM     28  C   UNL A   1      40.751  30.480  30.732  1.00  0.00     0.034 A 
ATOM     29  C   UNL A   1      46.644  29.380  27.075  1.00  0.00     0.049 A 
ATOM     30  C   UNL A   1      42.183  31.388  30.252  1.00  0.00     0.074 A 
ATOM     31  C   UNL A   1      47.756  30.194  26.989  1.00  0.00     0.029 A 
ATOM     32  N   UNL A   1      45.740  30.004  27.915  1.00  0.00    -0.354 N 
ATOM     33  N   UNL A   1      43.349  30.884  29.761  1.00  0.00    -0.248 NA
ATOM     34  C   UNL A   1      42.369  32.853  30.287  1.00  0.00     0.031 C 
ATOM     35  C   UNL A   1      47.559  31.277  27.854  1.00  0.00     0.029 A 
ATOM     36  C   UNL A   1      46.289  31.169  28.397  1.00  0.00     0.049 A 
ATOM     37  H   UNL A   1      44.841  29.667  28.135  1.00  0.00     0.167 HD
ATOM     38  C   UNL A   1      44.298  31.945  29.654  1.00  0.00     0.074 A 
ATOM     39  C   UNL A   1      43.619  33.126  30.026  1.00  0.00     0.031 C 
ATOM     40  C   UNL A   1      45.571  32.110  29.192  1.00  0.00     0.034 A 
BRANCH  27  41
ATOM     41  C   UNL A   1      47.464  27.445  25.662  1.00  0.00     0.023 A 
ATOM     42  C   UNL A   1      48.549  26.808  26.283  1.00  0.00     0.031 A 
ATOM     43  C   UNL A   1      47.474  27.600  24.268  1.00  0.00     0.131 A 
ATOM     44  C   UNL A   1      49.668  26.471  25.517  1.00  0.00     0.055 A 
ATOM     45  C   UNL A   1      48.549  27.167  23.499  1.00  0.00     0.041 A 
ATOM     46  F   UNL A   1      46.467  28.232  23.643  1.00  0.00    -0.206 F 
ATOM     47  C   UNL A   1      49.668  26.623  24.127  1.00  0.00     0.022 A 
BRANCH  44  48
ATOM     48  S   UNL A   1      51.198  26.057  26.393  1.00  0.00     0.124 S 
ATOM     49  O   UNL A   1      52.169  26.072  25.302  1.00  0.00    -0.237 OA
ATOM     50  O   UNL A   1      51.313  27.140  27.363  1.00  0.00    -0.237 OA
ATOM     51  O   UNL A   1      50.920  24.738  26.957  1.00  0.00    -0.744 OA
ENDBRANCH  44  48
ENDBRANCH  27  41
BRANCH  28  52
ATOM     52  C   UNL A   1      39.242  30.819  31.675  1.00  0.00     0.023 A 
ATOM     53  C   UNL A   1      38.023  31.624  31.347  1.00  0.00     0.031 A 
ATOM     54  C   UNL A   1      38.983  30.308  32.963  1.00  0.00     0.131 A 
ATOM     55  C   UNL A   1      36.927  32.064  32.124  1.00  0.00     0.055 A 
ATOM     56  C   UNL A   1      37.799  30.629  33.752  1.00  0.00     0.041 A 
ATOM     57  F   UNL A   1      39.871  29.512  33.573  1.00  0.00    -0.206 F 
ATOM     58  C   UNL A   1      36.804  31.549  33.371  1.00  0.00     0.022 A 
BRANCH  55  59
ATOM     59  S   UNL A   1      35.810  33.382  31.423  1.00  0.00     0.124 S 
ATOM     60  O   UNL A   1      34.556  32.677  31.184  1.00  0.00    -0.237 OA
ATOM     61  O   UNL A   1      35.776  34.370  32.497  1.00  0.00    -0.237 OA
ATOM     62  O   UNL A   1      36.506  33.796  30.210  1.00  0.00    -0.744 OA
ENDBRANCH  55  59
ENDBRANCH  28  52
BRANCH  40  63
ATOM     63  C   UNL A   1      46.232  33.474  29.459  1.00  0.00     0.023 A 
ATOM     64  C   UNL A   1      46.176  34.489  28.480  1.00  0.00     0.031 A 
ATOM     65  C   UNL A   1      47.032  33.709  30.594  1.00  0.00     0.131 A 
ATOM     66  C   UNL A   1      46.965  35.644  28.613  1.00  0.00     0.055 A 
ATOM     67  C   UNL A   1      47.758  34.895  30.754  1.00  0.00     0.041 A 
ATOM     68  F   UNL A   1      47.168  32.770  31.545  1.00  0.00    -0.206 F 
ATOM     69  C   UNL A   1      47.741  35.863  29.753  1.00  0.00     0.022 A 
BRANCH  66  70
ATOM     70  S   UNL A   1      47.075  36.794  27.211  1.00  0.00     0.124 S 
ATOM     71  O   UNL A   1      46.478  36.009  26.135  1.00  0.00    -0.237 OA
ATOM     72  O   UNL A   1      46.298  37.937  27.678  1.00  0.00    -0.237 OA
ATOM     73  O   UNL A   1      48.511  37.036  27.079  1.00  0.00    -0.744 OA
ENDBRANCH  66  70
ENDBRANCH  40  63
ENDBRANCH  14  15
ENDBRANCH   7   9
ENDBRANCH   6   7
ENDBRANCH   5   6
ENDBRANCH   4   5
ENDBRANCH   3   4
ENDBRANCH   1   3
BRANCH   1  74
ATOM     74  C   UNL A   1      33.044  23.481  23.898  1.00  0.00     0.060 A 
ATOM     75  C   UNL A   1      32.793  22.297  24.594  1.00  0.00     0.016 A 
ATOM     76  C   UNL A   1      32.248  24.620  24.080  1.00  0.00     0.020 A 
ATOM     77  C   UNL A   1      31.745  22.271  25.508  1.00  0.00     0.001 A 
ATOM     78  C   UNL A   1      31.183  24.608  24.975  1.00  0.00    -0.038 A 
ATOM     79  C   UNL A   1      30.945  23.412  25.692  1.00  0.00     0.004 A 
BRANCH  78  80
ATOM     80  C   UNL A   1      30.364  25.875  25.233  1.00  0.00     0.074 C 
ATOM     81  C   UNL A   1      29.981  26.704  24.005  1.00  0.00     0.020 C 
ATOM     82  C   UNL A   1      30.962  26.793  26.338  1.00  0.00     0.270 C 
ATOM     83  C   UNL A   1      30.928  27.884  23.747  1.00  0.00     0.062 C 
ATOM     84  N   UNL A   1      31.797  27.943  26.056  1.00  0.00    -0.331 N 
ATOM     85  C   UNL A   1      31.244  28.757  24.994  1.00  0.00     0.262 C 
ATOM     86  H   UNL A   1      32.667  27.625  25.631  1.00  0.00     0.348 HD
BRANCH  84  87
ATOM     87  C   UNL A   1      32.440  28.585  27.261  1.00  0.00     0.299 C 
BRANCH  87  88
ATOM     88  C   UNL A   1      33.443  29.778  27.346  1.00  0.00     0.010 A 
ATOM     89  C   UNL A   1      34.816  29.536  27.431  1.00  0.00     0.010 A 
ATOM     90  C   UNL A   1      33.112  31.132  27.560  1.00  0.00     0.056 A 
ATOM     91  C   UNL A   1      35.741  30.584  27.662  1.00  0.00     0.004 A 
ATOM     92  C   UNL A   1      34.004  32.274  27.816  1.00  0.00     0.119 A 
ATOM     93  C   UNL A   1      35.344  31.924  27.846  1.00  0.00     0.046 A 
BRANCH  92  94
ATOM     94  O   UNL A   1      33.784  33.663  28.007  1.00  0.00    -0.491 OA
BRANCH  94  95
ATOM     95  C   UNL A   1      33.200  35.015  28.684  1.00  0.00     0.257 C 
BRANCH  95  96
ATOM     96  C   UNL A   1      33.269  35.735  30.169  1.00  0.00     0.197 C 
BRANCH  96  97
ATOM     97  O   UNL A   1      32.353  36.752  30.574  1.00  0.00    -0.393 OA
ATOM     98  H   UNL A   1      32.624  37.601  30.193  1.00  0.00     0.210 HD
ENDBRANCH  96  97
ENDBRANCH  95  96
ENDBRANCH  94  95
ENDBRANCH  92  94
ENDBRANCH  87  88
ENDBRANCH  84  87
ENDBRANCH  78  80
ENDBRANCH   1  74
TORSDOF 21
ENDMDL
MODEL 3
REMARK VINA RESULT:      -8.9      4.135      7.429
REMARK SMILES O=C(OCCOC(=O)c1cccc([C@@H]2CCC[N@@H+](Cc3cccc(OCCO)c3)C2)c1)c1ccc(-c2c3nc(c(-c4cc(S(=O)(=O)[O-])ccc4F)c4ccc([nH]4)c(-c4cc(S(=O)(=O)[O-])ccc4F)c4nc(c(-c5cc(S(=O)(=O)[O-])ccc5F)c5ccc2[nH]5)C=C4)C=C3)cc1
REMARK SMILES IDX 7 1 8 2 6 3 5 4 4 5 3 6 2 7 1 8 32 9 33 10 94 11 34 12 93 13
REMARK SMILES IDX 35 14 36 15 37 16 87 17 38 18 92 19 86 20 88 21 39 22 91 23
REMARK SMILES IDX 85 24 84 25 40 27 72 28 52 29 71 30 53 31 56 32 70 33 89 34
REMARK SMILES IDX 54 35 55 36 69 38 90 39 57 40 41 41 42 42 50 43 43 44 49 45
REMARK SMILES IDX 51 46 48 47 44 48 45 49 46 50 47 51 73 52 74 53 82 54 75 55
REMARK SMILES IDX 81 56 83 57 80 58 76 59 77 60 78 61 79 62 58 63 59 64 67 65
REMARK SMILES IDX 60 66 66 67 68 68 65 69 61 70 62 71 63 72 64 73 9 74 10 75
REMARK SMILES IDX 31 76 11 77 13 78 12 79 14 80 15 81 30 82 16 83 18 84 17 85
REMARK SMILES IDX 19 87 20 88 21 89 29 90 22 91 24 92 23 93 25 94 26 95 27 96
REMARK SMILES IDX 28 97
REMARK H PARENT 88 26 56 37 18 86 28 98
REMARK Flexibility Score: inf
ROOT
ATOM      1  C   UNL A   1      37.928  22.008  25.723  1.00  0.00     0.338 C 
ATOM      2  O   UNL A   1      38.205  23.149  26.066  1.00  0.00    -0.246 OA
ENDROOT
BRANCH   1   3
ATOM      3  O   UNL A   1      38.782  20.984  25.476  1.00  0.00    -0.458 OA
BRANCH   3   4
ATOM      4  C   UNL A   1      40.005  20.995  26.209  1.00  0.00     0.275 C 
BRANCH   4   5
ATOM      5  C   UNL A   1      40.690  19.627  26.213  1.00  0.00     0.275 C 
BRANCH   5   6
ATOM      6  O   UNL A   1      41.887  19.590  25.415  1.00  0.00    -0.458 OA
BRANCH   6   7
ATOM      7  C   UNL A   1      43.142  20.044  25.642  1.00  0.00     0.338 C 
ATOM      8  O   UNL A   1      44.050  19.209  25.612  1.00  0.00    -0.246 OA
BRANCH   7   9
ATOM      9  C   UNL A   1      43.539  21.470  25.936  1.00  0.00     0.060 A 
ATOM     10  C   UNL A   1      44.288  21.933  27.019  1.00  0.00     0.016 A 
ATOM     11  C   UNL A   1      43.117  22.437  24.996  1.00  0.00     0.016 A 
ATOM     12  C   UNL A   1      44.583  23.299  27.172  1.00  0.00     0.010 A 
ATOM     13  C   UNL A   1      43.430  23.799  25.128  1.00  0.00     0.010 A 
ATOM     14  C   UNL A   1      44.158  24.243  26.232  1.00  0.00    -0.014 A 
BRANCH  14  15
ATOM     15  C   UNL A   1      44.493  25.685  26.438  1.00  0.00     0.031 A 
ATOM     16  C   UNL A   1      43.516  26.546  27.148  1.00  0.00     0.074 A 
ATOM     17  C   UNL A   1      45.676  26.164  26.002  1.00  0.00     0.049 A 
ATOM     18  N   UNL A   1      43.667  27.761  27.590  1.00  0.00    -0.248 NA
ATOM     19  C   UNL A   1      42.182  25.968  27.370  1.00  0.00     0.031 C 
ATOM     20  C   UNL A   1      46.517  25.353  25.154  1.00  0.00     0.029 A 
ATOM     21  N   UNL A   1      46.394  27.337  26.126  1.00  0.00    -0.354 N 
ATOM     22  C   UNL A   1      42.448  28.096  28.157  1.00  0.00     0.074 A 
ATOM     23  C   UNL A   1      41.562  26.968  27.974  1.00  0.00     0.031 C 
ATOM     24  C   UNL A   1      47.625  26.033  24.851  1.00  0.00     0.029 A 
ATOM     25  C   UNL A   1      47.673  27.272  25.566  1.00  0.00     0.049 A 
ATOM     26  H   UNL A   1      46.039  28.142  26.566  1.00  0.00     0.167 HD
ATOM     27  C   UNL A   1      42.110  29.256  28.766  1.00  0.00     0.034 A 
ATOM     28  C   UNL A   1      48.789  28.046  25.661  1.00  0.00     0.034 A 
ATOM     29  C   UNL A   1      42.981  30.387  28.839  1.00  0.00     0.049 A 
ATOM     30  C   UNL A   1      48.289  29.444  26.611  1.00  0.00     0.074 A 
ATOM     31  C   UNL A   1      42.750  31.639  29.372  1.00  0.00     0.029 A 
ATOM     32  N   UNL A   1      44.261  30.393  28.314  1.00  0.00    -0.354 N 
ATOM     33  N   UNL A   1      47.015  29.826  26.902  1.00  0.00    -0.248 NA
ATOM     34  C   UNL A   1      49.160  30.440  27.266  1.00  0.00     0.031 C 
ATOM     35  C   UNL A   1      43.865  32.436  29.089  1.00  0.00     0.029 A 
ATOM     36  C   UNL A   1      44.813  31.643  28.463  1.00  0.00     0.049 A 
ATOM     37  H   UNL A   1      44.707  29.621  27.896  1.00  0.00     0.167 HD
ATOM     38  C   UNL A   1      47.054  31.094  27.556  1.00  0.00     0.074 A 
ATOM     39  C   UNL A   1      48.419  31.416  27.717  1.00  0.00     0.031 C 
ATOM     40  C   UNL A   1      46.166  31.952  28.137  1.00  0.00     0.034 A 
BRANCH  27  41
ATOM     41  C   UNL A   1      40.709  29.353  29.264  1.00  0.00     0.023 A 
ATOM     42  C   UNL A   1      40.437  29.337  30.639  1.00  0.00     0.031 A 
ATOM     43  C   UNL A   1      39.639  29.295  28.358  1.00  0.00     0.131 A 
ATOM     44  C   UNL A   1      39.125  29.123  31.070  1.00  0.00     0.055 A 
ATOM     45  C   UNL A   1      38.323  29.187  28.798  1.00  0.00     0.041 A 
ATOM     46  F   UNL A   1      39.863  29.277  27.034  1.00  0.00    -0.206 F 
ATOM     47  C   UNL A   1      38.063  29.072  30.163  1.00  0.00     0.022 A 
BRANCH  44  48
ATOM     48  S   UNL A   1      38.867  28.679  32.807  1.00  0.00     0.124 S 
ATOM     49  O   UNL A   1      37.641  27.889  32.725  1.00  0.00    -0.237 OA
ATOM     50  O   UNL A   1      40.082  27.938  33.130  1.00  0.00    -0.237 OA
ATOM     51  O   UNL A   1      38.728  29.973  33.471  1.00  0.00    -0.744 OA
ENDBRANCH  44  48
ENDBRANCH  27  41
BRANCH  28  52
ATOM     52  C   UNL A   1      50.317  27.482  24.868  1.00  0.00     0.023 A 
ATOM     53  C   UNL A   1      50.876  27.721  23.499  1.00  0.00     0.031 A 
ATOM     54  C   UNL A   1      51.285  26.677  25.501  1.00  0.00     0.131 A 
ATOM     55  C   UNL A   1      51.955  27.146  22.791  1.00  0.00     0.055 A 
ATOM     56  C   UNL A   1      52.487  26.168  24.848  1.00  0.00     0.041 A 
ATOM     57  F   UNL A   1      51.120  26.280  26.769  1.00  0.00    -0.206 F 
ATOM     58  C   UNL A   1      52.795  26.342  23.486  1.00  0.00     0.022 A 
BRANCH  55  59
ATOM     59  S   UNL A   1      52.077  27.447  20.954  1.00  0.00     0.124 S 
ATOM     60  O   UNL A   1      53.127  28.452  20.841  1.00  0.00    -0.237 OA
ATOM     61  O   UNL A   1      52.420  26.125  20.441  1.00  0.00    -0.237 OA
ATOM     62  O   UNL A   1      50.745  27.930  20.609  1.00  0.00    -0.744 OA
ENDBRANCH  55  59
ENDBRANCH  28  52
BRANCH  40  63
ATOM     63  C   UNL A   1      46.715  33.321  28.576  1.00  0.00     0.023 A 
ATOM     64  C   UNL A   1      46.854  34.361  27.633  1.00  0.00     0.031 A 
ATOM     65  C   UNL A   1      47.231  33.541  29.869  1.00  0.00     0.131 A 
ATOM     66  C   UNL A   1      47.564  35.527  27.966  1.00  0.00     0.055 A 
ATOM     67  C   UNL A   1      47.872  34.737  30.215  1.00  0.00     0.041 A 
ATOM     68  F   UNL A   1      47.173  32.580  30.804  1.00  0.00    -0.206 F 
ATOM     69  C   UNL A   1      48.056  35.731  29.257  1.00  0.00     0.022 A 
BRANCH  66  70
ATOM     70  S   UNL A   1      47.957  36.717  26.651  1.00  0.00     0.124 S 
ATOM     71  O   UNL A   1      46.635  37.230  26.309  1.00  0.00    -0.237 OA
ATOM     72  O   UNL A   1      48.853  37.650  27.327  1.00  0.00    -0.237 OA
ATOM     73  O   UNL A   1      48.588  35.893  25.622  1.00  0.00    -0.744 OA
ENDBRANCH  66  70
ENDBRANCH  40  63
ENDBRANCH  14  15
ENDBRANCH   7   9
ENDBRANCH   6   7
ENDBRANCH   5   6
ENDBRANCH   4   5
ENDBRANCH   3   4
ENDBRANCH   1   3
BRANCH   1  74
ATOM     74  C   UNL A   1      36.576  21.519  25.434  1.00  0.00     0.060 A 
ATOM     75  C   UNL A   1      36.386  20.206  25.001  1.00  0.00     0.016 A 
ATOM     76  C   UNL A   1      35.493  22.376  25.670  1.00  0.00     0.020 A 
ATOM     77  C   UNL A   1      35.086  19.741  24.833  1.00  0.00     0.001 A 
ATOM     78  C   UNL A   1      34.185  21.937  25.489  1.00  0.00    -0.038 A 
ATOM     79  C   UNL A   1      33.997  20.600  25.069  1.00  0.00     0.004 A 
BRANCH  78  80
ATOM     80  C   UNL A   1      33.001  22.848  25.824  1.00  0.00     0.074 C 
ATOM     81  C   UNL A   1      31.712  22.610  25.035  1.00  0.00     0.020 C 
ATOM     82  C   UNL A   1      33.359  24.362  25.830  1.00  0.00     0.270 C 
ATOM     83  C   UNL A   1      31.548  23.555  23.837  1.00  0.00     0.062 C 
ATOM     84  N   UNL A   1      33.126  25.243  24.704  1.00  0.00    -0.331 N 
ATOM     85  C   UNL A   1      31.803  25.058  24.146  1.00  0.00     0.262 C 
ATOM     86  H   UNL A   1      33.714  24.949  23.926  1.00  0.00     0.348 HD
BRANCH  84  87
ATOM     87  C   UNL A   1      33.719  26.625  24.831  1.00  0.00     0.299 C 
BRANCH  87  88
ATOM     88  C   UNL A   1      33.317  27.807  25.768  1.00  0.00     0.010 A 
ATOM     89  C   UNL A   1      31.979  28.007  26.111  1.00  0.00     0.010 A 
ATOM     90  C   UNL A   1      34.150  28.872  26.172  1.00  0.00     0.056 A 
ATOM     91  C   UNL A   1      31.560  29.152  26.832  1.00  0.00     0.004 A 
ATOM     92  C   UNL A   1      33.796  30.094  26.909  1.00  0.00     0.119 A 
ATOM     93  C   UNL A   1      32.450  30.172  27.226  1.00  0.00     0.046 A 
BRANCH  92  94
ATOM     94  O   UNL A   1      34.548  31.197  27.392  1.00  0.00    -0.491 OA
BRANCH  94  95
ATOM     95  C   UNL A   1      34.838  32.685  27.967  1.00  0.00     0.257 C 
BRANCH  95  96
ATOM     96  C   UNL A   1      33.931  33.964  28.485  1.00  0.00     0.197 C 
BRANCH  96  97
ATOM     97  O   UNL A   1      32.689  34.322  27.879  1.00  0.00    -0.393 OA
ATOM     98  H   UNL A   1      31.968  33.835  28.309  1.00  0.00     0.210 HD
ENDBRANCH  96  97
ENDBRANCH  95  96
ENDBRANCH  94  95
ENDBRANCH  92  94
ENDBRANCH  87  88
ENDBRANCH  84  87
ENDBRANCH  78  80
ENDBRANCH   1  74
TORSDOF 21
ENDMDL
