MODEL 1
REMARK VINA RESULT:     -11.1      0.000      0.000
REMARK SMILES CC1([C@](C)(Nc2cccc(Cl)c2)C(=O)OCCOC(=O)c2ccc(-c3c4nc(c(-c5cc(S(=O)(=O)[O-])ccc5F)c5ccc([nH]5)c(-c5cc(S(=O)(=O)[O-])ccc5F)c5nc(c(-c6cc(S(=O)(=O)[O-])ccc6F)c6ccc3[nH]6)C=C5)C=C4)cc2)CC1
REMARK SMILES IDX 17 1 16 2 15 3 13 4 14 5 3 6 4 7 2 8 1 9 84 10 85 11 5 12
REMARK SMILES IDX 6 14 7 15 12 16 8 17 10 18 9 19 11 20 18 21 19 22 20 23
REMARK SMILES IDX 21 24 22 25 83 26 23 27 82 28 24 29 25 30 26 31 76 32 27 33
REMARK SMILES IDX 81 34 75 35 77 36 28 37 80 38 74 39 73 40 29 42 61 43 41 44
REMARK SMILES IDX 60 45 42 46 45 47 59 48 78 49 43 50 44 51 58 53 79 54 46 55
REMARK SMILES IDX 30 56 31 57 39 58 32 59 38 60 40 61 37 62 33 63 34 64 35 65
REMARK SMILES IDX 36 66 62 67 63 68 71 69 64 70 70 71 72 72 69 73 65 74 66 75
REMARK SMILES IDX 67 76 68 77 47 78 48 79 56 80 49 81 55 82 57 83 54 84 50 85
REMARK SMILES IDX 51 86 52 87 53 88
REMARK H PARENT 5 13 77 41 45 52
REMARK Flexibility Score: inf
ROOT
ATOM      1  C   UNL A   1      35.804  21.123  25.037  1.00  0.00     0.275 C 
ENDROOT
BRANCH   1   2
ATOM      2  C   UNL A   1      35.543  22.217  24.001  1.00  0.00     0.274 C 
BRANCH   2   3
ATOM      3  O   UNL A   1      34.134  22.507  23.916  1.00  0.00    -0.460 OA
BRANCH   3   4
ATOM      4  C   UNL A   1      33.786  23.789  23.631  1.00  0.00     0.332 C 
ATOM      5  O   UNL A   1      34.220  24.383  22.645  1.00  0.00    -0.249 OA
BRANCH   4   6
ATOM      6  C   UNL A   1      32.850  24.476  24.695  1.00  0.00     0.138 C 
ATOM      7  C   UNL A   1      33.565  24.292  26.053  1.00  0.00     0.048 C 
BRANCH   6   8
ATOM      8  C   UNL A   1      31.436  23.790  24.734  1.00  0.00     0.001 C 
ATOM      9  C   UNL A   1      30.593  23.912  23.474  1.00  0.00     0.014 C 
ATOM     10  C   UNL A   1      30.643  23.670  26.034  1.00  0.00     0.010 C 
ATOM     11  C   UNL A   1      31.322  22.460  25.471  1.00  0.00     0.010 C 
ENDBRANCH   6   8
BRANCH   6  12
ATOM     12  N   UNL A   1      32.573  25.931  24.521  1.00  0.00    -0.370 N 
ATOM     13  H   UNL A   1      32.320  26.232  23.618  1.00  0.00     0.161 HD
BRANCH  12  14
ATOM     14  C   UNL A   1      32.636  26.897  25.508  1.00  0.00     0.036 A 
ATOM     15  C   UNL A   1      31.495  27.166  26.277  1.00  0.00     0.026 A 
ATOM     16  C   UNL A   1      33.826  27.547  25.836  1.00  0.00     0.046 A 
ATOM     17  C   UNL A   1      31.516  28.106  27.306  1.00  0.00     0.004 A 
ATOM     18  C   UNL A   1      33.857  28.469  26.886  1.00  0.00     0.043 A 
ATOM     19  C   UNL A   1      32.704  28.760  27.614  1.00  0.00     0.020 A 
ATOM     20  Cl  UNL A   1      35.339  29.233  27.314  1.00  0.00    -0.084 Cl
ENDBRANCH  12  14
ENDBRANCH   6  12
ENDBRANCH   4   6
ENDBRANCH   3   4
ENDBRANCH   2   3
ENDBRANCH   1   2
BRANCH   1  21
ATOM     21  O   UNL A   1      36.732  21.617  26.013  1.00  0.00    -0.458 OA
BRANCH  21  22
ATOM     22  C   UNL A   1      38.033  21.302  25.814  1.00  0.00     0.338 C 
ATOM     23  O   UNL A   1      38.470  20.249  25.386  1.00  0.00    -0.246 OA
BRANCH  22  24
ATOM     24  C   UNL A   1      38.881  22.442  26.236  1.00  0.00     0.060 A 
ATOM     25  C   UNL A   1      40.029  22.239  27.002  1.00  0.00     0.016 A 
ATOM     26  C   UNL A   1      38.497  23.741  25.905  1.00  0.00     0.016 A 
ATOM     27  C   UNL A   1      40.753  23.320  27.502  1.00  0.00     0.010 A 
ATOM     28  C   UNL A   1      39.283  24.821  26.319  1.00  0.00     0.010 A 
ATOM     29  C   UNL A   1      40.408  24.627  27.142  1.00  0.00    -0.014 A 
BRANCH  29  30
ATOM     30  C   UNL A   1      41.201  25.789  27.634  1.00  0.00     0.031 A 
ATOM     31  C   UNL A   1      40.530  26.851  28.464  1.00  0.00     0.074 A 
ATOM     32  C   UNL A   1      42.509  25.908  27.323  1.00  0.00     0.049 A 
ATOM     33  N   UNL A   1      40.950  28.049  28.778  1.00  0.00    -0.248 NA
ATOM     34  C   UNL A   1      39.195  26.527  28.987  1.00  0.00     0.031 C 
ATOM     35  C   UNL A   1      43.297  24.929  26.571  1.00  0.00     0.029 A 
ATOM     36  N   UNL A   1      43.409  26.910  27.598  1.00  0.00    -0.354 N 
ATOM     37  C   UNL A   1      39.906  28.648  29.475  1.00  0.00     0.074 A 
ATOM     38  C   UNL A   1      38.834  27.678  29.539  1.00  0.00     0.031 C 
ATOM     39  C   UNL A   1      44.561  25.365  26.465  1.00  0.00     0.029 A 
ATOM     40  C   UNL A   1      44.653  26.697  27.049  1.00  0.00     0.049 A 
ATOM     41  H   UNL A   1      43.185  27.704  28.135  1.00  0.00     0.167 HD
ATOM     42  C   UNL A   1      39.848  29.898  29.997  1.00  0.00     0.034 A 
ATOM     43  C   UNL A   1      45.730  27.503  26.966  1.00  0.00     0.034 A 
ATOM     44  C   UNL A   1      40.950  30.831  29.967  1.00  0.00     0.049 A 
ATOM     45  C   UNL A   1      45.638  28.892  27.538  1.00  0.00     0.074 A 
ATOM     46  C   UNL A   1      41.013  32.112  30.488  1.00  0.00     0.029 A 
ATOM     47  N   UNL A   1      42.188  30.578  29.389  1.00  0.00    -0.354 N 
ATOM     48  N   UNL A   1      44.621  29.473  28.133  1.00  0.00    -0.248 NA
ATOM     49  C   UNL A   1      46.830  29.739  27.415  1.00  0.00     0.031 C 
ATOM     50  C   UNL A   1      42.268  32.650  30.181  1.00  0.00     0.029 A 
ATOM     51  C   UNL A   1      43.013  31.684  29.524  1.00  0.00     0.049 A 
ATOM     52  H   UNL A   1      42.443  29.735  28.949  1.00  0.00     0.167 HD
ATOM     53  C   UNL A   1      45.055  30.753  28.457  1.00  0.00     0.074 A 
ATOM     54  C   UNL A   1      46.433  30.849  28.017  1.00  0.00     0.031 C 
ATOM     55  C   UNL A   1      44.378  31.764  29.060  1.00  0.00     0.034 A 
BRANCH  42  56
ATOM     56  C   UNL A   1      38.530  30.351  30.578  1.00  0.00     0.023 A 
ATOM     57  C   UNL A   1      37.603  31.110  29.843  1.00  0.00     0.031 A 
ATOM     58  C   UNL A   1      38.209  30.031  31.911  1.00  0.00     0.131 A 
ATOM     59  C   UNL A   1      36.434  31.578  30.464  1.00  0.00     0.055 A 
ATOM     60  C   UNL A   1      37.013  30.441  32.501  1.00  0.00     0.041 A 
ATOM     61  F   UNL A   1      39.065  29.326  32.668  1.00  0.00    -0.206 F 
ATOM     62  C   UNL A   1      36.123  31.231  31.781  1.00  0.00     0.022 A 
BRANCH  59  63
ATOM     63  S   UNL A   1      35.384  32.756  29.569  1.00  0.00     0.124 S 
ATOM     64  O   UNL A   1      34.876  33.587  30.657  1.00  0.00    -0.237 OA
ATOM     65  O   UNL A   1      36.332  33.398  28.664  1.00  0.00    -0.237 OA
ATOM     66  O   UNL A   1      34.386  31.906  28.924  1.00  0.00    -0.744 OA
ENDBRANCH  59  63
ENDBRANCH  42  56
BRANCH  43  67
ATOM     67  C   UNL A   1      46.954  27.054  26.242  1.00  0.00     0.023 A 
ATOM     68  C   UNL A   1      48.003  26.407  26.913  1.00  0.00     0.031 A 
ATOM     69  C   UNL A   1      47.102  27.291  24.861  1.00  0.00     0.131 A 
ATOM     70  C   UNL A   1      49.164  26.045  26.211  1.00  0.00     0.055 A 
ATOM     71  C   UNL A   1      48.235  26.882  24.159  1.00  0.00     0.041 A 
ATOM     72  F   UNL A   1      46.131  27.908  24.171  1.00  0.00    -0.206 F 
ATOM     73  C   UNL A   1      49.280  26.264  24.835  1.00  0.00     0.022 A 
BRANCH  70  74
ATOM     74  S   UNL A   1      50.559  25.348  27.137  1.00  0.00     0.124 S 
ATOM     75  O   UNL A   1      50.980  26.486  27.945  1.00  0.00    -0.237 OA
ATOM     76  O   UNL A   1      49.925  24.249  27.857  1.00  0.00    -0.237 OA
ATOM     77  O   UNL A   1      51.496  24.945  26.090  1.00  0.00    -0.744 OA
ENDBRANCH  70  74
ENDBRANCH  43  67
BRANCH  55  78
ATOM     78  C   UNL A   1      45.143  33.038  29.301  1.00  0.00     0.023 A 
ATOM     79  C   UNL A   1      45.149  34.081  28.358  1.00  0.00     0.031 A 
ATOM     80  C   UNL A   1      45.900  33.197  30.475  1.00  0.00     0.131 A 
ATOM     81  C   UNL A   1      45.942  35.215  28.580  1.00  0.00     0.055 A 
ATOM     82  C   UNL A   1      46.645  34.351  30.714  1.00  0.00     0.041 A 
ATOM     83  F   UNL A   1      45.928  32.229  31.405  1.00  0.00    -0.206 F 
ATOM     84  C   UNL A   1      46.680  35.363  29.758  1.00  0.00     0.022 A 
BRANCH  81  85
ATOM     85  S   UNL A   1      46.066  36.462  27.269  1.00  0.00     0.124 S 
ATOM     86  O   UNL A   1      47.224  37.240  27.698  1.00  0.00    -0.237 OA
ATOM     87  O   UNL A   1      46.256  35.644  26.075  1.00  0.00    -0.237 OA
ATOM     88  O   UNL A   1      44.787  37.165  27.339  1.00  0.00    -0.744 OA
ENDBRANCH  81  85
ENDBRANCH  55  78
ENDBRANCH  29  30
ENDBRANCH  22  24
ENDBRANCH  21  22
ENDBRANCH   1  21
TORSDOF 17
ENDMDL
MODEL 2
REMARK VINA RESULT:     -11.0      2.619      8.497
REMARK SMILES CC1([C@](C)(Nc2cccc(Cl)c2)C(=O)OCCOC(=O)c2ccc(-c3c4nc(c(-c5cc(S(=O)(=O)[O-])ccc5F)c5ccc([nH]5)c(-c5cc(S(=O)(=O)[O-])ccc5F)c5nc(c(-c6cc(S(=O)(=O)[O-])ccc6F)c6ccc3[nH]6)C=C5)C=C4)cc2)CC1
REMARK SMILES IDX 17 1 16 2 15 3 13 4 14 5 3 6 4 7 2 8 1 9 84 10 85 11 5 12
REMARK SMILES IDX 6 14 7 15 12 16 8 17 10 18 9 19 11 20 18 21 19 22 20 23
REMARK SMILES IDX 21 24 22 25 83 26 23 27 82 28 24 29 25 30 26 31 76 32 27 33
REMARK SMILES IDX 81 34 75 35 77 36 28 37 80 38 74 39 73 40 29 42 61 43 41 44
REMARK SMILES IDX 60 45 42 46 45 47 59 48 78 49 43 50 44 51 58 53 79 54 46 55
REMARK SMILES IDX 30 56 31 57 39 58 32 59 38 60 40 61 37 62 33 63 34 64 35 65
REMARK SMILES IDX 36 66 62 67 63 68 71 69 64 70 70 71 72 72 69 73 65 74 66 75
REMARK SMILES IDX 67 76 68 77 47 78 48 79 56 80 49 81 55 82 57 83 54 84 50 85
REMARK SMILES IDX 51 86 52 87 53 88
REMARK H PARENT 5 13 77 41 45 52
REMARK Flexibility Score: inf
ROOT
ATOM      1  C   UNL A   1      37.508  19.907  25.048  1.00  0.00     0.275 C 
ENDROOT
BRANCH   1   2
ATOM      2  C   UNL A   1      35.986  20.028  24.969  1.00  0.00     0.274 C 
BRANCH   2   3
ATOM      3  O   UNL A   1      35.578  21.398  25.151  1.00  0.00    -0.460 OA
BRANCH   3   4
ATOM      4  C   UNL A   1      34.480  21.616  25.919  1.00  0.00     0.332 C 
ATOM      5  O   UNL A   1      34.493  21.464  27.141  1.00  0.00    -0.249 OA
BRANCH   4   6
ATOM      6  C   UNL A   1      33.176  22.003  25.124  1.00  0.00     0.138 C 
ATOM      7  C   UNL A   1      33.662  22.427  23.719  1.00  0.00     0.048 C 
BRANCH   6   8
ATOM      8  C   UNL A   1      32.422  23.196  25.816  1.00  0.00     0.001 C 
ATOM      9  C   UNL A   1      33.207  24.488  25.974  1.00  0.00     0.014 C 
ATOM     10  C   UNL A   1      31.352  22.954  26.878  1.00  0.00     0.010 C 
ATOM     11  C   UNL A   1      30.940  23.367  25.498  1.00  0.00     0.010 C 
ENDBRANCH   6   8
BRANCH   6  12
ATOM     12  N   UNL A   1      32.145  20.940  24.946  1.00  0.00    -0.370 N 
ATOM     13  H   UNL A   1      31.222  21.168  25.201  1.00  0.00     0.161 HD
BRANCH  12  14
ATOM     14  C   UNL A   1      32.364  19.666  24.456  1.00  0.00     0.036 A 
ATOM     15  C   UNL A   1      32.282  19.440  23.076  1.00  0.00     0.026 A 
ATOM     16  C   UNL A   1      32.763  18.612  25.280  1.00  0.00     0.046 A 
ATOM     17  C   UNL A   1      32.527  18.181  22.528  1.00  0.00     0.004 A 
ATOM     18  C   UNL A   1      33.037  17.356  24.730  1.00  0.00     0.043 A 
ATOM     19  C   UNL A   1      32.908  17.133  23.360  1.00  0.00     0.020 A 
ATOM     20  Cl  UNL A   1      33.572  16.073  25.746  1.00  0.00    -0.084 Cl
ENDBRANCH  12  14
ENDBRANCH   6  12
ENDBRANCH   4   6
ENDBRANCH   3   4
ENDBRANCH   2   3
ENDBRANCH   1   2
BRANCH   1  21
ATOM     21  O   UNL A   1      38.043  21.115  25.608  1.00  0.00    -0.458 OA
BRANCH  21  22
ATOM     22  C   UNL A   1      39.291  21.032  26.126  1.00  0.00     0.338 C 
ATOM     23  O   UNL A   1      39.926  20.014  26.333  1.00  0.00    -0.246 OA
BRANCH  22  24
ATOM     24  C   UNL A   1      39.777  22.393  26.450  1.00  0.00     0.060 A 
ATOM     25  C   UNL A   1      39.018  23.522  26.137  1.00  0.00     0.016 A 
ATOM     26  C   UNL A   1      41.034  22.552  27.031  1.00  0.00     0.016 A 
ATOM     27  C   UNL A   1      39.531  24.802  26.329  1.00  0.00     0.010 A 
ATOM     28  C   UNL A   1      41.506  23.837  27.320  1.00  0.00     0.010 A 
ATOM     29  C   UNL A   1      40.771  24.980  26.953  1.00  0.00    -0.014 A 
BRANCH  29  30
ATOM     30  C   UNL A   1      41.311  26.345  27.204  1.00  0.00     0.031 A 
ATOM     31  C   UNL A   1      42.656  26.729  26.646  1.00  0.00     0.074 A 
ATOM     32  C   UNL A   1      40.616  27.233  27.945  1.00  0.00     0.049 A 
ATOM     33  N   UNL A   1      43.419  27.749  26.944  1.00  0.00    -0.248 NA
ATOM     34  C   UNL A   1      43.227  25.827  25.635  1.00  0.00     0.031 C 
ATOM     35  C   UNL A   1      39.280  27.012  28.504  1.00  0.00     0.029 A 
ATOM     36  N   UNL A   1      40.938  28.502  28.363  1.00  0.00    -0.354 N 
ATOM     37  C   UNL A   1      44.590  27.575  26.212  1.00  0.00     0.074 A 
ATOM     38  C   UNL A   1      44.431  26.352  25.453  1.00  0.00     0.031 C 
ATOM     39  C   UNL A   1      38.889  28.110  29.167  1.00  0.00     0.029 A 
ATOM     40  C   UNL A   1      39.982  29.075  29.171  1.00  0.00     0.049 A 
ATOM     41  H   UNL A   1      41.773  28.957  28.109  1.00  0.00     0.167 HD
ATOM     42  C   UNL A   1      45.695  28.359  26.191  1.00  0.00     0.034 A 
ATOM     43  C   UNL A   1      40.002  30.216  29.887  1.00  0.00     0.034 A 
ATOM     44  C   UNL A   1      45.809  29.603  26.915  1.00  0.00     0.049 A 
ATOM     45  C   UNL A   1      41.246  31.063  29.862  1.00  0.00     0.074 A 
ATOM     46  C   UNL A   1      46.870  30.492  26.946  1.00  0.00     0.029 A 
ATOM     47  N   UNL A   1      44.821  30.139  27.732  1.00  0.00    -0.354 N 
ATOM     48  N   UNL A   1      42.374  30.853  29.222  1.00  0.00    -0.248 NA
ATOM     49  C   UNL A   1      41.228  32.290  30.667  1.00  0.00     0.031 C 
ATOM     50  C   UNL A   1      46.544  31.536  27.819  1.00  0.00     0.029 A 
ATOM     51  C   UNL A   1      45.255  31.334  28.285  1.00  0.00     0.049 A 
ATOM     52  H   UNL A   1      43.940  29.730  27.893  1.00  0.00     0.167 HD
ATOM     53  C   UNL A   1      43.196  31.926  29.545  1.00  0.00     0.074 A 
ATOM     54  C   UNL A   1      42.426  32.794  30.414  1.00  0.00     0.031 C 
ATOM     55  C   UNL A   1      44.476  32.174  29.164  1.00  0.00     0.034 A 
BRANCH  42  56
ATOM     56  C   UNL A   1      46.891  27.857  25.417  1.00  0.00     0.023 A 
ATOM     57  C   UNL A   1      47.096  28.166  24.062  1.00  0.00     0.031 A 
ATOM     58  C   UNL A   1      47.834  27.027  26.053  1.00  0.00     0.131 A 
ATOM     59  C   UNL A   1      48.178  27.597  23.371  1.00  0.00     0.055 A 
ATOM     60  C   UNL A   1      48.946  26.522  25.379  1.00  0.00     0.041 A 
ATOM     61  F   UNL A   1      47.679  26.682  27.341  1.00  0.00    -0.206 F 
ATOM     62  C   UNL A   1      49.116  26.795  24.026  1.00  0.00     0.022 A 
BRANCH  59  63
ATOM     63  S   UNL A   1      48.274  27.816  21.573  1.00  0.00     0.124 S 
ATOM     64  O   UNL A   1      46.908  28.222  21.250  1.00  0.00    -0.237 OA
ATOM     65  O   UNL A   1      49.296  28.848  21.435  1.00  0.00    -0.237 OA
ATOM     66  O   UNL A   1      48.656  26.492  21.085  1.00  0.00    -0.744 OA
ENDBRANCH  59  63
ENDBRANCH  42  56
BRANCH  43  67
ATOM     67  C   UNL A   1      38.846  30.581  30.756  1.00  0.00     0.023 A 
ATOM     68  C   UNL A   1      37.735  31.267  30.243  1.00  0.00     0.031 A 
ATOM     69  C   UNL A   1      38.850  30.267  32.129  1.00  0.00     0.131 A 
ATOM     70  C   UNL A   1      36.688  31.643  31.099  1.00  0.00     0.055 A 
ATOM     71  C   UNL A   1      37.783  30.596  32.965  1.00  0.00     0.041 A 
ATOM     72  F   UNL A   1      39.888  29.614  32.673  1.00  0.00    -0.206 F 
ATOM     73  C   UNL A   1      36.697  31.297  32.454  1.00  0.00     0.022 A 
BRANCH  70  74
ATOM     74  S   UNL A   1      35.340  32.658  30.434  1.00  0.00     0.124 S 
ATOM     75  O   UNL A   1      34.960  31.906  29.243  1.00  0.00    -0.237 OA
ATOM     76  O   UNL A   1      34.381  32.646  31.533  1.00  0.00    -0.237 OA
ATOM     77  O   UNL A   1      35.978  33.948  30.181  1.00  0.00    -0.744 OA
ENDBRANCH  70  74
ENDBRANCH  43  67
BRANCH  55  78
ATOM     78  C   UNL A   1      45.093  33.452  29.667  1.00  0.00     0.023 A 
ATOM     79  C   UNL A   1      44.989  34.653  28.943  1.00  0.00     0.031 A 
ATOM     80  C   UNL A   1      45.819  33.460  30.870  1.00  0.00     0.131 A 
ATOM     81  C   UNL A   1      45.650  35.800  29.401  1.00  0.00     0.055 A 
ATOM     82  C   UNL A   1      46.431  34.619  31.348  1.00  0.00     0.041 A 
ATOM     83  F   UNL A   1      45.949  32.339  31.597  1.00  0.00    -0.206 F 
ATOM     84  C   UNL A   1      46.359  35.795  30.606  1.00  0.00     0.022 A 
BRANCH  81  85
ATOM     85  S   UNL A   1      45.644  37.284  28.359  1.00  0.00     0.124 S 
ATOM     86  O   UNL A   1      45.423  36.722  27.031  1.00  0.00    -0.237 OA
ATOM     87  O   UNL A   1      44.538  38.055  28.917  1.00  0.00    -0.237 OA
ATOM     88  O   UNL A   1      46.969  37.862  28.574  1.00  0.00    -0.744 OA
ENDBRANCH  81  85
ENDBRANCH  55  78
ENDBRANCH  29  30
ENDBRANCH  22  24
ENDBRANCH  21  22
ENDBRANCH   1  21
TORSDOF 17
ENDMDL
MODEL 3
REMARK VINA RESULT:     -11.0      2.356      3.555
REMARK SMILES CC1([C@](C)(Nc2cccc(Cl)c2)C(=O)OCCOC(=O)c2ccc(-c3c4nc(c(-c5cc(S(=O)(=O)[O-])ccc5F)c5ccc([nH]5)c(-c5cc(S(=O)(=O)[O-])ccc5F)c5nc(c(-c6cc(S(=O)(=O)[O-])ccc6F)c6ccc3[nH]6)C=C5)C=C4)cc2)CC1
REMARK SMILES IDX 17 1 16 2 15 3 13 4 14 5 3 6 4 7 2 8 1 9 84 10 85 11 5 12
REMARK SMILES IDX 6 14 7 15 12 16 8 17 10 18 9 19 11 20 18 21 19 22 20 23
REMARK SMILES IDX 21 24 22 25 83 26 23 27 82 28 24 29 25 30 26 31 76 32 27 33
REMARK SMILES IDX 81 34 75 35 77 36 28 37 80 38 74 39 73 40 29 42 61 43 41 44
REMARK SMILES IDX 60 45 42 46 45 47 59 48 78 49 43 50 44 51 58 53 79 54 46 55
REMARK SMILES IDX 30 56 31 57 39 58 32 59 38 60 40 61 37 62 33 63 34 64 35 65
REMARK SMILES IDX 36 66 62 67 63 68 71 69 64 70 70 71 72 72 69 73 65 74 66 75
REMARK SMILES IDX 67 76 68 77 47 78 48 79 56 80 49 81 55 82 57 83 54 84 50 85
REMARK SMILES IDX 51 86 52 87 53 88
REMARK H PARENT 5 13 77 41 45 52
REMARK Flexibility Score: inf
ROOT
ATOM      1  C   UNL A   1      36.833  21.536  24.381  1.00  0.00     0.275 C 
ENDROOT
BRANCH   1   2
ATOM      2  C   UNL A   1      36.076  22.826  24.068  1.00  0.00     0.274 C 
BRANCH   2   3
ATOM      3  O   UNL A   1      34.669  22.664  24.337  1.00  0.00    -0.460 OA
BRANCH   3   4
ATOM      4  C   UNL A   1      33.830  22.699  23.269  1.00  0.00     0.332 C 
ATOM      5  O   UNL A   1      34.154  23.209  22.197  1.00  0.00    -0.249 OA
BRANCH   4   6
ATOM      6  C   UNL A   1      32.394  22.109  23.532  1.00  0.00     0.138 C 
ATOM      7  C   UNL A   1      31.835  21.751  22.135  1.00  0.00     0.048 C 
BRANCH   6   8
ATOM      8  C   UNL A   1      31.463  23.167  24.228  1.00  0.00     0.001 C 
ATOM      9  C   UNL A   1      30.888  22.772  25.579  1.00  0.00     0.014 C 
ATOM     10  C   UNL A   1      30.603  24.132  23.415  1.00  0.00     0.010 C 
ATOM     11  C   UNL A   1      31.843  24.637  24.085  1.00  0.00     0.010 C 
ENDBRANCH   6   8
BRANCH   6  12
ATOM     12  N   UNL A   1      32.303  20.889  24.384  1.00  0.00    -0.370 N 
ATOM     13  H   UNL A   1      31.820  20.976  25.237  1.00  0.00     0.161 HD
BRANCH  12  14
ATOM     14  C   UNL A   1      32.833  19.646  24.088  1.00  0.00     0.036 A 
ATOM     15  C   UNL A   1      32.265  18.889  23.055  1.00  0.00     0.026 A 
ATOM     16  C   UNL A   1      33.979  19.159  24.717  1.00  0.00     0.046 A 
ATOM     17  C   UNL A   1      32.782  17.645  22.694  1.00  0.00     0.004 A 
ATOM     18  C   UNL A   1      34.517  17.925  24.337  1.00  0.00     0.043 A 
ATOM     19  C   UNL A   1      33.916  17.161  23.339  1.00  0.00     0.020 A 
ATOM     20  Cl  UNL A   1      35.958  17.351  25.086  1.00  0.00    -0.084 Cl
ENDBRANCH  12  14
ENDBRANCH   6  12
ENDBRANCH   4   6
ENDBRANCH   3   4
ENDBRANCH   2   3
ENDBRANCH   1   2
BRANCH   1  21
ATOM     21  O   UNL A   1      37.291  21.582  25.740  1.00  0.00    -0.458 OA
BRANCH  21  22
ATOM     22  C   UNL A   1      38.597  21.290  25.941  1.00  0.00     0.338 C 
ATOM     23  O   UNL A   1      39.140  20.216  25.753  1.00  0.00    -0.246 OA
BRANCH  22  24
ATOM     24  C   UNL A   1      39.289  22.486  26.475  1.00  0.00     0.060 A 
ATOM     25  C   UNL A   1      38.884  23.772  26.114  1.00  0.00     0.016 A 
ATOM     26  C   UNL A   1      40.393  22.324  27.311  1.00  0.00     0.016 A 
ATOM     27  C   UNL A   1      39.614  24.889  26.517  1.00  0.00     0.010 A 
ATOM     28  C   UNL A   1      41.061  23.451  27.801  1.00  0.00     0.010 A 
ATOM     29  C   UNL A   1      40.695  24.747  27.392  1.00  0.00    -0.014 A 
BRANCH  29  30
ATOM     30  C   UNL A   1      41.455  25.938  27.866  1.00  0.00     0.031 A 
ATOM     31  C   UNL A   1      40.767  26.972  28.717  1.00  0.00     0.074 A 
ATOM     32  C   UNL A   1      42.749  26.108  27.521  1.00  0.00     0.049 A 
ATOM     33  N   UNL A   1      41.149  28.184  29.024  1.00  0.00    -0.248 NA
ATOM     34  C   UNL A   1      39.460  26.595  29.276  1.00  0.00     0.031 C 
ATOM     35  C   UNL A   1      43.553  25.161  26.744  1.00  0.00     0.029 A 
ATOM     36  N   UNL A   1      43.617  27.143  27.774  1.00  0.00    -0.354 N 
ATOM     37  C   UNL A   1      40.102  28.741  29.751  1.00  0.00     0.074 A 
ATOM     38  C   UNL A   1      39.070  27.730  29.841  1.00  0.00     0.031 C 
ATOM     39  C   UNL A   1      44.796  25.645  26.605  1.00  0.00     0.029 A 
ATOM     40  C   UNL A   1      44.853  26.979  27.191  1.00  0.00     0.049 A 
ATOM     41  H   UNL A   1      43.378  27.926  28.320  1.00  0.00     0.167 HD
ATOM     42  C   UNL A   1      40.011  29.987  30.278  1.00  0.00     0.034 A 
ATOM     43  C   UNL A   1      45.895  27.826  27.082  1.00  0.00     0.034 A 
ATOM     44  C   UNL A   1      41.074  30.961  30.221  1.00  0.00     0.049 A 
ATOM     45  C   UNL A   1      45.766  29.209  27.661  1.00  0.00     0.074 A 
ATOM     46  C   UNL A   1      41.103  32.243  30.744  1.00  0.00     0.029 A 
ATOM     47  N   UNL A   1      42.306  30.757  29.609  1.00  0.00    -0.354 N 
ATOM     48  N   UNL A   1      44.744  29.749  28.284  1.00  0.00    -0.248 NA
ATOM     49  C   UNL A   1      46.921  30.101  27.507  1.00  0.00     0.031 C 
ATOM     50  C   UNL A   1      42.327  32.830  30.405  1.00  0.00     0.029 A 
ATOM     51  C   UNL A   1      43.091  31.894  29.725  1.00  0.00     0.049 A 
ATOM     52  H   UNL A   1      42.581  29.925  29.160  1.00  0.00     0.167 HD
ATOM     53  C   UNL A   1      45.137  31.045  28.601  1.00  0.00     0.074 A 
ATOM     54  C   UNL A   1      46.498  31.194  28.124  1.00  0.00     0.031 C 
ATOM     55  C   UNL A   1      44.438  32.027  29.225  1.00  0.00     0.034 A 
BRANCH  42  56
ATOM     56  C   UNL A   1      38.692  30.387  30.896  1.00  0.00     0.023 A 
ATOM     57  C   UNL A   1      37.669  31.005  30.156  1.00  0.00     0.031 A 
ATOM     58  C   UNL A   1      38.469  30.164  32.268  1.00  0.00     0.131 A 
ATOM     59  C   UNL A   1      36.501  31.436  30.803  1.00  0.00     0.055 A 
ATOM     60  C   UNL A   1      37.276  30.532  32.892  1.00  0.00     0.041 A 
ATOM     61  F   UNL A   1      39.418  29.597  33.030  1.00  0.00    -0.206 F 
ATOM     62  C   UNL A   1      36.288  31.184  32.161  1.00  0.00     0.022 A 
BRANCH  59  63
ATOM     63  S   UNL A   1      35.313  32.445  29.875  1.00  0.00     0.124 S 
ATOM     64  O   UNL A   1      34.300  32.720  30.891  1.00  0.00    -0.237 OA
ATOM     65  O   UNL A   1      36.124  33.585  29.460  1.00  0.00    -0.237 OA
ATOM     66  O   UNL A   1      34.880  31.561  28.795  1.00  0.00    -0.744 OA
ENDBRANCH  59  63
ENDBRANCH  42  56
BRANCH  43  67
ATOM     67  C   UNL A   1      47.116  27.425  26.323  1.00  0.00     0.023 A 
ATOM     68  C   UNL A   1      47.268  27.744  24.965  1.00  0.00     0.031 A 
ATOM     69  C   UNL A   1      48.143  26.690  26.946  1.00  0.00     0.131 A 
ATOM     70  C   UNL A   1      48.404  27.305  24.267  1.00  0.00     0.055 A 
ATOM     71  C   UNL A   1      49.294  26.302  26.261  1.00  0.00     0.041 A 
ATOM     72  F   UNL A   1      48.047  26.356  28.242  1.00  0.00    -0.206 F 
ATOM     73  C   UNL A   1      49.425  26.600  24.910  1.00  0.00     0.022 A 
BRANCH  70  74
ATOM     74  S   UNL A   1      48.498  27.604  22.480  1.00  0.00     0.124 S 
ATOM     75  O   UNL A   1      49.694  28.434  22.379  1.00  0.00    -0.237 OA
ATOM     76  O   UNL A   1      48.611  26.249  21.952  1.00  0.00    -0.237 OA
ATOM     77  O   UNL A   1      47.239  28.284  22.182  1.00  0.00    -0.744 OA
ENDBRANCH  70  74
ENDBRANCH  43  67
BRANCH  55  78
ATOM     78  C   UNL A   1      45.160  33.330  29.449  1.00  0.00     0.023 A 
ATOM     79  C   UNL A   1      45.140  34.356  28.488  1.00  0.00     0.031 A 
ATOM     80  C   UNL A   1      45.902  33.533  30.626  1.00  0.00     0.131 A 
ATOM     81  C   UNL A   1      45.895  35.518  28.696  1.00  0.00     0.055 A 
ATOM     82  C   UNL A   1      46.609  34.715  30.849  1.00  0.00     0.041 A 
ATOM     83  F   UNL A   1      45.955  32.583  31.573  1.00  0.00    -0.206 F 
ATOM     84  C   UNL A   1      46.618  35.710  29.877  1.00  0.00     0.022 A 
BRANCH  81  85
ATOM     85  S   UNL A   1      45.990  36.746  27.364  1.00  0.00     0.124 S 
ATOM     86  O   UNL A   1      47.324  37.303  27.560  1.00  0.00    -0.237 OA
ATOM     87  O   UNL A   1      45.810  35.927  26.170  1.00  0.00    -0.237 OA
ATOM     88  O   UNL A   1      44.887  37.659  27.658  1.00  0.00    -0.744 OA
ENDBRANCH  81  85
ENDBRANCH  55  78
ENDBRANCH  29  30
ENDBRANCH  22  24
ENDBRANCH  21  22
ENDBRANCH   1  21
TORSDOF 17
ENDMDL
