MODEL 1
REMARK VINA RESULT:     -12.2      0.000      0.000
REMARK SMILES O=C(OCCOC(=O)[C@@H]1C=C[C@H](NC(=O)c2ccc(Cl)cc2[N+](=O)[O-])C1)c1ccc(-c2c3nc(c(-c4cc(S(=O)(=O)[O-])ccc4F)c4ccc([nH]4)c(-c4cc(S(=O)(=O)[O-])ccc4F)c4nc(c(-c5cc(S(=O)(=O)[O-])ccc5F)c5ccc2[nH]5)C=C4)C=C3)cc1
REMARK SMILES IDX 4 1 3 2 2 3 1 4 27 5 28 6 89 7 29 8 88 9 30 10 31 11 32 12
REMARK SMILES IDX 82 13 33 14 87 15 81 16 83 17 34 18 86 19 80 20 79 21 35 23
REMARK SMILES IDX 67 24 47 25 66 26 48 27 51 28 65 29 84 30 49 31 50 32 64 34
REMARK SMILES IDX 85 35 52 36 36 37 37 38 45 39 38 40 44 41 46 42 43 43 39 44
REMARK SMILES IDX 40 45 41 46 42 47 68 48 69 49 77 50 70 51 76 52 78 53 75 54
REMARK SMILES IDX 71 55 72 56 73 57 74 58 53 59 54 60 62 61 55 62 61 63 63 64
REMARK SMILES IDX 60 65 56 66 57 67 58 68 59 69 5 70 6 71 7 72 8 73 9 74 10 75
REMARK SMILES IDX 26 76 11 77 12 78 13 79 14 80 15 82 16 83 17 84 22 85 18 86
REMARK SMILES IDX 21 87 19 88 20 89 23 90 24 91 25 92
REMARK H PARENT 83 22 51 33 13 81
REMARK Flexibility Score: inf
ROOT
ATOM      1  C   UNL A   1      38.050  19.831  25.104  1.00  0.00     0.275 C 
ENDROOT
BRANCH   1   2
ATOM      2  O   UNL A   1      38.758  21.047  25.413  1.00  0.00    -0.458 OA
BRANCH   2   3
ATOM      3  C   UNL A   1      39.812  21.243  26.243  1.00  0.00     0.338 C 
ATOM      4  O   UNL A   1      40.406  20.275  26.714  1.00  0.00    -0.246 OA
BRANCH   3   5
ATOM      5  C   UNL A   1      40.168  22.598  26.746  1.00  0.00     0.060 A 
ATOM      6  C   UNL A   1      39.616  23.789  26.271  1.00  0.00     0.016 A 
ATOM      7  C   UNL A   1      41.131  22.663  27.769  1.00  0.00     0.016 A 
ATOM      8  C   UNL A   1      39.906  25.005  26.891  1.00  0.00     0.010 A 
ATOM      9  C   UNL A   1      41.450  23.884  28.376  1.00  0.00     0.010 A 
ATOM     10  C   UNL A   1      40.820  25.062  27.947  1.00  0.00    -0.014 A 
BRANCH  10  11
ATOM     11  C   UNL A   1      41.288  26.392  28.397  1.00  0.00     0.031 A 
ATOM     12  C   UNL A   1      42.716  26.741  28.091  1.00  0.00     0.074 A 
ATOM     13  C   UNL A   1      40.447  27.291  28.943  1.00  0.00     0.049 A 
ATOM     14  N   UNL A   1      43.345  27.874  28.242  1.00  0.00    -0.248 NA
ATOM     15  C   UNL A   1      43.541  25.661  27.522  1.00  0.00     0.031 C 
ATOM     16  C   UNL A   1      39.033  27.060  29.247  1.00  0.00     0.029 A 
ATOM     17  N   UNL A   1      40.656  28.594  29.322  1.00  0.00    -0.354 N 
ATOM     18  C   UNL A   1      44.625  27.654  27.748  1.00  0.00     0.074 A 
ATOM     19  C   UNL A   1      44.707  26.262  27.370  1.00  0.00     0.031 C 
ATOM     20  C   UNL A   1      38.504  28.187  29.761  1.00  0.00     0.029 A 
ATOM     21  C   UNL A   1      39.537  29.217  29.829  1.00  0.00     0.049 A 
ATOM     22  H   UNL A   1      41.528  29.043  29.239  1.00  0.00     0.167 HD
ATOM     23  C   UNL A   1      45.634  28.540  27.587  1.00  0.00     0.034 A 
ATOM     24  C   UNL A   1      39.378  30.478  30.287  1.00  0.00     0.034 A 
ATOM     25  C   UNL A   1      45.555  29.908  28.016  1.00  0.00     0.049 A 
ATOM     26  C   UNL A   1      40.563  31.420  30.207  1.00  0.00     0.074 A 
ATOM     27  C   UNL A   1      46.532  30.885  27.984  1.00  0.00     0.029 A 
ATOM     28  N   UNL A   1      44.424  30.489  28.578  1.00  0.00    -0.354 N 
ATOM     29  N   UNL A   1      41.762  31.202  29.712  1.00  0.00    -0.248 NA
ATOM     30  C   UNL A   1      40.367  32.781  30.725  1.00  0.00     0.031 C 
ATOM     31  C   UNL A   1      46.008  32.040  28.574  1.00  0.00     0.029 A 
ATOM     32  C   UNL A   1      44.684  31.805  28.915  1.00  0.00     0.049 A 
ATOM     33  H   UNL A   1      43.564  30.030  28.716  1.00  0.00     0.167 HD
ATOM     34  C   UNL A   1      42.448  32.408  29.830  1.00  0.00     0.074 A 
ATOM     35  C   UNL A   1      41.520  33.354  30.417  1.00  0.00     0.031 C 
ATOM     36  C   UNL A   1      43.728  32.717  29.494  1.00  0.00     0.034 A 
BRANCH  23  37
ATOM     37  C   UNL A   1      46.897  28.008  26.963  1.00  0.00     0.023 A 
ATOM     38  C   UNL A   1      47.139  28.151  25.584  1.00  0.00     0.031 A 
ATOM     39  C   UNL A   1      47.810  27.260  27.723  1.00  0.00     0.131 A 
ATOM     40  C   UNL A   1      48.218  27.480  24.992  1.00  0.00     0.055 A 
ATOM     41  C   UNL A   1      48.928  26.660  27.139  1.00  0.00     0.041 A 
ATOM     42  F   UNL A   1      47.608  27.065  29.035  1.00  0.00    -0.206 F 
ATOM     43  C   UNL A   1      49.127  26.753  25.764  1.00  0.00     0.022 A 
BRANCH  40  44
ATOM     44  S   UNL A   1      48.324  27.440  23.182  1.00  0.00     0.124 S 
ATOM     45  O   UNL A   1      49.607  28.098  22.948  1.00  0.00    -0.237 OA
ATOM     46  O   UNL A   1      48.278  26.012  22.892  1.00  0.00    -0.237 OA
ATOM     47  O   UNL A   1      47.152  28.201  22.754  1.00  0.00    -0.744 OA
ENDBRANCH  40  44
ENDBRANCH  23  37
BRANCH  24  48
ATOM     48  C   UNL A   1      38.085  30.940  30.885  1.00  0.00     0.023 A 
ATOM     49  C   UNL A   1      37.114  31.603  30.114  1.00  0.00     0.031 A 
ATOM     50  C   UNL A   1      37.851  30.827  32.268  1.00  0.00     0.131 A 
ATOM     51  C   UNL A   1      35.997  32.187  30.738  1.00  0.00     0.055 A 
ATOM     52  C   UNL A   1      36.711  31.361  32.875  1.00  0.00     0.041 A 
ATOM     53  F   UNL A   1      38.740  30.204  33.059  1.00  0.00    -0.206 F 
ATOM     54  C   UNL A   1      35.785  32.062  32.112  1.00  0.00     0.022 A 
BRANCH  51  55
ATOM     55  S   UNL A   1      34.887  33.226  29.744  1.00  0.00     0.124 S 
ATOM     56  O   UNL A   1      34.030  33.811  30.768  1.00  0.00    -0.237 OA
ATOM     57  O   UNL A   1      35.828  34.134  29.096  1.00  0.00    -0.237 OA
ATOM     58  O   UNL A   1      34.233  32.269  28.853  1.00  0.00    -0.744 OA
ENDBRANCH  51  55
ENDBRANCH  24  48
BRANCH  36  59
ATOM     59  C   UNL A   1      44.169  34.142  29.719  1.00  0.00     0.023 A 
ATOM     60  C   UNL A   1      43.983  35.132  28.740  1.00  0.00     0.031 A 
ATOM     61  C   UNL A   1      44.783  34.510  30.930  1.00  0.00     0.131 A 
ATOM     62  C   UNL A   1      44.463  36.430  28.963  1.00  0.00     0.055 A 
ATOM     63  C   UNL A   1      45.201  35.818  31.171  1.00  0.00     0.041 A 
ATOM     64  F   UNL A   1      44.981  33.602  31.899  1.00  0.00    -0.206 F 
ATOM     65  C   UNL A   1      45.054  36.784  30.179  1.00  0.00     0.022 A 
BRANCH  62  66
ATOM     66  S   UNL A   1      44.387  37.625  27.603  1.00  0.00     0.124 S 
ATOM     67  O   UNL A   1      44.333  38.896  28.319  1.00  0.00    -0.237 OA
ATOM     68  O   UNL A   1      45.626  37.355  26.880  1.00  0.00    -0.237 OA
ATOM     69  O   UNL A   1      43.162  37.260  26.893  1.00  0.00    -0.744 OA
ENDBRANCH  62  66
ENDBRANCH  36  59
ENDBRANCH  10  11
ENDBRANCH   3   5
ENDBRANCH   2   3
ENDBRANCH   1   2
BRANCH   1  70
ATOM     70  C   UNL A   1      36.550  19.982  24.851  1.00  0.00     0.274 C 
BRANCH  70  71
ATOM     71  O   UNL A   1      35.908  21.014  25.620  1.00  0.00    -0.462 OA
BRANCH  71  72
ATOM     72  C   UNL A   1      35.789  22.219  24.983  1.00  0.00     0.312 C 
ATOM     73  O   UNL A   1      35.869  22.354  23.766  1.00  0.00    -0.252 OA
BRANCH  72  74
ATOM     74  C   UNL A   1      35.586  23.355  25.988  1.00  0.00     0.124 C 
ATOM     75  C   UNL A   1      34.453  23.043  26.925  1.00  0.00    -0.014 C 
ATOM     76  C   UNL A   1      35.072  24.654  25.378  1.00  0.00     0.048 C 
ATOM     77  C   UNL A   1      33.331  23.667  26.533  1.00  0.00    -0.006 C 
ATOM     78  C   UNL A   1      33.558  24.470  25.274  1.00  0.00     0.106 C 
BRANCH  78  79
ATOM     79  N   UNL A   1      33.068  23.650  24.170  1.00  0.00    -0.346 N 
ATOM     80  C   UNL A   1      32.001  23.760  23.323  1.00  0.00     0.258 C 
ATOM     81  H   UNL A   1      33.622  22.854  24.000  1.00  0.00     0.164 HD
ATOM     82  O   UNL A   1      31.632  22.806  22.640  1.00  0.00    -0.269 OA
BRANCH  80  83
ATOM     83  C   UNL A   1      31.296  25.032  23.130  1.00  0.00     0.117 A 
ATOM     84  C   UNL A   1      30.248  25.353  23.999  1.00  0.00     0.022 A 
ATOM     85  C   UNL A   1      31.748  26.019  22.259  1.00  0.00     0.283 A 
ATOM     86  C   UNL A   1      29.548  26.554  23.872  1.00  0.00     0.022 A 
ATOM     87  C   UNL A   1      31.086  27.251  22.145  1.00  0.00     0.107 A 
ATOM     88  C   UNL A   1      29.965  27.494  22.936  1.00  0.00     0.047 A 
ATOM     89  Cl  UNL A   1      29.114  28.977  22.790  1.00  0.00    -0.084 Cl
BRANCH  85  90
ATOM     90  N   UNL A   1      32.952  25.811  21.485  1.00  0.00     0.063 N 
ATOM     91  O   UNL A   1      34.029  25.977  22.074  1.00  0.00    -0.258 OA
ATOM     92  O   UNL A   1      32.817  25.553  20.283  1.00  0.00    -0.258 OA
ENDBRANCH  85  90
ENDBRANCH  80  83
ENDBRANCH  78  79
ENDBRANCH  72  74
ENDBRANCH  71  72
ENDBRANCH  70  71
ENDBRANCH   1  70
TORSDOF 17
ENDMDL
MODEL 2
REMARK VINA RESULT:     -12.1      4.903     10.253
REMARK SMILES O=C(OCCOC(=O)[C@@H]1C=C[C@H](NC(=O)c2ccc(Cl)cc2[N+](=O)[O-])C1)c1ccc(-c2c3nc(c(-c4cc(S(=O)(=O)[O-])ccc4F)c4ccc([nH]4)c(-c4cc(S(=O)(=O)[O-])ccc4F)c4nc(c(-c5cc(S(=O)(=O)[O-])ccc5F)c5ccc2[nH]5)C=C4)C=C3)cc1
REMARK SMILES IDX 4 1 3 2 2 3 1 4 27 5 28 6 89 7 29 8 88 9 30 10 31 11 32 12
REMARK SMILES IDX 82 13 33 14 87 15 81 16 83 17 34 18 86 19 80 20 79 21 35 23
REMARK SMILES IDX 67 24 47 25 66 26 48 27 51 28 65 29 84 30 49 31 50 32 64 34
REMARK SMILES IDX 85 35 52 36 36 37 37 38 45 39 38 40 44 41 46 42 43 43 39 44
REMARK SMILES IDX 40 45 41 46 42 47 68 48 69 49 77 50 70 51 76 52 78 53 75 54
REMARK SMILES IDX 71 55 72 56 73 57 74 58 53 59 54 60 62 61 55 62 61 63 63 64
REMARK SMILES IDX 60 65 56 66 57 67 58 68 59 69 5 70 6 71 7 72 8 73 9 74 10 75
REMARK SMILES IDX 26 76 11 77 12 78 13 79 14 80 15 82 16 83 17 84 22 85 18 86
REMARK SMILES IDX 21 87 19 88 20 89 23 90 24 91 25 92
REMARK H PARENT 83 22 51 33 13 81
REMARK Flexibility Score: inf
ROOT
ATOM      1  C   UNL A   1      31.310  31.913  26.954  1.00  0.00     0.275 C 
ENDROOT
BRANCH   1   2
ATOM      2  O   UNL A   1      32.355  32.899  26.859  1.00  0.00    -0.458 OA
BRANCH   2   3
ATOM      3  C   UNL A   1      33.103  33.460  27.840  1.00  0.00     0.338 C 
ATOM      4  O   UNL A   1      32.841  34.597  28.232  1.00  0.00    -0.246 OA
BRANCH   3   5
ATOM      5  C   UNL A   1      34.345  32.813  28.343  1.00  0.00     0.060 A 
ATOM      6  C   UNL A   1      34.414  31.508  28.833  1.00  0.00     0.016 A 
ATOM      7  C   UNL A   1      35.520  33.586  28.318  1.00  0.00     0.016 A 
ATOM      8  C   UNL A   1      35.645  30.934  29.158  1.00  0.00     0.010 A 
ATOM      9  C   UNL A   1      36.753  33.026  28.672  1.00  0.00     0.010 A 
ATOM     10  C   UNL A   1      36.821  31.686  29.077  1.00  0.00    -0.014 A 
BRANCH  10  11
ATOM     11  C   UNL A   1      38.052  31.123  29.673  1.00  0.00     0.031 A 
ATOM     12  C   UNL A   1      38.356  31.519  31.090  1.00  0.00     0.074 A 
ATOM     13  C   UNL A   1      38.800  30.208  29.025  1.00  0.00     0.049 A 
ATOM     14  N   UNL A   1      39.280  31.075  31.897  1.00  0.00    -0.248 NA
ATOM     15  C   UNL A   1      37.483  32.550  31.676  1.00  0.00     0.031 C 
ATOM     16  C   UNL A   1      38.567  29.731  27.660  1.00  0.00     0.029 A 
ATOM     17  N   UNL A   1      39.900  29.498  29.438  1.00  0.00    -0.354 N 
ATOM     18  C   UNL A   1      39.071  31.741  33.098  1.00  0.00     0.074 A 
ATOM     19  C   UNL A   1      37.989  32.677  32.889  1.00  0.00     0.031 C 
ATOM     20  C   UNL A   1      39.494  28.804  27.354  1.00  0.00     0.029 A 
ATOM     21  C   UNL A   1      40.390  28.624  28.493  1.00  0.00     0.049 A 
ATOM     22  H   UNL A   1      40.302  29.605  30.330  1.00  0.00     0.167 HD
ATOM     23  C   UNL A   1      39.699  31.566  34.283  1.00  0.00     0.034 A 
ATOM     24  C   UNL A   1      41.440  27.776  28.558  1.00  0.00     0.034 A 
ATOM     25  C   UNL A   1      40.807  30.671  34.461  1.00  0.00     0.049 A 
ATOM     26  C   UNL A   1      42.205  27.685  29.863  1.00  0.00     0.074 A 
ATOM     27  C   UNL A   1      41.579  30.461  35.587  1.00  0.00     0.029 A 
ATOM     28  N   UNL A   1      41.313  29.843  33.466  1.00  0.00    -0.354 N 
ATOM     29  N   UNL A   1      41.977  28.307  31.000  1.00  0.00    -0.248 NA
ATOM     30  C   UNL A   1      43.350  26.766  29.901  1.00  0.00     0.031 C 
ATOM     31  C   UNL A   1      42.585  29.544  35.257  1.00  0.00     0.029 A 
ATOM     32  C   UNL A   1      42.399  29.133  33.945  1.00  0.00     0.049 A 
ATOM     33  H   UNL A   1      40.949  29.772  32.554  1.00  0.00     0.167 HD
ATOM     34  C   UNL A   1      42.931  27.826  31.894  1.00  0.00     0.074 A 
ATOM     35  C   UNL A   1      43.716  26.845  31.171  1.00  0.00     0.031 C 
ATOM     36  C   UNL A   1      43.152  28.160  33.193  1.00  0.00     0.034 A 
BRANCH  23  37
ATOM     37  C   UNL A   1      39.204  32.406  35.431  1.00  0.00     0.023 A 
ATOM     38  C   UNL A   1      39.616  33.743  35.580  1.00  0.00     0.031 A 
ATOM     39  C   UNL A   1      38.410  31.840  36.442  1.00  0.00     0.131 A 
ATOM     40  C   UNL A   1      39.306  34.443  36.754  1.00  0.00     0.055 A 
ATOM     41  C   UNL A   1      38.038  32.569  37.573  1.00  0.00     0.041 A 
ATOM     42  F   UNL A   1      38.019  30.559  36.365  1.00  0.00    -0.206 F 
ATOM     43  C   UNL A   1      38.500  33.872  37.743  1.00  0.00     0.022 A 
BRANCH  40  44
ATOM     44  S   UNL A   1      40.101  36.048  37.041  1.00  0.00     0.124 S 
ATOM     45  O   UNL A   1      41.469  35.645  37.357  1.00  0.00    -0.237 OA
ATOM     46  O   UNL A   1      39.915  36.727  35.764  1.00  0.00    -0.237 OA
ATOM     47  O   UNL A   1      39.347  36.607  38.161  1.00  0.00    -0.744 OA
ENDBRANCH  40  44
ENDBRANCH  23  37
BRANCH  24  48
ATOM     48  C   UNL A   1      41.866  26.962  27.375  1.00  0.00     0.023 A 
ATOM     49  C   UNL A   1      41.617  25.580  27.305  1.00  0.00     0.031 A 
ATOM     50  C   UNL A   1      42.634  27.537  26.345  1.00  0.00     0.131 A 
ATOM     51  C   UNL A   1      42.189  24.811  26.275  1.00  0.00     0.055 A 
ATOM     52  C   UNL A   1      43.153  26.778  25.293  1.00  0.00     0.041 A 
ATOM     53  F   UNL A   1      42.905  28.852  26.354  1.00  0.00    -0.206 F 
ATOM     54  C   UNL A   1      42.948  25.403  25.265  1.00  0.00     0.022 A 
BRANCH  51  55
ATOM     55  S   UNL A   1      42.034  23.003  26.347  1.00  0.00     0.124 S 
ATOM     56  O   UNL A   1      42.860  22.680  27.504  1.00  0.00    -0.237 OA
ATOM     57  O   UNL A   1      40.595  22.833  26.517  1.00  0.00    -0.237 OA
ATOM     58  O   UNL A   1      42.564  22.565  25.058  1.00  0.00    -0.744 OA
ENDBRANCH  51  55
ENDBRANCH  24  48
BRANCH  36  59
ATOM     59  C   UNL A   1      44.258  27.425  33.909  1.00  0.00     0.023 A 
ATOM     60  C   UNL A   1      44.003  26.265  34.658  1.00  0.00     0.031 A 
ATOM     61  C   UNL A   1      45.581  27.896  33.839  1.00  0.00     0.131 A 
ATOM     62  C   UNL A   1      45.047  25.646  35.360  1.00  0.00     0.055 A 
ATOM     63  C   UNL A   1      46.626  27.239  34.487  1.00  0.00     0.041 A 
ATOM     64  F   UNL A   1      45.878  28.999  33.134  1.00  0.00    -0.206 F 
ATOM     65  C   UNL A   1      46.360  26.115  35.265  1.00  0.00     0.022 A 
BRANCH  62  66
ATOM     66  S   UNL A   1      44.646  24.274  36.474  1.00  0.00     0.124 S 
ATOM     67  O   UNL A   1      43.824  24.935  37.484  1.00  0.00    -0.237 OA
ATOM     68  O   UNL A   1      43.946  23.348  35.590  1.00  0.00    -0.237 OA
ATOM     69  O   UNL A   1      45.955  23.818  36.940  1.00  0.00    -0.744 OA
ENDBRANCH  62  66
ENDBRANCH  36  59
ENDBRANCH  10  11
ENDBRANCH   3   5
ENDBRANCH   2   3
ENDBRANCH   1   2
BRANCH   1  70
ATOM     70  C   UNL A   1      31.686  30.501  26.502  1.00  0.00     0.274 C 
BRANCH  70  71
ATOM     71  O   UNL A   1      31.876  30.350  25.085  1.00  0.00    -0.462 OA
BRANCH  71  72
ATOM     72  C   UNL A   1      32.436  29.163  24.700  1.00  0.00     0.312 C 
ATOM     73  O   UNL A   1      33.235  28.535  25.389  1.00  0.00    -0.252 OA
BRANCH  72  74
ATOM     74  C   UNL A   1      31.963  28.758  23.302  1.00  0.00     0.124 C 
ATOM     75  C   UNL A   1      30.463  28.733  23.232  1.00  0.00    -0.014 C 
ATOM     76  C   UNL A   1      32.268  27.312  22.925  1.00  0.00     0.048 C 
ATOM     77  C   UNL A   1      30.005  27.478  23.361  1.00  0.00    -0.006 C 
ATOM     78  C   UNL A   1      31.137  26.495  23.548  1.00  0.00     0.106 C 
BRANCH  78  79
ATOM     79  N   UNL A   1      31.223  26.237  24.982  1.00  0.00    -0.346 N 
ATOM     80  C   UNL A   1      31.901  25.313  25.728  1.00  0.00     0.258 C 
ATOM     81  H   UNL A   1      30.683  26.856  25.523  1.00  0.00     0.164 HD
ATOM     82  O   UNL A   1      31.613  25.114  26.907  1.00  0.00    -0.269 OA
BRANCH  80  83
ATOM     83  C   UNL A   1      33.047  24.575  25.187  1.00  0.00     0.117 A 
ATOM     84  C   UNL A   1      34.336  25.013  25.508  1.00  0.00     0.022 A 
ATOM     85  C   UNL A   1      32.916  23.349  24.541  1.00  0.00     0.283 A 
ATOM     86  C   UNL A   1      35.465  24.344  25.032  1.00  0.00     0.022 A 
ATOM     87  C   UNL A   1      34.038  22.637  24.091  1.00  0.00     0.107 A 
ATOM     88  C   UNL A   1      35.309  23.162  24.314  1.00  0.00     0.047 A 
ATOM     89  Cl  UNL A   1      36.697  22.330  23.742  1.00  0.00    -0.084 Cl
BRANCH  85  90
ATOM     90  N   UNL A   1      31.609  22.755  24.366  1.00  0.00     0.063 N 
ATOM     91  O   UNL A   1      30.976  23.086  23.353  1.00  0.00    -0.258 OA
ATOM     92  O   UNL A   1      31.194  22.019  25.270  1.00  0.00    -0.258 OA
ENDBRANCH  85  90
ENDBRANCH  80  83
ENDBRANCH  78  79
ENDBRANCH  72  74
ENDBRANCH  71  72
ENDBRANCH  70  71
ENDBRANCH   1  70
TORSDOF 17
ENDMDL
MODEL 3
REMARK VINA RESULT:     -12.1      4.953     10.355
REMARK SMILES O=C(OCCOC(=O)[C@@H]1C=C[C@H](NC(=O)c2ccc(Cl)cc2[N+](=O)[O-])C1)c1ccc(-c2c3nc(c(-c4cc(S(=O)(=O)[O-])ccc4F)c4ccc([nH]4)c(-c4cc(S(=O)(=O)[O-])ccc4F)c4nc(c(-c5cc(S(=O)(=O)[O-])ccc5F)c5ccc2[nH]5)C=C4)C=C3)cc1
REMARK SMILES IDX 4 1 3 2 2 3 1 4 27 5 28 6 89 7 29 8 88 9 30 10 31 11 32 12
REMARK SMILES IDX 82 13 33 14 87 15 81 16 83 17 34 18 86 19 80 20 79 21 35 23
REMARK SMILES IDX 67 24 47 25 66 26 48 27 51 28 65 29 84 30 49 31 50 32 64 34
REMARK SMILES IDX 85 35 52 36 36 37 37 38 45 39 38 40 44 41 46 42 43 43 39 44
REMARK SMILES IDX 40 45 41 46 42 47 68 48 69 49 77 50 70 51 76 52 78 53 75 54
REMARK SMILES IDX 71 55 72 56 73 57 74 58 53 59 54 60 62 61 55 62 61 63 63 64
REMARK SMILES IDX 60 65 56 66 57 67 58 68 59 69 5 70 6 71 7 72 8 73 9 74 10 75
REMARK SMILES IDX 26 76 11 77 12 78 13 79 14 80 15 82 16 83 17 84 22 85 18 86
REMARK SMILES IDX 21 87 19 88 20 89 23 90 24 91 25 92
REMARK H PARENT 83 22 51 33 13 81
REMARK Flexibility Score: inf
ROOT
ATOM      1  C   UNL A   1      32.180  32.464  26.991  1.00  0.00     0.275 C 
ENDROOT
BRANCH   1   2
ATOM      2  O   UNL A   1      32.557  33.314  28.090  1.00  0.00    -0.458 OA
BRANCH   2   3
ATOM      3  C   UNL A   1      33.737  33.933  28.337  1.00  0.00     0.338 C 
ATOM      4  O   UNL A   1      33.877  35.120  28.043  1.00  0.00    -0.246 OA
BRANCH   3   5
ATOM      5  C   UNL A   1      34.935  33.178  28.794  1.00  0.00     0.060 A 
ATOM      6  C   UNL A   1      34.892  32.038  29.599  1.00  0.00     0.016 A 
ATOM      7  C   UNL A   1      36.188  33.663  28.379  1.00  0.00     0.016 A 
ATOM      8  C   UNL A   1      36.054  31.314  29.868  1.00  0.00     0.010 A 
ATOM      9  C   UNL A   1      37.362  32.958  28.673  1.00  0.00     0.010 A 
ATOM     10  C   UNL A   1      37.294  31.765  29.406  1.00  0.00    -0.014 A 
BRANCH  10  11
ATOM     11  C   UNL A   1      38.514  31.113  29.931  1.00  0.00     0.031 A 
ATOM     12  C   UNL A   1      38.930  31.487  31.325  1.00  0.00     0.074 A 
ATOM     13  C   UNL A   1      39.153  30.146  29.244  1.00  0.00     0.049 A 
ATOM     14  N   UNL A   1      39.865  30.977  32.079  1.00  0.00    -0.248 NA
ATOM     15  C   UNL A   1      38.171  32.580  31.957  1.00  0.00     0.031 C 
ATOM     16  C   UNL A   1      38.805  29.686  27.898  1.00  0.00     0.029 A 
ATOM     17  N   UNL A   1      40.220  29.357  29.595  1.00  0.00    -0.354 N 
ATOM     18  C   UNL A   1      39.777  31.658  33.286  1.00  0.00     0.074 A 
ATOM     19  C   UNL A   1      38.757  32.670  33.137  1.00  0.00     0.031 C 
ATOM     20  C   UNL A   1      39.642  28.693  27.543  1.00  0.00     0.029 A 
ATOM     21  C   UNL A   1      40.588  28.448  28.628  1.00  0.00     0.049 A 
ATOM     22  H   UNL A   1      40.682  29.435  30.462  1.00  0.00     0.167 HD
ATOM     23  C   UNL A   1      40.460  31.438  34.433  1.00  0.00     0.034 A 
ATOM     24  C   UNL A   1      41.575  27.526  28.634  1.00  0.00     0.034 A 
ATOM     25  C   UNL A   1      41.508  30.464  34.550  1.00  0.00     0.049 A 
ATOM     26  C   UNL A   1      42.407  27.380  29.893  1.00  0.00     0.074 A 
ATOM     27  C   UNL A   1      42.329  30.199  35.629  1.00  0.00     0.029 A 
ATOM     28  N   UNL A   1      41.892  29.600  33.531  1.00  0.00    -0.354 N 
ATOM     29  N   UNL A   1      42.295  28.018  31.038  1.00  0.00    -0.248 NA
ATOM     30  C   UNL A   1      43.483  26.380  29.868  1.00  0.00     0.031 C 
ATOM     31  C   UNL A   1      43.243  29.211  35.245  1.00  0.00     0.029 A 
ATOM     32  C   UNL A   1      42.950  28.814  33.949  1.00  0.00     0.049 A 
ATOM     33  H   UNL A   1      41.471  29.555  32.642  1.00  0.00     0.167 HD
ATOM     34  C   UNL A   1      43.262  27.469  31.877  1.00  0.00     0.074 A 
ATOM     35  C   UNL A   1      43.928  26.433  31.114  1.00  0.00     0.031 C 
ATOM     36  C   UNL A   1      43.584  27.787  33.158  1.00  0.00     0.034 A 
BRANCH  23  37
ATOM     37  C   UNL A   1      40.098  32.313  35.604  1.00  0.00     0.023 A 
ATOM     38  C   UNL A   1      39.147  31.894  36.554  1.00  0.00     0.031 A 
ATOM     39  C   UNL A   1      40.617  33.613  35.714  1.00  0.00     0.131 A 
ATOM     40  C   UNL A   1      38.680  32.798  37.519  1.00  0.00     0.055 A 
ATOM     41  C   UNL A   1      40.206  34.481  36.727  1.00  0.00     0.041 A 
ATOM     42  F   UNL A   1      41.501  34.073  34.815  1.00  0.00    -0.206 F 
ATOM     43  C   UNL A   1      39.219  34.082  37.626  1.00  0.00     0.022 A 
BRANCH  40  44
ATOM     44  S   UNL A   1      37.249  32.323  38.527  1.00  0.00     0.124 S 
ATOM     45  O   UNL A   1      37.665  32.767  39.855  1.00  0.00    -0.237 OA
ATOM     46  O   UNL A   1      36.163  33.080  37.913  1.00  0.00    -0.237 OA
ATOM     47  O   UNL A   1      37.174  30.874  38.354  1.00  0.00    -0.744 OA
ENDBRANCH  40  44
ENDBRANCH  23  37
BRANCH  24  48
ATOM     48  C   UNL A   1      41.870  26.681  27.433  1.00  0.00     0.023 A 
ATOM     49  C   UNL A   1      41.518  25.321  27.386  1.00  0.00     0.031 A 
ATOM     50  C   UNL A   1      42.614  27.198  26.356  1.00  0.00     0.131 A 
ATOM     51  C   UNL A   1      41.970  24.512  26.328  1.00  0.00     0.055 A 
ATOM     52  C   UNL A   1      43.013  26.402  25.279  1.00  0.00     0.041 A 
ATOM     53  F   UNL A   1      42.979  28.490  26.341  1.00  0.00    -0.206 F 
ATOM     54  C   UNL A   1      42.707  25.046  25.270  1.00  0.00     0.022 A 
BRANCH  51  55
ATOM     55  S   UNL A   1      41.688  22.720  26.419  1.00  0.00     0.124 S 
ATOM     56  O   UNL A   1      42.329  22.382  27.684  1.00  0.00    -0.237 OA
ATOM     57  O   UNL A   1      40.231  22.644  26.396  1.00  0.00    -0.237 OA
ATOM     58  O   UNL A   1      42.357  22.210  25.223  1.00  0.00    -0.744 OA
ENDBRANCH  51  55
ENDBRANCH  24  48
BRANCH  36  59
ATOM     59  C   UNL A   1      44.673  26.974  33.811  1.00  0.00     0.023 A 
ATOM     60  C   UNL A   1      44.404  25.731  34.409  1.00  0.00     0.031 A 
ATOM     61  C   UNL A   1      45.996  27.451  33.834  1.00  0.00     0.131 A 
ATOM     62  C   UNL A   1      45.431  25.035  35.060  1.00  0.00     0.055 A 
ATOM     63  C   UNL A   1      47.026  26.724  34.427  1.00  0.00     0.041 A 
ATOM     64  F   UNL A   1      46.306  28.631  33.273  1.00  0.00    -0.206 F 
ATOM     65  C   UNL A   1      46.744  25.514  35.057  1.00  0.00     0.022 A 
BRANCH  62  66
ATOM     66  S   UNL A   1      45.008  23.540  35.992  1.00  0.00     0.124 S 
ATOM     67  O   UNL A   1      44.791  24.071  37.334  1.00  0.00    -0.237 OA
ATOM     68  O   UNL A   1      43.817  23.065  35.295  1.00  0.00    -0.237 OA
ATOM     69  O   UNL A   1      46.192  22.696  35.842  1.00  0.00    -0.744 OA
ENDBRANCH  62  66
ENDBRANCH  36  59
ENDBRANCH  10  11
ENDBRANCH   3   5
ENDBRANCH   2   3
ENDBRANCH   1   2
BRANCH   1  70
ATOM     70  C   UNL A   1      32.610  31.001  27.104  1.00  0.00     0.274 C 
BRANCH  70  71
ATOM     71  O   UNL A   1      31.995  30.114  26.154  1.00  0.00    -0.462 OA
BRANCH  71  72
ATOM     72  C   UNL A   1      32.194  28.782  26.393  1.00  0.00     0.312 C 
ATOM     73  O   UNL A   1      31.384  28.071  26.980  1.00  0.00    -0.252 OA
BRANCH  72  74
ATOM     74  C   UNL A   1      33.557  28.326  25.869  1.00  0.00     0.124 C 
ATOM     75  C   UNL A   1      33.699  28.638  24.406  1.00  0.00    -0.014 C 
ATOM     76  C   UNL A   1      33.747  26.813  25.835  1.00  0.00     0.048 C 
ATOM     77  C   UNL A   1      33.448  27.548  23.665  1.00  0.00    -0.006 C 
ATOM     78  C   UNL A   1      33.091  26.363  24.530  1.00  0.00     0.106 C 
BRANCH  78  79
ATOM     79  N   UNL A   1      31.634  26.272  24.523  1.00  0.00    -0.346 N 
ATOM     80  C   UNL A   1      30.760  25.250  24.278  1.00  0.00     0.258 C 
ATOM     81  H   UNL A   1      31.190  27.123  24.740  1.00  0.00     0.164 HD
ATOM     82  O   UNL A   1      29.569  25.470  24.064  1.00  0.00    -0.269 OA
BRANCH  80  83
ATOM     83  C   UNL A   1      31.181  23.845  24.331  1.00  0.00     0.117 A 
ATOM     84  C   UNL A   1      31.785  23.286  23.201  1.00  0.00     0.022 A 
ATOM     85  C   UNL A   1      31.191  23.107  25.510  1.00  0.00     0.283 A 
ATOM     86  C   UNL A   1      32.216  21.958  23.196  1.00  0.00     0.022 A 
ATOM     87  C   UNL A   1      31.659  21.784  25.541  1.00  0.00     0.107 A 
ATOM     88  C   UNL A   1      32.140  21.209  24.366  1.00  0.00     0.047 A 
ATOM     89  Cl  UNL A   1      32.684  19.581  24.366  1.00  0.00    -0.084 Cl
BRANCH  85  90
ATOM     90  N   UNL A   1      30.763  23.713  26.753  1.00  0.00     0.063 N 
ATOM     91  O   UNL A   1      31.540  24.527  27.272  1.00  0.00    -0.258 OA
ATOM     92  O   UNL A   1      29.693  23.324  27.236  1.00  0.00    -0.258 OA
ENDBRANCH  85  90
ENDBRANCH  80  83
ENDBRANCH  78  79
ENDBRANCH  72  74
ENDBRANCH  71  72
ENDBRANCH  70  71
ENDBRANCH   1  70
TORSDOF 17
ENDMDL
