MODEL 1
REMARK VINA RESULT:     -10.5      0.000      0.000
REMARK SMILES C[C@H](NC(N)=O)C(=O)N[C@@H](CO)C(=O)OCCOC(=O)c1ccc(-c2c3nc(c(-c4cc(S(=O)(=O)[O-])ccc4F)c4ccc([nH]4)c(-c4cc(S(=O)(=O)[O-])ccc4F)c4nc(c(-c5cc(S(=O)(=O)[O-])ccc5F)c5ccc2[nH]5)C=C4)C=C3)cc1
REMARK SMILES IDX 16 1 15 2 13 3 14 4 10 5 9 6 7 7 8 8 2 10 1 11 3 12 4 13
REMARK SMILES IDX 5 15 6 16 11 19 12 20 17 22 18 23 19 24 20 25 21 26 22 27
REMARK SMILES IDX 83 28 23 29 82 30 24 31 25 32 26 33 76 34 27 35 81 36 75 37
REMARK SMILES IDX 77 38 28 39 80 40 74 41 73 42 29 44 61 45 41 46 60 47 42 48
REMARK SMILES IDX 45 49 59 50 78 51 43 52 44 53 58 55 79 56 46 57 30 58 31 59
REMARK SMILES IDX 39 60 32 61 38 62 40 63 37 64 33 65 34 66 35 67 36 68 62 69
REMARK SMILES IDX 63 70 71 71 64 72 70 73 72 74 69 75 65 76 66 77 67 78 68 79
REMARK SMILES IDX 47 80 48 81 56 82 49 83 55 84 57 85 54 86 50 87 51 88 52 89
REMARK SMILES IDX 53 90
REMARK H PARENT 9 9 3 14 5 17 5 18 12 21 77 43 45 54
REMARK Flexibility Score: inf
ROOT
ATOM      1  C   UNL A   1      32.239  28.852  25.131  1.00  0.00     0.274 C 
ENDROOT
BRANCH   1   2
ATOM      2  O   UNL A   1      31.163  27.895  25.180  1.00  0.00    -0.460 OA
BRANCH   2   3
ATOM      3  C   UNL A   1      31.231  26.981  26.188  1.00  0.00     0.331 C 
ATOM      4  O   UNL A   1      31.012  27.229  27.368  1.00  0.00    -0.250 OA
BRANCH   3   5
ATOM      5  C   UNL A   1      31.631  25.583  25.694  1.00  0.00     0.218 C 
BRANCH   5   6
ATOM      6  N   UNL A   1      33.041  25.235  25.917  1.00  0.00    -0.339 N 
ATOM      7  C   UNL A   1      33.969  24.710  25.065  1.00  0.00     0.243 C 
ATOM      8  O   UNL A   1      35.078  24.452  25.545  1.00  0.00    -0.273 OA
ATOM      9  H   UNL A   1      33.369  25.409  26.828  1.00  0.00     0.164 HD
BRANCH   7  10
ATOM     10  C   UNL A   1      33.718  24.584  23.541  1.00  0.00     0.170 C 
ATOM     11  C   UNL A   1      34.550  23.422  23.015  1.00  0.00     0.041 C 
BRANCH  10  12
ATOM     12  N   UNL A   1      33.865  25.873  22.855  1.00  0.00    -0.327 N 
ATOM     13  C   UNL A   1      32.883  26.561  22.215  1.00  0.00     0.312 C 
ATOM     14  H   UNL A   1      34.762  26.279  22.860  1.00  0.00     0.166 HD
ATOM     15  N   UNL A   1      33.312  27.730  21.686  1.00  0.00    -0.352 N 
ATOM     16  O   UNL A   1      31.734  26.191  22.035  1.00  0.00    -0.249 OA
ATOM     17  H   UNL A   1      34.240  28.025  21.833  1.00  0.00     0.161 HD
ATOM     18  H   UNL A   1      32.697  28.286  21.155  1.00  0.00     0.161 HD
ENDBRANCH  10  12
ENDBRANCH   7  10
ENDBRANCH   5   6
BRANCH   5  19
ATOM     19  C   UNL A   1      30.718  24.578  26.406  1.00  0.00     0.193 C 
BRANCH  19  20
ATOM     20  O   UNL A   1      29.373  25.062  26.480  1.00  0.00    -0.394 OA
ATOM     21  H   UNL A   1      29.025  24.916  27.373  1.00  0.00     0.210 HD
ENDBRANCH  19  20
ENDBRANCH   5  19
ENDBRANCH   3   5
ENDBRANCH   2   3
ENDBRANCH   1   2
BRANCH   1  22
ATOM     22  C   UNL A   1      31.815  30.183  25.753  1.00  0.00     0.275 C 
BRANCH  22  23
ATOM     23  O   UNL A   1      32.354  30.334  27.080  1.00  0.00    -0.458 OA
BRANCH  23  24
ATOM     24  C   UNL A   1      33.055  31.475  27.268  1.00  0.00     0.338 C 
ATOM     25  O   UNL A   1      32.618  32.615  27.259  1.00  0.00    -0.246 OA
BRANCH  24  26
ATOM     26  C   UNL A   1      34.457  31.183  27.592  1.00  0.00     0.060 A 
ATOM     27  C   UNL A   1      34.806  29.865  27.868  1.00  0.00     0.016 A 
ATOM     28  C   UNL A   1      35.342  32.220  27.882  1.00  0.00     0.016 A 
ATOM     29  C   UNL A   1      35.978  29.600  28.572  1.00  0.00     0.010 A 
ATOM     30  C   UNL A   1      36.581  31.927  28.471  1.00  0.00     0.010 A 
ATOM     31  C   UNL A   1      36.896  30.617  28.872  1.00  0.00    -0.014 A 
BRANCH  31  32
ATOM     32  C   UNL A   1      38.155  30.301  29.618  1.00  0.00     0.031 A 
ATOM     33  C   UNL A   1      39.203  29.389  29.023  1.00  0.00     0.074 A 
ATOM     34  C   UNL A   1      38.377  30.849  30.832  1.00  0.00     0.049 A 
ATOM     35  N   UNL A   1      40.247  28.839  29.596  1.00  0.00    -0.248 NA
ATOM     36  C   UNL A   1      39.049  29.033  27.605  1.00  0.00     0.031 C 
ATOM     37  C   UNL A   1      37.488  31.799  31.509  1.00  0.00     0.029 A 
ATOM     38  N   UNL A   1      39.420  30.698  31.715  1.00  0.00    -0.354 N 
ATOM     39  C   UNL A   1      40.840  28.032  28.628  1.00  0.00     0.074 A 
ATOM     40  C   UNL A   1      40.028  28.155  27.434  1.00  0.00     0.031 C 
ATOM     41  C   UNL A   1      38.047  32.186  32.662  1.00  0.00     0.029 A 
ATOM     42  C   UNL A   1      39.262  31.415  32.881  1.00  0.00     0.049 A 
ATOM     43  H   UNL A   1      40.205  30.133  31.531  1.00  0.00     0.167 HD
ATOM     44  C   UNL A   1      41.954  27.262  28.731  1.00  0.00     0.034 A 
ATOM     45  C   UNL A   1      39.966  31.409  34.029  1.00  0.00     0.034 A 
ATOM     46  C   UNL A   1      42.780  27.195  29.917  1.00  0.00     0.049 A 
ATOM     47  C   UNL A   1      41.153  30.492  34.146  1.00  0.00     0.074 A 
ATOM     48  C   UNL A   1      43.938  26.463  30.120  1.00  0.00     0.029 A 
ATOM     49  N   UNL A   1      42.545  27.891  31.097  1.00  0.00    -0.354 N 
ATOM     50  N   UNL A   1      41.656  29.675  33.250  1.00  0.00    -0.248 NA
ATOM     51  C   UNL A   1      41.857  30.485  35.433  1.00  0.00     0.031 C 
ATOM     52  C   UNL A   1      44.357  26.653  31.440  1.00  0.00     0.029 A 
ATOM     53  C   UNL A   1      43.516  27.576  32.039  1.00  0.00     0.049 A 
ATOM     54  H   UNL A   1      41.799  28.515  31.243  1.00  0.00     0.167 HD
ATOM     55  C   UNL A   1      42.750  29.072  33.862  1.00  0.00     0.074 A 
ATOM     56  C   UNL A   1      42.847  29.639  35.191  1.00  0.00     0.031 C 
ATOM     57  C   UNL A   1      43.597  28.135  33.368  1.00  0.00     0.034 A 
BRANCH  44  58
ATOM     58  C   UNL A   1      42.316  26.373  27.559  1.00  0.00     0.023 A 
ATOM     59  C   UNL A   1      41.880  25.040  27.455  1.00  0.00     0.031 A 
ATOM     60  C   UNL A   1      43.111  26.883  26.515  1.00  0.00     0.131 A 
ATOM     61  C   UNL A   1      42.285  24.253  26.364  1.00  0.00     0.055 A 
ATOM     62  C   UNL A   1      43.445  26.120  25.396  1.00  0.00     0.041 A 
ATOM     63  F   UNL A   1      43.577  28.142  26.565  1.00  0.00    -0.206 F 
ATOM     64  C   UNL A   1      43.042  24.792  25.320  1.00  0.00     0.022 A 
BRANCH  61  65
ATOM     65  S   UNL A   1      41.917  22.476  26.383  1.00  0.00     0.124 S 
ATOM     66  O   UNL A   1      42.540  22.058  27.636  1.00  0.00    -0.237 OA
ATOM     67  O   UNL A   1      40.459  22.454  26.354  1.00  0.00    -0.237 OA
ATOM     68  O   UNL A   1      42.571  21.977  25.175  1.00  0.00    -0.744 OA
ENDBRANCH  61  65
ENDBRANCH  44  58
BRANCH  45  69
ATOM     69  C   UNL A   1      39.516  32.231  35.191  1.00  0.00     0.023 A 
ATOM     70  C   UNL A   1      38.815  31.654  36.261  1.00  0.00     0.031 A 
ATOM     71  C   UNL A   1      39.748  33.620  35.230  1.00  0.00     0.131 A 
ATOM     72  C   UNL A   1      38.336  32.467  37.302  1.00  0.00     0.055 A 
ATOM     73  C   UNL A   1      39.335  34.410  36.301  1.00  0.00     0.041 A 
ATOM     74  F   UNL A   1      40.405  34.228  34.228  1.00  0.00    -0.206 F 
ATOM     75  C   UNL A   1      38.610  33.836  37.340  1.00  0.00     0.022 A 
BRANCH  72  76
ATOM     76  S   UNL A   1      37.257  31.725  38.555  1.00  0.00     0.124 S 
ATOM     77  O   UNL A   1      37.073  30.378  38.029  1.00  0.00    -0.237 OA
ATOM     78  O   UNL A   1      38.070  31.838  39.761  1.00  0.00    -0.237 OA
ATOM     79  O   UNL A   1      36.068  32.574  38.526  1.00  0.00    -0.744 OA
ENDBRANCH  72  76
ENDBRANCH  45  69
BRANCH  57  80
ATOM     80  C   UNL A   1      44.735  27.706  34.264  1.00  0.00     0.023 A 
ATOM     81  C   UNL A   1      44.604  26.638  35.169  1.00  0.00     0.031 A 
ATOM     82  C   UNL A   1      45.957  28.401  34.235  1.00  0.00     0.131 A 
ATOM     83  C   UNL A   1      45.652  26.339  36.053  1.00  0.00     0.055 A 
ATOM     84  C   UNL A   1      47.021  28.053  35.069  1.00  0.00     0.041 A 
ATOM     85  F   UNL A   1      46.137  29.434  33.395  1.00  0.00    -0.206 F 
ATOM     86  C   UNL A   1      46.866  27.028  35.995  1.00  0.00     0.022 A 
BRANCH  83  87
ATOM     87  S   UNL A   1      45.368  25.108  37.356  1.00  0.00     0.124 S 
ATOM     88  O   UNL A   1      46.657  25.087  38.038  1.00  0.00    -0.237 OA
ATOM     89  O   UNL A   1      44.260  25.691  38.102  1.00  0.00    -0.237 OA
ATOM     90  O   UNL A   1      45.042  23.891  36.612  1.00  0.00    -0.744 OA
ENDBRANCH  83  87
ENDBRANCH  57  80
ENDBRANCH  31  32
ENDBRANCH  24  26
ENDBRANCH  23  24
ENDBRANCH  22  23
ENDBRANCH   1  22
TORSDOF 19
ENDMDL
MODEL 2
REMARK VINA RESULT:     -10.4      1.694      2.386
REMARK SMILES C[C@H](NC(N)=O)C(=O)N[C@@H](CO)C(=O)OCCOC(=O)c1ccc(-c2c3nc(c(-c4cc(S(=O)(=O)[O-])ccc4F)c4ccc([nH]4)c(-c4cc(S(=O)(=O)[O-])ccc4F)c4nc(c(-c5cc(S(=O)(=O)[O-])ccc5F)c5ccc2[nH]5)C=C4)C=C3)cc1
REMARK SMILES IDX 16 1 15 2 13 3 14 4 10 5 9 6 7 7 8 8 2 10 1 11 3 12 4 13
REMARK SMILES IDX 5 15 6 16 11 19 12 20 17 22 18 23 19 24 20 25 21 26 22 27
REMARK SMILES IDX 83 28 23 29 82 30 24 31 25 32 26 33 76 34 27 35 81 36 75 37
REMARK SMILES IDX 77 38 28 39 80 40 74 41 73 42 29 44 61 45 41 46 60 47 42 48
REMARK SMILES IDX 45 49 59 50 78 51 43 52 44 53 58 55 79 56 46 57 30 58 31 59
REMARK SMILES IDX 39 60 32 61 38 62 40 63 37 64 33 65 34 66 35 67 36 68 62 69
REMARK SMILES IDX 63 70 71 71 64 72 70 73 72 74 69 75 65 76 66 77 67 78 68 79
REMARK SMILES IDX 47 80 48 81 56 82 49 83 55 84 57 85 54 86 50 87 51 88 52 89
REMARK SMILES IDX 53 90
REMARK H PARENT 9 9 3 14 5 17 5 18 12 21 77 43 45 54
REMARK Flexibility Score: inf
ROOT
ATOM      1  C   UNL A   1      31.367  29.063  25.360  1.00  0.00     0.274 C 
ENDROOT
BRANCH   1   2
ATOM      2  O   UNL A   1      31.998  28.108  26.237  1.00  0.00    -0.460 OA
BRANCH   2   3
ATOM      3  C   UNL A   1      31.506  26.839  26.180  1.00  0.00     0.331 C 
ATOM      4  O   UNL A   1      30.367  26.519  26.504  1.00  0.00    -0.250 OA
BRANCH   3   5
ATOM      5  C   UNL A   1      32.541  25.824  25.672  1.00  0.00     0.218 C 
BRANCH   5   6
ATOM      6  N   UNL A   1      32.263  25.283  24.335  1.00  0.00    -0.339 N 
ATOM      7  C   UNL A   1      32.237  23.994  23.889  1.00  0.00     0.243 C 
ATOM      8  O   UNL A   1      32.037  23.829  22.681  1.00  0.00    -0.273 OA
ATOM      9  H   UNL A   1      32.062  25.961  23.650  1.00  0.00     0.164 HD
BRANCH   7  10
ATOM     10  C   UNL A   1      32.296  22.782  24.852  1.00  0.00     0.170 C 
ATOM     11  C   UNL A   1      33.017  21.643  24.144  1.00  0.00     0.041 C 
BRANCH  10  12
ATOM     12  N   UNL A   1      30.981  22.481  25.431  1.00  0.00    -0.327 N 
ATOM     13  C   UNL A   1      30.561  22.796  26.685  1.00  0.00     0.312 C 
ATOM     14  H   UNL A   1      30.340  22.005  24.854  1.00  0.00     0.166 HD
ATOM     15  N   UNL A   1      29.291  22.402  26.934  1.00  0.00    -0.352 N 
ATOM     16  O   UNL A   1      31.228  23.312  27.567  1.00  0.00    -0.249 OA
ATOM     17  H   UNL A   1      28.757  21.985  26.219  1.00  0.00     0.161 HD
ATOM     18  H   UNL A   1      28.901  22.532  27.828  1.00  0.00     0.161 HD
ENDBRANCH  10  12
ENDBRANCH   7  10
ENDBRANCH   5   6
BRANCH   5  19
ATOM     19  C   UNL A   1      33.903  26.529  25.687  1.00  0.00     0.193 C 
BRANCH  19  20
ATOM     20  O   UNL A   1      34.134  27.234  24.462  1.00  0.00    -0.394 OA
ATOM     21  H   UNL A   1      35.048  27.088  24.173  1.00  0.00     0.210 HD
ENDBRANCH  19  20
ENDBRANCH   5  19
ENDBRANCH   3   5
ENDBRANCH   2   3
ENDBRANCH   1   2
BRANCH   1  22
ATOM     22  C   UNL A   1      31.688  30.494  25.791  1.00  0.00     0.275 C 
BRANCH  22  23
ATOM     23  O   UNL A   1      32.360  30.516  27.065  1.00  0.00    -0.458 OA
BRANCH  23  24
ATOM     24  C   UNL A   1      33.082  31.637  27.293  1.00  0.00     0.338 C 
ATOM     25  O   UNL A   1      32.671  32.786  27.305  1.00  0.00    -0.246 OA
BRANCH  24  26
ATOM     26  C   UNL A   1      34.472  31.305  27.632  1.00  0.00     0.060 A 
ATOM     27  C   UNL A   1      34.760  29.999  28.014  1.00  0.00     0.016 A 
ATOM     28  C   UNL A   1      35.408  32.319  27.831  1.00  0.00     0.016 A 
ATOM     29  C   UNL A   1      35.925  29.736  28.730  1.00  0.00     0.010 A 
ATOM     30  C   UNL A   1      36.637  32.016  28.435  1.00  0.00     0.010 A 
ATOM     31  C   UNL A   1      36.893  30.729  28.941  1.00  0.00    -0.014 A 
BRANCH  31  32
ATOM     32  C   UNL A   1      38.143  30.415  29.703  1.00  0.00     0.031 A 
ATOM     33  C   UNL A   1      39.223  29.545  29.102  1.00  0.00     0.074 A 
ATOM     34  C   UNL A   1      38.327  30.928  30.939  1.00  0.00     0.049 A 
ATOM     35  N   UNL A   1      40.266  28.999  29.679  1.00  0.00    -0.248 NA
ATOM     36  C   UNL A   1      39.106  29.232  27.670  1.00  0.00     0.031 C 
ATOM     37  C   UNL A   1      37.405  31.837  31.626  1.00  0.00     0.029 A 
ATOM     38  N   UNL A   1      39.355  30.771  31.838  1.00  0.00    -0.354 N 
ATOM     39  C   UNL A   1      40.896  28.236  28.699  1.00  0.00     0.074 A 
ATOM     40  C   UNL A   1      40.107  28.380  27.493  1.00  0.00     0.031 C 
ATOM     41  C   UNL A   1      37.931  32.198  32.803  1.00  0.00     0.029 A 
ATOM     42  C   UNL A   1      39.158  31.445  33.023  1.00  0.00     0.049 A 
ATOM     43  H   UNL A   1      40.156  30.228  31.653  1.00  0.00     0.167 HD
ATOM     44  C   UNL A   1      42.024  27.486  28.801  1.00  0.00     0.034 A 
ATOM     45  C   UNL A   1      39.838  31.417  34.186  1.00  0.00     0.034 A 
ATOM     46  C   UNL A   1      42.826  27.398  30.001  1.00  0.00     0.049 A 
ATOM     47  C   UNL A   1      41.041  30.521  34.298  1.00  0.00     0.074 A 
ATOM     48  C   UNL A   1      43.995  26.683  30.206  1.00  0.00     0.029 A 
ATOM     49  N   UNL A   1      42.552  28.050  31.198  1.00  0.00    -0.354 N 
ATOM     50  N   UNL A   1      41.580  29.744  33.388  1.00  0.00    -0.248 NA
ATOM     51  C   UNL A   1      41.718  30.488  35.600  1.00  0.00     0.031 C 
ATOM     52  C   UNL A   1      44.383  26.839  31.540  1.00  0.00     0.029 A 
ATOM     53  C   UNL A   1      43.509  27.724  32.150  1.00  0.00     0.049 A 
ATOM     54  H   UNL A   1      41.790  28.654  31.348  1.00  0.00     0.167 HD
ATOM     55  C   UNL A   1      42.674  29.145  34.003  1.00  0.00     0.074 A 
ATOM     56  C   UNL A   1      42.731  29.670  35.352  1.00  0.00     0.031 C 
ATOM     57  C   UNL A   1      43.551  28.242  33.498  1.00  0.00     0.034 A 
BRANCH  44  58
ATOM     58  C   UNL A   1      42.429  26.643  27.610  1.00  0.00     0.023 A 
ATOM     59  C   UNL A   1      42.074  25.288  27.483  1.00  0.00     0.031 A 
ATOM     60  C   UNL A   1      43.181  27.221  26.569  1.00  0.00     0.131 A 
ATOM     61  C   UNL A   1      42.517  24.548  26.374  1.00  0.00     0.055 A 
ATOM     62  C   UNL A   1      43.552  26.500  25.433  1.00  0.00     0.041 A 
ATOM     63  F   UNL A   1      43.570  28.505  26.640  1.00  0.00    -0.206 F 
ATOM     64  C   UNL A   1      43.230  25.152  25.335  1.00  0.00     0.022 A 
BRANCH  61  65
ATOM     65  S   UNL A   1      42.259  22.752  26.361  1.00  0.00     0.124 S 
ATOM     66  O   UNL A   1      40.869  22.649  26.798  1.00  0.00    -0.237 OA
ATOM     67  O   UNL A   1      42.519  22.405  24.969  1.00  0.00    -0.237 OA
ATOM     68  O   UNL A   1      43.243  22.256  27.320  1.00  0.00    -0.744 OA
ENDBRANCH  61  65
ENDBRANCH  44  58
BRANCH  45  69
ATOM     69  C   UNL A   1      39.346  32.191  35.363  1.00  0.00     0.023 A 
ATOM     70  C   UNL A   1      39.729  33.526  35.567  1.00  0.00     0.031 A 
ATOM     71  C   UNL A   1      38.511  31.593  36.327  1.00  0.00     0.131 A 
ATOM     72  C   UNL A   1      39.313  34.203  36.724  1.00  0.00     0.055 A 
ATOM     73  C   UNL A   1      38.041  32.293  37.437  1.00  0.00     0.041 A 
ATOM     74  F   UNL A   1      38.121  30.315  36.189  1.00  0.00    -0.206 F 
ATOM     75  C   UNL A   1      38.454  33.603  37.649  1.00  0.00     0.022 A 
BRANCH  72  76
ATOM     76  S   UNL A   1      39.996  35.849  37.059  1.00  0.00     0.124 S 
ATOM     77  O   UNL A   1      41.408  35.548  37.261  1.00  0.00    -0.237 OA
ATOM     78  O   UNL A   1      39.661  36.571  35.838  1.00  0.00    -0.237 OA
ATOM     79  O   UNL A   1      39.273  36.280  38.254  1.00  0.00    -0.744 OA
ENDBRANCH  72  76
ENDBRANCH  45  69
BRANCH  57  80
ATOM     80  C   UNL A   1      44.679  27.808  34.404  1.00  0.00     0.023 A 
ATOM     81  C   UNL A   1      44.591  26.648  35.194  1.00  0.00     0.031 A 
ATOM     82  C   UNL A   1      45.846  28.587  34.503  1.00  0.00     0.131 A 
ATOM     83  C   UNL A   1      45.620  26.338  36.097  1.00  0.00     0.055 A 
ATOM     84  C   UNL A   1      46.896  28.234  35.351  1.00  0.00     0.041 A 
ATOM     85  F   UNL A   1      45.982  29.708  33.776  1.00  0.00    -0.206 F 
ATOM     86  C   UNL A   1      46.780  27.113  36.165  1.00  0.00     0.022 A 
BRANCH  83  87
ATOM     87  S   UNL A   1      45.374  24.966  37.259  1.00  0.00     0.124 S 
ATOM     88  O   UNL A   1      46.745  24.529  37.505  1.00  0.00    -0.237 OA
ATOM     89  O   UNL A   1      44.703  25.620  38.377  1.00  0.00    -0.237 OA
ATOM     90  O   UNL A   1      44.549  24.023  36.507  1.00  0.00    -0.744 OA
ENDBRANCH  83  87
ENDBRANCH  57  80
ENDBRANCH  31  32
ENDBRANCH  24  26
ENDBRANCH  23  24
ENDBRANCH  22  23
ENDBRANCH   1  22
TORSDOF 19
ENDMDL
MODEL 3
REMARK VINA RESULT:     -10.2      5.378     10.320
REMARK SMILES C[C@H](NC(N)=O)C(=O)N[C@@H](CO)C(=O)OCCOC(=O)c1ccc(-c2c3nc(c(-c4cc(S(=O)(=O)[O-])ccc4F)c4ccc([nH]4)c(-c4cc(S(=O)(=O)[O-])ccc4F)c4nc(c(-c5cc(S(=O)(=O)[O-])ccc5F)c5ccc2[nH]5)C=C4)C=C3)cc1
REMARK SMILES IDX 16 1 15 2 13 3 14 4 10 5 9 6 7 7 8 8 2 10 1 11 3 12 4 13
REMARK SMILES IDX 5 15 6 16 11 19 12 20 17 22 18 23 19 24 20 25 21 26 22 27
REMARK SMILES IDX 83 28 23 29 82 30 24 31 25 32 26 33 76 34 27 35 81 36 75 37
REMARK SMILES IDX 77 38 28 39 80 40 74 41 73 42 29 44 61 45 41 46 60 47 42 48
REMARK SMILES IDX 45 49 59 50 78 51 43 52 44 53 58 55 79 56 46 57 30 58 31 59
REMARK SMILES IDX 39 60 32 61 38 62 40 63 37 64 33 65 34 66 35 67 36 68 62 69
REMARK SMILES IDX 63 70 71 71 64 72 70 73 72 74 69 75 65 76 66 77 67 78 68 79
REMARK SMILES IDX 47 80 48 81 56 82 49 83 55 84 57 85 54 86 50 87 51 88 52 89
REMARK SMILES IDX 53 90
REMARK H PARENT 9 9 3 14 5 17 5 18 12 21 77 43 45 54
REMARK Flexibility Score: inf
ROOT
ATOM      1  C   UNL A   1      36.173  19.693  24.869  1.00  0.00     0.274 C 
ENDROOT
BRANCH   1   2
ATOM      2  O   UNL A   1      35.872  18.310  24.594  1.00  0.00    -0.460 OA
BRANCH   2   3
ATOM      3  C   UNL A   1      34.586  18.048  24.227  1.00  0.00     0.331 C 
ATOM      4  O   UNL A   1      34.237  17.079  23.561  1.00  0.00    -0.250 OA
BRANCH   3   5
ATOM      5  C   UNL A   1      33.598  19.111  24.728  1.00  0.00     0.218 C 
BRANCH   5   6
ATOM      6  N   UNL A   1      32.862  19.811  23.666  1.00  0.00    -0.339 N 
ATOM      7  C   UNL A   1      32.677  21.145  23.448  1.00  0.00     0.243 C 
ATOM      8  O   UNL A   1      31.947  21.456  22.501  1.00  0.00    -0.273 OA
ATOM      9  H   UNL A   1      32.434  19.221  23.004  1.00  0.00     0.164 HD
BRANCH   7  10
ATOM     10  C   UNL A   1      33.455  22.229  24.234  1.00  0.00     0.170 C 
ATOM     11  C   UNL A   1      32.537  23.428  24.431  1.00  0.00     0.041 C 
BRANCH  10  12
ATOM     12  N   UNL A   1      34.775  22.489  23.645  1.00  0.00    -0.327 N 
ATOM     13  C   UNL A   1      35.794  23.177  24.224  1.00  0.00     0.312 C 
ATOM     14  H   UNL A   1      34.937  22.129  22.743  1.00  0.00     0.166 HD
ATOM     15  N   UNL A   1      36.898  23.244  23.446  1.00  0.00    -0.352 N 
ATOM     16  O   UNL A   1      35.762  23.760  25.296  1.00  0.00    -0.249 OA
ATOM     17  H   UNL A   1      36.920  22.773  22.581  1.00  0.00     0.161 HD
ATOM     18  H   UNL A   1      37.680  23.763  23.743  1.00  0.00     0.161 HD
ENDBRANCH  10  12
ENDBRANCH   7  10
ENDBRANCH   5   6
BRANCH   5  19
ATOM     19  C   UNL A   1      32.620  18.404  25.673  1.00  0.00     0.193 C 
BRANCH  19  20
ATOM     20  O   UNL A   1      31.768  17.502  24.958  1.00  0.00    -0.394 OA
ATOM     21  H   UNL A   1      31.176  18.007  24.379  1.00  0.00     0.210 HD
ENDBRANCH  19  20
ENDBRANCH   5  19
ENDBRANCH   3   5
ENDBRANCH   2   3
ENDBRANCH   1   2
BRANCH   1  22
ATOM     22  C   UNL A   1      37.675  19.957  24.757  1.00  0.00     0.275 C 
BRANCH  22  23
ATOM     23  O   UNL A   1      38.074  21.058  25.595  1.00  0.00    -0.458 OA
BRANCH  23  24
ATOM     24  C   UNL A   1      39.311  20.931  26.127  1.00  0.00     0.338 C 
ATOM     25  O   UNL A   1      40.063  19.976  26.018  1.00  0.00    -0.246 OA
BRANCH  24  26
ATOM     26  C   UNL A   1      39.716  22.164  26.815  1.00  0.00     0.060 A 
ATOM     27  C   UNL A   1      39.203  23.372  26.352  1.00  0.00     0.016 A 
ATOM     28  C   UNL A   1      40.783  22.150  27.712  1.00  0.00     0.016 A 
ATOM     29  C   UNL A   1      39.855  24.560  26.672  1.00  0.00     0.010 A 
ATOM     30  C   UNL A   1      41.347  23.364  28.133  1.00  0.00     0.010 A 
ATOM     31  C   UNL A   1      40.925  24.585  27.579  1.00  0.00    -0.014 A 
BRANCH  31  32
ATOM     32  C   UNL A   1      41.599  25.879  27.915  1.00  0.00     0.031 A 
ATOM     33  C   UNL A   1      40.889  26.937  28.727  1.00  0.00     0.074 A 
ATOM     34  C   UNL A   1      42.867  26.106  27.509  1.00  0.00     0.049 A 
ATOM     35  N   UNL A   1      41.226  28.187  28.938  1.00  0.00    -0.248 NA
ATOM     36  C   UNL A   1      39.626  26.547  29.370  1.00  0.00     0.031 C 
ATOM     37  C   UNL A   1      43.705  25.154  26.775  1.00  0.00     0.029 A 
ATOM     38  N   UNL A   1      43.682  27.202  27.662  1.00  0.00    -0.354 N 
ATOM     39  C   UNL A   1      40.194  28.745  29.689  1.00  0.00     0.074 A 
ATOM     40  C   UNL A   1      39.212  27.699  29.883  1.00  0.00     0.031 C 
ATOM     41  C   UNL A   1      44.923  25.681  26.593  1.00  0.00     0.029 A 
ATOM     42  C   UNL A   1      44.918  27.056  27.071  1.00  0.00     0.049 A 
ATOM     43  H   UNL A   1      43.410  28.013  28.149  1.00  0.00     0.167 HD
ATOM     44  C   UNL A   1      40.081  30.012  30.165  1.00  0.00     0.034 A 
ATOM     45  C   UNL A   1      45.915  27.938  26.866  1.00  0.00     0.034 A 
ATOM     46  C   UNL A   1      41.099  31.028  30.005  1.00  0.00     0.049 A 
ATOM     47  C   UNL A   1      45.735  29.356  27.338  1.00  0.00     0.074 A 
ATOM     48  C   UNL A   1      41.092  32.335  30.464  1.00  0.00     0.029 A 
ATOM     49  N   UNL A   1      42.308  30.852  29.343  1.00  0.00    -0.354 N 
ATOM     50  N   UNL A   1      44.720  29.891  27.976  1.00  0.00    -0.248 NA
ATOM     51  C   UNL A   1      46.828  30.291  27.047  1.00  0.00     0.031 C 
ATOM     52  C   UNL A   1      42.255  32.968  30.015  1.00  0.00     0.029 A 
ATOM     53  C   UNL A   1      43.035  32.035  29.352  1.00  0.00     0.049 A 
ATOM     54  H   UNL A   1      42.605  30.011  28.927  1.00  0.00     0.167 HD
ATOM     55  C   UNL A   1      45.065  31.223  28.182  1.00  0.00     0.074 A 
ATOM     56  C   UNL A   1      46.389  31.401  27.623  1.00  0.00     0.031 C 
ATOM     57  C   UNL A   1      44.349  32.209  28.779  1.00  0.00     0.034 A 
BRANCH  44  58
ATOM     58  C   UNL A   1      38.786  30.403  30.849  1.00  0.00     0.023 A 
ATOM     59  C   UNL A   1      37.716  31.000  30.161  1.00  0.00     0.031 A 
ATOM     60  C   UNL A   1      38.622  30.156  32.225  1.00  0.00     0.131 A 
ATOM     61  C   UNL A   1      36.556  31.379  30.860  1.00  0.00     0.055 A 
ATOM     62  C   UNL A   1      37.438  30.463  32.898  1.00  0.00     0.041 A 
ATOM     63  F   UNL A   1      39.615  29.607  32.944  1.00  0.00    -0.206 F 
ATOM     64  C   UNL A   1      36.401  31.089  32.218  1.00  0.00     0.022 A 
BRANCH  61  65
ATOM     65  S   UNL A   1      35.301  32.368  30.002  1.00  0.00     0.124 S 
ATOM     66  O   UNL A   1      34.350  32.637  31.077  1.00  0.00    -0.237 OA
ATOM     67  O   UNL A   1      36.071  33.513  29.528  1.00  0.00    -0.237 OA
ATOM     68  O   UNL A   1      34.811  31.472  28.957  1.00  0.00    -0.744 OA
ENDBRANCH  61  65
ENDBRANCH  44  58
BRANCH  45  69
ATOM     69  C   UNL A   1      47.132  27.533  26.103  1.00  0.00     0.023 A 
ATOM     70  C   UNL A   1      47.276  27.848  24.743  1.00  0.00     0.031 A 
ATOM     71  C   UNL A   1      48.158  26.789  26.718  1.00  0.00     0.131 A 
ATOM     72  C   UNL A   1      48.396  27.386  24.034  1.00  0.00     0.055 A 
ATOM     73  C   UNL A   1      49.304  26.396  26.027  1.00  0.00     0.041 A 
ATOM     74  F   UNL A   1      48.070  26.451  28.015  1.00  0.00    -0.206 F 
ATOM     75  C   UNL A   1      49.421  26.681  24.671  1.00  0.00     0.022 A 
BRANCH  72  76
ATOM     76  S   UNL A   1      48.446  27.628  22.238  1.00  0.00     0.124 S 
ATOM     77  O   UNL A   1      48.676  26.269  21.762  1.00  0.00    -0.237 OA
ATOM     78  O   UNL A   1      47.126  28.187  21.970  1.00  0.00    -0.237 OA
ATOM     79  O   UNL A   1      49.563  28.552  22.050  1.00  0.00    -0.744 OA
ENDBRANCH  72  76
ENDBRANCH  45  69
BRANCH  57  80
ATOM     80  C   UNL A   1      45.017  33.557  28.900  1.00  0.00     0.023 A 
ATOM     81  C   UNL A   1      45.810  33.896  30.011  1.00  0.00     0.031 A 
ATOM     82  C   UNL A   1      44.828  34.531  27.903  1.00  0.00     0.131 A 
ATOM     83  C   UNL A   1      46.329  35.195  30.130  1.00  0.00     0.055 A 
ATOM     84  C   UNL A   1      45.405  35.799  27.994  1.00  0.00     0.041 A 
ATOM     85  F   UNL A   1      44.075  34.266  26.823  1.00  0.00    -0.206 F 
ATOM     86  C   UNL A   1      46.146  36.141  29.119  1.00  0.00     0.022 A 
BRANCH  83  87
ATOM     87  S   UNL A   1      47.153  35.664  31.676  1.00  0.00     0.124 S 
ATOM     88  O   UNL A   1      48.500  35.143  31.471  1.00  0.00    -0.237 OA
ATOM     89  O   UNL A   1      47.024  37.117  31.671  1.00  0.00    -0.237 OA
ATOM     90  O   UNL A   1      46.373  34.977  32.704  1.00  0.00    -0.744 OA
ENDBRANCH  83  87
ENDBRANCH  57  80
ENDBRANCH  31  32
ENDBRANCH  24  26
ENDBRANCH  23  24
ENDBRANCH  22  23
ENDBRANCH   1  22
TORSDOF 19
ENDMDL
