MODEL 1
REMARK VINA RESULT:     -11.7      0.000      0.000
REMARK SMILES COc1ccc([C@H]2C[NH2+]C[C@@H]2C(=O)OCCOC(=O)c2ccc(-c3c4nc(c(-c5cc(S(=O)(=O)[O-])ccc5F)c5ccc([nH]5)c(-c5cc(S(=O)(=O)[O-])ccc5F)c5nc(c(-c6cc(S(=O)(=O)[O-])ccc6F)c6ccc3[nH]6)C=C5)C=C4)cc2)cc1
REMARK SMILES IDX 16 1 15 2 14 3 12 4 13 5 11 6 7 7 8 8 9 9 10 10 6 13 3 14
REMARK SMILES IDX 4 15 84 16 5 17 83 18 2 19 1 20 17 21 18 22 19 23 20 24
REMARK SMILES IDX 21 25 82 26 22 27 81 28 23 29 24 30 25 31 75 32 26 33 80 34
REMARK SMILES IDX 74 35 76 36 27 37 79 38 73 39 72 40 28 42 60 43 40 44 59 45
REMARK SMILES IDX 41 46 44 47 58 48 77 49 42 50 43 51 57 53 78 54 45 55 29 56
REMARK SMILES IDX 30 57 38 58 31 59 37 60 39 61 36 62 32 63 33 64 34 65 35 66
REMARK SMILES IDX 61 67 62 68 70 69 63 70 69 71 71 72 68 73 64 74 65 75 66 76
REMARK SMILES IDX 67 77 46 78 47 79 55 80 48 81 54 82 56 83 53 84 49 85 50 86
REMARK SMILES IDX 51 87 52 88
REMARK H PARENT 9 11 9 12 76 41 44 52
REMARK Flexibility Score: inf
ROOT
ATOM      1  C   UNL A   1      35.677  21.352  25.825  1.00  0.00     0.275 C 
ENDROOT
BRANCH   1   2
ATOM      2  C   UNL A   1      34.848  20.381  24.986  1.00  0.00     0.274 C 
BRANCH   2   3
ATOM      3  O   UNL A   1      33.891  21.097  24.171  1.00  0.00    -0.462 OA
BRANCH   3   4
ATOM      4  C   UNL A   1      32.745  21.461  24.805  1.00  0.00     0.315 C 
ATOM      5  O   UNL A   1      31.937  20.660  25.266  1.00  0.00    -0.252 OA
BRANCH   4   6
ATOM      6  C   UNL A   1      32.479  22.962  24.782  1.00  0.00     0.167 C 
ATOM      7  C   UNL A   1      32.658  23.740  26.099  1.00  0.00     0.094 C 
ATOM      8  C   UNL A   1      31.308  23.457  26.768  1.00  0.00     0.269 C 
ATOM      9  N   UNL A   1      30.319  23.568  25.687  1.00  0.00    -0.345 N 
ATOM     10  C   UNL A   1      30.998  23.178  24.442  1.00  0.00     0.276 C 
ATOM     11  H   UNL A   1      29.983  24.529  25.617  1.00  0.00     0.346 HD
ATOM     12  H   UNL A   1      29.513  22.969  25.867  1.00  0.00     0.346 HD
BRANCH   7  13
ATOM     13  C   UNL A   1      32.831  25.262  25.977  1.00  0.00    -0.038 A 
ATOM     14  C   UNL A   1      32.800  28.033  25.450  1.00  0.00     0.118 A 
ATOM     15  C   UNL A   1      31.852  27.475  26.302  1.00  0.00     0.047 A 
ATOM     16  C   UNL A   1      33.822  27.234  24.944  1.00  0.00     0.047 A 
ATOM     17  C   UNL A   1      31.870  26.103  26.569  1.00  0.00     0.008 A 
ATOM     18  C   UNL A   1      33.838  25.862  25.208  1.00  0.00     0.008 A 
BRANCH  14  19
ATOM     19  O   UNL A   1      32.672  29.367  25.179  1.00  0.00    -0.497 OA
ATOM     20  C   UNL A   1      32.536  30.175  26.348  1.00  0.00     0.278 C 
ENDBRANCH  14  19
ENDBRANCH   7  13
ENDBRANCH   4   6
ENDBRANCH   3   4
ENDBRANCH   2   3
ENDBRANCH   1   2
BRANCH   1  21
ATOM     21  O   UNL A   1      36.804  21.791  25.052  1.00  0.00    -0.458 OA
BRANCH  21  22
ATOM     22  C   UNL A   1      38.018  21.380  25.498  1.00  0.00     0.338 C 
ATOM     23  O   UNL A   1      38.521  20.288  25.295  1.00  0.00    -0.246 OA
BRANCH  22  24
ATOM     24  C   UNL A   1      38.701  22.489  26.218  1.00  0.00     0.060 A 
ATOM     25  C   UNL A   1      38.258  23.806  26.103  1.00  0.00     0.016 A 
ATOM     26  C   UNL A   1      39.881  22.232  26.921  1.00  0.00     0.016 A 
ATOM     27  C   UNL A   1      39.050  24.858  26.567  1.00  0.00     0.010 A 
ATOM     28  C   UNL A   1      40.612  23.290  27.487  1.00  0.00     0.010 A 
ATOM     29  C   UNL A   1      40.231  24.628  27.283  1.00  0.00    -0.014 A 
BRANCH  29  30
ATOM     30  C   UNL A   1      41.083  25.763  27.765  1.00  0.00     0.031 A 
ATOM     31  C   UNL A   1      40.490  26.830  28.658  1.00  0.00     0.074 A 
ATOM     32  C   UNL A   1      42.389  25.863  27.431  1.00  0.00     0.049 A 
ATOM     33  N   UNL A   1      40.929  28.037  28.915  1.00  0.00    -0.248 NA
ATOM     34  C   UNL A   1      39.223  26.501  29.328  1.00  0.00     0.031 C 
ATOM     35  C   UNL A   1      43.149  24.886  26.649  1.00  0.00     0.029 A 
ATOM     36  N   UNL A   1      43.315  26.842  27.711  1.00  0.00    -0.354 N 
ATOM     37  C   UNL A   1      39.947  28.644  29.694  1.00  0.00     0.074 A 
ATOM     38  C   UNL A   1      38.901  27.661  29.887  1.00  0.00     0.031 C 
ATOM     39  C   UNL A   1      44.425  25.286  26.556  1.00  0.00     0.029 A 
ATOM     40  C   UNL A   1      44.551  26.611  27.147  1.00  0.00     0.049 A 
ATOM     41  H   UNL A   1      43.114  27.633  28.262  1.00  0.00     0.167 HD
ATOM     42  C   UNL A   1      39.918  29.910  30.183  1.00  0.00     0.034 A 
ATOM     43  C   UNL A   1      45.642  27.396  27.041  1.00  0.00     0.034 A 
ATOM     44  C   UNL A   1      41.011  30.846  30.063  1.00  0.00     0.049 A 
ATOM     45  C   UNL A   1      45.588  28.800  27.581  1.00  0.00     0.074 A 
ATOM     46  C   UNL A   1      41.087  32.148  30.532  1.00  0.00     0.029 A 
ATOM     47  N   UNL A   1      42.228  30.575  29.455  1.00  0.00    -0.354 N 
ATOM     48  N   UNL A   1      44.598  29.414  28.185  1.00  0.00    -0.248 NA
ATOM     49  C   UNL A   1      46.787  29.627  27.394  1.00  0.00     0.031 C 
ATOM     50  C   UNL A   1      42.332  32.676  30.170  1.00  0.00     0.029 A 
ATOM     51  C   UNL A   1      43.057  31.685  29.529  1.00  0.00     0.049 A 
ATOM     52  H   UNL A   1      42.469  29.719  29.033  1.00  0.00     0.167 HD
ATOM     53  C   UNL A   1      45.058  30.700  28.449  1.00  0.00     0.074 A 
ATOM     54  C   UNL A   1      46.422  30.765  27.967  1.00  0.00     0.031 C 
ATOM     55  C   UNL A   1      44.408  31.740  29.028  1.00  0.00     0.034 A 
BRANCH  42  56
ATOM     56  C   UNL A   1      38.638  30.388  30.824  1.00  0.00     0.023 A 
ATOM     57  C   UNL A   1      37.616  31.024  30.101  1.00  0.00     0.031 A 
ATOM     58  C   UNL A   1      38.443  30.189  32.205  1.00  0.00     0.131 A 
ATOM     59  C   UNL A   1      36.468  31.481  30.770  1.00  0.00     0.055 A 
ATOM     60  C   UNL A   1      37.271  30.584  32.851  1.00  0.00     0.041 A 
ATOM     61  F   UNL A   1      39.394  29.603  32.951  1.00  0.00    -0.206 F 
ATOM     62  C   UNL A   1      36.279  31.244  32.135  1.00  0.00     0.022 A 
BRANCH  59  63
ATOM     63  S   UNL A   1      35.264  32.482  29.854  1.00  0.00     0.124 S 
ATOM     64  O   UNL A   1      34.272  32.771  30.887  1.00  0.00    -0.237 OA
ATOM     65  O   UNL A   1      36.069  33.613  29.407  1.00  0.00    -0.237 OA
ATOM     66  O   UNL A   1      34.807  31.585  28.794  1.00  0.00    -0.744 OA
ENDBRANCH  59  63
ENDBRANCH  42  56
BRANCH  43  67
ATOM     67  C   UNL A   1      46.842  26.918  26.293  1.00  0.00     0.023 A 
ATOM     68  C   UNL A   1      47.922  26.316  26.957  1.00  0.00     0.031 A 
ATOM     69  C   UNL A   1      46.940  27.098  24.900  1.00  0.00     0.131 A 
ATOM     70  C   UNL A   1      49.066  25.942  26.233  1.00  0.00     0.055 A 
ATOM     71  C   UNL A   1      48.053  26.669  24.176  1.00  0.00     0.041 A 
ATOM     72  F   UNL A   1      45.941  27.677  24.217  1.00  0.00    -0.206 F 
ATOM     73  C   UNL A   1      49.130  26.097  24.845  1.00  0.00     0.022 A 
BRANCH  70  74
ATOM     74  S   UNL A   1      50.510  25.329  27.142  1.00  0.00     0.124 S 
ATOM     75  O   UNL A   1      49.941  24.209  27.884  1.00  0.00    -0.237 OA
ATOM     76  O   UNL A   1      51.425  24.983  26.060  1.00  0.00    -0.237 OA
ATOM     77  O   UNL A   1      50.913  26.476  27.954  1.00  0.00    -0.744 OA
ENDBRANCH  70  74
ENDBRANCH  43  67
BRANCH  55  78
ATOM     78  C   UNL A   1      45.188  33.018  29.196  1.00  0.00     0.023 A 
ATOM     79  C   UNL A   1      45.140  34.040  28.233  1.00  0.00     0.031 A 
ATOM     80  C   UNL A   1      46.019  33.196  30.316  1.00  0.00     0.131 A 
ATOM     81  C   UNL A   1      45.950  35.177  28.382  1.00  0.00     0.055 A 
ATOM     82  C   UNL A   1      46.784  34.350  30.483  1.00  0.00     0.041 A 
ATOM     83  F   UNL A   1      46.102  32.247  31.262  1.00  0.00    -0.206 F 
ATOM     84  C   UNL A   1      46.763  35.343  29.507  1.00  0.00     0.022 A 
BRANCH  81  85
ATOM     85  S   UNL A   1      45.992  36.400  27.044  1.00  0.00     0.124 S 
ATOM     86  O   UNL A   1      46.572  35.631  25.947  1.00  0.00    -0.237 OA
ATOM     87  O   UNL A   1      44.584  36.754  26.899  1.00  0.00    -0.237 OA
ATOM     88  O   UNL A   1      46.845  37.461  27.574  1.00  0.00    -0.744 OA
ENDBRANCH  81  85
ENDBRANCH  55  78
ENDBRANCH  29  30
ENDBRANCH  22  24
ENDBRANCH  21  22
ENDBRANCH   1  21
TORSDOF 16
ENDMDL
MODEL 2
REMARK VINA RESULT:     -11.6      1.476      1.835
REMARK SMILES COc1ccc([C@H]2C[NH2+]C[C@@H]2C(=O)OCCOC(=O)c2ccc(-c3c4nc(c(-c5cc(S(=O)(=O)[O-])ccc5F)c5ccc([nH]5)c(-c5cc(S(=O)(=O)[O-])ccc5F)c5nc(c(-c6cc(S(=O)(=O)[O-])ccc6F)c6ccc3[nH]6)C=C5)C=C4)cc2)cc1
REMARK SMILES IDX 16 1 15 2 14 3 12 4 13 5 11 6 7 7 8 8 9 9 10 10 6 13 3 14
REMARK SMILES IDX 4 15 84 16 5 17 83 18 2 19 1 20 17 21 18 22 19 23 20 24
REMARK SMILES IDX 21 25 82 26 22 27 81 28 23 29 24 30 25 31 75 32 26 33 80 34
REMARK SMILES IDX 74 35 76 36 27 37 79 38 73 39 72 40 28 42 60 43 40 44 59 45
REMARK SMILES IDX 41 46 44 47 58 48 77 49 42 50 43 51 57 53 78 54 45 55 29 56
REMARK SMILES IDX 30 57 38 58 31 59 37 60 39 61 36 62 32 63 33 64 34 65 35 66
REMARK SMILES IDX 61 67 62 68 70 69 63 70 69 71 71 72 68 73 64 74 65 75 66 76
REMARK SMILES IDX 67 77 46 78 47 79 55 80 48 81 54 82 56 83 53 84 49 85 50 86
REMARK SMILES IDX 51 87 52 88
REMARK H PARENT 9 11 9 12 76 41 44 52
REMARK Flexibility Score: inf
ROOT
ATOM      1  C   UNL A   1      36.413  21.134  24.940  1.00  0.00     0.275 C 
ENDROOT
BRANCH   1   2
ATOM      2  C   UNL A   1      35.197  21.992  25.283  1.00  0.00     0.274 C 
BRANCH   2   3
ATOM      3  O   UNL A   1      34.166  21.194  25.911  1.00  0.00    -0.462 OA
BRANCH   3   4
ATOM      4  C   UNL A   1      32.894  21.481  25.525  1.00  0.00     0.315 C 
ATOM      5  O   UNL A   1      32.034  20.628  25.328  1.00  0.00    -0.252 OA
BRANCH   4   6
ATOM      6  C   UNL A   1      32.660  22.957  25.228  1.00  0.00     0.167 C 
ATOM      7  C   UNL A   1      32.183  23.852  26.387  1.00  0.00     0.094 C 
ATOM      8  C   UNL A   1      30.681  23.554  26.362  1.00  0.00     0.269 C 
ATOM      9  N   UNL A   1      30.324  23.518  24.937  1.00  0.00    -0.345 N 
ATOM     10  C   UNL A   1      31.517  23.062  24.207  1.00  0.00     0.276 C 
ATOM     11  H   UNL A   1      30.055  24.450  24.620  1.00  0.00     0.346 HD
ATOM     12  H   UNL A   1      29.535  22.892  24.773  1.00  0.00     0.346 HD
BRANCH   7  13
ATOM     13  C   UNL A   1      32.381  25.366  26.209  1.00  0.00    -0.038 A 
ATOM     14  C   UNL A   1      32.997  28.118  26.270  1.00  0.00     0.118 A 
ATOM     15  C   UNL A   1      33.939  27.203  25.807  1.00  0.00     0.047 A 
ATOM     16  C   UNL A   1      31.720  27.678  26.603  1.00  0.00     0.047 A 
ATOM     17  C   UNL A   1      33.632  25.839  25.771  1.00  0.00     0.008 A 
ATOM     18  C   UNL A   1      31.414  26.315  26.570  1.00  0.00     0.008 A 
BRANCH  14  19
ATOM     19  O   UNL A   1      33.397  29.423  26.345  1.00  0.00    -0.497 OA
ATOM     20  C   UNL A   1      32.312  30.347  26.439  1.00  0.00     0.278 C 
ENDBRANCH  14  19
ENDBRANCH   7  13
ENDBRANCH   4   6
ENDBRANCH   3   4
ENDBRANCH   2   3
ENDBRANCH   1   2
BRANCH   1  21
ATOM     21  O   UNL A   1      37.582  21.966  24.923  1.00  0.00    -0.458 OA
BRANCH  21  22
ATOM     22  C   UNL A   1      38.594  21.575  25.738  1.00  0.00     0.338 C 
ATOM     23  O   UNL A   1      39.028  20.440  25.841  1.00  0.00    -0.246 OA
BRANCH  22  24
ATOM     24  C   UNL A   1      39.166  22.752  26.445  1.00  0.00     0.060 A 
ATOM     25  C   UNL A   1      38.714  24.043  26.179  1.00  0.00     0.016 A 
ATOM     26  C   UNL A   1      40.260  22.580  27.298  1.00  0.00     0.016 A 
ATOM     27  C   UNL A   1      39.425  25.149  26.651  1.00  0.00     0.010 A 
ATOM     28  C   UNL A   1      40.898  23.697  27.862  1.00  0.00     0.010 A 
ATOM     29  C   UNL A   1      40.519  25.006  27.514  1.00  0.00    -0.014 A 
BRANCH  29  30
ATOM     30  C   UNL A   1      41.286  26.196  28.004  1.00  0.00     0.031 A 
ATOM     31  C   UNL A   1      40.600  27.243  28.853  1.00  0.00     0.074 A 
ATOM     32  C   UNL A   1      42.595  26.366  27.715  1.00  0.00     0.049 A 
ATOM     33  N   UNL A   1      40.959  28.477  29.102  1.00  0.00    -0.248 NA
ATOM     34  C   UNL A   1      39.330  26.853  29.484  1.00  0.00     0.031 C 
ATOM     35  C   UNL A   1      43.438  25.421  26.981  1.00  0.00     0.029 A 
ATOM     36  N   UNL A   1      43.453  27.402  28.008  1.00  0.00    -0.354 N 
ATOM     37  C   UNL A   1      39.916  29.040  29.834  1.00  0.00     0.074 A 
ATOM     38  C   UNL A   1      38.922  28.001  30.009  1.00  0.00     0.031 C 
ATOM     39  C   UNL A   1      44.692  25.892  26.925  1.00  0.00     0.029 A 
ATOM     40  C   UNL A   1      44.720  27.233  27.494  1.00  0.00     0.049 A 
ATOM     41  H   UNL A   1      43.187  28.189  28.536  1.00  0.00     0.167 HD
ATOM     42  C   UNL A   1      39.797  30.310  30.296  1.00  0.00     0.034 A 
ATOM     43  C   UNL A   1      45.767  28.077  27.412  1.00  0.00     0.034 A 
ATOM     44  C   UNL A   1      40.837  31.307  30.197  1.00  0.00     0.049 A 
ATOM     45  C   UNL A   1      45.613  29.485  27.921  1.00  0.00     0.074 A 
ATOM     46  C   UNL A   1      40.822  32.619  30.642  1.00  0.00     0.029 A 
ATOM     47  N   UNL A   1      42.090  31.095  29.638  1.00  0.00    -0.354 N 
ATOM     48  N   UNL A   1      44.568  30.051  28.477  1.00  0.00    -0.248 NA
ATOM     49  C   UNL A   1      46.769  30.377  27.761  1.00  0.00     0.031 C 
ATOM     50  C   UNL A   1      42.047  33.211  30.316  1.00  0.00     0.029 A 
ATOM     51  C   UNL A   1      42.850  32.253  29.720  1.00  0.00     0.049 A 
ATOM     52  H   UNL A   1      42.395  30.247  29.243  1.00  0.00     0.167 HD
ATOM     53  C   UNL A   1      44.943  31.367  28.732  1.00  0.00     0.074 A 
ATOM     54  C   UNL A   1      46.319  31.501  28.298  1.00  0.00     0.031 C 
ATOM     55  C   UNL A   1      44.214  32.377  29.267  1.00  0.00     0.034 A 
BRANCH  42  56
ATOM     56  C   UNL A   1      38.469  30.725  30.882  1.00  0.00     0.023 A 
ATOM     57  C   UNL A   1      37.464  31.347  30.124  1.00  0.00     0.031 A 
ATOM     58  C   UNL A   1      38.209  30.478  32.244  1.00  0.00     0.131 A 
ATOM     59  C   UNL A   1      36.267  31.744  30.743  1.00  0.00     0.055 A 
ATOM     60  C   UNL A   1      36.992  30.813  32.837  1.00  0.00     0.041 A 
ATOM     61  F   UNL A   1      39.140  29.903  33.022  1.00  0.00    -0.206 F 
ATOM     62  C   UNL A   1      36.015  31.459  32.089  1.00  0.00     0.022 A 
BRANCH  59  63
ATOM     63  S   UNL A   1      35.078  32.731  29.793  1.00  0.00     0.124 S 
ATOM     64  O   UNL A   1      34.556  31.741  28.853  1.00  0.00    -0.237 OA
ATOM     65  O   UNL A   1      34.150  33.185  30.822  1.00  0.00    -0.237 OA
ATOM     66  O   UNL A   1      35.902  33.777  29.191  1.00  0.00    -0.744 OA
ENDBRANCH  59  63
ENDBRANCH  42  56
BRANCH  43  67
ATOM     67  C   UNL A   1      47.020  27.657  26.717  1.00  0.00     0.023 A 
ATOM     68  C   UNL A   1      47.185  27.842  25.336  1.00  0.00     0.031 A 
ATOM     69  C   UNL A   1      48.057  27.022  27.426  1.00  0.00     0.131 A 
ATOM     70  C   UNL A   1      48.346  27.372  24.702  1.00  0.00     0.055 A 
ATOM     71  C   UNL A   1      49.236  26.611  26.802  1.00  0.00     0.041 A 
ATOM     72  F   UNL A   1      47.947  26.809  28.747  1.00  0.00    -0.206 F 
ATOM     73  C   UNL A   1      49.379  26.775  25.429  1.00  0.00     0.022 A 
BRANCH  70  74
ATOM     74  S   UNL A   1      48.451  27.471  22.895  1.00  0.00     0.124 S 
ATOM     75  O   UNL A   1      49.728  28.150  22.707  1.00  0.00    -0.237 OA
ATOM     76  O   UNL A   1      48.409  26.064  22.511  1.00  0.00    -0.237 OA
ATOM     77  O   UNL A   1      47.270  28.251  22.527  1.00  0.00    -0.744 OA
ENDBRANCH  70  74
ENDBRANCH  43  67
BRANCH  55  78
ATOM     78  C   UNL A   1      44.913  33.700  29.437  1.00  0.00     0.023 A 
ATOM     79  C   UNL A   1      44.809  34.717  28.473  1.00  0.00     0.031 A 
ATOM     80  C   UNL A   1      45.724  33.931  30.562  1.00  0.00     0.131 A 
ATOM     81  C   UNL A   1      45.546  35.901  28.624  1.00  0.00     0.055 A 
ATOM     82  C   UNL A   1      46.416  35.130  30.732  1.00  0.00     0.041 A 
ATOM     83  F   UNL A   1      45.859  32.991  31.511  1.00  0.00    -0.206 F 
ATOM     84  C   UNL A   1      46.340  36.118  29.754  1.00  0.00     0.022 A 
BRANCH  81  85
ATOM     85  S   UNL A   1      45.521  37.123  27.284  1.00  0.00     0.124 S 
ATOM     86  O   UNL A   1      44.109  37.142  26.917  1.00  0.00    -0.237 OA
ATOM     87  O   UNL A   1      46.024  38.323  27.945  1.00  0.00    -0.237 OA
ATOM     88  O   UNL A   1      46.415  36.550  26.280  1.00  0.00    -0.744 OA
ENDBRANCH  81  85
ENDBRANCH  55  78
ENDBRANCH  29  30
ENDBRANCH  22  24
ENDBRANCH  21  22
ENDBRANCH   1  21
TORSDOF 16
ENDMDL
MODEL 3
REMARK VINA RESULT:     -11.5      5.062      9.937
REMARK SMILES COc1ccc([C@H]2C[NH2+]C[C@@H]2C(=O)OCCOC(=O)c2ccc(-c3c4nc(c(-c5cc(S(=O)(=O)[O-])ccc5F)c5ccc([nH]5)c(-c5cc(S(=O)(=O)[O-])ccc5F)c5nc(c(-c6cc(S(=O)(=O)[O-])ccc6F)c6ccc3[nH]6)C=C5)C=C4)cc2)cc1
REMARK SMILES IDX 16 1 15 2 14 3 12 4 13 5 11 6 7 7 8 8 9 9 10 10 6 13 3 14
REMARK SMILES IDX 4 15 84 16 5 17 83 18 2 19 1 20 17 21 18 22 19 23 20 24
REMARK SMILES IDX 21 25 82 26 22 27 81 28 23 29 24 30 25 31 75 32 26 33 80 34
REMARK SMILES IDX 74 35 76 36 27 37 79 38 73 39 72 40 28 42 60 43 40 44 59 45
REMARK SMILES IDX 41 46 44 47 58 48 77 49 42 50 43 51 57 53 78 54 45 55 29 56
REMARK SMILES IDX 30 57 38 58 31 59 37 60 39 61 36 62 32 63 33 64 34 65 35 66
REMARK SMILES IDX 61 67 62 68 70 69 63 70 69 71 71 72 68 73 64 74 65 75 66 76
REMARK SMILES IDX 67 77 46 78 47 79 55 80 48 81 54 82 56 83 53 84 49 85 50 86
REMARK SMILES IDX 51 87 52 88
REMARK H PARENT 9 11 9 12 76 41 44 52
REMARK Flexibility Score: inf
ROOT
ATOM      1  C   UNL A   1      32.674  29.804  25.472  1.00  0.00     0.275 C 
ENDROOT
BRANCH   1   2
ATOM      2  C   UNL A   1      31.815  28.565  25.227  1.00  0.00     0.274 C 
BRANCH   2   3
ATOM      3  O   UNL A   1      30.993  28.736  24.048  1.00  0.00    -0.462 OA
BRANCH   3   4
ATOM      4  C   UNL A   1      31.082  27.738  23.128  1.00  0.00     0.315 C 
ATOM      5  O   UNL A   1      30.603  27.807  22.000  1.00  0.00    -0.252 OA
BRANCH   4   6
ATOM      6  C   UNL A   1      31.718  26.462  23.666  1.00  0.00     0.167 C 
ATOM      7  C   UNL A   1      33.127  26.097  23.160  1.00  0.00     0.094 C 
ATOM      8  C   UNL A   1      32.773  25.424  21.830  1.00  0.00     0.269 C 
ATOM      9  N   UNL A   1      31.590  24.602  22.123  1.00  0.00    -0.345 N 
ATOM     10  C   UNL A   1      30.860  25.273  23.210  1.00  0.00     0.276 C 
ATOM     11  H   UNL A   1      31.877  23.669  22.418  1.00  0.00     0.346 HD
ATOM     12  H   UNL A   1      31.002  24.501  21.296  1.00  0.00     0.346 HD
BRANCH   7  13
ATOM     13  C   UNL A   1      33.924  25.098  24.013  1.00  0.00    -0.038 A 
ATOM     14  C   UNL A   1      35.054  22.963  25.469  1.00  0.00     0.118 A 
ATOM     15  C   UNL A   1      35.205  23.021  24.087  1.00  0.00     0.047 A 
ATOM     16  C   UNL A   1      34.433  24.014  26.136  1.00  0.00     0.047 A 
ATOM     17  C   UNL A   1      34.650  24.082  23.365  1.00  0.00     0.008 A 
ATOM     18  C   UNL A   1      33.876  25.074  25.414  1.00  0.00     0.008 A 
BRANCH  14  19
ATOM     19  O   UNL A   1      35.559  21.858  26.095  1.00  0.00    -0.497 OA
ATOM     20  C   UNL A   1      35.949  20.821  25.194  1.00  0.00     0.278 C 
ENDBRANCH  14  19
ENDBRANCH   7  13
ENDBRANCH   4   6
ENDBRANCH   3   4
ENDBRANCH   2   3
ENDBRANCH   1   2
BRANCH   1  21
ATOM     21  O   UNL A   1      32.750  30.047  26.884  1.00  0.00    -0.458 OA
BRANCH  21  22
ATOM     22  C   UNL A   1      33.387  31.188  27.251  1.00  0.00     0.338 C 
ATOM     23  O   UNL A   1      32.893  32.302  27.282  1.00  0.00    -0.246 OA
BRANCH  22  24
ATOM     24  C   UNL A   1      34.774  30.881  27.692  1.00  0.00     0.060 A 
ATOM     25  C   UNL A   1      35.154  29.582  28.029  1.00  0.00     0.016 A 
ATOM     26  C   UNL A   1      35.680  31.925  27.895  1.00  0.00     0.016 A 
ATOM     27  C   UNL A   1      36.367  29.350  28.680  1.00  0.00     0.010 A 
ATOM     28  C   UNL A   1      36.947  31.664  28.445  1.00  0.00     0.010 A 
ATOM     29  C   UNL A   1      37.298  30.376  28.888  1.00  0.00    -0.014 A 
BRANCH  29  30
ATOM     30  C   UNL A   1      38.591  30.123  29.601  1.00  0.00     0.031 A 
ATOM     31  C   UNL A   1      39.630  29.212  28.986  1.00  0.00     0.074 A 
ATOM     32  C   UNL A   1      38.870  30.696  30.793  1.00  0.00     0.049 A 
ATOM     33  N   UNL A   1      40.642  28.603  29.552  1.00  0.00    -0.248 NA
ATOM     34  C   UNL A   1      39.494  28.931  27.549  1.00  0.00     0.031 C 
ATOM     35  C   UNL A   1      38.025  31.664  31.495  1.00  0.00     0.029 A 
ATOM     36  N   UNL A   1      39.953  30.548  31.629  1.00  0.00    -0.354 N 
ATOM     37  C   UNL A   1      41.203  27.794  28.567  1.00  0.00     0.074 A 
ATOM     38  C   UNL A   1      40.431  28.011  27.361  1.00  0.00     0.031 C 
ATOM     39  C   UNL A   1      38.638  32.057  32.620  1.00  0.00     0.029 A 
ATOM     40  C   UNL A   1      39.853  31.272  32.797  1.00  0.00     0.049 A 
ATOM     41  H   UNL A   1      40.727  29.978  31.414  1.00  0.00     0.167 HD
ATOM     42  C   UNL A   1      42.251  26.939  28.671  1.00  0.00     0.034 A 
ATOM     43  C   UNL A   1      40.599  31.260  33.919  1.00  0.00     0.034 A 
ATOM     44  C   UNL A   1      43.070  26.805  29.853  1.00  0.00     0.049 A 
ATOM     45  C   UNL A   1      41.751  30.298  34.021  1.00  0.00     0.074 A 
ATOM     46  C   UNL A   1      44.161  25.977  30.059  1.00  0.00     0.029 A 
ATOM     47  N   UNL A   1      42.907  27.538  31.020  1.00  0.00    -0.354 N 
ATOM     48  N   UNL A   1      42.181  29.429  33.136  1.00  0.00    -0.248 NA
ATOM     49  C   UNL A   1      42.499  30.291  35.285  1.00  0.00     0.031 C 
ATOM     50  C   UNL A   1      44.630  26.178  31.362  1.00  0.00     0.029 A 
ATOM     51  C   UNL A   1      43.870  27.175  31.950  1.00  0.00     0.049 A 
ATOM     52  H   UNL A   1      42.210  28.218  31.167  1.00  0.00     0.167 HD
ATOM     53  C   UNL A   1      43.249  28.773  33.740  1.00  0.00     0.074 A 
ATOM     54  C   UNL A   1      43.418  29.366  35.050  1.00  0.00     0.031 C 
ATOM     55  C   UNL A   1      44.015  27.763  33.259  1.00  0.00     0.034 A 
BRANCH  42  56
ATOM     56  C   UNL A   1      42.529  26.020  27.506  1.00  0.00     0.023 A 
ATOM     57  C   UNL A   1      42.029  24.709  27.435  1.00  0.00     0.031 A 
ATOM     58  C   UNL A   1      43.316  26.484  26.435  1.00  0.00     0.131 A 
ATOM     59  C   UNL A   1      42.361  23.895  26.339  1.00  0.00     0.055 A 
ATOM     60  C   UNL A   1      43.586  25.693  25.318  1.00  0.00     0.041 A 
ATOM     61  F   UNL A   1      43.837  27.722  26.457  1.00  0.00    -0.206 F 
ATOM     62  C   UNL A   1      43.116  24.386  25.270  1.00  0.00     0.022 A 
BRANCH  59  63
ATOM     63  S   UNL A   1      41.879  22.146  26.374  1.00  0.00     0.124 S 
ATOM     64  O   UNL A   1      40.435  22.233  26.167  1.00  0.00    -0.237 OA
ATOM     65  O   UNL A   1      42.649  21.584  25.271  1.00  0.00    -0.237 OA
ATOM     66  O   UNL A   1      42.285  21.704  27.707  1.00  0.00    -0.744 OA
ENDBRANCH  59  63
ENDBRANCH  42  56
BRANCH  43  67
ATOM     67  C   UNL A   1      40.212  32.103  35.089  1.00  0.00     0.023 A 
ATOM     68  C   UNL A   1      39.286  31.649  36.041  1.00  0.00     0.031 A 
ATOM     69  C   UNL A   1      40.737  33.399  35.247  1.00  0.00     0.131 A 
ATOM     70  C   UNL A   1      38.891  32.494  37.090  1.00  0.00     0.055 A 
ATOM     71  C   UNL A   1      40.388  34.213  36.325  1.00  0.00     0.041 A 
ATOM     72  F   UNL A   1      41.619  33.888  34.360  1.00  0.00    -0.206 F 
ATOM     73  C   UNL A   1      39.450  33.764  37.249  1.00  0.00     0.022 A 
BRANCH  70  74
ATOM     74  S   UNL A   1      37.566  31.943  38.200  1.00  0.00     0.124 S 
ATOM     75  O   UNL A   1      38.175  32.137  39.510  1.00  0.00    -0.237 OA
ATOM     76  O   UNL A   1      36.482  32.856  37.854  1.00  0.00    -0.237 OA
ATOM     77  O   UNL A   1      37.353  30.550  37.810  1.00  0.00    -0.744 OA
ENDBRANCH  70  74
ENDBRANCH  43  67
BRANCH  55  78
ATOM     78  C   UNL A   1      45.123  27.270  34.153  1.00  0.00     0.023 A 
ATOM     79  C   UNL A   1      44.937  26.183  35.024  1.00  0.00     0.031 A 
ATOM     80  C   UNL A   1      46.370  27.920  34.158  1.00  0.00     0.131 A 
ATOM     81  C   UNL A   1      45.964  25.810  35.905  1.00  0.00     0.055 A 
ATOM     82  C   UNL A   1      47.404  27.514  35.001  1.00  0.00     0.041 A 
ATOM     83  F   UNL A   1      46.597  28.965  33.346  1.00  0.00    -0.206 F 
ATOM     84  C   UNL A   1      47.201  26.462  35.889  1.00  0.00     0.022 A 
BRANCH  81  85
ATOM     85  S   UNL A   1      45.635  24.515  37.131  1.00  0.00     0.124 S 
ATOM     86  O   UNL A   1      44.833  25.228  38.119  1.00  0.00    -0.237 OA
ATOM     87  O   UNL A   1      44.930  23.510  36.343  1.00  0.00    -0.237 OA
ATOM     88  O   UNL A   1      46.968  24.123  37.582  1.00  0.00    -0.744 OA
ENDBRANCH  81  85
ENDBRANCH  55  78
ENDBRANCH  29  30
ENDBRANCH  22  24
ENDBRANCH  21  22
ENDBRANCH   1  21
TORSDOF 16
ENDMDL
