MODEL 1
REMARK VINA RESULT:      -9.1      0.000      0.000
REMARK SMILES [NH3+][C@H](CSCc1ccco1)C(=O)OCCOC(=O)c1ccc(-c2c3nc(c(-c4cc(S(=O)(=O)[O-])ccc4F)c4ccc([nH]4)c(-c4cc(S(=O)(=O)[O-])ccc4F)c4nc(c(-c5cc(S(=O)(=O)[O-])ccc5F)c5ccc2[nH]5)C=C4)C=C3)cc1
REMARK SMILES IDX 14 1 13 2 11 3 12 4 2 5 1 6 3 10 4 11 5 12 6 13 7 14 10 15
REMARK SMILES IDX 8 16 9 17 15 18 16 19 17 20 18 21 19 22 20 23 81 24 21 25
REMARK SMILES IDX 80 26 22 27 23 28 24 29 74 30 25 31 79 32 73 33 75 34 26 35
REMARK SMILES IDX 78 36 72 37 71 38 27 40 59 41 39 42 58 43 40 44 43 45 57 46
REMARK SMILES IDX 76 47 41 48 42 49 56 51 77 52 44 53 28 54 29 55 37 56 30 57
REMARK SMILES IDX 36 58 38 59 35 60 31 61 32 62 33 63 34 64 60 65 61 66 69 67
REMARK SMILES IDX 62 68 68 69 70 70 67 71 63 72 64 73 65 74 66 75 45 76 46 77
REMARK SMILES IDX 54 78 47 79 53 80 55 81 52 82 48 83 49 84 50 85 51 86
REMARK H PARENT 1 7 1 8 1 9 75 39 43 50
REMARK Flexibility Score: inf
ROOT
ATOM      1  C   UNL A   1      33.504  34.747  28.731  1.00  0.00     0.274 C 
ENDROOT
BRANCH   1   2
ATOM      2  O   UNL A   1      33.135  34.694  30.124  1.00  0.00    -0.458 OA
BRANCH   2   3
ATOM      3  C   UNL A   1      32.982  35.889  30.756  1.00  0.00     0.365 C 
ATOM      4  O   UNL A   1      32.505  36.884  30.218  1.00  0.00    -0.245 OA
BRANCH   3   5
ATOM      5  C   UNL A   1      33.458  35.870  32.225  1.00  0.00     0.301 C 
BRANCH   5   6
ATOM      6  N   UNL A   1      34.412  36.980  32.476  1.00  0.00    -0.345 N 
ATOM      7  H   UNL A   1      33.989  37.653  33.116  1.00  0.00     0.345 HD
ATOM      8  H   UNL A   1      34.635  37.443  31.594  1.00  0.00     0.345 HD
ATOM      9  H   UNL A   1      35.266  36.607  32.890  1.00  0.00     0.345 HD
ENDBRANCH   5   6
BRANCH   5  10
ATOM     10  C   UNL A   1      33.865  34.489  32.789  1.00  0.00     0.147 C 
BRANCH  10  11
ATOM     11  S   UNL A   1      35.157  34.493  34.098  1.00  0.00    -0.147 SA
BRANCH  11  12
ATOM     12  C   UNL A   1      36.295  33.240  33.447  1.00  0.00     0.145 C 
BRANCH  12  13
ATOM     13  C   UNL A   1      36.973  33.575  32.168  1.00  0.00     0.113 A 
ATOM     14  C   UNL A   1      36.692  33.230  30.860  1.00  0.00     0.046 A 
ATOM     15  O   UNL A   1      38.065  34.391  32.201  1.00  0.00    -0.468 OA
ATOM     16  C   UNL A   1      37.685  33.843  30.060  1.00  0.00     0.042 A 
ATOM     17  C   UNL A   1      38.503  34.529  30.925  1.00  0.00     0.195 A 
ENDBRANCH  12  13
ENDBRANCH  11  12
ENDBRANCH  10  11
ENDBRANCH   5  10
ENDBRANCH   3   5
ENDBRANCH   2   3
ENDBRANCH   1   2
BRANCH   1  18
ATOM     18  C   UNL A   1      33.335  33.384  28.050  1.00  0.00     0.275 C 
BRANCH  18  19
ATOM     19  O   UNL A   1      34.578  32.663  27.948  1.00  0.00    -0.458 OA
BRANCH  19  20
ATOM     20  C   UNL A   1      34.463  31.316  28.011  1.00  0.00     0.338 C 
ATOM     21  O   UNL A   1      33.485  30.649  27.716  1.00  0.00    -0.246 OA
BRANCH  20  22
ATOM     22  C   UNL A   1      35.759  30.710  28.348  1.00  0.00     0.060 A 
ATOM     23  C   UNL A   1      35.792  29.818  29.420  1.00  0.00     0.016 A 
ATOM     24  C   UNL A   1      36.936  31.076  27.695  1.00  0.00     0.016 A 
ATOM     25  C   UNL A   1      37.000  29.296  29.863  1.00  0.00     0.010 A 
ATOM     26  C   UNL A   1      38.153  30.536  28.130  1.00  0.00     0.010 A 
ATOM     27  C   UNL A   1      38.191  29.649  29.222  1.00  0.00    -0.014 A 
BRANCH  27  28
ATOM     28  C   UNL A   1      39.474  29.101  29.720  1.00  0.00     0.031 A 
ATOM     29  C   UNL A   1      40.186  29.775  30.857  1.00  0.00     0.074 A 
ATOM     30  C   UNL A   1      39.977  27.982  29.164  1.00  0.00     0.049 A 
ATOM     31  N   UNL A   1      41.364  29.519  31.364  1.00  0.00    -0.248 NA
ATOM     32  C   UNL A   1      39.478  30.888  31.505  1.00  0.00     0.031 C 
ATOM     33  C   UNL A   1      39.334  27.211  28.097  1.00  0.00     0.029 A 
ATOM     34  N   UNL A   1      41.141  27.301  29.413  1.00  0.00    -0.354 N 
ATOM     35  C   UNL A   1      41.554  30.454  32.375  1.00  0.00     0.074 A 
ATOM     36  C   UNL A   1      40.372  31.292  32.397  1.00  0.00     0.031 C 
ATOM     37  C   UNL A   1      40.116  26.167  27.781  1.00  0.00     0.029 A 
ATOM     38  C   UNL A   1      41.340  26.230  28.574  1.00  0.00     0.049 A 
ATOM     39  H   UNL A   1      41.773  27.554  30.125  1.00  0.00     0.167 HD
ATOM     40  C   UNL A   1      42.618  30.596  33.202  1.00  0.00     0.034 A 
ATOM     41  C   UNL A   1      42.407  25.422  28.426  1.00  0.00     0.034 A 
ATOM     42  C   UNL A   1      43.779  29.739  33.166  1.00  0.00     0.049 A 
ATOM     43  C   UNL A   1      43.612  25.651  29.301  1.00  0.00     0.074 A 
ATOM     44  C   UNL A   1      44.903  29.774  33.973  1.00  0.00     0.029 A 
ATOM     45  N   UNL A   1      43.970  28.697  32.266  1.00  0.00    -0.354 N 
ATOM     46  N   UNL A   1      43.790  26.552  30.239  1.00  0.00    -0.248 NA
ATOM     47  C   UNL A   1      44.762  24.763  29.092  1.00  0.00     0.031 C 
ATOM     48  C   UNL A   1      45.798  28.797  33.520  1.00  0.00     0.029 A 
ATOM     49  C   UNL A   1      45.207  28.107  32.473  1.00  0.00     0.049 A 
ATOM     50  H   UNL A   1      43.320  28.418  31.582  1.00  0.00     0.167 HD
ATOM     51  C   UNL A   1      45.067  26.328  30.744  1.00  0.00     0.074 A 
ATOM     52  C   UNL A   1      45.607  25.198  30.015  1.00  0.00     0.031 C 
ATOM     53  C   UNL A   1      45.734  26.993  31.721  1.00  0.00     0.034 A 
BRANCH  40  54
ATOM     54  C   UNL A   1      42.603  31.761  34.162  1.00  0.00     0.023 A 
ATOM     55  C   UNL A   1      42.178  31.624  35.495  1.00  0.00     0.031 A 
ATOM     56  C   UNL A   1      42.995  33.037  33.721  1.00  0.00     0.131 A 
ATOM     57  C   UNL A   1      42.099  32.757  36.321  1.00  0.00     0.055 A 
ATOM     58  C   UNL A   1      42.981  34.146  34.568  1.00  0.00     0.041 A 
ATOM     59  F   UNL A   1      43.388  33.230  32.452  1.00  0.00    -0.206 F 
ATOM     60  C   UNL A   1      42.518  34.012  35.874  1.00  0.00     0.022 A 
BRANCH  57  61
ATOM     61  S   UNL A   1      41.320  32.591  37.952  1.00  0.00     0.124 S 
ATOM     62  O   UNL A   1      41.493  33.934  38.500  1.00  0.00    -0.237 OA
ATOM     63  O   UNL A   1      39.956  32.208  37.612  1.00  0.00    -0.237 OA
ATOM     64  O   UNL A   1      42.115  31.553  38.607  1.00  0.00    -0.744 OA
ENDBRANCH  57  61
ENDBRANCH  40  54
BRANCH  41  65
ATOM     65  C   UNL A   1      42.420  24.379  27.361  1.00  0.00     0.023 A 
ATOM     66  C   UNL A   1      41.701  23.182  27.503  1.00  0.00     0.031 A 
ATOM     67  C   UNL A   1      43.187  24.555  26.194  1.00  0.00     0.131 A 
ATOM     68  C   UNL A   1      41.793  22.193  26.511  1.00  0.00     0.055 A 
ATOM     69  C   UNL A   1      43.235  23.590  25.188  1.00  0.00     0.041 A 
ATOM     70  F   UNL A   1      43.896  25.681  26.012  1.00  0.00    -0.206 F 
ATOM     71  C   UNL A   1      42.543  22.394  25.349  1.00  0.00     0.022 A 
BRANCH  68  72
ATOM     72  S   UNL A   1      40.980  20.596  26.796  1.00  0.00     0.124 S 
ATOM     73  O   UNL A   1      41.928  19.666  26.194  1.00  0.00    -0.237 OA
ATOM     74  O   UNL A   1      40.883  20.562  28.251  1.00  0.00    -0.237 OA
ATOM     75  O   UNL A   1      39.707  20.732  26.092  1.00  0.00    -0.744 OA
ENDBRANCH  68  72
ENDBRANCH  41  65
BRANCH  53  76
ATOM     76  C   UNL A   1      47.108  26.484  32.069  1.00  0.00     0.023 A 
ATOM     77  C   UNL A   1      47.306  25.540  33.092  1.00  0.00     0.031 A 
ATOM     78  C   UNL A   1      48.234  26.959  31.374  1.00  0.00     0.131 A 
ATOM     79  C   UNL A   1      48.607  25.134  33.422  1.00  0.00     0.055 A 
ATOM     80  C   UNL A   1      49.521  26.513  31.674  1.00  0.00     0.041 A 
ATOM     81  F   UNL A   1      48.098  27.862  30.390  1.00  0.00    -0.206 F 
ATOM     82  C   UNL A   1      49.715  25.603  32.709  1.00  0.00     0.022 A 
BRANCH  79  83
ATOM     83  S   UNL A   1      48.843  24.031  34.843  1.00  0.00     0.124 S 
ATOM     84  O   UNL A   1      48.967  22.729  34.197  1.00  0.00    -0.237 OA
ATOM     85  O   UNL A   1      50.060  24.559  35.451  1.00  0.00    -0.237 OA
ATOM     86  O   UNL A   1      47.627  24.220  35.631  1.00  0.00    -0.744 OA
ENDBRANCH  79  83
ENDBRANCH  53  76
ENDBRANCH  27  28
ENDBRANCH  20  22
ENDBRANCH  19  20
ENDBRANCH  18  19
ENDBRANCH   1  18
TORSDOF 19
ENDMDL
MODEL 2
REMARK VINA RESULT:      -9.0      1.860      2.151
REMARK SMILES [NH3+][C@H](CSCc1ccco1)C(=O)OCCOC(=O)c1ccc(-c2c3nc(c(-c4cc(S(=O)(=O)[O-])ccc4F)c4ccc([nH]4)c(-c4cc(S(=O)(=O)[O-])ccc4F)c4nc(c(-c5cc(S(=O)(=O)[O-])ccc5F)c5ccc2[nH]5)C=C4)C=C3)cc1
REMARK SMILES IDX 14 1 13 2 11 3 12 4 2 5 1 6 3 10 4 11 5 12 6 13 7 14 10 15
REMARK SMILES IDX 8 16 9 17 15 18 16 19 17 20 18 21 19 22 20 23 81 24 21 25
REMARK SMILES IDX 80 26 22 27 23 28 24 29 74 30 25 31 79 32 73 33 75 34 26 35
REMARK SMILES IDX 78 36 72 37 71 38 27 40 59 41 39 42 58 43 40 44 43 45 57 46
REMARK SMILES IDX 76 47 41 48 42 49 56 51 77 52 44 53 28 54 29 55 37 56 30 57
REMARK SMILES IDX 36 58 38 59 35 60 31 61 32 62 33 63 34 64 60 65 61 66 69 67
REMARK SMILES IDX 62 68 68 69 70 70 67 71 63 72 64 73 65 74 66 75 45 76 46 77
REMARK SMILES IDX 54 78 47 79 53 80 55 81 52 82 48 83 49 84 50 85 51 86
REMARK H PARENT 1 7 1 8 1 9 75 39 43 50
REMARK Flexibility Score: inf
ROOT
ATOM      1  C   UNL A   1      33.719  35.200  28.712  1.00  0.00     0.274 C 
ENDROOT
BRANCH   1   2
ATOM      2  O   UNL A   1      32.592  35.797  29.384  1.00  0.00    -0.458 OA
BRANCH   2   3
ATOM      3  C   UNL A   1      32.841  36.367  30.593  1.00  0.00     0.365 C 
ATOM      4  O   UNL A   1      32.913  37.580  30.768  1.00  0.00    -0.245 OA
BRANCH   3   5
ATOM      5  C   UNL A   1      33.012  35.339  31.733  1.00  0.00     0.301 C 
BRANCH   5   6
ATOM      6  N   UNL A   1      31.821  35.342  32.619  1.00  0.00    -0.345 N 
ATOM      7  H   UNL A   1      30.976  35.414  32.052  1.00  0.00     0.345 HD
ATOM      8  H   UNL A   1      31.873  36.139  33.255  1.00  0.00     0.345 HD
ATOM      9  H   UNL A   1      31.797  34.477  33.158  1.00  0.00     0.345 HD
ENDBRANCH   5   6
BRANCH   5  10
ATOM     10  C   UNL A   1      34.385  35.338  32.445  1.00  0.00     0.147 C 
BRANCH  10  11
ATOM     11  S   UNL A   1      35.488  33.911  32.084  1.00  0.00    -0.147 SA
BRANCH  11  12
ATOM     12  C   UNL A   1      37.091  34.596  32.580  1.00  0.00     0.145 C 
BRANCH  12  13
ATOM     13  C   UNL A   1      38.199  34.438  31.602  1.00  0.00     0.113 A 
ATOM     14  C   UNL A   1      38.198  34.195  30.242  1.00  0.00     0.046 A 
ATOM     15  O   UNL A   1      39.483  34.570  32.042  1.00  0.00    -0.468 OA
ATOM     16  C   UNL A   1      39.554  34.145  29.841  1.00  0.00     0.042 A 
ATOM     17  C   UNL A   1      40.297  34.368  30.976  1.00  0.00     0.195 A 
ENDBRANCH  12  13
ENDBRANCH  11  12
ENDBRANCH  10  11
ENDBRANCH   5  10
ENDBRANCH   3   5
ENDBRANCH   2   3
ENDBRANCH   1   2
BRANCH   1  18
ATOM     18  C   UNL A   1      33.436  33.745  28.318  1.00  0.00     0.275 C 
BRANCH  18  19
ATOM     19  O   UNL A   1      34.641  33.011  28.028  1.00  0.00    -0.458 OA
BRANCH  19  20
ATOM     20  C   UNL A   1      34.499  31.665  28.011  1.00  0.00     0.338 C 
ATOM     21  O   UNL A   1      33.530  31.035  27.622  1.00  0.00    -0.246 OA
BRANCH  20  22
ATOM     22  C   UNL A   1      35.761  31.016  28.392  1.00  0.00     0.060 A 
ATOM     23  C   UNL A   1      35.687  29.923  29.256  1.00  0.00     0.016 A 
ATOM     24  C   UNL A   1      37.000  31.519  27.993  1.00  0.00     0.016 A 
ATOM     25  C   UNL A   1      36.845  29.333  29.746  1.00  0.00     0.010 A 
ATOM     26  C   UNL A   1      38.168  30.913  28.472  1.00  0.00     0.010 A 
ATOM     27  C   UNL A   1      38.096  29.822  29.358  1.00  0.00    -0.014 A 
BRANCH  27  28
ATOM     28  C   UNL A   1      39.322  29.196  29.905  1.00  0.00     0.031 A 
ATOM     29  C   UNL A   1      39.966  29.761  31.138  1.00  0.00     0.074 A 
ATOM     30  C   UNL A   1      39.833  28.104  29.305  1.00  0.00     0.049 A 
ATOM     31  N   UNL A   1      41.094  29.429  31.708  1.00  0.00    -0.248 NA
ATOM     32  C   UNL A   1      39.243  30.847  31.815  1.00  0.00     0.031 C 
ATOM     33  C   UNL A   1      39.250  27.434  28.140  1.00  0.00     0.029 A 
ATOM     34  N   UNL A   1      40.955  27.368  29.586  1.00  0.00    -0.354 N 
ATOM     35  C   UNL A   1      41.235  30.282  32.797  1.00  0.00     0.074 A 
ATOM     36  C   UNL A   1      40.078  31.155  32.797  1.00  0.00     0.031 C 
ATOM     37  C   UNL A   1      40.023  26.390  27.803  1.00  0.00     0.029 A 
ATOM     38  C   UNL A   1      41.186  26.354  28.685  1.00  0.00     0.049 A 
ATOM     39  H   UNL A   1      41.540  27.547  30.358  1.00  0.00     0.167 HD
ATOM     40  C   UNL A   1      42.238  30.328  33.708  1.00  0.00     0.034 A 
ATOM     41  C   UNL A   1      42.238  25.523  28.555  1.00  0.00     0.034 A 
ATOM     42  C   UNL A   1      43.374  29.437  33.692  1.00  0.00     0.049 A 
ATOM     43  C   UNL A   1      43.381  25.647  29.530  1.00  0.00     0.074 A 
ATOM     44  C   UNL A   1      44.434  29.375  34.578  1.00  0.00     0.029 A 
ATOM     45  N   UNL A   1      43.601  28.457  32.732  1.00  0.00    -0.354 N 
ATOM     46  N   UNL A   1      43.513  26.472  30.544  1.00  0.00    -0.248 NA
ATOM     47  C   UNL A   1      44.517  24.739  29.339  1.00  0.00     0.031 C 
ATOM     48  C   UNL A   1      45.333  28.404  34.120  1.00  0.00     0.029 A 
ATOM     49  C   UNL A   1      44.803  27.812  32.985  1.00  0.00     0.049 A 
ATOM     50  H   UNL A   1      42.997  28.250  31.984  1.00  0.00     0.167 HD
ATOM     51  C   UNL A   1      44.742  26.169  31.121  1.00  0.00     0.074 A 
ATOM     52  C   UNL A   1      45.303  25.077  30.351  1.00  0.00     0.031 C 
ATOM     53  C   UNL A   1      45.352  26.739  32.191  1.00  0.00     0.034 A 
BRANCH  40  54
ATOM     54  C   UNL A   1      42.183  31.419  34.748  1.00  0.00     0.023 A 
ATOM     55  C   UNL A   1      42.662  32.717  34.496  1.00  0.00     0.031 A 
ATOM     56  C   UNL A   1      41.666  31.143  36.026  1.00  0.00     0.131 A 
ATOM     57  C   UNL A   1      42.668  33.671  35.527  1.00  0.00     0.055 A 
ATOM     58  C   UNL A   1      41.611  32.116  37.026  1.00  0.00     0.041 A 
ATOM     59  F   UNL A   1      41.215  29.916  36.330  1.00  0.00    -0.206 F 
ATOM     60  C   UNL A   1      42.127  33.386  36.783  1.00  0.00     0.022 A 
BRANCH  57  61
ATOM     61  S   UNL A   1      43.512  35.252  35.243  1.00  0.00     0.124 S 
ATOM     62  O   UNL A   1      42.825  35.744  34.051  1.00  0.00    -0.237 OA
ATOM     63  O   UNL A   1      43.249  35.976  36.480  1.00  0.00    -0.237 OA
ATOM     64  O   UNL A   1      44.906  34.863  35.032  1.00  0.00    -0.744 OA
ENDBRANCH  57  61
ENDBRANCH  40  54
BRANCH  41  65
ATOM     65  C   UNL A   1      42.301  24.561  27.419  1.00  0.00     0.023 A 
ATOM     66  C   UNL A   1      41.576  23.360  27.439  1.00  0.00     0.031 A 
ATOM     67  C   UNL A   1      43.123  24.818  26.306  1.00  0.00     0.131 A 
ATOM     68  C   UNL A   1      41.715  22.445  26.383  1.00  0.00     0.055 A 
ATOM     69  C   UNL A   1      43.218  23.929  25.236  1.00  0.00     0.041 A 
ATOM     70  F   UNL A   1      43.839  25.952  26.239  1.00  0.00    -0.206 F 
ATOM     71  C   UNL A   1      42.519  22.727  25.276  1.00  0.00     0.022 A 
BRANCH  68  72
ATOM     72  S   UNL A   1      40.888  20.835  26.513  1.00  0.00     0.124 S 
ATOM     73  O   UNL A   1      41.801  19.970  25.773  1.00  0.00    -0.237 OA
ATOM     74  O   UNL A   1      40.843  20.634  27.957  1.00  0.00    -0.237 OA
ATOM     75  O   UNL A   1      39.593  21.064  25.877  1.00  0.00    -0.744 OA
ENDBRANCH  68  72
ENDBRANCH  41  65
BRANCH  53  76
ATOM     76  C   UNL A   1      46.682  26.160  32.599  1.00  0.00     0.023 A 
ATOM     77  C   UNL A   1      47.880  26.566  31.987  1.00  0.00     0.031 A 
ATOM     78  C   UNL A   1      46.746  25.181  33.606  1.00  0.00     0.131 A 
ATOM     79  C   UNL A   1      49.090  25.961  32.356  1.00  0.00     0.055 A 
ATOM     80  C   UNL A   1      47.960  24.619  34.004  1.00  0.00     0.041 A 
ATOM     81  F   UNL A   1      45.630  24.758  34.220  1.00  0.00    -0.206 F 
ATOM     82  C   UNL A   1      49.140  25.002  33.372  1.00  0.00     0.022 A 
BRANCH  79  83
ATOM     83  S   UNL A   1      50.597  26.397  31.446  1.00  0.00     0.124 S 
ATOM     84  O   UNL A   1      50.089  27.336  30.451  1.00  0.00    -0.237 OA
ATOM     85  O   UNL A   1      51.440  26.970  32.490  1.00  0.00    -0.237 OA
ATOM     86  O   UNL A   1      51.059  25.117  30.912  1.00  0.00    -0.744 OA
ENDBRANCH  79  83
ENDBRANCH  53  76
ENDBRANCH  27  28
ENDBRANCH  20  22
ENDBRANCH  19  20
ENDBRANCH  18  19
ENDBRANCH   1  18
TORSDOF 19
ENDMDL
MODEL 3
REMARK VINA RESULT:      -8.9      5.507      9.342
REMARK SMILES [NH3+][C@H](CSCc1ccco1)C(=O)OCCOC(=O)c1ccc(-c2c3nc(c(-c4cc(S(=O)(=O)[O-])ccc4F)c4ccc([nH]4)c(-c4cc(S(=O)(=O)[O-])ccc4F)c4nc(c(-c5cc(S(=O)(=O)[O-])ccc5F)c5ccc2[nH]5)C=C4)C=C3)cc1
REMARK SMILES IDX 14 1 13 2 11 3 12 4 2 5 1 6 3 10 4 11 5 12 6 13 7 14 10 15
REMARK SMILES IDX 8 16 9 17 15 18 16 19 17 20 18 21 19 22 20 23 81 24 21 25
REMARK SMILES IDX 80 26 22 27 23 28 24 29 74 30 25 31 79 32 73 33 75 34 26 35
REMARK SMILES IDX 78 36 72 37 71 38 27 40 59 41 39 42 58 43 40 44 43 45 57 46
REMARK SMILES IDX 76 47 41 48 42 49 56 51 77 52 44 53 28 54 29 55 37 56 30 57
REMARK SMILES IDX 36 58 38 59 35 60 31 61 32 62 33 63 34 64 60 65 61 66 69 67
REMARK SMILES IDX 62 68 68 69 70 70 67 71 63 72 64 73 65 74 66 75 45 76 46 77
REMARK SMILES IDX 54 78 47 79 53 80 55 81 52 82 48 83 49 84 50 85 51 86
REMARK H PARENT 1 7 1 8 1 9 75 39 43 50
REMARK Flexibility Score: inf
ROOT
ATOM      1  C   UNL A   1      34.990  20.678  25.087  1.00  0.00     0.274 C 
ENDROOT
BRANCH   1   2
ATOM      2  O   UNL A   1      34.586  22.004  25.484  1.00  0.00    -0.458 OA
BRANCH   2   3
ATOM      3  C   UNL A   1      33.902  22.103  26.656  1.00  0.00     0.365 C 
ATOM      4  O   UNL A   1      34.154  21.423  27.647  1.00  0.00    -0.245 OA
BRANCH   3   5
ATOM      5  C   UNL A   1      32.781  23.165  26.623  1.00  0.00     0.301 C 
BRANCH   5   6
ATOM      6  N   UNL A   1      31.448  22.513  26.640  1.00  0.00    -0.345 N 
ATOM      7  H   UNL A   1      31.564  21.500  26.611  1.00  0.00     0.345 HD
ATOM      8  H   UNL A   1      30.911  22.817  25.826  1.00  0.00     0.345 HD
ATOM      9  H   UNL A   1      30.952  22.775  27.491  1.00  0.00     0.345 HD
ENDBRANCH   5   6
BRANCH   5  10
ATOM     10  C   UNL A   1      32.962  24.310  25.600  1.00  0.00     0.147 C 
BRANCH  10  11
ATOM     11  S   UNL A   1      32.288  25.951  26.089  1.00  0.00    -0.147 SA
BRANCH  11  12
ATOM     12  C   UNL A   1      32.782  26.952  24.660  1.00  0.00     0.145 C 
BRANCH  12  13
ATOM     13  C   UNL A   1      31.728  27.820  24.075  1.00  0.00     0.113 A 
ATOM     14  C   UNL A   1      31.103  28.956  24.551  1.00  0.00     0.046 A 
ATOM     15  O   UNL A   1      31.255  27.526  22.830  1.00  0.00    -0.468 OA
ATOM     16  C   UNL A   1      30.179  29.355  23.556  1.00  0.00     0.042 A 
ATOM     17  C   UNL A   1      30.302  28.445  22.534  1.00  0.00     0.195 A 
ENDBRANCH  12  13
ENDBRANCH  11  12
ENDBRANCH  10  11
ENDBRANCH   5  10
ENDBRANCH   3   5
ENDBRANCH   2   3
ENDBRANCH   1   2
BRANCH   1  18
ATOM     18  C   UNL A   1      36.512  20.577  24.923  1.00  0.00     0.275 C 
BRANCH  18  19
ATOM     19  O   UNL A   1      37.217  21.508  25.766  1.00  0.00    -0.458 OA
BRANCH  19  20
ATOM     20  C   UNL A   1      38.529  21.229  25.953  1.00  0.00     0.338 C 
ATOM     21  O   UNL A   1      39.116  20.215  25.617  1.00  0.00    -0.246 OA
BRANCH  20  22
ATOM     22  C   UNL A   1      39.226  22.403  26.497  1.00  0.00     0.060 A 
ATOM     23  C   UNL A   1      38.760  23.661  26.116  1.00  0.00     0.016 A 
ATOM     24  C   UNL A   1      40.370  22.281  27.287  1.00  0.00     0.016 A 
ATOM     25  C   UNL A   1      39.440  24.809  26.501  1.00  0.00     0.010 A 
ATOM     26  C   UNL A   1      41.045  23.439  27.691  1.00  0.00     0.010 A 
ATOM     27  C   UNL A   1      40.588  24.709  27.293  1.00  0.00    -0.014 A 
BRANCH  27  28
ATOM     28  C   UNL A   1      41.313  25.942  27.679  1.00  0.00     0.031 A 
ATOM     29  C   UNL A   1      40.615  27.000  28.483  1.00  0.00     0.074 A 
ATOM     30  C   UNL A   1      42.605  26.089  27.328  1.00  0.00     0.049 A 
ATOM     31  N   UNL A   1      41.036  28.189  28.827  1.00  0.00    -0.248 NA
ATOM     32  C   UNL A   1      39.263  26.676  28.959  1.00  0.00     0.031 C 
ATOM     33  C   UNL A   1      43.397  25.093  26.603  1.00  0.00     0.029 A 
ATOM     34  N   UNL A   1      43.477  27.127  27.529  1.00  0.00    -0.354 N 
ATOM     35  C   UNL A   1      39.991  28.770  29.538  1.00  0.00     0.074 A 
ATOM     36  C   UNL A   1      38.913  27.803  29.562  1.00  0.00     0.031 C 
ATOM     37  C   UNL A   1      44.637  25.573  26.415  1.00  0.00     0.029 A 
ATOM     38  C   UNL A   1      44.708  26.930  26.948  1.00  0.00     0.049 A 
ATOM     39  H   UNL A   1      43.245  27.936  28.041  1.00  0.00     0.167 HD
ATOM     40  C   UNL A   1      39.944  29.998  30.112  1.00  0.00     0.034 A 
ATOM     41  C   UNL A   1      45.756  27.765  26.816  1.00  0.00     0.034 A 
ATOM     42  C   UNL A   1      41.039  30.938  30.083  1.00  0.00     0.049 A 
ATOM     43  C   UNL A   1      45.649  29.154  27.392  1.00  0.00     0.074 A 
ATOM     44  C   UNL A   1      41.111  32.196  30.653  1.00  0.00     0.029 A 
ATOM     45  N   UNL A   1      42.252  30.724  29.438  1.00  0.00    -0.354 N 
ATOM     46  N   UNL A   1      44.649  29.701  28.043  1.00  0.00    -0.248 NA
ATOM     47  C   UNL A   1      46.804  30.039  27.206  1.00  0.00     0.031 C 
ATOM     48  C   UNL A   1      42.339  32.768  30.300  1.00  0.00     0.029 A 
ATOM     49  C   UNL A   1      43.063  31.842  29.565  1.00  0.00     0.049 A 
ATOM     50  H   UNL A   1      42.499  29.900  28.962  1.00  0.00     0.167 HD
ATOM     51  C   UNL A   1      45.062  30.991  28.360  1.00  0.00     0.074 A 
ATOM     52  C   UNL A   1      46.408  31.134  27.840  1.00  0.00     0.031 C 
ATOM     53  C   UNL A   1      44.393  31.970  29.021  1.00  0.00     0.034 A 
BRANCH  40  54
ATOM     54  C   UNL A   1      38.644  30.414  30.755  1.00  0.00     0.023 A 
ATOM     55  C   UNL A   1      37.627  31.063  30.033  1.00  0.00     0.031 A 
ATOM     56  C   UNL A   1      38.433  30.178  32.125  1.00  0.00     0.131 A 
ATOM     57  C   UNL A   1      36.473  31.508  30.699  1.00  0.00     0.055 A 
ATOM     58  C   UNL A   1      37.253  30.561  32.766  1.00  0.00     0.041 A 
ATOM     59  F   UNL A   1      39.378  29.582  32.869  1.00  0.00    -0.206 F 
ATOM     60  C   UNL A   1      36.270  31.242  32.055  1.00  0.00     0.022 A 
BRANCH  57  61
ATOM     61  S   UNL A   1      35.297  32.553  29.795  1.00  0.00     0.124 S 
ATOM     62  O   UNL A   1      34.312  32.856  30.832  1.00  0.00    -0.237 OA
ATOM     63  O   UNL A   1      36.132  33.665  29.360  1.00  0.00    -0.237 OA
ATOM     64  O   UNL A   1      34.815  31.679  28.726  1.00  0.00    -0.744 OA
ENDBRANCH  57  61
ENDBRANCH  40  54
BRANCH  41  65
ATOM     65  C   UNL A   1      46.960  27.346  26.045  1.00  0.00     0.023 A 
ATOM     66  C   UNL A   1      47.146  27.738  24.710  1.00  0.00     0.031 A 
ATOM     67  C   UNL A   1      47.931  26.511  26.629  1.00  0.00     0.131 A 
ATOM     68  C   UNL A   1      48.257  27.266  23.994  1.00  0.00     0.055 A 
ATOM     69  C   UNL A   1      49.060  26.086  25.928  1.00  0.00     0.041 A 
ATOM     70  F   UNL A   1      47.799  26.105  27.903  1.00  0.00    -0.206 F 
ATOM     71  C   UNL A   1      49.222  26.455  24.597  1.00  0.00     0.022 A 
BRANCH  68  72
ATOM     72  S   UNL A   1      48.386  27.662  22.228  1.00  0.00     0.124 S 
ATOM     73  O   UNL A   1      49.621  28.436  22.185  1.00  0.00    -0.237 OA
ATOM     74  O   UNL A   1      48.437  26.336  21.623  1.00  0.00    -0.237 OA
ATOM     75  O   UNL A   1      47.165  28.420  21.959  1.00  0.00    -0.744 OA
ENDBRANCH  68  72
ENDBRANCH  41  65
BRANCH  53  76
ATOM     76  C   UNL A   1      45.132  33.264  29.240  1.00  0.00     0.023 A 
ATOM     77  C   UNL A   1      45.056  34.319  28.314  1.00  0.00     0.031 A 
ATOM     78  C   UNL A   1      45.930  33.437  30.385  1.00  0.00     0.131 A 
ATOM     79  C   UNL A   1      45.804  35.487  28.527  1.00  0.00     0.055 A 
ATOM     80  C   UNL A   1      46.631  34.621  30.616  1.00  0.00     0.041 A 
ATOM     81  F   UNL A   1      46.036  32.459  31.297  1.00  0.00    -0.206 F 
ATOM     82  C   UNL A   1      46.578  35.651  29.679  1.00  0.00     0.022 A 
BRANCH  79  83
ATOM     83  S   UNL A   1      45.804  36.769  27.244  1.00  0.00     0.124 S 
ATOM     84  O   UNL A   1      46.535  36.115  26.164  1.00  0.00    -0.237 OA
ATOM     85  O   UNL A   1      44.379  36.982  27.012  1.00  0.00    -0.237 OA
ATOM     86  O   UNL A   1      46.501  37.888  27.876  1.00  0.00    -0.744 OA
ENDBRANCH  79  83
ENDBRANCH  53  76
ENDBRANCH  27  28
ENDBRANCH  20  22
ENDBRANCH  19  20
ENDBRANCH  18  19
ENDBRANCH   1  18
TORSDOF 19
ENDMDL
