MODEL 1
REMARK VINA RESULT:     -11.6      0.000      0.000
REMARK SMILES O=C(N[C@@H](Cc1ccc(O)cc1)C(=O)N[C@@H](CO)C(=O)OCCOC(=O)c1ccc(-c2c3nc(c(-c4cc(S(=O)(=O)[O-])ccc4F)c4ccc([nH]4)c(-c4cc(S(=O)(=O)[O-])ccc4F)c4nc(c(-c5cc(S(=O)(=O)[O-])ccc5F)c5ccc2[nH]5)C=C4)C=C3)cc1)c1ccc(F)cc1
REMARK SMILES IDX 22 1 21 2 19 3 20 4 16 5 15 6 13 7 14 8 4 10 3 11 1 12 2 13
REMARK SMILES IDX 90 15 91 16 96 17 92 18 95 19 93 20 94 21 5 22 6 23 7 24
REMARK SMILES IDX 12 25 8 26 11 27 9 28 10 29 17 31 18 32 23 34 24 35 25 36
REMARK SMILES IDX 26 37 27 38 28 39 89 40 29 41 88 42 30 43 31 44 32 45 82 46
REMARK SMILES IDX 33 47 87 48 81 49 83 50 34 51 86 52 80 53 79 54 35 56 67 57
REMARK SMILES IDX 47 58 66 59 48 60 51 61 65 62 84 63 49 64 50 65 64 67 85 68
REMARK SMILES IDX 52 69 36 70 37 71 45 72 38 73 44 74 46 75 43 76 39 77 40 78
REMARK SMILES IDX 41 79 42 80 68 81 69 82 77 83 70 84 76 85 78 86 75 87 71 88
REMARK SMILES IDX 72 89 73 90 74 91 53 92 54 93 62 94 55 95 61 96 63 97 60 98
REMARK SMILES IDX 56 99 57 100 58 101 59 102
REMARK H PARENT 15 9 3 14 10 30 18 33 83 55 51 66
REMARK Flexibility Score: inf
ROOT
ATOM      1  C   UNL A   1      34.609  21.844  23.913  1.00  0.00     0.274 C 
ENDROOT
BRANCH   1   2
ATOM      2  O   UNL A   1      33.324  22.104  24.550  1.00  0.00    -0.460 OA
BRANCH   2   3
ATOM      3  C   UNL A   1      32.963  23.430  24.730  1.00  0.00     0.331 C 
ATOM      4  O   UNL A   1      33.751  24.362  24.603  1.00  0.00    -0.250 OA
BRANCH   3   5
ATOM      5  C   UNL A   1      31.410  23.597  24.875  1.00  0.00     0.218 C 
BRANCH   5   6
ATOM      6  N   UNL A   1      31.060  24.620  25.858  1.00  0.00    -0.339 N 
ATOM      7  C   UNL A   1      30.685  25.918  25.753  1.00  0.00     0.243 C 
ATOM      8  O   UNL A   1      30.318  26.421  26.826  1.00  0.00    -0.273 OA
ATOM      9  H   UNL A   1      31.107  24.300  26.788  1.00  0.00     0.164 HD
BRANCH   7  10
ATOM     10  C   UNL A   1      30.794  26.825  24.491  1.00  0.00     0.176 C 
BRANCH  10  11
ATOM     11  N   UNL A   1      32.118  26.811  23.880  1.00  0.00    -0.340 N 
ATOM     12  O   UNL A   1      34.098  27.691  23.298  1.00  0.00    -0.269 OA
ATOM     13  C   UNL A   1      33.162  27.688  24.093  1.00  0.00     0.251 C 
ATOM     14  H   UNL A   1      32.289  26.087  23.237  1.00  0.00     0.164 HD
BRANCH  13  15
ATOM     15  C   UNL A   1      33.180  28.637  25.243  1.00  0.00     0.040 A 
ATOM     16  C   UNL A   1      34.165  28.570  26.240  1.00  0.00     0.017 A 
ATOM     17  C   UNL A   1      32.240  29.679  25.270  1.00  0.00     0.017 A 
ATOM     18  C   UNL A   1      34.177  29.506  27.279  1.00  0.00     0.040 A 
ATOM     19  C   UNL A   1      32.267  30.624  26.301  1.00  0.00     0.040 A 
ATOM     20  C   UNL A   1      33.234  30.529  27.295  1.00  0.00     0.123 A 
ATOM     21  F   UNL A   1      33.285  31.453  28.260  1.00  0.00    -0.207 F 
ENDBRANCH  13  15
ENDBRANCH  10  11
BRANCH  10  22
ATOM     22  C   UNL A   1      29.668  26.937  23.454  1.00  0.00     0.070 C 
BRANCH  22  23
ATOM     23  C   UNL A   1      29.156  28.271  22.966  1.00  0.00    -0.045 A 
ATOM     24  C   UNL A   1      27.840  28.609  23.275  1.00  0.00     0.007 A 
ATOM     25  C   UNL A   1      29.957  29.273  22.418  1.00  0.00     0.007 A 
ATOM     26  C   UNL A   1      27.303  29.879  23.075  1.00  0.00     0.046 A 
ATOM     27  C   UNL A   1      29.435  30.567  22.223  1.00  0.00     0.046 A 
ATOM     28  C   UNL A   1      28.116  30.860  22.554  1.00  0.00     0.115 A 
BRANCH  28  29
ATOM     29  O   UNL A   1      27.650  32.130  22.398  1.00  0.00    -0.508 OA
ATOM     30  H   UNL A   1      28.231  32.812  22.127  1.00  0.00     0.293 HD
ENDBRANCH  28  29
ENDBRANCH  22  23
ENDBRANCH  10  22
ENDBRANCH   7  10
ENDBRANCH   5   6
BRANCH   5  31
ATOM     31  C   UNL A   1      30.706  23.790  23.533  1.00  0.00     0.193 C 
BRANCH  31  32
ATOM     32  O   UNL A   1      31.622  24.002  22.466  1.00  0.00    -0.394 OA
ATOM     33  H   UNL A   1      32.529  23.960  22.807  1.00  0.00     0.210 HD
ENDBRANCH  31  32
ENDBRANCH   5  31
ENDBRANCH   3   5
ENDBRANCH   2   3
ENDBRANCH   1   2
BRANCH   1  34
ATOM     34  C   UNL A   1      35.717  21.405  24.924  1.00  0.00     0.275 C 
BRANCH  34  35
ATOM     35  O   UNL A   1      37.018  22.018  24.691  1.00  0.00    -0.458 OA
BRANCH  35  36
ATOM     36  C   UNL A   1      38.072  21.521  25.429  1.00  0.00     0.338 C 
ATOM     37  O   UNL A   1      38.432  20.356  25.408  1.00  0.00    -0.246 OA
BRANCH  36  38
ATOM     38  C   UNL A   1      38.800  22.585  26.222  1.00  0.00     0.060 A 
ATOM     39  C   UNL A   1      38.415  23.909  26.122  1.00  0.00     0.016 A 
ATOM     40  C   UNL A   1      39.931  22.336  27.002  1.00  0.00     0.016 A 
ATOM     41  C   UNL A   1      39.183  24.979  26.581  1.00  0.00     0.010 A 
ATOM     42  C   UNL A   1      40.657  23.410  27.590  1.00  0.00     0.010 A 
ATOM     43  C   UNL A   1      40.317  24.758  27.343  1.00  0.00    -0.014 A 
BRANCH  43  44
ATOM     44  C   UNL A   1      41.175  25.925  27.743  1.00  0.00     0.031 A 
ATOM     45  C   UNL A   1      40.598  26.962  28.672  1.00  0.00     0.074 A 
ATOM     46  C   UNL A   1      42.492  26.016  27.442  1.00  0.00     0.049 A 
ATOM     47  N   UNL A   1      41.021  28.167  28.953  1.00  0.00    -0.248 NA
ATOM     48  C   UNL A   1      39.385  26.566  29.403  1.00  0.00     0.031 C 
ATOM     49  C   UNL A   1      43.290  24.991  26.766  1.00  0.00     0.029 A 
ATOM     50  N   UNL A   1      43.406  27.020  27.691  1.00  0.00    -0.354 N 
ATOM     51  C   UNL A   1      40.085  28.703  29.833  1.00  0.00     0.074 A 
ATOM     52  C   UNL A   1      39.091  27.675  30.063  1.00  0.00     0.031 C 
ATOM     53  C   UNL A   1      44.567  25.400  26.688  1.00  0.00     0.029 A 
ATOM     54  C   UNL A   1      44.659  26.774  27.164  1.00  0.00     0.049 A 
ATOM     55  H   UNL A   1      43.187  27.834  28.198  1.00  0.00     0.167 HD
ATOM     56  C   UNL A   1      40.049  29.948  30.370  1.00  0.00     0.034 A 
ATOM     57  C   UNL A   1      45.728  27.585  26.997  1.00  0.00     0.034 A 
ATOM     58  C   UNL A   1      41.072  30.941  30.142  1.00  0.00     0.049 A 
ATOM     59  C   UNL A   1      45.605  29.027  27.433  1.00  0.00     0.074 A 
ATOM     60  C   UNL A   1      41.098  32.269  30.528  1.00  0.00     0.029 A 
ATOM     61  N   UNL A   1      42.267  30.702  29.471  1.00  0.00    -0.354 N 
ATOM     62  N   UNL A   1      44.620  29.615  28.074  1.00  0.00    -0.248 NA
ATOM     63  C   UNL A   1      46.718  29.924  27.092  1.00  0.00     0.031 C 
ATOM     64  C   UNL A   1      42.271  32.850  30.029  1.00  0.00     0.029 A 
ATOM     65  C   UNL A   1      43.020  31.864  29.406  1.00  0.00     0.049 A 
ATOM     66  H   UNL A   1      42.538  29.834  29.097  1.00  0.00     0.167 HD
ATOM     67  C   UNL A   1      45.003  30.945  28.226  1.00  0.00     0.074 A 
ATOM     68  C   UNL A   1      46.317  31.069  27.630  1.00  0.00     0.031 C 
ATOM     69  C   UNL A   1      44.329  31.973  28.805  1.00  0.00     0.034 A 
BRANCH  56  70
ATOM     70  C   UNL A   1      38.794  30.336  31.119  1.00  0.00     0.023 A 
ATOM     71  C   UNL A   1      37.776  31.118  30.546  1.00  0.00     0.031 A 
ATOM     72  C   UNL A   1      38.666  29.983  32.476  1.00  0.00     0.131 A 
ATOM     73  C   UNL A   1      36.726  31.593  31.350  1.00  0.00     0.055 A 
ATOM     74  C   UNL A   1      37.573  30.384  33.246  1.00  0.00     0.041 A 
ATOM     75  F   UNL A   1      39.619  29.263  33.087  1.00  0.00    -0.206 F 
ATOM     76  C   UNL A   1      36.604  31.211  32.689  1.00  0.00     0.022 A 
BRANCH  73  77
ATOM     77  S   UNL A   1      35.619  32.864  30.676  1.00  0.00     0.124 S 
ATOM     78  O   UNL A   1      35.799  32.676  29.239  1.00  0.00    -0.237 OA
ATOM     79  O   UNL A   1      34.326  32.471  31.222  1.00  0.00    -0.237 OA
ATOM     80  O   UNL A   1      36.167  34.112  31.206  1.00  0.00    -0.744 OA
ENDBRANCH  73  77
ENDBRANCH  56  70
BRANCH  57  81
ATOM     81  C   UNL A   1      46.948  27.118  26.256  1.00  0.00     0.023 A 
ATOM     82  C   UNL A   1      48.064  26.580  26.923  1.00  0.00     0.031 A 
ATOM     83  C   UNL A   1      47.047  27.281  24.860  1.00  0.00     0.131 A 
ATOM     84  C   UNL A   1      49.228  26.259  26.202  1.00  0.00     0.055 A 
ATOM     85  C   UNL A   1      48.180  26.897  24.140  1.00  0.00     0.041 A 
ATOM     86  F   UNL A   1      46.033  27.821  24.164  1.00  0.00    -0.206 F 
ATOM     87  C   UNL A   1      49.285  26.395  24.813  1.00  0.00     0.022 A 
BRANCH  84  88
ATOM     88  S   UNL A   1      50.717  25.755  27.112  1.00  0.00     0.124 S 
ATOM     89  O   UNL A   1      50.399  24.376  27.460  1.00  0.00    -0.237 OA
ATOM     90  O   UNL A   1      51.761  25.942  26.111  1.00  0.00    -0.237 OA
ATOM     91  O   UNL A   1      50.762  26.687  28.238  1.00  0.00    -0.744 OA
ENDBRANCH  84  88
ENDBRANCH  57  81
BRANCH  69  92
ATOM     92  C   UNL A   1      45.033  33.306  28.870  1.00  0.00     0.023 A 
ATOM     93  C   UNL A   1      45.842  33.669  29.960  1.00  0.00     0.031 A 
ATOM     94  C   UNL A   1      44.888  34.228  27.818  1.00  0.00     0.131 A 
ATOM     95  C   UNL A   1      46.434  34.941  29.998  1.00  0.00     0.055 A 
ATOM     96  C   UNL A   1      45.529  35.467  27.832  1.00  0.00     0.041 A 
ATOM     97  F   UNL A   1      44.124  33.936  26.753  1.00  0.00    -0.206 F 
ATOM     98  C   UNL A   1      46.298  35.834  28.932  1.00  0.00     0.022 A 
BRANCH  95  99
ATOM     99  S   UNL A   1      47.317  35.450  31.499  1.00  0.00     0.124 S 
ATOM    100  O   UNL A   1      46.276  36.160  32.236  1.00  0.00    -0.237 OA
ATOM    101  O   UNL A   1      47.738  34.172  32.063  1.00  0.00    -0.237 OA
ATOM    102  O   UNL A   1      48.401  36.290  30.993  1.00  0.00    -0.744 OA
ENDBRANCH  95  99
ENDBRANCH  69  92
ENDBRANCH  43  44
ENDBRANCH  36  38
ENDBRANCH  35  36
ENDBRANCH  34  35
ENDBRANCH   1  34
TORSDOF 23
ENDMDL
MODEL 2
REMARK VINA RESULT:     -11.5      4.832      9.723
REMARK SMILES O=C(N[C@@H](Cc1ccc(O)cc1)C(=O)N[C@@H](CO)C(=O)OCCOC(=O)c1ccc(-c2c3nc(c(-c4cc(S(=O)(=O)[O-])ccc4F)c4ccc([nH]4)c(-c4cc(S(=O)(=O)[O-])ccc4F)c4nc(c(-c5cc(S(=O)(=O)[O-])ccc5F)c5ccc2[nH]5)C=C4)C=C3)cc1)c1ccc(F)cc1
REMARK SMILES IDX 22 1 21 2 19 3 20 4 16 5 15 6 13 7 14 8 4 10 3 11 1 12 2 13
REMARK SMILES IDX 90 15 91 16 96 17 92 18 95 19 93 20 94 21 5 22 6 23 7 24
REMARK SMILES IDX 12 25 8 26 11 27 9 28 10 29 17 31 18 32 23 34 24 35 25 36
REMARK SMILES IDX 26 37 27 38 28 39 89 40 29 41 88 42 30 43 31 44 32 45 82 46
REMARK SMILES IDX 33 47 87 48 81 49 83 50 34 51 86 52 80 53 79 54 35 56 67 57
REMARK SMILES IDX 47 58 66 59 48 60 51 61 65 62 84 63 49 64 50 65 64 67 85 68
REMARK SMILES IDX 52 69 36 70 37 71 45 72 38 73 44 74 46 75 43 76 39 77 40 78
REMARK SMILES IDX 41 79 42 80 68 81 69 82 77 83 70 84 76 85 78 86 75 87 71 88
REMARK SMILES IDX 72 89 73 90 74 91 53 92 54 93 62 94 55 95 61 96 63 97 60 98
REMARK SMILES IDX 56 99 57 100 58 101 59 102
REMARK H PARENT 15 9 3 14 10 30 18 33 83 55 51 66
REMARK Flexibility Score: inf
ROOT
ATOM      1  C   UNL A   1      31.858  28.069  25.500  1.00  0.00     0.274 C 
ENDROOT
BRANCH   1   2
ATOM      2  O   UNL A   1      31.348  28.473  24.196  1.00  0.00    -0.460 OA
BRANCH   2   3
ATOM      3  C   UNL A   1      31.467  27.561  23.159  1.00  0.00     0.331 C 
ATOM      4  O   UNL A   1      30.502  27.041  22.609  1.00  0.00    -0.250 OA
BRANCH   3   5
ATOM      5  C   UNL A   1      32.943  27.465  22.636  1.00  0.00     0.218 C 
BRANCH   5   6
ATOM      6  N   UNL A   1      33.030  26.723  21.378  1.00  0.00    -0.339 N 
ATOM      7  C   UNL A   1      33.106  25.403  21.083  1.00  0.00     0.243 C 
ATOM      8  O   UNL A   1      33.010  25.156  19.871  1.00  0.00    -0.273 OA
ATOM      9  H   UNL A   1      33.036  27.304  20.583  1.00  0.00     0.164 HD
BRANCH   7  10
ATOM     10  C   UNL A   1      33.421  24.239  22.070  1.00  0.00     0.176 C 
BRANCH  10  11
ATOM     11  N   UNL A   1      32.831  22.966  21.671  1.00  0.00    -0.340 N 
ATOM     12  O   UNL A   1      31.904  20.954  22.027  1.00  0.00    -0.269 OA
ATOM     13  C   UNL A   1      32.084  22.098  22.439  1.00  0.00     0.251 C 
ATOM     14  H   UNL A   1      32.985  22.693  20.739  1.00  0.00     0.164 HD
BRANCH  13  15
ATOM     15  C   UNL A   1      31.505  22.497  23.753  1.00  0.00     0.040 A 
ATOM     16  C   UNL A   1      31.567  21.656  24.875  1.00  0.00     0.017 A 
ATOM     17  C   UNL A   1      30.970  23.788  23.887  1.00  0.00     0.017 A 
ATOM     18  C   UNL A   1      31.054  22.085  26.103  1.00  0.00     0.040 A 
ATOM     19  C   UNL A   1      30.474  24.220  25.123  1.00  0.00     0.040 A 
ATOM     20  C   UNL A   1      30.521  23.364  26.218  1.00  0.00     0.123 A 
ATOM     21  F   UNL A   1      30.082  23.788  27.408  1.00  0.00    -0.207 F 
ENDBRANCH  13  15
ENDBRANCH  10  11
BRANCH  10  22
ATOM     22  C   UNL A   1      34.792  24.070  22.738  1.00  0.00     0.070 C 
BRANCH  22  23
ATOM     23  C   UNL A   1      34.949  23.437  24.100  1.00  0.00    -0.045 A 
ATOM     24  C   UNL A   1      34.490  24.156  25.202  1.00  0.00     0.007 A 
ATOM     25  C   UNL A   1      35.319  22.110  24.317  1.00  0.00     0.007 A 
ATOM     26  C   UNL A   1      34.378  23.617  26.481  1.00  0.00     0.046 A 
ATOM     27  C   UNL A   1      35.198  21.544  25.601  1.00  0.00     0.046 A 
ATOM     28  C   UNL A   1      34.727  22.299  26.670  1.00  0.00     0.115 A 
BRANCH  28  29
ATOM     29  O   UNL A   1      34.577  21.715  27.891  1.00  0.00    -0.508 OA
ATOM     30  H   UNL A   1      35.159  21.032  28.159  1.00  0.00     0.293 HD
ENDBRANCH  28  29
ENDBRANCH  22  23
ENDBRANCH  10  22
ENDBRANCH   7  10
ENDBRANCH   5   6
BRANCH   5  31
ATOM     31  C   UNL A   1      33.642  28.823  22.579  1.00  0.00     0.193 C 
BRANCH  31  32
ATOM     32  O   UNL A   1      34.499  29.038  23.692  1.00  0.00    -0.394 OA
ATOM     33  H   UNL A   1      34.784  29.965  23.705  1.00  0.00     0.210 HD
ENDBRANCH  31  32
ENDBRANCH   5  31
ENDBRANCH   3   5
ENDBRANCH   2   3
ENDBRANCH   1   2
BRANCH   1  34
ATOM     34  C   UNL A   1      31.395  29.010  26.658  1.00  0.00     0.275 C 
BRANCH  34  35
ATOM     35  O   UNL A   1      32.470  29.456  27.535  1.00  0.00    -0.458 OA
BRANCH  35  36
ATOM     36  C   UNL A   1      33.221  30.525  27.091  1.00  0.00     0.338 C 
ATOM     37  O   UNL A   1      32.764  31.473  26.476  1.00  0.00    -0.246 OA
BRANCH  36  38
ATOM     38  C   UNL A   1      34.674  30.449  27.511  1.00  0.00     0.060 A 
ATOM     39  C   UNL A   1      35.300  29.222  27.619  1.00  0.00     0.016 A 
ATOM     40  C   UNL A   1      35.428  31.556  27.903  1.00  0.00     0.016 A 
ATOM     41  C   UNL A   1      36.526  29.027  28.256  1.00  0.00     0.010 A 
ATOM     42  C   UNL A   1      36.737  31.389  28.437  1.00  0.00     0.010 A 
ATOM     43  C   UNL A   1      37.286  30.108  28.668  1.00  0.00    -0.014 A 
BRANCH  43  44
ATOM     44  C   UNL A   1      38.555  29.867  29.435  1.00  0.00     0.031 A 
ATOM     45  C   UNL A   1      39.609  28.978  28.827  1.00  0.00     0.074 A 
ATOM     46  C   UNL A   1      38.872  30.529  30.572  1.00  0.00     0.049 A 
ATOM     47  N   UNL A   1      40.651  28.411  29.379  1.00  0.00    -0.248 NA
ATOM     48  C   UNL A   1      39.478  28.719  27.386  1.00  0.00     0.031 C 
ATOM     49  C   UNL A   1      38.094  31.610  31.181  1.00  0.00     0.029 A 
ATOM     50  N   UNL A   1      39.959  30.405  31.414  1.00  0.00    -0.354 N 
ATOM     51  C   UNL A   1      41.255  27.664  28.371  1.00  0.00     0.074 A 
ATOM     52  C   UNL A   1      40.479  27.880  27.168  1.00  0.00     0.031 C 
ATOM     53  C   UNL A   1      38.739  32.068  32.267  1.00  0.00     0.029 A 
ATOM     54  C   UNL A   1      39.897  31.221  32.527  1.00  0.00     0.049 A 
ATOM     55  H   UNL A   1      40.710  29.794  31.238  1.00  0.00     0.167 HD
ATOM     56  C   UNL A   1      42.338  26.851  28.459  1.00  0.00     0.034 A 
ATOM     57  C   UNL A   1      40.625  31.230  33.666  1.00  0.00     0.034 A 
ATOM     58  C   UNL A   1      43.106  26.679  29.670  1.00  0.00     0.049 A 
ATOM     59  C   UNL A   1      41.711  30.190  33.826  1.00  0.00     0.074 A 
ATOM     60  C   UNL A   1      44.146  25.803  29.924  1.00  0.00     0.029 A 
ATOM     61  N   UNL A   1      42.919  27.417  30.834  1.00  0.00    -0.354 N 
ATOM     62  N   UNL A   1      42.149  29.312  32.952  1.00  0.00    -0.248 NA
ATOM     63  C   UNL A   1      42.375  30.115  35.134  1.00  0.00     0.031 C 
ATOM     64  C   UNL A   1      44.537  25.960  31.259  1.00  0.00     0.029 A 
ATOM     65  C   UNL A   1      43.802  26.995  31.815  1.00  0.00     0.049 A 
ATOM     66  H   UNL A   1      42.256  28.135  30.945  1.00  0.00     0.167 HD
ATOM     67  C   UNL A   1      43.150  28.593  33.601  1.00  0.00     0.074 A 
ATOM     68  C   UNL A   1      43.266  29.154  34.931  1.00  0.00     0.031 C 
ATOM     69  C   UNL A   1      43.905  27.562  33.140  1.00  0.00     0.034 A 
BRANCH  56  70
ATOM     70  C   UNL A   1      42.642  25.984  27.258  1.00  0.00     0.023 A 
ATOM     71  C   UNL A   1      42.194  24.658  27.142  1.00  0.00     0.031 A 
ATOM     72  C   UNL A   1      43.486  26.483  26.247  1.00  0.00     0.131 A 
ATOM     73  C   UNL A   1      42.662  23.853  26.090  1.00  0.00     0.055 A 
ATOM     74  C   UNL A   1      43.876  25.704  25.157  1.00  0.00     0.041 A 
ATOM     75  F   UNL A   1      43.972  27.732  26.317  1.00  0.00    -0.206 F 
ATOM     76  C   UNL A   1      43.480  24.373  25.084  1.00  0.00     0.022 A 
BRANCH  73  77
ATOM     77  S   UNL A   1      42.340  22.067  26.149  1.00  0.00     0.124 S 
ATOM     78  O   UNL A   1      43.284  21.566  25.153  1.00  0.00    -0.237 OA
ATOM     79  O   UNL A   1      42.636  21.743  27.539  1.00  0.00    -0.237 OA
ATOM     80  O   UNL A   1      40.932  21.960  25.769  1.00  0.00    -0.744 OA
ENDBRANCH  73  77
ENDBRANCH  56  70
BRANCH  57  81
ATOM     81  C   UNL A   1      40.268  32.135  34.809  1.00  0.00     0.023 A 
ATOM     82  C   UNL A   1      39.400  31.728  35.839  1.00  0.00     0.031 A 
ATOM     83  C   UNL A   1      40.731  33.465  34.844  1.00  0.00     0.131 A 
ATOM     84  C   UNL A   1      39.004  32.644  36.830  1.00  0.00     0.055 A 
ATOM     85  C   UNL A   1      40.390  34.351  35.868  1.00  0.00     0.041 A 
ATOM     86  F   UNL A   1      41.535  33.932  33.873  1.00  0.00    -0.206 F 
ATOM     87  C   UNL A   1      39.510  33.946  36.862  1.00  0.00     0.022 A 
BRANCH  84  88
ATOM     88  S   UNL A   1      37.732  32.150  38.029  1.00  0.00     0.124 S 
ATOM     89  O   UNL A   1      37.418  30.797  37.587  1.00  0.00    -0.237 OA
ATOM     90  O   UNL A   1      38.448  32.265  39.294  1.00  0.00    -0.237 OA
ATOM     91  O   UNL A   1      36.670  33.134  37.825  1.00  0.00    -0.744 OA
ENDBRANCH  84  88
ENDBRANCH  57  81
BRANCH  69  92
ATOM     92  C   UNL A   1      44.962  27.016  34.067  1.00  0.00     0.023 A 
ATOM     93  C   UNL A   1      44.711  25.933  34.927  1.00  0.00     0.031 A 
ATOM     94  C   UNL A   1      46.245  27.593  34.087  1.00  0.00     0.131 A 
ATOM     95  C   UNL A   1      45.712  25.493  35.807  1.00  0.00     0.055 A 
ATOM     96  C   UNL A   1      47.255  27.112  34.921  1.00  0.00     0.041 A 
ATOM     97  F   UNL A   1      46.538  28.632  33.289  1.00  0.00    -0.206 F 
ATOM     98  C   UNL A   1      46.987  26.064  35.796  1.00  0.00     0.022 A 
BRANCH  95  99
ATOM     99  S   UNL A   1      45.301  24.221  37.033  1.00  0.00     0.124 S 
ATOM    100  O   UNL A   1      44.273  24.886  37.827  1.00  0.00    -0.237 OA
ATOM    101  O   UNL A   1      44.844  23.116  36.196  1.00  0.00    -0.237 OA
ATOM    102  O   UNL A   1      46.567  23.989  37.726  1.00  0.00    -0.744 OA
ENDBRANCH  95  99
ENDBRANCH  69  92
ENDBRANCH  43  44
ENDBRANCH  36  38
ENDBRANCH  35  36
ENDBRANCH  34  35
ENDBRANCH   1  34
TORSDOF 23
ENDMDL
MODEL 3
REMARK VINA RESULT:     -11.5      4.718      9.794
REMARK SMILES O=C(N[C@@H](Cc1ccc(O)cc1)C(=O)N[C@@H](CO)C(=O)OCCOC(=O)c1ccc(-c2c3nc(c(-c4cc(S(=O)(=O)[O-])ccc4F)c4ccc([nH]4)c(-c4cc(S(=O)(=O)[O-])ccc4F)c4nc(c(-c5cc(S(=O)(=O)[O-])ccc5F)c5ccc2[nH]5)C=C4)C=C3)cc1)c1ccc(F)cc1
REMARK SMILES IDX 22 1 21 2 19 3 20 4 16 5 15 6 13 7 14 8 4 10 3 11 1 12 2 13
REMARK SMILES IDX 90 15 91 16 96 17 92 18 95 19 93 20 94 21 5 22 6 23 7 24
REMARK SMILES IDX 12 25 8 26 11 27 9 28 10 29 17 31 18 32 23 34 24 35 25 36
REMARK SMILES IDX 26 37 27 38 28 39 89 40 29 41 88 42 30 43 31 44 32 45 82 46
REMARK SMILES IDX 33 47 87 48 81 49 83 50 34 51 86 52 80 53 79 54 35 56 67 57
REMARK SMILES IDX 47 58 66 59 48 60 51 61 65 62 84 63 49 64 50 65 64 67 85 68
REMARK SMILES IDX 52 69 36 70 37 71 45 72 38 73 44 74 46 75 43 76 39 77 40 78
REMARK SMILES IDX 41 79 42 80 68 81 69 82 77 83 70 84 76 85 78 86 75 87 71 88
REMARK SMILES IDX 72 89 73 90 74 91 53 92 54 93 62 94 55 95 61 96 63 97 60 98
REMARK SMILES IDX 56 99 57 100 58 101 59 102
REMARK H PARENT 15 9 3 14 10 30 18 33 83 55 51 66
REMARK Flexibility Score: inf
ROOT
ATOM      1  C   UNL A   1      31.883  28.145  25.308  1.00  0.00     0.274 C 
ENDROOT
BRANCH   1   2
ATOM      2  O   UNL A   1      31.520  28.737  24.027  1.00  0.00    -0.460 OA
BRANCH   2   3
ATOM      3  C   UNL A   1      31.615  27.929  22.905  1.00  0.00     0.331 C 
ATOM      4  O   UNL A   1      30.676  27.723  22.145  1.00  0.00    -0.250 OA
BRANCH   3   5
ATOM      5  C   UNL A   1      33.100  27.517  22.610  1.00  0.00     0.218 C 
BRANCH   5   6
ATOM      6  N   UNL A   1      33.183  26.443  21.622  1.00  0.00    -0.339 N 
ATOM      7  C   UNL A   1      32.968  25.107  21.682  1.00  0.00     0.243 C 
ATOM      8  O   UNL A   1      32.994  24.545  20.576  1.00  0.00    -0.273 OA
ATOM      9  H   UNL A   1      33.453  26.756  20.728  1.00  0.00     0.164 HD
BRANCH   7  10
ATOM     10  C   UNL A   1      32.829  24.238  22.968  1.00  0.00     0.176 C 
BRANCH  10  11
ATOM     11  N   UNL A   1      33.129  24.968  24.195  1.00  0.00    -0.340 N 
ATOM     12  O   UNL A   1      33.941  25.204  26.273  1.00  0.00    -0.269 OA
ATOM     13  C   UNL A   1      34.017  24.623  25.193  1.00  0.00     0.251 C 
ATOM     14  H   UNL A   1      32.637  25.809  24.328  1.00  0.00     0.164 HD
BRANCH  13  15
ATOM     15  C   UNL A   1      35.049  23.565  25.007  1.00  0.00     0.040 A 
ATOM     16  C   UNL A   1      35.220  22.527  25.937  1.00  0.00     0.017 A 
ATOM     17  C   UNL A   1      35.800  23.559  23.821  1.00  0.00     0.017 A 
ATOM     18  C   UNL A   1      36.168  21.526  25.704  1.00  0.00     0.040 A 
ATOM     19  C   UNL A   1      36.734  22.545  23.584  1.00  0.00     0.040 A 
ATOM     20  C   UNL A   1      36.910  21.538  24.528  1.00  0.00     0.123 A 
ATOM     21  F   UNL A   1      37.774  20.548  24.286  1.00  0.00    -0.207 F 
ENDBRANCH  13  15
ENDBRANCH  10  11
BRANCH  10  22
ATOM     22  C   UNL A   1      31.704  23.210  23.153  1.00  0.00     0.070 C 
BRANCH  22  23
ATOM     23  C   UNL A   1      31.904  21.935  23.938  1.00  0.00    -0.045 A 
ATOM     24  C   UNL A   1      32.445  20.842  23.264  1.00  0.00     0.007 A 
ATOM     25  C   UNL A   1      31.789  21.833  25.323  1.00  0.00     0.007 A 
ATOM     26  C   UNL A   1      32.875  19.680  23.901  1.00  0.00     0.046 A 
ATOM     27  C   UNL A   1      32.233  20.672  25.986  1.00  0.00     0.046 A 
ATOM     28  C   UNL A   1      32.773  19.608  25.271  1.00  0.00     0.115 A 
BRANCH  28  29
ATOM     29  O   UNL A   1      33.237  18.516  25.940  1.00  0.00    -0.508 OA
ATOM     30  H   UNL A   1      32.827  18.245  26.737  1.00  0.00     0.293 HD
ENDBRANCH  28  29
ENDBRANCH  22  23
ENDBRANCH  10  22
ENDBRANCH   7  10
ENDBRANCH   5   6
BRANCH   5  31
ATOM     31  C   UNL A   1      33.991  28.712  22.273  1.00  0.00     0.193 C 
BRANCH  31  32
ATOM     32  O   UNL A   1      34.137  29.606  23.368  1.00  0.00    -0.394 OA
ATOM     33  H   UNL A   1      34.561  30.423  23.063  1.00  0.00     0.210 HD
ENDBRANCH  31  32
ENDBRANCH   5  31
ENDBRANCH   3   5
ENDBRANCH   2   3
ENDBRANCH   1   2
BRANCH   1  34
ATOM     34  C   UNL A   1      31.373  28.971  26.532  1.00  0.00     0.275 C 
BRANCH  34  35
ATOM     35  O   UNL A   1      32.421  29.381  27.458  1.00  0.00    -0.458 OA
BRANCH  35  36
ATOM     36  C   UNL A   1      33.102  30.538  27.141  1.00  0.00     0.338 C 
ATOM     37  O   UNL A   1      32.585  31.519  26.633  1.00  0.00    -0.246 OA
BRANCH  36  38
ATOM     38  C   UNL A   1      34.558  30.507  27.558  1.00  0.00     0.060 A 
ATOM     39  C   UNL A   1      35.195  29.297  27.758  1.00  0.00     0.016 A 
ATOM     40  C   UNL A   1      35.304  31.648  27.858  1.00  0.00     0.016 A 
ATOM     41  C   UNL A   1      36.425  29.163  28.402  1.00  0.00     0.010 A 
ATOM     42  C   UNL A   1      36.617  31.533  28.397  1.00  0.00     0.010 A 
ATOM     43  C   UNL A   1      37.178  30.279  28.724  1.00  0.00    -0.014 A 
BRANCH  43  44
ATOM     44  C   UNL A   1      38.452  30.109  29.501  1.00  0.00     0.031 A 
ATOM     45  C   UNL A   1      39.579  29.324  28.879  1.00  0.00     0.074 A 
ATOM     46  C   UNL A   1      38.705  30.754  30.664  1.00  0.00     0.049 A 
ATOM     47  N   UNL A   1      40.654  28.820  29.427  1.00  0.00    -0.248 NA
ATOM     48  C   UNL A   1      39.485  29.106  27.428  1.00  0.00     0.031 C 
ATOM     49  C   UNL A   1      37.838  31.750  31.298  1.00  0.00     0.029 A 
ATOM     50  N   UNL A   1      39.787  30.684  31.518  1.00  0.00    -0.354 N 
ATOM     51  C   UNL A   1      41.326  28.156  28.404  1.00  0.00     0.074 A 
ATOM     52  C   UNL A   1      40.550  28.354  27.197  1.00  0.00     0.031 C 
ATOM     53  C   UNL A   1      38.434  32.218  32.407  1.00  0.00     0.029 A 
ATOM     54  C   UNL A   1      39.649  31.454  32.656  1.00  0.00     0.049 A 
ATOM     55  H   UNL A   1      40.585  30.138  31.332  1.00  0.00     0.167 HD
ATOM     56  C   UNL A   1      42.467  27.425  28.480  1.00  0.00     0.034 A 
ATOM     57  C   UNL A   1      40.361  31.478  33.806  1.00  0.00     0.034 A 
ATOM     58  C   UNL A   1      43.231  27.271  29.695  1.00  0.00     0.049 A 
ATOM     59  C   UNL A   1      41.522  30.520  33.946  1.00  0.00     0.074 A 
ATOM     60  C   UNL A   1      44.332  26.469  29.934  1.00  0.00     0.029 A 
ATOM     61  N   UNL A   1      42.974  27.952  30.880  1.00  0.00    -0.354 N 
ATOM     62  N   UNL A   1      42.036  29.708  33.049  1.00  0.00    -0.248 NA
ATOM     63  C   UNL A   1      42.174  30.451  35.261  1.00  0.00     0.031 C 
ATOM     64  C   UNL A   1      44.695  26.609  31.280  1.00  0.00     0.029 A 
ATOM     65  C   UNL A   1      43.876  27.565  31.859  1.00  0.00     0.049 A 
ATOM     66  H   UNL A   1      42.257  28.613  31.005  1.00  0.00     0.167 HD
ATOM     67  C   UNL A   1      43.082  29.046  33.688  1.00  0.00     0.074 A 
ATOM     68  C   UNL A   1      43.139  29.568  35.038  1.00  0.00     0.031 C 
ATOM     69  C   UNL A   1      43.918  28.092  33.204  1.00  0.00     0.034 A 
BRANCH  56  70
ATOM     70  C   UNL A   1      42.851  26.627  27.255  1.00  0.00     0.023 A 
ATOM     71  C   UNL A   1      42.413  25.309  27.036  1.00  0.00     0.031 A 
ATOM     72  C   UNL A   1      43.759  27.179  26.331  1.00  0.00     0.131 A 
ATOM     73  C   UNL A   1      42.951  24.564  25.973  1.00  0.00     0.055 A 
ATOM     74  C   UNL A   1      44.222  26.462  25.227  1.00  0.00     0.041 A 
ATOM     75  F   UNL A   1      44.238  28.422  26.503  1.00  0.00    -0.206 F 
ATOM     76  C   UNL A   1      43.833  25.138  25.054  1.00  0.00     0.022 A 
BRANCH  73  77
ATOM     77  S   UNL A   1      42.629  22.778  25.911  1.00  0.00     0.124 S 
ATOM     78  O   UNL A   1      41.196  22.730  26.192  1.00  0.00    -0.237 OA
ATOM     79  O   UNL A   1      43.033  22.436  24.553  1.00  0.00    -0.237 OA
ATOM     80  O   UNL A   1      43.481  22.239  26.971  1.00  0.00    -0.744 OA
ENDBRANCH  73  77
ENDBRANCH  56  70
BRANCH  57  81
ATOM     81  C   UNL A   1      39.922  32.314  34.973  1.00  0.00     0.023 A 
ATOM     82  C   UNL A   1      39.107  31.795  35.995  1.00  0.00     0.031 A 
ATOM     83  C   UNL A   1      40.249  33.683  35.039  1.00  0.00     0.131 A 
ATOM     84  C   UNL A   1      38.627  32.641  37.011  1.00  0.00     0.055 A 
ATOM     85  C   UNL A   1      39.826  34.504  36.087  1.00  0.00     0.041 A 
ATOM     86  F   UNL A   1      40.995  34.253  34.078  1.00  0.00    -0.206 F 
ATOM     87  C   UNL A   1      38.999  33.987  37.075  1.00  0.00     0.022 A 
BRANCH  84  88
ATOM     88  S   UNL A   1      37.420  31.992  38.202  1.00  0.00     0.124 S 
ATOM     89  O   UNL A   1      37.272  30.613  37.751  1.00  0.00    -0.237 OA
ATOM     90  O   UNL A   1      38.113  32.183  39.471  1.00  0.00    -0.237 OA
ATOM     91  O   UNL A   1      36.248  32.842  38.000  1.00  0.00    -0.744 OA
ENDBRANCH  84  88
ENDBRANCH  57  81
BRANCH  69  92
ATOM     92  C   UNL A   1      45.003  27.596  34.128  1.00  0.00     0.023 A 
ATOM     93  C   UNL A   1      44.811  26.495  34.979  1.00  0.00     0.031 A 
ATOM     94  C   UNL A   1      46.253  28.241  34.153  1.00  0.00     0.131 A 
ATOM     95  C   UNL A   1      45.834  26.103  35.857  1.00  0.00     0.055 A 
ATOM     96  C   UNL A   1      47.287  27.810  34.983  1.00  0.00     0.041 A 
ATOM     97  F   UNL A   1      46.491  29.302  33.364  1.00  0.00    -0.206 F 
ATOM     98  C   UNL A   1      47.077  26.742  35.850  1.00  0.00     0.022 A 
BRANCH  95  99
ATOM     99  S   UNL A   1      45.492  24.800  37.072  1.00  0.00     0.124 S 
ATOM    100  O   UNL A   1      44.435  25.406  37.875  1.00  0.00    -0.237 OA
ATOM    101  O   UNL A   1      45.088  23.682  36.226  1.00  0.00    -0.237 OA
ATOM    102  O   UNL A   1      46.770  24.626  37.759  1.00  0.00    -0.744 OA
ENDBRANCH  95  99
ENDBRANCH  69  92
ENDBRANCH  43  44
ENDBRANCH  36  38
ENDBRANCH  35  36
ENDBRANCH  34  35
ENDBRANCH   1  34
TORSDOF 23
ENDMDL
