MODEL 1
REMARK VINA RESULT:     -11.9      0.000      0.000
REMARK SMILES Cn1nc(N2CCC(CC(=O)OCCOC(=O)c3ccc(-c4c5nc(c(-c6cc(S(=O)(=O)[O-])ccc6F)c6ccc([nH]6)c(-c6cc(S(=O)(=O)[O-])ccc6F)c6nc(c(-c7cc(S(=O)(=O)[O-])ccc7F)c7ccc4[nH]7)C=C6)C=C5)cc3)CC2)c(=O)n(C)c1=O
REMARK SMILES IDX 14 1 13 2 12 3 10 4 11 5 9 6 8 7 5 8 6 9 82 10 7 11 81 12
REMARK SMILES IDX 4 13 1 14 2 15 3 16 87 17 85 18 88 19 83 20 86 21 84 22
REMARK SMILES IDX 15 23 16 24 17 25 18 26 19 27 80 28 20 29 79 30 21 31 22 32
REMARK SMILES IDX 23 33 73 34 24 35 78 36 72 37 74 38 25 39 77 40 71 41 70 42
REMARK SMILES IDX 26 44 58 45 38 46 57 47 39 48 42 49 56 50 75 51 40 52 41 53
REMARK SMILES IDX 55 55 76 56 43 57 27 58 28 59 36 60 29 61 35 62 37 63 34 64
REMARK SMILES IDX 30 65 31 66 32 67 33 68 59 69 60 70 68 71 61 72 67 73 69 74
REMARK SMILES IDX 66 75 62 76 63 77 64 78 65 79 44 80 45 81 53 82 46 83 52 84
REMARK SMILES IDX 54 85 51 86 47 87 48 88 49 89 50 90
REMARK H PARENT 74 43 42 54
REMARK Flexibility Score: inf
ROOT
ATOM      1  C   UNL A   1      36.654  20.305  25.045  1.00  0.00     0.275 C 
ENDROOT
BRANCH   1   2
ATOM      2  C   UNL A   1      35.195  20.719  25.238  1.00  0.00     0.274 C 
BRANCH   2   3
ATOM      3  O   UNL A   1      34.302  19.820  24.552  1.00  0.00    -0.462 OA
BRANCH   3   4
ATOM      4  C   UNL A   1      33.052  20.280  24.295  1.00  0.00     0.306 C 
ATOM      5  O   UNL A   1      32.210  19.673  23.644  1.00  0.00    -0.252 OA
BRANCH   4   6
ATOM      6  C   UNL A   1      32.813  21.678  24.828  1.00  0.00     0.126 C 
BRANCH   6   7
ATOM      7  C   UNL A   1      32.356  22.734  23.804  1.00  0.00     0.003 C 
ATOM      8  N   UNL A   1      31.764  25.501  23.240  1.00  0.00    -0.351 N 
ATOM      9  C   UNL A   1      30.662  24.563  23.330  1.00  0.00     0.118 C 
ATOM     10  C   UNL A   1      33.008  24.956  22.712  1.00  0.00     0.118 C 
ATOM     11  C   UNL A   1      31.039  23.404  24.242  1.00  0.00     0.026 C 
ATOM     12  C   UNL A   1      33.460  23.801  23.612  1.00  0.00     0.026 C 
BRANCH   8  13
ATOM     13  C   UNL A   1      31.712  26.749  23.840  1.00  0.00     0.215 A 
ATOM     14  C   UNL A   1      33.021  28.435  26.727  1.00  0.00     0.180 C 
ATOM     15  N   UNL A   1      32.240  28.225  25.524  1.00  0.00    -0.216 N 
ATOM     16  N   UNL A   1      32.306  26.974  24.978  1.00  0.00    -0.145 NA
ATOM     17  C   UNL A   1      31.492  29.285  25.020  1.00  0.00     0.346 A 
ATOM     18  N   UNL A   1      30.818  29.050  23.841  1.00  0.00    -0.259 N 
ATOM     19  O   UNL A   1      31.445  30.373  25.602  1.00  0.00    -0.246 OA
ATOM     20  C   UNL A   1      30.904  27.857  23.156  1.00  0.00     0.299 A 
ATOM     21  C   UNL A   1      29.985  30.083  23.265  1.00  0.00     0.159 C 
ATOM     22  O   UNL A   1      30.349  27.629  22.086  1.00  0.00    -0.265 OA
ENDBRANCH   8  13
ENDBRANCH   6   7
ENDBRANCH   4   6
ENDBRANCH   3   4
ENDBRANCH   2   3
ENDBRANCH   1   2
BRANCH   1  23
ATOM     23  O   UNL A   1      37.542  21.410  25.285  1.00  0.00    -0.458 OA
BRANCH  23  24
ATOM     24  C   UNL A   1      38.715  21.088  25.880  1.00  0.00     0.338 C 
ATOM     25  O   UNL A   1      39.237  19.989  25.935  1.00  0.00    -0.246 OA
BRANCH  24  26
ATOM     26  C   UNL A   1      39.360  22.317  26.366  1.00  0.00     0.060 A 
ATOM     27  C   UNL A   1      38.812  23.547  25.994  1.00  0.00     0.016 A 
ATOM     28  C   UNL A   1      40.531  22.256  27.125  1.00  0.00     0.016 A 
ATOM     29  C   UNL A   1      39.437  24.730  26.381  1.00  0.00     0.010 A 
ATOM     30  C   UNL A   1      41.156  23.445  27.511  1.00  0.00     0.010 A 
ATOM     31  C   UNL A   1      40.619  24.688  27.132  1.00  0.00    -0.014 A 
BRANCH  31  32
ATOM     32  C   UNL A   1      41.324  25.949  27.466  1.00  0.00     0.031 A 
ATOM     33  C   UNL A   1      40.635  26.982  28.311  1.00  0.00     0.074 A 
ATOM     34  C   UNL A   1      42.590  26.143  27.055  1.00  0.00     0.049 A 
ATOM     35  N   UNL A   1      41.048  28.171  28.664  1.00  0.00    -0.248 NA
ATOM     36  C   UNL A   1      39.306  26.626  28.833  1.00  0.00     0.031 C 
ATOM     37  C   UNL A   1      43.385  25.181  26.289  1.00  0.00     0.029 A 
ATOM     38  N   UNL A   1      43.435  27.208  27.232  1.00  0.00    -0.354 N 
ATOM     39  C   UNL A   1      40.034  28.709  29.447  1.00  0.00     0.074 A 
ATOM     40  C   UNL A   1      38.972  27.724  29.494  1.00  0.00     0.031 C 
ATOM     41  C   UNL A   1      44.608  25.693  26.079  1.00  0.00     0.029 A 
ATOM     42  C   UNL A   1      44.669  27.037  26.649  1.00  0.00     0.049 A 
ATOM     43  H   UNL A   1      43.183  28.020  27.728  1.00  0.00     0.167 HD
ATOM     44  C   UNL A   1      39.996  29.908  30.076  1.00  0.00     0.034 A 
ATOM     45  C   UNL A   1      45.720  27.877  26.567  1.00  0.00     0.034 A 
ATOM     46  C   UNL A   1      41.056  30.883  30.017  1.00  0.00     0.049 A 
ATOM     47  C   UNL A   1      45.611  29.249  27.179  1.00  0.00     0.074 A 
ATOM     48  C   UNL A   1      41.107  32.138  30.597  1.00  0.00     0.029 A 
ATOM     49  N   UNL A   1      42.255  30.709  29.338  1.00  0.00    -0.354 N 
ATOM     50  N   UNL A   1      44.616  29.771  27.857  1.00  0.00    -0.248 NA
ATOM     51  C   UNL A   1      46.759  30.148  27.002  1.00  0.00     0.031 C 
ATOM     52  C   UNL A   1      42.313  32.744  30.226  1.00  0.00     0.029 A 
ATOM     53  C   UNL A   1      43.041  31.844  29.465  1.00  0.00     0.049 A 
ATOM     54  H   UNL A   1      42.510  29.899  28.839  1.00  0.00     0.167 HD
ATOM     55  C   UNL A   1      45.024  31.056  28.198  1.00  0.00     0.074 A 
ATOM     56  C   UNL A   1      46.359  31.228  27.659  1.00  0.00     0.031 C 
ATOM     57  C   UNL A   1      44.358  32.007  28.900  1.00  0.00     0.034 A 
BRANCH  44  58
ATOM     58  C   UNL A   1      38.748  30.248  30.844  1.00  0.00     0.023 A 
ATOM     59  C   UNL A   1      37.703  30.983  30.260  1.00  0.00     0.031 A 
ATOM     60  C   UNL A   1      38.601  29.832  32.179  1.00  0.00     0.131 A 
ATOM     61  C   UNL A   1      36.574  31.317  31.022  1.00  0.00     0.055 A 
ATOM     62  C   UNL A   1      37.451  30.116  32.914  1.00  0.00     0.041 A 
ATOM     63  F   UNL A   1      39.580  29.146  32.790  1.00  0.00    -0.206 F 
ATOM     64  C   UNL A   1      36.431  30.869  32.338  1.00  0.00     0.022 A 
BRANCH  61  65
ATOM     65  S   UNL A   1      35.325  32.413  30.298  1.00  0.00     0.124 S 
ATOM     66  O   UNL A   1      34.373  32.539  31.399  1.00  0.00    -0.237 OA
ATOM     67  O   UNL A   1      36.096  33.610  29.981  1.00  0.00    -0.237 OA
ATOM     68  O   UNL A   1      34.838  31.662  29.142  1.00  0.00    -0.744 OA
ENDBRANCH  61  65
ENDBRANCH  44  58
BRANCH  45  69
ATOM     69  C   UNL A   1      46.951  27.464  25.838  1.00  0.00     0.023 A 
ATOM     70  C   UNL A   1      47.131  27.785  24.484  1.00  0.00     0.031 A 
ATOM     71  C   UNL A   1      47.958  26.728  26.486  1.00  0.00     0.131 A 
ATOM     72  C   UNL A   1      48.285  27.353  23.814  1.00  0.00     0.055 A 
ATOM     73  C   UNL A   1      49.122  26.333  25.825  1.00  0.00     0.041 A 
ATOM     74  F   UNL A   1      47.831  26.399  27.781  1.00  0.00    -0.206 F 
ATOM     75  C   UNL A   1      49.287  26.640  24.478  1.00  0.00     0.022 A 
BRANCH  72  76
ATOM     76  S   UNL A   1      48.451  27.709  22.043  1.00  0.00     0.124 S 
ATOM     77  O   UNL A   1      47.230  28.463  21.777  1.00  0.00    -0.237 OA
ATOM     78  O   UNL A   1      49.697  28.467  21.998  1.00  0.00    -0.237 OA
ATOM     79  O   UNL A   1      48.510  26.382  21.433  1.00  0.00    -0.744 OA
ENDBRANCH  72  76
ENDBRANCH  45  69
BRANCH  57  80
ATOM     80  C   UNL A   1      45.071  33.310  29.143  1.00  0.00     0.023 A 
ATOM     81  C   UNL A   1      44.933  34.394  28.260  1.00  0.00     0.031 A 
ATOM     82  C   UNL A   1      45.868  33.477  30.288  1.00  0.00     0.131 A 
ATOM     83  C   UNL A   1      45.609  35.595  28.524  1.00  0.00     0.055 A 
ATOM     84  C   UNL A   1      46.505  34.687  30.566  1.00  0.00     0.041 A 
ATOM     85  F   UNL A   1      46.027  32.470  31.162  1.00  0.00    -0.206 F 
ATOM     86  C   UNL A   1      46.381  35.753  29.679  1.00  0.00     0.022 A 
BRANCH  83  87
ATOM     87  S   UNL A   1      45.490  36.947  27.320  1.00  0.00     0.124 S 
ATOM     88  O   UNL A   1      44.086  36.877  26.926  1.00  0.00    -0.237 OA
ATOM     89  O   UNL A   1      45.873  38.111  28.112  1.00  0.00    -0.237 OA
ATOM     90  O   UNL A   1      46.446  36.565  26.282  1.00  0.00    -0.744 OA
ENDBRANCH  83  87
ENDBRANCH  57  80
ENDBRANCH  31  32
ENDBRANCH  24  26
ENDBRANCH  23  24
ENDBRANCH   1  23
TORSDOF 16
ENDMDL
MODEL 2
REMARK VINA RESULT:     -11.8      4.973     10.429
REMARK SMILES Cn1nc(N2CCC(CC(=O)OCCOC(=O)c3ccc(-c4c5nc(c(-c6cc(S(=O)(=O)[O-])ccc6F)c6ccc([nH]6)c(-c6cc(S(=O)(=O)[O-])ccc6F)c6nc(c(-c7cc(S(=O)(=O)[O-])ccc7F)c7ccc4[nH]7)C=C6)C=C5)cc3)CC2)c(=O)n(C)c1=O
REMARK SMILES IDX 14 1 13 2 12 3 10 4 11 5 9 6 8 7 5 8 6 9 82 10 7 11 81 12
REMARK SMILES IDX 4 13 1 14 2 15 3 16 87 17 85 18 88 19 83 20 86 21 84 22
REMARK SMILES IDX 15 23 16 24 17 25 18 26 19 27 80 28 20 29 79 30 21 31 22 32
REMARK SMILES IDX 23 33 73 34 24 35 78 36 72 37 74 38 25 39 77 40 71 41 70 42
REMARK SMILES IDX 26 44 58 45 38 46 57 47 39 48 42 49 56 50 75 51 40 52 41 53
REMARK SMILES IDX 55 55 76 56 43 57 27 58 28 59 36 60 29 61 35 62 37 63 34 64
REMARK SMILES IDX 30 65 31 66 32 67 33 68 59 69 60 70 68 71 61 72 67 73 69 74
REMARK SMILES IDX 66 75 62 76 63 77 64 78 65 79 44 80 45 81 53 82 46 83 52 84
REMARK SMILES IDX 54 85 51 86 47 87 48 88 49 89 50 90
REMARK H PARENT 74 43 42 54
REMARK Flexibility Score: inf
ROOT
ATOM      1  C   UNL A   1      31.532  30.507  25.653  1.00  0.00     0.275 C 
ENDROOT
BRANCH   1   2
ATOM      2  C   UNL A   1      31.223  29.276  24.800  1.00  0.00     0.274 C 
BRANCH   2   3
ATOM      3  O   UNL A   1      30.152  29.539  23.873  1.00  0.00    -0.462 OA
BRANCH   3   4
ATOM      4  C   UNL A   1      30.229  28.930  22.664  1.00  0.00     0.306 C 
ATOM      5  O   UNL A   1      29.323  28.904  21.840  1.00  0.00    -0.252 OA
BRANCH   4   6
ATOM      6  C   UNL A   1      31.541  28.201  22.450  1.00  0.00     0.126 C 
BRANCH   6   7
ATOM      7  C   UNL A   1      31.447  26.691  22.161  1.00  0.00     0.003 C 
ATOM      8  N   UNL A   1      32.331  24.018  22.792  1.00  0.00    -0.351 N 
ATOM      9  C   UNL A   1      32.766  24.613  21.543  1.00  0.00     0.118 C 
ATOM     10  C   UNL A   1      31.004  24.414  23.245  1.00  0.00     0.118 C 
ATOM     11  C   UNL A   1      32.796  26.129  21.673  1.00  0.00     0.026 C 
ATOM     12  C   UNL A   1      30.981  25.936  23.428  1.00  0.00     0.026 C 
BRANCH   8  13
ATOM     13  C   UNL A   1      33.204  23.325  23.614  1.00  0.00     0.215 A 
ATOM     14  C   UNL A   1      36.013  23.968  25.758  1.00  0.00     0.180 C 
ATOM     15  N   UNL A   1      35.015  23.209  25.028  1.00  0.00    -0.216 N 
ATOM     16  N   UNL A   1      34.188  23.932  24.216  1.00  0.00    -0.145 NA
ATOM     17  C   UNL A   1      34.970  21.829  25.201  1.00  0.00     0.346 A 
ATOM     18  N   UNL A   1      33.965  21.163  24.533  1.00  0.00    -0.259 N 
ATOM     19  O   UNL A   1      35.788  21.242  25.916  1.00  0.00    -0.246 OA
ATOM     20  C   UNL A   1      33.015  21.812  23.772  1.00  0.00     0.299 A 
ATOM     21  C   UNL A   1      33.865  19.722  24.623  1.00  0.00     0.159 C 
ATOM     22  O   UNL A   1      32.085  21.255  23.198  1.00  0.00    -0.265 OA
ENDBRANCH   8  13
ENDBRANCH   6   7
ENDBRANCH   4   6
ENDBRANCH   3   4
ENDBRANCH   2   3
ENDBRANCH   1   2
BRANCH   1  23
ATOM     23  O   UNL A   1      32.866  30.445  26.187  1.00  0.00    -0.458 OA
BRANCH  23  24
ATOM     24  C   UNL A   1      33.206  31.467  27.008  1.00  0.00     0.338 C 
ATOM     25  O   UNL A   1      32.548  32.461  27.260  1.00  0.00    -0.246 OA
BRANCH  24  26
ATOM     26  C   UNL A   1      34.476  31.145  27.675  1.00  0.00     0.060 A 
ATOM     27  C   UNL A   1      34.728  29.814  28.018  1.00  0.00     0.016 A 
ATOM     28  C   UNL A   1      35.379  32.154  28.016  1.00  0.00     0.016 A 
ATOM     29  C   UNL A   1      35.890  29.485  28.712  1.00  0.00     0.010 A 
ATOM     30  C   UNL A   1      36.544  31.821  28.712  1.00  0.00     0.010 A 
ATOM     31  C   UNL A   1      36.800  30.486  29.073  1.00  0.00    -0.014 A 
BRANCH  31  32
ATOM     32  C   UNL A   1      37.992  30.139  29.885  1.00  0.00     0.031 A 
ATOM     33  C   UNL A   1      39.074  29.286  29.286  1.00  0.00     0.074 A 
ATOM     34  C   UNL A   1      38.124  30.626  31.132  1.00  0.00     0.049 A 
ATOM     35  N   UNL A   1      40.161  28.818  29.842  1.00  0.00    -0.248 NA
ATOM     36  C   UNL A   1      38.912  28.914  27.871  1.00  0.00     0.031 C 
ATOM     37  C   UNL A   1      37.172  31.521  31.792  1.00  0.00     0.029 A 
ATOM     38  N   UNL A   1      39.115  30.447  32.062  1.00  0.00    -0.354 N 
ATOM     39  C   UNL A   1      40.815  28.097  28.850  1.00  0.00     0.074 A 
ATOM     40  C   UNL A   1      39.986  28.167  27.664  1.00  0.00     0.031 C 
ATOM     41  C   UNL A   1      37.636  31.827  33.015  1.00  0.00     0.029 A 
ATOM     42  C   UNL A   1      38.890  31.113  33.244  1.00  0.00     0.049 A 
ATOM     43  H   UNL A   1      39.913  29.894  31.901  1.00  0.00     0.167 HD
ATOM     44  C   UNL A   1      42.000  27.446  28.920  1.00  0.00     0.034 A 
ATOM     45  C   UNL A   1      39.603  31.127  34.389  1.00  0.00     0.034 A 
ATOM     46  C   UNL A   1      42.814  27.379  30.108  1.00  0.00     0.049 A 
ATOM     47  C   UNL A   1      40.860  30.304  34.478  1.00  0.00     0.074 A 
ATOM     48  C   UNL A   1      44.020  26.724  30.292  1.00  0.00     0.029 A 
ATOM     49  N   UNL A   1      42.506  27.991  31.316  1.00  0.00    -0.354 N 
ATOM     50  N   UNL A   1      41.431  29.568  33.553  1.00  0.00    -0.248 NA
ATOM     51  C   UNL A   1      41.563  30.302  35.768  1.00  0.00     0.031 C 
ATOM     52  C   UNL A   1      44.414  26.897  31.623  1.00  0.00     0.029 A 
ATOM     53  C   UNL A   1      43.485  27.709  32.255  1.00  0.00     0.049 A 
ATOM     54  H   UNL A   1      41.708  28.544  31.481  1.00  0.00     0.167 HD
ATOM     55  C   UNL A   1      42.566  29.026  34.146  1.00  0.00     0.074 A 
ATOM     56  C   UNL A   1      42.605  29.525  35.507  1.00  0.00     0.031 C 
ATOM     57  C   UNL A   1      43.496  28.195  33.613  1.00  0.00     0.034 A 
BRANCH  44  58
ATOM     58  C   UNL A   1      42.465  26.717  27.688  1.00  0.00     0.023 A 
ATOM     59  C   UNL A   1      42.194  25.352  27.497  1.00  0.00     0.031 A 
ATOM     60  C   UNL A   1      43.186  27.397  26.692  1.00  0.00     0.131 A 
ATOM     61  C   UNL A   1      42.681  24.698  26.355  1.00  0.00     0.055 A 
ATOM     62  C   UNL A   1      43.616  26.756  25.531  1.00  0.00     0.041 A 
ATOM     63  F   UNL A   1      43.488  28.697  26.836  1.00  0.00    -0.206 F 
ATOM     64  C   UNL A   1      43.370  25.396  25.360  1.00  0.00     0.022 A 
BRANCH  61  65
ATOM     65  S   UNL A   1      42.470  22.902  26.222  1.00  0.00     0.124 S 
ATOM     66  O   UNL A   1      43.362  22.424  27.275  1.00  0.00    -0.237 OA
ATOM     67  O   UNL A   1      41.043  22.730  26.467  1.00  0.00    -0.237 OA
ATOM     68  O   UNL A   1      42.907  22.606  24.859  1.00  0.00    -0.744 OA
ENDBRANCH  61  65
ENDBRANCH  44  58
BRANCH  45  69
ATOM     69  C   UNL A   1      39.121  31.911  35.559  1.00  0.00     0.023 A 
ATOM     70  C   UNL A   1      38.404  31.295  36.596  1.00  0.00     0.031 A 
ATOM     71  C   UNL A   1      39.359  33.294  35.647  1.00  0.00     0.131 A 
ATOM     72  C   UNL A   1      37.933  32.065  37.669  1.00  0.00     0.055 A 
ATOM     73  C   UNL A   1      38.921  34.049  36.735  1.00  0.00     0.041 A 
ATOM     74  F   UNL A   1      40.041  33.927  34.679  1.00  0.00    -0.206 F 
ATOM     75  C   UNL A   1      38.197  33.435  37.752  1.00  0.00     0.022 A 
BRANCH  72  76
ATOM     76  S   UNL A   1      36.937  31.256  38.952  1.00  0.00     0.124 S 
ATOM     77  O   UNL A   1      35.750  32.104  38.984  1.00  0.00    -0.237 OA
ATOM     78  O   UNL A   1      36.757  29.918  38.402  1.00  0.00    -0.237 OA
ATOM     79  O   UNL A   1      37.788  31.329  40.139  1.00  0.00    -0.744 OA
ENDBRANCH  72  76
ENDBRANCH  45  69
BRANCH  57  80
ATOM     80  C   UNL A   1      44.645  27.789  34.496  1.00  0.00     0.023 A 
ATOM     81  C   UNL A   1      44.620  26.587  35.222  1.00  0.00     0.031 A 
ATOM     82  C   UNL A   1      45.789  28.601  34.583  1.00  0.00     0.131 A 
ATOM     83  C   UNL A   1      45.714  26.241  36.030  1.00  0.00     0.055 A 
ATOM     84  C   UNL A   1      46.890  28.232  35.356  1.00  0.00     0.041 A 
ATOM     85  F   UNL A   1      45.859  29.758  33.905  1.00  0.00    -0.206 F 
ATOM     86  C   UNL A   1      46.855  27.048  36.089  1.00  0.00     0.022 A 
BRANCH  83  87
ATOM     87  S   UNL A   1      45.619  24.731  37.030  1.00  0.00     0.124 S 
ATOM     88  O   UNL A   1      47.022  24.498  37.359  1.00  0.00    -0.237 OA
ATOM     89  O   UNL A   1      44.763  25.139  38.140  1.00  0.00    -0.237 OA
ATOM     90  O   UNL A   1      45.024  23.755  36.119  1.00  0.00    -0.744 OA
ENDBRANCH  83  87
ENDBRANCH  57  80
ENDBRANCH  31  32
ENDBRANCH  24  26
ENDBRANCH  23  24
ENDBRANCH   1  23
TORSDOF 16
ENDMDL
MODEL 3
REMARK VINA RESULT:     -11.7      1.493      1.724
REMARK SMILES Cn1nc(N2CCC(CC(=O)OCCOC(=O)c3ccc(-c4c5nc(c(-c6cc(S(=O)(=O)[O-])ccc6F)c6ccc([nH]6)c(-c6cc(S(=O)(=O)[O-])ccc6F)c6nc(c(-c7cc(S(=O)(=O)[O-])ccc7F)c7ccc4[nH]7)C=C6)C=C5)cc3)CC2)c(=O)n(C)c1=O
REMARK SMILES IDX 14 1 13 2 12 3 10 4 11 5 9 6 8 7 5 8 6 9 82 10 7 11 81 12
REMARK SMILES IDX 4 13 1 14 2 15 3 16 87 17 85 18 88 19 83 20 86 21 84 22
REMARK SMILES IDX 15 23 16 24 17 25 18 26 19 27 80 28 20 29 79 30 21 31 22 32
REMARK SMILES IDX 23 33 73 34 24 35 78 36 72 37 74 38 25 39 77 40 71 41 70 42
REMARK SMILES IDX 26 44 58 45 38 46 57 47 39 48 42 49 56 50 75 51 40 52 41 53
REMARK SMILES IDX 55 55 76 56 43 57 27 58 28 59 36 60 29 61 35 62 37 63 34 64
REMARK SMILES IDX 30 65 31 66 32 67 33 68 59 69 60 70 68 71 61 72 67 73 69 74
REMARK SMILES IDX 66 75 62 76 63 77 64 78 65 79 44 80 45 81 53 82 46 83 52 84
REMARK SMILES IDX 54 85 51 86 47 87 48 88 49 89 50 90
REMARK H PARENT 74 43 42 54
REMARK Flexibility Score: inf
ROOT
ATOM      1  C   UNL A   1      36.485  20.366  24.964  1.00  0.00     0.275 C 
ENDROOT
BRANCH   1   2
ATOM      2  C   UNL A   1      35.051  20.624  25.428  1.00  0.00     0.274 C 
BRANCH   2   3
ATOM      3  O   UNL A   1      34.096  20.033  24.527  1.00  0.00    -0.462 OA
BRANCH   3   4
ATOM      4  C   UNL A   1      33.173  20.866  23.984  1.00  0.00     0.306 C 
ATOM      5  O   UNL A   1      32.222  20.500  23.303  1.00  0.00    -0.252 OA
BRANCH   4   6
ATOM      6  C   UNL A   1      33.475  22.331  24.235  1.00  0.00     0.126 C 
BRANCH   6   7
ATOM      7  C   UNL A   1      32.715  23.347  23.363  1.00  0.00     0.003 C 
ATOM      8  N   UNL A   1      31.714  26.035  23.045  1.00  0.00    -0.351 N 
ATOM      9  C   UNL A   1      30.763  24.968  23.292  1.00  0.00     0.118 C 
ATOM     10  C   UNL A   1      32.890  25.657  22.272  1.00  0.00     0.118 C 
ATOM     11  C   UNL A   1      31.436  23.842  24.066  1.00  0.00     0.026 C 
ATOM     12  C   UNL A   1      33.633  24.544  23.020  1.00  0.00     0.026 C 
BRANCH   8  13
ATOM     13  C   UNL A   1      31.634  27.252  23.700  1.00  0.00     0.215 A 
ATOM     14  C   UNL A   1      33.158  28.957  26.468  1.00  0.00     0.180 C 
ATOM     15  N   UNL A   1      32.247  28.715  25.367  1.00  0.00    -0.216 N 
ATOM     16  N   UNL A   1      32.350  27.494  24.762  1.00  0.00    -0.145 NA
ATOM     17  C   UNL A   1      31.351  29.718  25.009  1.00  0.00     0.346 A 
ATOM     18  N   UNL A   1      30.551  29.461  23.917  1.00  0.00    -0.259 N 
ATOM     19  O   UNL A   1      31.286  30.778  25.639  1.00  0.00    -0.246 OA
ATOM     20  C   UNL A   1      30.650  28.303  23.174  1.00  0.00     0.299 A 
ATOM     21  C   UNL A   1      29.563  30.431  23.497  1.00  0.00     0.159 C 
ATOM     22  O   UNL A   1      29.981  28.060  22.174  1.00  0.00    -0.265 OA
ENDBRANCH   8  13
ENDBRANCH   6   7
ENDBRANCH   4   6
ENDBRANCH   3   4
ENDBRANCH   2   3
ENDBRANCH   1   2
BRANCH   1  23
ATOM     23  O   UNL A   1      37.350  21.455  25.327  1.00  0.00    -0.458 OA
BRANCH  23  24
ATOM     24  C   UNL A   1      38.559  21.092  25.819  1.00  0.00     0.338 C 
ATOM     25  O   UNL A   1      39.074  19.989  25.769  1.00  0.00    -0.246 OA
BRANCH  24  26
ATOM     26  C   UNL A   1      39.245  22.285  26.336  1.00  0.00     0.060 A 
ATOM     27  C   UNL A   1      38.690  23.539  26.070  1.00  0.00     0.016 A 
ATOM     28  C   UNL A   1      40.457  22.170  27.020  1.00  0.00     0.016 A 
ATOM     29  C   UNL A   1      39.350  24.692  26.486  1.00  0.00     0.010 A 
ATOM     30  C   UNL A   1      41.118  23.329  27.436  1.00  0.00     0.010 A 
ATOM     31  C   UNL A   1      40.573  24.597  27.162  1.00  0.00    -0.014 A 
BRANCH  31  32
ATOM     32  C   UNL A   1      41.311  25.830  27.527  1.00  0.00     0.031 A 
ATOM     33  C   UNL A   1      40.628  26.888  28.346  1.00  0.00     0.074 A 
ATOM     34  C   UNL A   1      42.599  25.978  27.166  1.00  0.00     0.049 A 
ATOM     35  N   UNL A   1      41.071  28.061  28.718  1.00  0.00    -0.248 NA
ATOM     36  C   UNL A   1      39.267  26.581  28.814  1.00  0.00     0.031 C 
ATOM     37  C   UNL A   1      43.387  24.986  26.430  1.00  0.00     0.029 A 
ATOM     38  N   UNL A   1      43.476  27.010  27.378  1.00  0.00    -0.354 N 
ATOM     39  C   UNL A   1      40.047  28.635  29.461  1.00  0.00     0.074 A 
ATOM     40  C   UNL A   1      38.949  27.690  29.464  1.00  0.00     0.031 C 
ATOM     41  C   UNL A   1      44.636  25.453  26.270  1.00  0.00     0.029 A 
ATOM     42  C   UNL A   1      44.724  26.793  26.845  1.00  0.00     0.049 A 
ATOM     43  H   UNL A   1      43.234  27.830  27.866  1.00  0.00     0.167 HD
ATOM     44  C   UNL A   1      40.030  29.834  30.090  1.00  0.00     0.034 A 
ATOM     45  C   UNL A   1      45.808  27.594  26.805  1.00  0.00     0.034 A 
ATOM     46  C   UNL A   1      41.127  30.769  30.075  1.00  0.00     0.049 A 
ATOM     47  C   UNL A   1      45.726  28.968  27.415  1.00  0.00     0.074 A 
ATOM     48  C   UNL A   1      41.202  32.021  30.659  1.00  0.00     0.029 A 
ATOM     49  N   UNL A   1      42.344  30.551  29.444  1.00  0.00    -0.354 N 
ATOM     50  N   UNL A   1      44.725  29.527  28.055  1.00  0.00    -0.248 NA
ATOM     51  C   UNL A   1      46.913  29.824  27.286  1.00  0.00     0.031 C 
ATOM     52  C   UNL A   1      42.443  32.582  30.338  1.00  0.00     0.029 A 
ATOM     53  C   UNL A   1      43.167  31.656  29.604  1.00  0.00     0.049 A 
ATOM     54  H   UNL A   1      42.588  29.733  28.954  1.00  0.00     0.167 HD
ATOM     55  C   UNL A   1      45.167  30.796  28.415  1.00  0.00     0.074 A 
ATOM     56  C   UNL A   1      46.527  30.918  27.929  1.00  0.00     0.031 C 
ATOM     57  C   UNL A   1      44.510  31.770  29.092  1.00  0.00     0.034 A 
BRANCH  44  58
ATOM     58  C   UNL A   1      38.766  30.221  30.810  1.00  0.00     0.023 A 
ATOM     59  C   UNL A   1      37.744  30.939  30.166  1.00  0.00     0.031 A 
ATOM     60  C   UNL A   1      38.580  29.865  32.157  1.00  0.00     0.131 A 
ATOM     61  C   UNL A   1      36.600  31.318  30.883  1.00  0.00     0.055 A 
ATOM     62  C   UNL A   1      37.413  30.192  32.848  1.00  0.00     0.041 A 
ATOM     63  F   UNL A   1      39.534  29.196  32.823  1.00  0.00    -0.206 F 
ATOM     64  C   UNL A   1      36.418  30.930  32.213  1.00  0.00     0.022 A 
BRANCH  61  65
ATOM     65  S   UNL A   1      35.383  32.395  30.079  1.00  0.00     0.124 S 
ATOM     66  O   UNL A   1      34.384  32.546  31.134  1.00  0.00    -0.237 OA
ATOM     67  O   UNL A   1      36.167  33.584  29.766  1.00  0.00    -0.237 OA
ATOM     68  O   UNL A   1      34.947  31.615  28.922  1.00  0.00    -0.744 OA
ENDBRANCH  61  65
ENDBRANCH  44  58
BRANCH  45  69
ATOM     69  C   UNL A   1      47.050  27.136  26.125  1.00  0.00     0.023 A 
ATOM     70  C   UNL A   1      48.068  26.486  26.840  1.00  0.00     0.031 A 
ATOM     71  C   UNL A   1      47.242  27.357  24.749  1.00  0.00     0.131 A 
ATOM     72  C   UNL A   1      49.243  26.096  26.179  1.00  0.00     0.055 A 
ATOM     73  C   UNL A   1      48.396  26.934  24.089  1.00  0.00     0.041 A 
ATOM     74  F   UNL A   1      46.296  27.974  24.024  1.00  0.00    -0.206 F 
ATOM     75  C   UNL A   1      49.408  26.304  24.807  1.00  0.00     0.022 A 
BRANCH  72  76
ATOM     76  S   UNL A   1      50.575  25.334  27.145  1.00  0.00     0.124 S 
ATOM     77  O   UNL A   1      49.879  24.223  27.786  1.00  0.00    -0.237 OA
ATOM     78  O   UNL A   1      51.539  24.977  26.111  1.00  0.00    -0.237 OA
ATOM     79  O   UNL A   1      50.999  26.406  28.044  1.00  0.00    -0.744 OA
ENDBRANCH  72  76
ENDBRANCH  45  69
BRANCH  57  80
ATOM     80  C   UNL A   1      45.260  33.046  29.365  1.00  0.00     0.023 A 
ATOM     81  C   UNL A   1      45.277  34.097  28.434  1.00  0.00     0.031 A 
ATOM     82  C   UNL A   1      45.936  33.221  30.585  1.00  0.00     0.131 A 
ATOM     83  C   UNL A   1      45.984  35.274  28.728  1.00  0.00     0.055 A 
ATOM     84  C   UNL A   1      46.602  34.408  30.888  1.00  0.00     0.041 A 
ATOM     85  F   UNL A   1      45.944  32.244  31.507  1.00  0.00    -0.206 F 
ATOM     86  C   UNL A   1      46.633  35.441  29.955  1.00  0.00     0.022 A 
BRANCH  83  87
ATOM     87  S   UNL A   1      46.070  36.578  27.471  1.00  0.00     0.124 S 
ATOM     88  O   UNL A   1      47.324  37.243  27.811  1.00  0.00    -0.237 OA
ATOM     89  O   UNL A   1      46.068  35.820  26.225  1.00  0.00    -0.237 OA
ATOM     90  O   UNL A   1      44.864  37.368  27.715  1.00  0.00    -0.744 OA
ENDBRANCH  83  87
ENDBRANCH  57  80
ENDBRANCH  31  32
ENDBRANCH  24  26
ENDBRANCH  23  24
ENDBRANCH   1  23
TORSDOF 16
ENDMDL
