MODEL 1
REMARK VINA RESULT:     -12.6      0.000      0.000
REMARK SMILES Cc1ccc(C)c(/C=C2\SC(=S)N(CC(=O)OCCOC(=O)c3ccc(-c4c5nc(c(-c6cc(S(=O)(=O)[O-])ccc6F)c6ccc([nH]6)c(-c6cc(S(=O)(=O)[O-])ccc6F)c6nc(c(-c7cc(S(=O)(=O)[O-])ccc7F)c7ccc4[nH]7)C=C6)C=C5)cc3)C2=O)c1
REMARK SMILES IDX 19 1 18 2 17 3 15 4 16 5 14 6 13 7 8 8 9 9 10 10 86 11 11 12
REMARK SMILES IDX 87 13 12 14 7 15 1 16 2 17 3 18 88 19 4 20 5 21 6 22 20 23
REMARK SMILES IDX 21 24 22 25 23 26 24 27 85 28 25 29 84 30 26 31 27 32 28 33
REMARK SMILES IDX 78 34 29 35 83 36 77 37 79 38 30 39 82 40 76 41 75 42 31 44
REMARK SMILES IDX 63 45 43 46 62 47 44 48 47 49 61 50 80 51 45 52 46 53 60 55
REMARK SMILES IDX 81 56 48 57 32 58 33 59 41 60 34 61 40 62 42 63 39 64 35 65
REMARK SMILES IDX 36 66 37 67 38 68 64 69 65 70 73 71 66 72 72 73 74 74 71 75
REMARK SMILES IDX 67 76 68 77 69 78 70 79 49 80 50 81 58 82 51 83 57 84 59 85
REMARK SMILES IDX 56 86 52 87 53 88 54 89 55 90
REMARK H PARENT 79 43 47 54
REMARK Flexibility Score: inf
ROOT
ATOM      1  C   UNL A   1      38.289  22.672  26.082  1.00  0.00     0.275 C 
ENDROOT
BRANCH   1   2
ATOM      2  C   UNL A   1      37.170  23.361  25.301  1.00  0.00     0.274 C 
BRANCH   2   3
ATOM      3  O   UNL A   1      36.796  22.490  24.241  1.00  0.00    -0.461 OA
BRANCH   3   4
ATOM      4  C   UNL A   1      35.388  22.279  24.062  1.00  0.00     0.326 C 
ATOM      5  O   UNL A   1      35.129  21.215  24.698  1.00  0.00    -0.250 OA
BRANCH   4   6
ATOM      6  C   UNL A   1      34.106  23.654  22.961  1.00  0.00     0.250 C 
BRANCH   6   7
ATOM      7  N   UNL A   1      33.254  25.138  23.373  1.00  0.00    -0.282 N 
ATOM      8  C   UNL A   1      30.910  27.629  22.141  1.00  0.00     0.029 C 
ATOM      9  C   UNL A   1      31.794  26.998  22.947  1.00  0.00     0.081 C 
ATOM     10  S   UNL A   1      31.803  26.906  24.655  1.00  0.00    -0.054 SA
ATOM     11  C   UNL A   1      32.952  26.164  22.467  1.00  0.00     0.266 C 
ATOM     12  C   UNL A   1      33.014  25.592  24.657  1.00  0.00     0.148 C 
ATOM     13  O   UNL A   1      33.568  26.458  21.452  1.00  0.00    -0.268 OA
ATOM     14  S   UNL A   1      33.707  25.098  26.089  1.00  0.00    -0.052 S 
BRANCH   8  15
ATOM     15  C   UNL A   1      29.747  28.496  22.508  1.00  0.00    -0.021 A 
ATOM     16  C   UNL A   1      28.704  32.139  21.853  1.00  0.00     0.044 C 
ATOM     17  C   UNL A   1      28.684  30.717  22.333  1.00  0.00    -0.051 A 
ATOM     18  C   UNL A   1      27.600  30.268  23.084  1.00  0.00     0.004 A 
ATOM     19  C   UNL A   1      29.746  29.831  22.055  1.00  0.00     0.011 A 
ATOM     20  C   UNL A   1      27.556  28.944  23.506  1.00  0.00     0.004 A 
ATOM     21  C   UNL A   1      28.603  28.040  23.205  1.00  0.00    -0.044 A 
ATOM     22  C   UNL A   1      28.391  26.625  23.672  1.00  0.00     0.045 C 
ENDBRANCH   8  15
ENDBRANCH   6   7
ENDBRANCH   4   6
ENDBRANCH   3   4
ENDBRANCH   2   3
ENDBRANCH   1   2
BRANCH   1  23
ATOM     23  O   UNL A   1      39.177  23.524  26.877  1.00  0.00    -0.458 OA
BRANCH  23  24
ATOM     24  C   UNL A   1      40.487  23.347  27.220  1.00  0.00     0.338 C 
ATOM     25  O   UNL A   1      40.866  22.400  27.890  1.00  0.00    -0.246 OA
BRANCH  24  26
ATOM     26  C   UNL A   1      41.402  24.479  26.934  1.00  0.00     0.060 A 
ATOM     27  C   UNL A   1      42.748  24.723  28.123  1.00  0.00     0.016 A 
ATOM     28  C   UNL A   1      40.685  25.901  26.082  1.00  0.00     0.016 A 
ATOM     29  C   UNL A   1      43.164  26.427  28.646  1.00  0.00     0.010 A 
ATOM     30  C   UNL A   1      41.160  27.573  26.567  1.00  0.00     0.010 A 
ATOM     31  C   UNL A   1      42.254  27.829  27.980  1.00  0.00    -0.014 A 
BRANCH  31  32
ATOM     32  C   UNL A   1      41.961  29.137  28.747  1.00  0.00     0.031 A 
ATOM     33  C   UNL A   1      43.056  30.037  28.339  1.00  0.00     0.074 A 
ATOM     34  C   UNL A   1      40.898  29.637  29.498  1.00  0.00     0.049 A 
ATOM     35  N   UNL A   1      44.172  30.174  28.980  1.00  0.00    -0.248 NA
ATOM     36  C   UNL A   1      43.110  30.516  26.947  1.00  0.00     0.031 C 
ATOM     37  C   UNL A   1      39.660  28.979  29.960  1.00  0.00     0.029 A 
ATOM     38  N   UNL A   1      40.668  30.933  30.021  1.00  0.00    -0.354 N 
ATOM     39  C   UNL A   1      44.899  31.046  28.190  1.00  0.00     0.074 A 
ATOM     40  C   UNL A   1      44.390  30.884  26.861  1.00  0.00     0.031 C 
ATOM     41  C   UNL A   1      38.756  29.875  30.461  1.00  0.00     0.029 A 
ATOM     42  C   UNL A   1      39.333  31.215  30.503  1.00  0.00     0.049 A 
ATOM     43  H   UNL A   1      41.381  31.610  30.054  1.00  0.00     0.167 HD
ATOM     44  C   UNL A   1      45.496  32.130  28.749  1.00  0.00     0.034 A 
ATOM     45  C   UNL A   1      38.778  32.369  31.074  1.00  0.00     0.034 A 
ATOM     46  C   UNL A   1      45.575  31.981  30.187  1.00  0.00     0.049 A 
ATOM     47  C   UNL A   1      39.916  33.143  31.602  1.00  0.00     0.074 A 
ATOM     48  C   UNL A   1      46.129  31.056  31.049  1.00  0.00     0.029 A 
ATOM     49  N   UNL A   1      44.636  32.668  30.919  1.00  0.00    -0.354 N 
ATOM     50  N   UNL A   1      40.632  32.740  32.610  1.00  0.00    -0.248 NA
ATOM     51  C   UNL A   1      40.565  34.055  30.681  1.00  0.00     0.031 C 
ATOM     52  C   UNL A   1      45.208  30.949  32.132  1.00  0.00     0.029 A 
ATOM     53  C   UNL A   1      44.196  31.893  31.960  1.00  0.00     0.049 A 
ATOM     54  H   UNL A   1      44.326  33.582  30.723  1.00  0.00     0.167 HD
ATOM     55  C   UNL A   1      41.934  32.917  32.182  1.00  0.00     0.074 A 
ATOM     56  C   UNL A   1      41.832  33.798  31.013  1.00  0.00     0.031 C 
ATOM     57  C   UNL A   1      42.918  32.081  32.622  1.00  0.00     0.034 A 
BRANCH  44  58
ATOM     58  C   UNL A   1      45.561  33.485  28.073  1.00  0.00     0.023 A 
ATOM     59  C   UNL A   1      44.496  34.363  28.327  1.00  0.00     0.031 A 
ATOM     60  C   UNL A   1      46.426  33.859  27.012  1.00  0.00     0.131 A 
ATOM     61  C   UNL A   1      44.290  35.493  27.518  1.00  0.00     0.055 A 
ATOM     62  C   UNL A   1      46.256  35.021  26.259  1.00  0.00     0.041 A 
ATOM     63  F   UNL A   1      47.422  33.088  26.566  1.00  0.00    -0.206 F 
ATOM     64  C   UNL A   1      45.167  35.835  26.493  1.00  0.00     0.022 A 
BRANCH  61  65
ATOM     65  S   UNL A   1      42.750  36.417  27.727  1.00  0.00     0.124 S 
ATOM     66  O   UNL A   1      41.769  35.339  27.780  1.00  0.00    -0.237 OA
ATOM     67  O   UNL A   1      42.998  37.130  28.975  1.00  0.00    -0.237 OA
ATOM     68  O   UNL A   1      42.696  37.253  26.531  1.00  0.00    -0.744 OA
ENDBRANCH  61  65
ENDBRANCH  44  58
BRANCH  45  69
ATOM     69  C   UNL A   1      37.424  33.111  30.899  1.00  0.00     0.023 A 
ATOM     70  C   UNL A   1      36.561  33.125  29.730  1.00  0.00     0.031 A 
ATOM     71  C   UNL A   1      36.809  33.569  32.078  1.00  0.00     0.131 A 
ATOM     72  C   UNL A   1      35.197  33.590  29.804  1.00  0.00     0.055 A 
ATOM     73  C   UNL A   1      35.469  33.994  32.144  1.00  0.00     0.041 A 
ATOM     74  F   UNL A   1      37.469  33.533  33.242  1.00  0.00    -0.206 F 
ATOM     75  C   UNL A   1      34.659  34.003  31.019  1.00  0.00     0.022 A 
BRANCH  72  76
ATOM     76  S   UNL A   1      34.027  33.672  28.356  1.00  0.00     0.124 S 
ATOM     77  O   UNL A   1      32.817  34.232  28.945  1.00  0.00    -0.237 OA
ATOM     78  O   UNL A   1      34.741  34.516  27.406  1.00  0.00    -0.237 OA
ATOM     79  O   UNL A   1      33.896  32.274  27.935  1.00  0.00    -0.744 OA
ENDBRANCH  72  76
ENDBRANCH  45  69
BRANCH  57  80
ATOM     80  C   UNL A   1      42.612  31.194  33.821  1.00  0.00     0.023 A 
ATOM     81  C   UNL A   1      42.280  29.817  33.779  1.00  0.00     0.031 A 
ATOM     82  C   UNL A   1      42.761  31.787  35.085  1.00  0.00     0.131 A 
ATOM     83  C   UNL A   1      42.114  29.095  34.983  1.00  0.00     0.055 A 
ATOM     84  C   UNL A   1      42.630  31.064  36.268  1.00  0.00     0.041 A 
ATOM     85  F   UNL A   1      43.075  33.089  35.190  1.00  0.00    -0.206 F 
ATOM     86  C   UNL A   1      42.304  29.714  36.224  1.00  0.00     0.022 A 
BRANCH  83  87
ATOM     87  S   UNL A   1      41.622  27.336  34.968  1.00  0.00     0.124 S 
ATOM     88  O   UNL A   1      42.819  26.659  34.480  1.00  0.00    -0.237 OA
ATOM     89  O   UNL A   1      41.273  27.091  36.364  1.00  0.00    -0.237 OA
ATOM     90  O   UNL A   1      40.486  27.306  34.044  1.00  0.00    -0.744 OA
ENDBRANCH  83  87
ENDBRANCH  57  80
ENDBRANCH  31  32
ENDBRANCH  24  26
ENDBRANCH  23  24
ENDBRANCH   1  23
TORSDOF 16
ENDMDL
MODEL 2
REMARK VINA RESULT:     -12.6      5.648     10.741
REMARK SMILES Cc1ccc(C)c(/C=C2\SC(=S)N(CC(=O)OCCOC(=O)c3ccc(-c4c5nc(c(-c6cc(S(=O)(=O)[O-])ccc6F)c6ccc([nH]6)c(-c6cc(S(=O)(=O)[O-])ccc6F)c6nc(c(-c7cc(S(=O)(=O)[O-])ccc7F)c7ccc4[nH]7)C=C6)C=C5)cc3)C2=O)c1
REMARK SMILES IDX 19 1 18 2 17 3 15 4 16 5 14 6 13 7 8 8 9 9 10 10 86 11 11 12
REMARK SMILES IDX 87 13 12 14 7 15 1 16 2 17 3 18 88 19 4 20 5 21 6 22 20 23
REMARK SMILES IDX 21 24 22 25 23 26 24 27 85 28 25 29 84 30 26 31 27 32 28 33
REMARK SMILES IDX 78 34 29 35 83 36 77 37 79 38 30 39 82 40 76 41 75 42 31 44
REMARK SMILES IDX 63 45 43 46 62 47 44 48 47 49 61 50 80 51 45 52 46 53 60 55
REMARK SMILES IDX 81 56 48 57 32 58 33 59 41 60 34 61 40 62 42 63 39 64 35 65
REMARK SMILES IDX 36 66 37 67 38 68 64 69 65 70 73 71 66 72 72 73 74 74 71 75
REMARK SMILES IDX 67 76 68 77 69 78 70 79 49 80 50 81 58 82 51 83 57 84 59 85
REMARK SMILES IDX 56 86 52 87 53 88 54 89 55 90
REMARK H PARENT 79 43 47 54
REMARK Flexibility Score: inf
ROOT
ATOM      1  C   UNL A   1      43.034  29.205  36.054  1.00  0.00     0.275 C 
ENDROOT
BRANCH   1   2
ATOM      2  C   UNL A   1      41.879  30.186  36.265  1.00  0.00     0.274 C 
BRANCH   2   3
ATOM      3  O   UNL A   1      40.675  29.489  35.970  1.00  0.00    -0.461 OA
BRANCH   3   4
ATOM      4  C   UNL A   1      39.564  30.295  35.553  1.00  0.00     0.326 C 
ATOM      5  O   UNL A   1      39.349  31.086  36.518  1.00  0.00    -0.250 OA
BRANCH   4   6
ATOM      6  C   UNL A   1      38.619  30.109  33.599  1.00  0.00     0.250 C 
BRANCH   6   7
ATOM      7  N   UNL A   1      37.905  31.250  32.466  1.00  0.00    -0.282 N 
ATOM      8  C   UNL A   1      34.819  32.925  31.523  1.00  0.00     0.029 C 
ATOM      9  C   UNL A   1      36.107  32.517  31.496  1.00  0.00     0.081 C 
ATOM     10  S   UNL A   1      37.494  33.392  31.010  1.00  0.00    -0.054 SA
ATOM     11  C   UNL A   1      36.594  31.173  31.974  1.00  0.00     0.266 C 
ATOM     12  C   UNL A   1      38.603  32.190  31.730  1.00  0.00     0.148 C 
ATOM     13  O   UNL A   1      35.916  30.166  31.833  1.00  0.00    -0.268 OA
ATOM     14  S   UNL A   1      40.241  32.289  31.445  1.00  0.00    -0.052 S 
BRANCH   8  15
ATOM     15  C   UNL A   1      34.226  34.216  31.055  1.00  0.00    -0.021 A 
ATOM     16  C   UNL A   1      33.534  37.663  32.615  1.00  0.00     0.044 C 
ATOM     17  C   UNL A   1      33.622  36.542  31.620  1.00  0.00    -0.051 A 
ATOM     18  C   UNL A   1      33.160  36.748  30.322  1.00  0.00     0.004 A 
ATOM     19  C   UNL A   1      34.146  35.282  31.975  1.00  0.00     0.011 A 
ATOM     20  C   UNL A   1      33.266  35.727  29.383  1.00  0.00     0.004 A 
ATOM     21  C   UNL A   1      33.819  34.470  29.723  1.00  0.00    -0.044 A 
ATOM     22  C   UNL A   1      33.928  33.484  28.592  1.00  0.00     0.045 C 
ENDBRANCH   8  15
ENDBRANCH   6   7
ENDBRANCH   4   6
ENDBRANCH   3   4
ENDBRANCH   2   3
ENDBRANCH   1   2
BRANCH   1  23
ATOM     23  O   UNL A   1      42.736  27.777  36.188  1.00  0.00    -0.458 OA
BRANCH  23  24
ATOM     24  C   UNL A   1      43.453  26.784  36.792  1.00  0.00     0.338 C 
ATOM     25  O   UNL A   1      43.327  26.513  37.976  1.00  0.00    -0.246 OA
BRANCH  24  26
ATOM     26  C   UNL A   1      44.560  26.194  36.000  1.00  0.00     0.060 A 
ATOM     27  C   UNL A   1      45.714  27.378  35.257  1.00  0.00     0.016 A 
ATOM     28  C   UNL A   1      44.211  24.632  35.165  1.00  0.00     0.016 A 
ATOM     29  C   UNL A   1      46.285  27.093  33.542  1.00  0.00     0.010 A 
ATOM     30  C   UNL A   1      44.842  24.343  33.498  1.00  0.00     0.010 A 
ATOM     31  C   UNL A   1      45.715  25.656  32.621  1.00  0.00    -0.014 A 
BRANCH  31  32
ATOM     32  C   UNL A   1      45.496  25.616  31.092  1.00  0.00     0.031 A 
ATOM     33  C   UNL A   1      46.614  26.417  30.557  1.00  0.00     0.074 A 
ATOM     34  C   UNL A   1      44.674  24.906  30.221  1.00  0.00     0.049 A 
ATOM     35  N   UNL A   1      46.556  27.685  30.308  1.00  0.00    -0.248 NA
ATOM     36  C   UNL A   1      47.988  25.898  30.673  1.00  0.00     0.031 C 
ATOM     37  C   UNL A   1      43.556  23.983  30.498  1.00  0.00     0.029 A 
ATOM     38  N   UNL A   1      44.678  24.829  28.805  1.00  0.00    -0.354 N 
ATOM     39  C   UNL A   1      47.842  27.999  29.905  1.00  0.00     0.074 A 
ATOM     40  C   UNL A   1      48.691  27.022  30.517  1.00  0.00     0.031 C 
ATOM     41  C   UNL A   1      43.162  23.299  29.380  1.00  0.00     0.029 A 
ATOM     42  C   UNL A   1      43.888  23.775  28.207  1.00  0.00     0.049 A 
ATOM     43  H   UNL A   1      45.193  25.462  28.257  1.00  0.00     0.167 HD
ATOM     44  C   UNL A   1      48.041  28.709  28.764  1.00  0.00     0.034 A 
ATOM     45  C   UNL A   1      43.672  23.426  26.866  1.00  0.00     0.034 A 
ATOM     46  C   UNL A   1      46.812  29.350  28.344  1.00  0.00     0.049 A 
ATOM     47  C   UNL A   1      43.975  24.637  26.082  1.00  0.00     0.074 A 
ATOM     48  C   UNL A   1      45.928  30.244  28.912  1.00  0.00     0.029 A 
ATOM     49  N   UNL A   1      46.128  28.735  27.322  1.00  0.00    -0.354 N 
ATOM     50  N   UNL A   1      43.241  25.709  26.135  1.00  0.00    -0.248 NA
ATOM     51  C   UNL A   1      45.356  24.826  25.686  1.00  0.00     0.031 C 
ATOM     52  C   UNL A   1      44.635  29.825  28.479  1.00  0.00     0.029 A 
ATOM     53  C   UNL A   1      44.781  28.778  27.570  1.00  0.00     0.049 A 
ATOM     54  H   UNL A   1      46.545  28.326  26.530  1.00  0.00     0.167 HD
ATOM     55  C   UNL A   1      44.159  26.730  26.290  1.00  0.00     0.074 A 
ATOM     56  C   UNL A   1      45.452  26.134  25.935  1.00  0.00     0.031 C 
ATOM     57  C   UNL A   1      43.825  27.851  26.993  1.00  0.00     0.034 A 
BRANCH  44  58
ATOM     58  C   UNL A   1      49.178  28.433  27.801  1.00  0.00     0.023 A 
ATOM     59  C   UNL A   1      50.090  29.478  27.593  1.00  0.00     0.031 A 
ATOM     60  C   UNL A   1      49.268  27.347  26.892  1.00  0.00     0.131 A 
ATOM     61  C   UNL A   1      50.975  29.451  26.502  1.00  0.00     0.055 A 
ATOM     62  C   UNL A   1      50.198  27.294  25.854  1.00  0.00     0.041 A 
ATOM     63  F   UNL A   1      48.410  26.323  26.877  1.00  0.00    -0.206 F 
ATOM     64  C   UNL A   1      51.044  28.363  25.636  1.00  0.00     0.022 A 
BRANCH  61  65
ATOM     65  S   UNL A   1      51.920  30.948  26.137  1.00  0.00     0.124 S 
ATOM     66  O   UNL A   1      53.034  30.408  25.366  1.00  0.00    -0.237 OA
ATOM     67  O   UNL A   1      50.945  31.743  25.399  1.00  0.00    -0.237 OA
ATOM     68  O   UNL A   1      52.266  31.457  27.462  1.00  0.00    -0.744 OA
ENDBRANCH  61  65
ENDBRANCH  44  58
BRANCH  45  69
ATOM     69  C   UNL A   1      43.609  22.074  26.103  1.00  0.00     0.023 A 
ATOM     70  C   UNL A   1      44.713  21.323  25.530  1.00  0.00     0.031 A 
ATOM     71  C   UNL A   1      42.417  21.340  26.236  1.00  0.00     0.131 A 
ATOM     72  C   UNL A   1      44.560  19.945  25.128  1.00  0.00     0.055 A 
ATOM     73  C   UNL A   1      42.287  19.988  25.867  1.00  0.00     0.041 A 
ATOM     74  F   UNL A   1      41.346  21.891  26.822  1.00  0.00    -0.206 F 
ATOM     75  C   UNL A   1      43.349  19.286  25.319  1.00  0.00     0.022 A 
BRANCH  72  76
ATOM     76  S   UNL A   1      45.907  18.911  24.361  1.00  0.00     0.124 S 
ATOM     77  O   UNL A   1      47.037  19.830  24.314  1.00  0.00    -0.237 OA
ATOM     78  O   UNL A   1      46.019  17.786  25.280  1.00  0.00    -0.237 OA
ATOM     79  O   UNL A   1      45.368  18.558  23.044  1.00  0.00    -0.744 OA
ENDBRANCH  72  76
ENDBRANCH  45  69
BRANCH  57  80
ATOM     80  C   UNL A   1      42.351  28.084  27.296  1.00  0.00     0.023 A 
ATOM     81  C   UNL A   1      41.704  27.847  28.534  1.00  0.00     0.031 A 
ATOM     82  C   UNL A   1      41.592  28.671  26.270  1.00  0.00     0.131 A 
ATOM     83  C   UNL A   1      40.346  28.200  28.699  1.00  0.00     0.055 A 
ATOM     84  C   UNL A   1      40.263  29.050  26.448  1.00  0.00     0.041 A 
ATOM     85  F   UNL A   1      42.149  28.922  25.073  1.00  0.00    -0.206 F 
ATOM     86  C   UNL A   1      39.633  28.814  27.663  1.00  0.00     0.022 A 
BRANCH  83  87
ATOM     87  S   UNL A   1      39.463  27.849  30.258  1.00  0.00     0.124 S 
ATOM     88  O   UNL A   1      39.035  26.464  30.095  1.00  0.00    -0.237 OA
ATOM     89  O   UNL A   1      40.492  28.084  31.267  1.00  0.00    -0.237 OA
ATOM     90  O   UNL A   1      38.372  28.827  30.264  1.00  0.00    -0.744 OA
ENDBRANCH  83  87
ENDBRANCH  57  80
ENDBRANCH  31  32
ENDBRANCH  24  26
ENDBRANCH  23  24
ENDBRANCH   1  23
TORSDOF 16
ENDMDL
MODEL 3
REMARK VINA RESULT:     -12.6      3.838      5.518
REMARK SMILES Cc1ccc(C)c(/C=C2\SC(=S)N(CC(=O)OCCOC(=O)c3ccc(-c4c5nc(c(-c6cc(S(=O)(=O)[O-])ccc6F)c6ccc([nH]6)c(-c6cc(S(=O)(=O)[O-])ccc6F)c6nc(c(-c7cc(S(=O)(=O)[O-])ccc7F)c7ccc4[nH]7)C=C6)C=C5)cc3)C2=O)c1
REMARK SMILES IDX 19 1 18 2 17 3 15 4 16 5 14 6 13 7 8 8 9 9 10 10 86 11 11 12
REMARK SMILES IDX 87 13 12 14 7 15 1 16 2 17 3 18 88 19 4 20 5 21 6 22 20 23
REMARK SMILES IDX 21 24 22 25 23 26 24 27 85 28 25 29 84 30 26 31 27 32 28 33
REMARK SMILES IDX 78 34 29 35 83 36 77 37 79 38 30 39 82 40 76 41 75 42 31 44
REMARK SMILES IDX 63 45 43 46 62 47 44 48 47 49 61 50 80 51 45 52 46 53 60 55
REMARK SMILES IDX 81 56 48 57 32 58 33 59 41 60 34 61 40 62 42 63 39 64 35 65
REMARK SMILES IDX 36 66 37 67 38 68 64 69 65 70 73 71 66 72 72 73 74 74 71 75
REMARK SMILES IDX 67 76 68 77 69 78 70 79 49 80 50 81 58 82 51 83 57 84 59 85
REMARK SMILES IDX 56 86 52 87 53 88 54 89 55 90
REMARK H PARENT 79 43 47 54
REMARK Flexibility Score: inf
ROOT
ATOM      1  C   UNL A   1      43.037  19.076  25.768  1.00  0.00     0.275 C 
ENDROOT
BRANCH   1   2
ATOM      2  C   UNL A   1      42.239  20.062  26.623  1.00  0.00     0.274 C 
BRANCH   2   3
ATOM      3  O   UNL A   1      41.358  20.758  25.751  1.00  0.00    -0.461 OA
BRANCH   3   4
ATOM      4  C   UNL A   1      40.084  21.125  26.301  1.00  0.00     0.326 C 
ATOM      5  O   UNL A   1      40.295  21.297  27.538  1.00  0.00    -0.250 OA
BRANCH   4   6
ATOM      6  C   UNL A   1      38.287  21.366  25.094  1.00  0.00     0.250 C 
BRANCH   6   7
ATOM      7  N   UNL A   1      37.096  22.648  24.903  1.00  0.00    -0.282 N 
ATOM      8  C   UNL A   1      33.922  23.515  23.358  1.00  0.00     0.029 C 
ATOM      9  C   UNL A   1      35.079  23.634  24.047  1.00  0.00     0.081 C 
ATOM     10  S   UNL A   1      35.401  24.575  25.439  1.00  0.00    -0.054 SA
ATOM     11  C   UNL A   1      36.343  22.873  23.743  1.00  0.00     0.266 C 
ATOM     12  C   UNL A   1      36.944  23.730  25.751  1.00  0.00     0.148 C 
ATOM     13  O   UNL A   1      36.658  22.602  22.593  1.00  0.00    -0.268 OA
ATOM     14  S   UNL A   1      37.985  24.297  26.921  1.00  0.00    -0.052 S 
BRANCH   8  15
ATOM     15  C   UNL A   1      32.625  24.234  23.557  1.00  0.00    -0.021 A 
ATOM     16  C   UNL A   1      31.026  27.466  22.221  1.00  0.00     0.044 C 
ATOM     17  C   UNL A   1      31.223  26.177  22.964  1.00  0.00    -0.051 A 
ATOM     18  C   UNL A   1      30.205  25.708  23.792  1.00  0.00     0.004 A 
ATOM     19  C   UNL A   1      32.420  25.441  22.857  1.00  0.00     0.011 A 
ATOM     20  C   UNL A   1      30.364  24.499  24.460  1.00  0.00     0.004 A 
ATOM     21  C   UNL A   1      31.550  23.738  24.333  1.00  0.00    -0.044 A 
ATOM     22  C   UNL A   1      31.557  22.422  25.064  1.00  0.00     0.045 C 
ENDBRANCH   8  15
ENDBRANCH   6   7
ENDBRANCH   4   6
ENDBRANCH   3   4
ENDBRANCH   2   3
ENDBRANCH   1   2
BRANCH   1  23
ATOM     23  O   UNL A   1      44.421  19.433  25.447  1.00  0.00    -0.458 OA
BRANCH  23  24
ATOM     24  C   UNL A   1      44.993  19.734  24.244  1.00  0.00     0.338 C 
ATOM     25  O   UNL A   1      45.483  18.882  23.521  1.00  0.00    -0.246 OA
BRANCH  24  26
ATOM     26  C   UNL A   1      45.195  21.175  23.952  1.00  0.00     0.060 A 
ATOM     27  C   UNL A   1      46.713  21.908  24.617  1.00  0.00     0.016 A 
ATOM     28  C   UNL A   1      43.705  22.182  23.790  1.00  0.00     0.016 A 
ATOM     29  C   UNL A   1      46.629  23.572  25.374  1.00  0.00     0.010 A 
ATOM     30  C   UNL A   1      43.665  23.848  24.484  1.00  0.00     0.010 A 
ATOM     31  C   UNL A   1      45.066  24.462  25.442  1.00  0.00    -0.014 A 
BRANCH  31  32
ATOM     32  C   UNL A   1      44.653  25.437  26.567  1.00  0.00     0.031 A 
ATOM     33  C   UNL A   1      45.735  26.439  26.579  1.00  0.00     0.074 A 
ATOM     34  C   UNL A   1      43.512  25.641  27.341  1.00  0.00     0.049 A 
ATOM     35  N   UNL A   1      46.789  26.374  27.326  1.00  0.00    -0.248 NA
ATOM     36  C   UNL A   1      45.879  27.353  25.432  1.00  0.00     0.031 C 
ATOM     37  C   UNL A   1      42.272  24.847  27.447  1.00  0.00     0.029 A 
ATOM     38  N   UNL A   1      43.181  26.687  28.238  1.00  0.00    -0.354 N 
ATOM     39  C   UNL A   1      47.536  27.471  26.936  1.00  0.00     0.074 A 
ATOM     40  C   UNL A   1      47.143  27.749  25.588  1.00  0.00     0.031 C 
ATOM     41  C   UNL A   1      41.291  25.511  28.130  1.00  0.00     0.029 A 
ATOM     42  C   UNL A   1      41.801  26.771  28.663  1.00  0.00     0.049 A 
ATOM     43  H   UNL A   1      43.858  27.326  28.556  1.00  0.00     0.167 HD
ATOM     44  C   UNL A   1      48.037  28.318  27.872  1.00  0.00     0.034 A 
ATOM     45  C   UNL A   1      41.150  27.662  29.528  1.00  0.00     0.034 A 
ATOM     46  C   UNL A   1      48.007  27.703  29.183  1.00  0.00     0.049 A 
ATOM     47  C   UNL A   1      42.206  28.236  30.382  1.00  0.00     0.074 A 
ATOM     48  C   UNL A   1      48.531  26.554  29.739  1.00  0.00     0.029 A 
ATOM     49  N   UNL A   1      46.982  28.093  30.011  1.00  0.00    -0.354 N 
ATOM     50  N   UNL A   1      42.856  27.534  31.262  1.00  0.00    -0.248 NA
ATOM     51  C   UNL A   1      42.883  29.412  29.874  1.00  0.00     0.031 C 
ATOM     52  C   UNL A   1      47.532  26.078  30.639  1.00  0.00     0.029 A 
ATOM     53  C   UNL A   1      46.496  27.009  30.696  1.00  0.00     0.049 A 
ATOM     54  H   UNL A   1      46.647  29.014  30.099  1.00  0.00     0.167 HD
ATOM     55  C   UNL A   1      44.179  27.864  31.036  1.00  0.00     0.074 A 
ATOM     56  C   UNL A   1      44.131  29.080  30.217  1.00  0.00     0.031 C 
ATOM     57  C   UNL A   1      45.161  26.946  31.264  1.00  0.00     0.034 A 
BRANCH  44  58
ATOM     58  C   UNL A   1      48.093  29.821  27.688  1.00  0.00     0.023 A 
ATOM     59  C   UNL A   1      46.862  30.484  27.567  1.00  0.00     0.031 A 
ATOM     60  C   UNL A   1      49.239  30.588  27.355  1.00  0.00     0.131 A 
ATOM     61  C   UNL A   1      46.801  31.800  27.079  1.00  0.00     0.055 A 
ATOM     62  C   UNL A   1      49.176  31.918  26.939  1.00  0.00     0.041 A 
ATOM     63  F   UNL A   1      50.476  30.085  27.310  1.00  0.00    -0.206 F 
ATOM     64  C   UNL A   1      47.949  32.526  26.773  1.00  0.00     0.022 A 
BRANCH  61  65
ATOM     65  S   UNL A   1      45.175  32.486  26.688  1.00  0.00     0.124 S 
ATOM     66  O   UNL A   1      45.273  33.819  27.273  1.00  0.00    -0.237 OA
ATOM     67  O   UNL A   1      45.164  32.416  25.231  1.00  0.00    -0.237 OA
ATOM     68  O   UNL A   1      44.255  31.574  27.364  1.00  0.00    -0.744 OA
ENDBRANCH  61  65
ENDBRANCH  44  58
BRANCH  45  69
ATOM     69  C   UNL A   1      39.782  28.397  29.485  1.00  0.00     0.023 A 
ATOM     70  C   UNL A   1      39.031  28.947  30.601  1.00  0.00     0.031 A 
ATOM     71  C   UNL A   1      39.361  28.854  28.224  1.00  0.00     0.131 A 
ATOM     72  C   UNL A   1      37.941  29.870  30.396  1.00  0.00     0.055 A 
ATOM     73  C   UNL A   1      38.314  29.776  28.036  1.00  0.00     0.041 A 
ATOM     74  F   UNL A   1      40.020  28.485  27.117  1.00  0.00    -0.206 F 
ATOM     75  C   UNL A   1      37.606  30.289  29.111  1.00  0.00     0.022 A 
BRANCH  72  76
ATOM     76  S   UNL A   1      36.904  30.603  31.759  1.00  0.00     0.124 S 
ATOM     77  O   UNL A   1      37.755  31.666  32.281  1.00  0.00    -0.237 OA
ATOM     78  O   UNL A   1      35.694  31.020  31.061  1.00  0.00    -0.237 OA
ATOM     79  O   UNL A   1      36.707  29.485  32.687  1.00  0.00    -0.744 OA
ENDBRANCH  72  76
ENDBRANCH  45  69
BRANCH  57  80
ATOM     80  C   UNL A   1      44.802  25.707  32.072  1.00  0.00     0.023 A 
ATOM     81  C   UNL A   1      44.636  25.645  33.479  1.00  0.00     0.031 A 
ATOM     82  C   UNL A   1      44.525  24.544  31.335  1.00  0.00     0.131 A 
ATOM     83  C   UNL A   1      44.207  24.443  34.085  1.00  0.00     0.055 A 
ATOM     84  C   UNL A   1      44.069  23.372  31.934  1.00  0.00     0.041 A 
ATOM     85  F   UNL A   1      44.662  24.540  29.999  1.00  0.00    -0.206 F 
ATOM     86  C   UNL A   1      43.909  23.315  33.313  1.00  0.00     0.022 A 
BRANCH  83  87
ATOM     87  S   UNL A   1      44.047  24.308  35.899  1.00  0.00     0.124 S 
ATOM     88  O   UNL A   1      44.777  23.083  36.209  1.00  0.00    -0.237 OA
ATOM     89  O   UNL A   1      44.657  25.550  36.366  1.00  0.00    -0.237 OA
ATOM     90  O   UNL A   1      42.600  24.226  36.112  1.00  0.00    -0.744 OA
ENDBRANCH  83  87
ENDBRANCH  57  80
ENDBRANCH  31  32
ENDBRANCH  24  26
ENDBRANCH  23  24
ENDBRANCH   1  23
TORSDOF 16
ENDMDL
