MODEL 1
REMARK VINA RESULT:     -13.8      0.000      0.000
REMARK SMILES Cc1c(C[NH2+][C@@H]2CCCc3ccccc32)c(C(=O)OCCOC(=O)c2ccc(-c3c4nc(c(-c5cc(S(=O)(=O)[O-])ccc5F)c5ccc([nH]5)c(-c5cc(S(=O)(=O)[O-])ccc5F)c5nc(c(-c6cc(S(=O)(=O)[O-])ccc6F)c6ccc3[nH]6)C=C5)C=C4)cc2)c(C)n1Cc1cccc(Cl)c1
REMARK SMILES IDX 20 1 19 2 17 3 18 4 16 5 1 6 2 7 3 8 90 9 88 10 89 11 4 12
REMARK SMILES IDX 5 13 6 16 7 17 15 18 8 19 10 20 14 21 9 22 11 23 13 24 12 25
REMARK SMILES IDX 91 26 92 27 93 28 98 29 94 30 96 31 95 32 97 33 21 34 22 35
REMARK SMILES IDX 23 36 24 37 25 38 26 39 87 40 27 41 86 42 28 43 29 44 30 45
REMARK SMILES IDX 80 46 31 47 85 48 79 49 81 50 32 51 84 52 78 53 77 54 33 56
REMARK SMILES IDX 65 57 45 58 64 59 46 60 49 61 63 62 82 63 47 64 48 65 62 67
REMARK SMILES IDX 83 68 50 69 34 70 35 71 43 72 36 73 42 74 44 75 41 76 37 77
REMARK SMILES IDX 38 78 39 79 40 80 66 81 67 82 75 83 68 84 74 85 76 86 73 87
REMARK SMILES IDX 69 88 70 89 71 90 72 91 51 92 52 93 60 94 53 95 59 96 61 97
REMARK SMILES IDX 58 98 54 99 55 100 56 101 57 102
REMARK H PARENT 5 14 5 15 81 55 49 66
REMARK Flexibility Score: inf
ROOT
ATOM      1  C   UNL A   1      34.107  30.038  27.133  1.00  0.00     0.275 C 
ENDROOT
BRANCH   1   2
ATOM      2  O   UNL A   1      33.704  28.741  27.655  1.00  0.00    -0.458 OA
BRANCH   2   3
ATOM      3  C   UNL A   1      32.549  28.194  27.190  1.00  0.00     0.340 C 
ATOM      4  O   UNL A   1      31.623  27.805  27.933  1.00  0.00    -0.246 OA
BRANCH   3   5
ATOM      5  C   UNL A   1      32.512  28.058  25.735  1.00  0.00     0.089 A 
ATOM      6  C   UNL A   1      33.322  26.505  22.429  1.00  0.00     0.065 C 
ATOM      7  C   UNL A   1      32.845  27.289  23.613  1.00  0.00     0.025 A 
ATOM      8  C   UNL A   1      33.192  27.074  24.948  1.00  0.00     0.042 A 
ATOM      9  N   UNL A   1      31.958  28.363  23.565  1.00  0.00    -0.343 N 
ATOM     10  C   UNL A   1      31.913  28.940  24.833  1.00  0.00     0.030 A 
ATOM     11  C   UNL A   1      31.341  30.280  25.145  1.00  0.00     0.065 C 
BRANCH   8  12
ATOM     12  C   UNL A   1      34.091  25.996  25.501  1.00  0.00     0.300 C 
BRANCH  12  13
ATOM     13  N   UNL A   1      33.279  24.809  25.784  1.00  0.00    -0.336 N 
ATOM     14  H   UNL A   1      32.344  25.111  26.059  1.00  0.00     0.347 HD
ATOM     15  H   UNL A   1      33.740  24.290  26.530  1.00  0.00     0.347 HD
BRANCH  13  16
ATOM     16  C   UNL A   1      33.162  23.914  24.623  1.00  0.00     0.214 C 
ATOM     17  C   UNL A   1      31.738  23.328  24.517  1.00  0.00     0.070 C 
ATOM     18  C   UNL A   1      34.216  22.809  24.704  1.00  0.00     0.012 A 
ATOM     19  C   UNL A   1      31.506  22.186  25.502  1.00  0.00     0.011 C 
ATOM     20  C   UNL A   1      33.889  21.476  25.025  1.00  0.00    -0.039 A 
ATOM     21  C   UNL A   1      35.565  23.138  24.475  1.00  0.00     0.010 A 
ATOM     22  C   UNL A   1      32.461  21.033  25.217  1.00  0.00     0.036 C 
ATOM     23  C   UNL A   1      34.907  20.512  25.107  1.00  0.00     0.004 A 
ATOM     24  C   UNL A   1      36.568  22.173  24.571  1.00  0.00     0.001 A 
ATOM     25  C   UNL A   1      36.240  20.859  24.889  1.00  0.00     0.000 A 
ENDBRANCH  13  16
ENDBRANCH  12  13
ENDBRANCH   8  12
BRANCH   9  26
ATOM     26  C   UNL A   1      31.347  28.922  22.344  1.00  0.00     0.157 C 
BRANCH  26  27
ATOM     27  C   UNL A   1      29.868  29.271  22.419  1.00  0.00    -0.027 A 
ATOM     28  C   UNL A   1      29.416  30.554  22.058  1.00  0.00     0.005 A 
ATOM     29  C   UNL A   1      28.924  28.395  22.976  1.00  0.00     0.026 A 
ATOM     30  C   UNL A   1      28.080  30.936  22.250  1.00  0.00     0.002 A 
ATOM     31  C   UNL A   1      27.594  28.776  23.170  1.00  0.00     0.041 A 
ATOM     32  C   UNL A   1      27.166  30.047  22.811  1.00  0.00     0.020 A 
ATOM     33  Cl  UNL A   1      26.491  27.672  23.900  1.00  0.00    -0.084 Cl
ENDBRANCH  26  27
ENDBRANCH   9  26
ENDBRANCH   3   5
ENDBRANCH   2   3
ENDBRANCH   1   2
BRANCH   1  34
ATOM     34  C   UNL A   1      34.294  31.081  28.284  1.00  0.00     0.275 C 
BRANCH  34  35
ATOM     35  O   UNL A   1      35.017  32.364  28.034  1.00  0.00    -0.458 OA
BRANCH  35  36
ATOM     36  C   UNL A   1      36.092  32.677  28.852  1.00  0.00     0.338 C 
ATOM     37  O   UNL A   1      36.021  33.583  29.672  1.00  0.00    -0.246 OA
BRANCH  36  38
ATOM     38  C   UNL A   1      37.389  31.791  28.745  1.00  0.00     0.060 A 
ATOM     39  C   UNL A   1      37.486  30.841  27.740  1.00  0.00     0.016 A 
ATOM     40  C   UNL A   1      38.405  31.620  29.723  1.00  0.00     0.016 A 
ATOM     41  C   UNL A   1      38.584  29.865  27.678  1.00  0.00     0.010 A 
ATOM     42  C   UNL A   1      39.495  30.547  29.690  1.00  0.00     0.010 A 
ATOM     43  C   UNL A   1      39.654  29.605  28.649  1.00  0.00    -0.014 A 
BRANCH  43  44
ATOM     44  C   UNL A   1      40.526  28.080  28.533  1.00  0.00     0.031 A 
ATOM     45  C   UNL A   1      41.304  28.182  29.801  1.00  0.00     0.074 A 
ATOM     46  C   UNL A   1      40.938  26.912  27.776  1.00  0.00     0.049 A 
ATOM     47  N   UNL A   1      42.048  29.241  29.960  1.00  0.00    -0.248 NA
ATOM     48  C   UNL A   1      40.982  27.488  31.048  1.00  0.00     0.031 C 
ATOM     49  C   UNL A   1      40.675  26.573  26.353  1.00  0.00     0.029 A 
ATOM     50  N   UNL A   1      41.757  25.695  28.084  1.00  0.00    -0.354 N 
ATOM     51  C   UNL A   1      42.592  29.164  31.209  1.00  0.00     0.074 A 
ATOM     52  C   UNL A   1      41.716  28.220  31.902  1.00  0.00     0.031 C 
ATOM     53  C   UNL A   1      41.098  25.312  25.987  1.00  0.00     0.029 A 
ATOM     54  C   UNL A   1      41.787  24.586  27.071  1.00  0.00     0.049 A 
ATOM     55  H   UNL A   1      42.260  25.624  28.926  1.00  0.00     0.167 HD
ATOM     56  C   UNL A   1      43.955  29.231  31.206  1.00  0.00     0.034 A 
ATOM     57  C   UNL A   1      42.390  23.275  27.039  1.00  0.00     0.034 A 
ATOM     58  C   UNL A   1      44.537  27.916  31.231  1.00  0.00     0.049 A 
ATOM     59  C   UNL A   1      43.624  23.388  27.805  1.00  0.00     0.074 A 
ATOM     60  C   UNL A   1      44.201  26.755  31.900  1.00  0.00     0.029 A 
ATOM     61  N   UNL A   1      45.279  27.542  30.132  1.00  0.00    -0.354 N 
ATOM     62  N   UNL A   1      44.681  23.957  27.319  1.00  0.00    -0.248 NA
ATOM     63  C   UNL A   1      43.765  22.787  29.123  1.00  0.00     0.031 C 
ATOM     64  C   UNL A   1      44.259  25.760  30.905  1.00  0.00     0.029 A 
ATOM     65  C   UNL A   1      45.065  26.210  29.867  1.00  0.00     0.049 A 
ATOM     66  H   UNL A   1      45.870  28.137  29.616  1.00  0.00     0.167 HD
ATOM     67  C   UNL A   1      45.335  24.320  28.453  1.00  0.00     0.074 A 
ATOM     68  C   UNL A   1      44.922  23.356  29.464  1.00  0.00     0.031 C 
ATOM     69  C   UNL A   1      45.513  25.655  28.609  1.00  0.00     0.034 A 
BRANCH  56  70
ATOM     70  C   UNL A   1      44.501  30.368  30.364  1.00  0.00     0.023 A 
ATOM     71  C   UNL A   1      44.144  30.442  29.016  1.00  0.00     0.031 A 
ATOM     72  C   UNL A   1      45.437  31.318  30.847  1.00  0.00     0.131 A 
ATOM     73  C   UNL A   1      44.771  31.384  28.181  1.00  0.00     0.055 A 
ATOM     74  C   UNL A   1      46.109  32.198  30.001  1.00  0.00     0.041 A 
ATOM     75  F   UNL A   1      45.708  31.419  32.159  1.00  0.00    -0.206 F 
ATOM     76  C   UNL A   1      45.782  32.230  28.654  1.00  0.00     0.022 A 
BRANCH  73  77
ATOM     77  S   UNL A   1      44.213  31.519  26.465  1.00  0.00     0.124 S 
ATOM     78  O   UNL A   1      43.630  32.857  26.430  1.00  0.00    -0.237 OA
ATOM     79  O   UNL A   1      45.459  31.358  25.721  1.00  0.00    -0.237 OA
ATOM     80  O   UNL A   1      43.261  30.420  26.318  1.00  0.00    -0.744 OA
ENDBRANCH  73  77
ENDBRANCH  56  70
BRANCH  57  81
ATOM     81  C   UNL A   1      42.476  21.754  26.393  1.00  0.00     0.023 A 
ATOM     82  C   UNL A   1      43.620  21.213  25.606  1.00  0.00     0.031 A 
ATOM     83  C   UNL A   1      41.706  20.733  26.969  1.00  0.00     0.131 A 
ATOM     84  C   UNL A   1      43.915  19.796  25.476  1.00  0.00     0.055 A 
ATOM     85  C   UNL A   1      42.013  19.342  26.844  1.00  0.00     0.041 A 
ATOM     86  F   UNL A   1      40.687  21.044  27.780  1.00  0.00    -0.206 F 
ATOM     87  C   UNL A   1      43.110  18.872  26.123  1.00  0.00     0.022 A 
BRANCH  84  88
ATOM     88  S   UNL A   1      45.424  19.071  24.619  1.00  0.00     0.124 S 
ATOM     89  O   UNL A   1      45.710  17.874  25.399  1.00  0.00    -0.237 OA
ATOM     90  O   UNL A   1      44.966  18.867  23.249  1.00  0.00    -0.237 OA
ATOM     91  O   UNL A   1      46.440  20.122  24.750  1.00  0.00    -0.744 OA
ENDBRANCH  84  88
ENDBRANCH  57  81
BRANCH  69  92
ATOM     92  C   UNL A   1      45.987  26.459  27.403  1.00  0.00     0.023 A 
ATOM     93  C   UNL A   1      47.306  26.517  26.874  1.00  0.00     0.031 A 
ATOM     94  C   UNL A   1      45.031  27.277  26.781  1.00  0.00     0.131 A 
ATOM     95  C   UNL A   1      47.612  27.364  25.786  1.00  0.00     0.055 A 
ATOM     96  C   UNL A   1      45.323  28.082  25.682  1.00  0.00     0.041 A 
ATOM     97  F   UNL A   1      43.769  27.303  27.242  1.00  0.00    -0.206 F 
ATOM     98  C   UNL A   1      46.618  28.136  25.185  1.00  0.00     0.022 A 
BRANCH  95  99
ATOM     99  S   UNL A   1      49.326  27.533  25.174  1.00  0.00     0.124 S 
ATOM    100  O   UNL A   1      49.936  26.253  25.515  1.00  0.00    -0.237 OA
ATOM    101  O   UNL A   1      49.134  27.787  23.749  1.00  0.00    -0.237 OA
ATOM    102  O   UNL A   1      49.849  28.672  25.932  1.00  0.00    -0.744 OA
ENDBRANCH  95  99
ENDBRANCH  69  92
ENDBRANCH  43  44
ENDBRANCH  36  38
ENDBRANCH  35  36
ENDBRANCH  34  35
ENDBRANCH   1  34
TORSDOF 19
ENDMDL
MODEL 2
REMARK VINA RESULT:     -13.7      4.939     10.979
REMARK SMILES Cc1c(C[NH2+][C@@H]2CCCc3ccccc32)c(C(=O)OCCOC(=O)c2ccc(-c3c4nc(c(-c5cc(S(=O)(=O)[O-])ccc5F)c5ccc([nH]5)c(-c5cc(S(=O)(=O)[O-])ccc5F)c5nc(c(-c6cc(S(=O)(=O)[O-])ccc6F)c6ccc3[nH]6)C=C5)C=C4)cc2)c(C)n1Cc1cccc(Cl)c1
REMARK SMILES IDX 20 1 19 2 17 3 18 4 16 5 1 6 2 7 3 8 90 9 88 10 89 11 4 12
REMARK SMILES IDX 5 13 6 16 7 17 15 18 8 19 10 20 14 21 9 22 11 23 13 24 12 25
REMARK SMILES IDX 91 26 92 27 93 28 98 29 94 30 96 31 95 32 97 33 21 34 22 35
REMARK SMILES IDX 23 36 24 37 25 38 26 39 87 40 27 41 86 42 28 43 29 44 30 45
REMARK SMILES IDX 80 46 31 47 85 48 79 49 81 50 32 51 84 52 78 53 77 54 33 56
REMARK SMILES IDX 65 57 45 58 64 59 46 60 49 61 63 62 82 63 47 64 48 65 62 67
REMARK SMILES IDX 83 68 50 69 34 70 35 71 43 72 36 73 42 74 44 75 41 76 37 77
REMARK SMILES IDX 38 78 39 79 40 80 66 81 67 82 75 83 68 84 74 85 76 86 73 87
REMARK SMILES IDX 69 88 70 89 71 90 72 91 51 92 52 93 60 94 53 95 59 96 61 97
REMARK SMILES IDX 58 98 54 99 55 100 56 101 57 102
REMARK H PARENT 5 14 5 15 81 55 49 66
REMARK Flexibility Score: inf
ROOT
ATOM      1  C   UNL A   1      37.530  23.785  25.008  1.00  0.00     0.275 C 
ENDROOT
BRANCH   1   2
ATOM      2  O   UNL A   1      36.133  24.188  25.071  1.00  0.00    -0.458 OA
BRANCH   2   3
ATOM      3  C   UNL A   1      35.295  23.751  24.094  1.00  0.00     0.340 C 
ATOM      4  O   UNL A   1      35.439  24.034  22.885  1.00  0.00    -0.246 OA
BRANCH   3   5
ATOM      5  C   UNL A   1      34.177  22.954  24.597  1.00  0.00     0.089 A 
ATOM      6  C   UNL A   1      30.675  22.338  25.760  1.00  0.00     0.065 C 
ATOM      7  C   UNL A   1      32.107  22.325  25.323  1.00  0.00     0.025 A 
ATOM      8  C   UNL A   1      32.864  23.426  24.918  1.00  0.00     0.042 A 
ATOM      9  N   UNL A   1      32.915  21.193  25.239  1.00  0.00    -0.343 N 
ATOM     10  C   UNL A   1      34.219  21.613  24.981  1.00  0.00     0.030 A 
ATOM     11  C   UNL A   1      35.436  20.765  25.123  1.00  0.00     0.065 C 
BRANCH   8  12
ATOM     12  C   UNL A   1      32.408  24.860  24.800  1.00  0.00     0.300 C 
BRANCH  12  13
ATOM     13  N   UNL A   1      32.314  25.433  26.146  1.00  0.00    -0.336 N 
ATOM     14  H   UNL A   1      33.145  25.999  26.319  1.00  0.00     0.347 HD
ATOM     15  H   UNL A   1      32.243  24.660  26.807  1.00  0.00     0.347 HD
BRANCH  13  16
ATOM     16  C   UNL A   1      31.124  26.279  26.318  1.00  0.00     0.214 C 
ATOM     17  C   UNL A   1      30.060  25.962  25.245  1.00  0.00     0.070 C 
ATOM     18  C   UNL A   1      31.521  27.756  26.290  1.00  0.00     0.012 A 
ATOM     19  C   UNL A   1      30.391  26.591  23.896  1.00  0.00     0.011 C 
ATOM     20  C   UNL A   1      31.237  28.594  25.193  1.00  0.00    -0.039 A 
ATOM     21  C   UNL A   1      32.219  28.292  27.389  1.00  0.00     0.010 A 
ATOM     22  C   UNL A   1      30.436  28.110  24.011  1.00  0.00     0.036 C 
ATOM     23  C   UNL A   1      31.650  29.936  25.219  1.00  0.00     0.004 A 
ATOM     24  C   UNL A   1      32.632  29.625  27.397  1.00  0.00     0.001 A 
ATOM     25  C   UNL A   1      32.350  30.447  26.312  1.00  0.00     0.000 A 
ENDBRANCH  13  16
ENDBRANCH  12  13
ENDBRANCH   8  12
BRANCH   9  26
ATOM     26  C   UNL A   1      32.506  19.816  25.579  1.00  0.00     0.157 C 
BRANCH  26  27
ATOM     27  C   UNL A   1      33.101  18.699  24.733  1.00  0.00    -0.027 A 
ATOM     28  C   UNL A   1      32.673  18.500  23.407  1.00  0.00     0.005 A 
ATOM     29  C   UNL A   1      33.980  17.746  25.270  1.00  0.00     0.026 A 
ATOM     30  C   UNL A   1      33.108  17.396  22.659  1.00  0.00     0.002 A 
ATOM     31  C   UNL A   1      34.412  16.645  24.526  1.00  0.00     0.041 A 
ATOM     32  C   UNL A   1      33.977  16.463  23.221  1.00  0.00     0.020 A 
ATOM     33  Cl  UNL A   1      35.456  15.484  25.255  1.00  0.00    -0.084 Cl
ENDBRANCH  26  27
ENDBRANCH   9  26
ENDBRANCH   3   5
ENDBRANCH   2   3
ENDBRANCH   1   2
BRANCH   1  34
ATOM     34  C   UNL A   1      37.932  22.931  26.256  1.00  0.00     0.275 C 
BRANCH  34  35
ATOM     35  O   UNL A   1      39.184  22.117  26.245  1.00  0.00    -0.458 OA
BRANCH  35  36
ATOM     36  C   UNL A   1      40.184  22.446  27.147  1.00  0.00     0.338 C 
ATOM     37  O   UNL A   1      40.980  21.605  27.544  1.00  0.00    -0.246 OA
BRANCH  36  38
ATOM     38  C   UNL A   1      40.313  23.949  27.597  1.00  0.00     0.060 A 
ATOM     39  C   UNL A   1      39.498  24.431  28.610  1.00  0.00     0.016 A 
ATOM     40  C   UNL A   1      40.976  25.004  26.916  1.00  0.00     0.016 A 
ATOM     41  C   UNL A   1      39.440  25.855  28.967  1.00  0.00     0.010 A 
ATOM     42  C   UNL A   1      40.843  26.493  27.245  1.00  0.00     0.010 A 
ATOM     43  C   UNL A   1      40.067  27.007  28.308  1.00  0.00    -0.014 A 
BRANCH  43  44
ATOM     44  C   UNL A   1      39.441  28.612  28.669  1.00  0.00     0.031 A 
ATOM     45  C   UNL A   1      40.744  29.315  28.843  1.00  0.00     0.074 A 
ATOM     46  C   UNL A   1      38.338  29.495  29.003  1.00  0.00     0.049 A 
ATOM     47  N   UNL A   1      41.571  28.827  29.724  1.00  0.00    -0.248 NA
ATOM     48  C   UNL A   1      41.377  30.181  27.847  1.00  0.00     0.031 C 
ATOM     49  C   UNL A   1      36.914  29.162  29.269  1.00  0.00     0.029 A 
ATOM     50  N   UNL A   1      38.204  30.970  29.230  1.00  0.00    -0.354 N 
ATOM     51  C   UNL A   1      42.715  29.568  29.653  1.00  0.00     0.074 A 
ATOM     52  C   UNL A   1      42.627  30.200  28.337  1.00  0.00     0.031 C 
ATOM     53  C   UNL A   1      36.097  30.262  29.422  1.00  0.00     0.029 A 
ATOM     54  C   UNL A   1      36.822  31.545  29.357  1.00  0.00     0.049 A 
ATOM     55  H   UNL A   1      38.999  31.546  29.294  1.00  0.00     0.167 HD
ATOM     56  C   UNL A   1      43.075  30.117  30.850  1.00  0.00     0.034 A 
ATOM     57  C   UNL A   1      36.305  32.884  29.513  1.00  0.00     0.034 A 
ATOM     58  C   UNL A   1      42.599  31.469  30.963  1.00  0.00     0.049 A 
ATOM     59  C   UNL A   1      37.302  33.606  30.293  1.00  0.00     0.074 A 
ATOM     60  C   UNL A   1      42.516  32.512  30.060  1.00  0.00     0.029 A 
ATOM     61  N   UNL A   1      41.674  31.723  31.951  1.00  0.00    -0.354 N 
ATOM     62  N   UNL A   1      37.426  33.435  31.570  1.00  0.00    -0.248 NA
ATOM     63  C   UNL A   1      38.152  34.624  29.694  1.00  0.00     0.031 C 
ATOM     64  C   UNL A   1      41.212  33.011  30.237  1.00  0.00     0.029 A 
ATOM     65  C   UNL A   1      40.753  32.635  31.494  1.00  0.00     0.049 A 
ATOM     66  H   UNL A   1      41.672  31.314  32.847  1.00  0.00     0.167 HD
ATOM     67  C   UNL A   1      38.713  33.821  31.768  1.00  0.00     0.074 A 
ATOM     68  C   UNL A   1      38.995  34.787  30.715  1.00  0.00     0.031 C 
ATOM     69  C   UNL A   1      39.535  32.852  32.242  1.00  0.00     0.034 A 
BRANCH  56  70
ATOM     70  C   UNL A   1      43.052  29.126  31.998  1.00  0.00     0.023 A 
ATOM     71  C   UNL A   1      42.605  29.553  33.250  1.00  0.00     0.031 A 
ATOM     72  C   UNL A   1      43.551  27.802  31.898  1.00  0.00     0.131 A 
ATOM     73  C   UNL A   1      42.736  28.703  34.363  1.00  0.00     0.055 A 
ATOM     74  C   UNL A   1      43.747  26.993  33.015  1.00  0.00     0.041 A 
ATOM     75  F   UNL A   1      43.846  27.261  30.704  1.00  0.00    -0.206 F 
ATOM     76  C   UNL A   1      43.345  27.446  34.262  1.00  0.00     0.022 A 
BRANCH  73  77
ATOM     77  S   UNL A   1      42.056  29.250  35.949  1.00  0.00     0.124 S 
ATOM     78  O   UNL A   1      43.208  29.136  36.838  1.00  0.00    -0.237 OA
ATOM     79  O   UNL A   1      41.629  30.614  35.648  1.00  0.00    -0.237 OA
ATOM     80  O   UNL A   1      40.971  28.308  36.210  1.00  0.00    -0.744 OA
ENDBRANCH  73  77
ENDBRANCH  56  70
BRANCH  57  81
ATOM     81  C   UNL A   1      35.045  33.953  29.417  1.00  0.00     0.023 A 
ATOM     82  C   UNL A   1      34.392  34.624  30.575  1.00  0.00     0.031 A 
ATOM     83  C   UNL A   1      34.853  34.662  28.222  1.00  0.00     0.131 A 
ATOM     84  C   UNL A   1      33.667  35.880  30.480  1.00  0.00     0.055 A 
ATOM     85  C   UNL A   1      34.147  35.902  28.142  1.00  0.00     0.041 A 
ATOM     86  F   UNL A   1      35.444  34.243  27.096  1.00  0.00    -0.206 F 
ATOM     87  C   UNL A   1      33.572  36.519  29.254  1.00  0.00     0.022 A 
BRANCH  84  88
ATOM     88  S   UNL A   1      32.952  36.840  31.931  1.00  0.00     0.124 S 
ATOM     89  O   UNL A   1      31.626  36.258  32.097  1.00  0.00    -0.237 OA
ATOM     90  O   UNL A   1      33.914  36.596  33.000  1.00  0.00    -0.237 OA
ATOM     91  O   UNL A   1      32.936  38.229  31.457  1.00  0.00    -0.744 OA
ENDBRANCH  84  88
ENDBRANCH  57  81
BRANCH  69  92
ATOM     92  C   UNL A   1      39.027  31.978  33.384  1.00  0.00     0.023 A 
ATOM     93  C   UNL A   1      38.674  32.399  34.695  1.00  0.00     0.031 A 
ATOM     94  C   UNL A   1      38.954  30.600  33.131  1.00  0.00     0.131 A 
ATOM     95  C   UNL A   1      38.281  31.459  35.674  1.00  0.00     0.055 A 
ATOM     96  C   UNL A   1      38.527  29.677  34.084  1.00  0.00     0.041 A 
ATOM     97  F   UNL A   1      39.301  30.120  31.926  1.00  0.00    -0.206 F 
ATOM     98  C   UNL A   1      38.198  30.102  35.363  1.00  0.00     0.022 A 
BRANCH  95  99
ATOM     99  S   UNL A   1      37.938  31.975  37.394  1.00  0.00     0.124 S 
ATOM    100  O   UNL A   1      37.039  33.112  37.234  1.00  0.00    -0.237 OA
ATOM    101  O   UNL A   1      37.347  30.774  37.977  1.00  0.00    -0.237 OA
ATOM    102  O   UNL A   1      39.261  32.320  37.918  1.00  0.00    -0.744 OA
ENDBRANCH  95  99
ENDBRANCH  69  92
ENDBRANCH  43  44
ENDBRANCH  36  38
ENDBRANCH  35  36
ENDBRANCH  34  35
ENDBRANCH   1  34
TORSDOF 19
ENDMDL
MODEL 3
REMARK VINA RESULT:     -13.5      2.722      5.917
REMARK SMILES Cc1c(C[NH2+][C@@H]2CCCc3ccccc32)c(C(=O)OCCOC(=O)c2ccc(-c3c4nc(c(-c5cc(S(=O)(=O)[O-])ccc5F)c5ccc([nH]5)c(-c5cc(S(=O)(=O)[O-])ccc5F)c5nc(c(-c6cc(S(=O)(=O)[O-])ccc6F)c6ccc3[nH]6)C=C5)C=C4)cc2)c(C)n1Cc1cccc(Cl)c1
REMARK SMILES IDX 20 1 19 2 17 3 18 4 16 5 1 6 2 7 3 8 90 9 88 10 89 11 4 12
REMARK SMILES IDX 5 13 6 16 7 17 15 18 8 19 10 20 14 21 9 22 11 23 13 24 12 25
REMARK SMILES IDX 91 26 92 27 93 28 98 29 94 30 96 31 95 32 97 33 21 34 22 35
REMARK SMILES IDX 23 36 24 37 25 38 26 39 87 40 27 41 86 42 28 43 29 44 30 45
REMARK SMILES IDX 80 46 31 47 85 48 79 49 81 50 32 51 84 52 78 53 77 54 33 56
REMARK SMILES IDX 65 57 45 58 64 59 46 60 49 61 63 62 82 63 47 64 48 65 62 67
REMARK SMILES IDX 83 68 50 69 34 70 35 71 43 72 36 73 42 74 44 75 41 76 37 77
REMARK SMILES IDX 38 78 39 79 40 80 66 81 67 82 75 83 68 84 74 85 76 86 73 87
REMARK SMILES IDX 69 88 70 89 71 90 72 91 51 92 52 93 60 94 53 95 59 96 61 97
REMARK SMILES IDX 58 98 54 99 55 100 56 101 57 102
REMARK H PARENT 5 14 5 15 81 55 49 66
REMARK Flexibility Score: inf
ROOT
ATOM      1  C   UNL A   1      31.893  29.484  27.391  1.00  0.00     0.275 C 
ENDROOT
BRANCH   1   2
ATOM      2  O   UNL A   1      31.815  28.437  26.383  1.00  0.00    -0.458 OA
BRANCH   2   3
ATOM      3  C   UNL A   1      32.955  27.766  26.068  1.00  0.00     0.340 C 
ATOM      4  O   UNL A   1      34.033  27.911  26.684  1.00  0.00    -0.246 OA
BRANCH   3   5
ATOM      5  C   UNL A   1      32.816  26.890  24.906  1.00  0.00     0.089 A 
ATOM      6  C   UNL A   1      32.488  26.068  21.271  1.00  0.00     0.065 C 
ATOM      7  C   UNL A   1      32.625  26.136  22.760  1.00  0.00     0.025 A 
ATOM      8  C   UNL A   1      32.696  27.295  23.537  1.00  0.00     0.042 A 
ATOM      9  N   UNL A   1      32.718  25.039  23.614  1.00  0.00    -0.343 N 
ATOM     10  C   UNL A   1      32.641  25.505  24.925  1.00  0.00     0.030 A 
ATOM     11  C   UNL A   1      32.389  24.657  26.123  1.00  0.00     0.065 C 
BRANCH   8  12
ATOM     12  C   UNL A   1      32.682  28.725  23.056  1.00  0.00     0.300 C 
BRANCH  12  13
ATOM     13  N   UNL A   1      31.365  29.301  23.341  1.00  0.00    -0.336 N 
ATOM     14  H   UNL A   1      31.461  30.314  23.417  1.00  0.00     0.347 HD
ATOM     15  H   UNL A   1      31.030  28.890  24.213  1.00  0.00     0.347 HD
BRANCH  13  16
ATOM     16  C   UNL A   1      30.377  28.998  22.295  1.00  0.00     0.214 C 
ATOM     17  C   UNL A   1      30.008  30.268  21.499  1.00  0.00     0.070 C 
ATOM     18  C   UNL A   1      29.139  28.348  22.915  1.00  0.00     0.012 A 
ATOM     19  C   UNL A   1      29.029  31.161  22.254  1.00  0.00     0.011 C 
ATOM     20  C   UNL A   1      27.915  29.033  23.052  1.00  0.00    -0.039 A 
ATOM     21  C   UNL A   1      29.232  27.026  23.389  1.00  0.00     0.010 A 
ATOM     22  C   UNL A   1      27.719  30.425  22.509  1.00  0.00     0.036 C 
ATOM     23  C   UNL A   1      26.822  28.386  23.652  1.00  0.00     0.004 A 
ATOM     24  C   UNL A   1      28.141  26.400  23.993  1.00  0.00     0.001 A 
ATOM     25  C   UNL A   1      26.936  27.081  24.127  1.00  0.00     0.000 A 
ENDBRANCH  13  16
ENDBRANCH  12  13
ENDBRANCH   8  12
BRANCH   9  26
ATOM     26  C   UNL A   1      32.682  23.622  23.202  1.00  0.00     0.157 C 
BRANCH  26  27
ATOM     27  C   UNL A   1      33.761  22.717  23.778  1.00  0.00    -0.027 A 
ATOM     28  C   UNL A   1      33.451  21.405  24.186  1.00  0.00     0.005 A 
ATOM     29  C   UNL A   1      35.054  23.183  24.058  1.00  0.00     0.026 A 
ATOM     30  C   UNL A   1      34.397  20.604  24.843  1.00  0.00     0.002 A 
ATOM     31  C   UNL A   1      35.995  22.388  24.715  1.00  0.00     0.041 A 
ATOM     32  C   UNL A   1      35.672  21.098  25.113  1.00  0.00     0.020 A 
ATOM     33  Cl  UNL A   1      37.553  23.032  25.072  1.00  0.00    -0.084 Cl
ENDBRANCH  26  27
ENDBRANCH   9  26
ENDBRANCH   3   5
ENDBRANCH   2   3
ENDBRANCH   1   2
BRANCH   1  34
ATOM     34  C   UNL A   1      32.200  30.875  26.743  1.00  0.00     0.275 C 
BRANCH  34  35
ATOM     35  O   UNL A   1      33.606  31.365  26.631  1.00  0.00    -0.458 OA
BRANCH  35  36
ATOM     36  C   UNL A   1      34.185  31.945  27.750  1.00  0.00     0.338 C 
ATOM     37  O   UNL A   1      33.719  32.962  28.248  1.00  0.00    -0.246 OA
BRANCH  36  38
ATOM     38  C   UNL A   1      35.423  31.225  28.404  1.00  0.00     0.060 A 
ATOM     39  C   UNL A   1      36.705  31.594  28.029  1.00  0.00     0.016 A 
ATOM     40  C   UNL A   1      35.426  30.019  29.154  1.00  0.00     0.016 A 
ATOM     41  C   UNL A   1      37.899  30.856  28.465  1.00  0.00     0.010 A 
ATOM     42  C   UNL A   1      36.672  29.215  29.533  1.00  0.00     0.010 A 
ATOM     43  C   UNL A   1      37.994  29.598  29.215  1.00  0.00    -0.014 A 
BRANCH  43  44
ATOM     44  C   UNL A   1      39.522  28.723  29.176  1.00  0.00     0.031 A 
ATOM     45  C   UNL A   1      39.766  28.655  30.645  1.00  0.00     0.074 A 
ATOM     46  C   UNL A   1      40.660  28.196  28.446  1.00  0.00     0.049 A 
ATOM     47  N   UNL A   1      39.785  29.784  31.298  1.00  0.00    -0.248 NA
ATOM     48  C   UNL A   1      39.530  27.483  31.489  1.00  0.00     0.031 C 
ATOM     49  C   UNL A   1      40.997  28.331  27.005  1.00  0.00     0.029 A 
ATOM     50  N   UNL A   1      41.872  27.398  28.822  1.00  0.00    -0.354 N 
ATOM     51  C   UNL A   1      39.937  29.479  32.620  1.00  0.00     0.074 A 
ATOM     52  C   UNL A   1      39.525  28.078  32.693  1.00  0.00     0.031 C 
ATOM     53  C   UNL A   1      42.089  27.585  26.609  1.00  0.00     0.029 A 
ATOM     54  C   UNL A   1      42.736  26.859  27.718  1.00  0.00     0.049 A 
ATOM     55  H   UNL A   1      42.095  27.232  29.766  1.00  0.00     0.167 HD
ATOM     56  C   UNL A   1      41.015  30.091  33.192  1.00  0.00     0.034 A 
ATOM     57  C   UNL A   1      43.911  26.021  27.685  1.00  0.00     0.034 A 
ATOM     58  C   UNL A   1      42.159  29.221  33.199  1.00  0.00     0.049 A 
ATOM     59  C   UNL A   1      44.656  26.335  28.897  1.00  0.00     0.074 A 
ATOM     60  C   UNL A   1      42.305  27.866  33.432  1.00  0.00     0.029 A 
ATOM     61  N   UNL A   1      43.248  29.617  32.454  1.00  0.00    -0.354 N 
ATOM     62  N   UNL A   1      45.353  27.420  29.009  1.00  0.00    -0.248 NA
ATOM     63  C   UNL A   1      44.731  25.403  30.012  1.00  0.00     0.031 C 
ATOM     64  C   UNL A   1      43.129  27.428  32.378  1.00  0.00     0.029 A 
ATOM     65  C   UNL A   1      43.831  28.516  31.872  1.00  0.00     0.049 A 
ATOM     66  H   UNL A   1      43.560  30.545  32.354  1.00  0.00     0.167 HD
ATOM     67  C   UNL A   1      45.398  27.570  30.359  1.00  0.00     0.074 A 
ATOM     68  C   UNL A   1      45.290  26.223  30.903  1.00  0.00     0.031 C 
ATOM     69  C   UNL A   1      44.815  28.700  30.829  1.00  0.00     0.034 A 
BRANCH  56  70
ATOM     70  C   UNL A   1      41.097  31.574  32.887  1.00  0.00     0.023 A 
ATOM     71  C   UNL A   1      40.742  32.489  33.881  1.00  0.00     0.031 A 
ATOM     72  C   UNL A   1      41.427  32.092  31.608  1.00  0.00     0.131 A 
ATOM     73  C   UNL A   1      40.647  33.857  33.566  1.00  0.00     0.055 A 
ATOM     74  C   UNL A   1      41.259  33.436  31.283  1.00  0.00     0.041 A 
ATOM     75  F   UNL A   1      41.934  31.300  30.650  1.00  0.00    -0.206 F 
ATOM     76  C   UNL A   1      40.859  34.329  32.265  1.00  0.00     0.022 A 
BRANCH  73  77
ATOM     77  S   UNL A   1      40.282  35.023  34.901  1.00  0.00     0.124 S 
ATOM     78  O   UNL A   1      38.892  35.380  34.632  1.00  0.00    -0.237 OA
ATOM     79  O   UNL A   1      40.501  34.208  36.093  1.00  0.00    -0.237 OA
ATOM     80  O   UNL A   1      41.252  36.098  34.703  1.00  0.00    -0.744 OA
ENDBRANCH  73  77
ENDBRANCH  56  70
BRANCH  57  81
ATOM     81  C   UNL A   1      44.936  25.025  26.851  1.00  0.00     0.023 A 
ATOM     82  C   UNL A   1      44.723  23.569  26.614  1.00  0.00     0.031 A 
ATOM     83  C   UNL A   1      45.801  25.590  25.903  1.00  0.00     0.131 A 
ATOM     84  C   UNL A   1      45.321  22.833  25.513  1.00  0.00     0.055 A 
ATOM     85  C   UNL A   1      46.374  24.857  24.817  1.00  0.00     0.041 A 
ATOM     86  F   UNL A   1      46.036  26.908  25.917  1.00  0.00    -0.206 F 
ATOM     87  C   UNL A   1      46.130  23.500  24.608  1.00  0.00     0.022 A 
BRANCH  84  88
ATOM     88  S   UNL A   1      44.969  21.034  25.087  1.00  0.00     0.124 S 
ATOM     89  O   UNL A   1      46.195  20.351  25.478  1.00  0.00    -0.237 OA
ATOM     90  O   UNL A   1      43.773  20.733  25.865  1.00  0.00    -0.237 OA
ATOM     91  O   UNL A   1      44.739  21.058  23.637  1.00  0.00    -0.744 OA
ENDBRANCH  84  88
ENDBRANCH  57  81
BRANCH  69  92
ATOM     92  C   UNL A   1      45.108  30.011  30.107  1.00  0.00     0.023 A 
ATOM     93  C   UNL A   1      44.659  30.398  28.814  1.00  0.00     0.031 A 
ATOM     94  C   UNL A   1      45.961  30.910  30.765  1.00  0.00     0.131 A 
ATOM     95  C   UNL A   1      45.069  31.623  28.244  1.00  0.00     0.055 A 
ATOM     96  C   UNL A   1      46.334  32.137  30.219  1.00  0.00     0.041 A 
ATOM     97  F   UNL A   1      46.454  30.603  31.976  1.00  0.00    -0.206 F 
ATOM     98  C   UNL A   1      45.897  32.494  28.952  1.00  0.00     0.022 A 
BRANCH  95  99
ATOM     99  S   UNL A   1      44.592  32.077  26.538  1.00  0.00     0.124 S 
ATOM    100  O   UNL A   1      44.163  33.465  26.664  1.00  0.00    -0.237 OA
ATOM    101  O   UNL A   1      45.827  31.858  25.791  1.00  0.00    -0.237 OA
ATOM    102  O   UNL A   1      43.514  31.137  26.223  1.00  0.00    -0.744 OA
ENDBRANCH  95  99
ENDBRANCH  69  92
ENDBRANCH  43  44
ENDBRANCH  36  38
ENDBRANCH  35  36
ENDBRANCH  34  35
ENDBRANCH   1  34
TORSDOF 19
ENDMDL
