MODEL 1
REMARK VINA RESULT:     -11.4      0.000      0.000
REMARK SMILES CCS(=O)(=O)c1ccccc1NC[C@H]1CC[C@H](C(=O)OCCOC(=O)c2ccc(-c3c4nc(c(-c5cc(S(=O)(=O)[O-])ccc5F)c5ccc([nH]5)c(-c5cc(S(=O)(=O)[O-])ccc5F)c5nc(c(-c6cc(S(=O)(=O)[O-])ccc6F)c6ccc3[nH]6)C=C5)C=C4)cc2)O1
REMARK SMILES IDX 21 1 20 2 18 3 19 4 17 5 14 6 15 7 89 8 16 9 13 10 12 11
REMARK SMILES IDX 11 13 6 14 7 15 8 16 10 17 9 18 3 19 4 20 5 21 2 22 1 23
REMARK SMILES IDX 22 24 23 25 24 26 25 27 26 28 27 29 88 30 28 31 87 32 29 33
REMARK SMILES IDX 30 34 31 35 81 36 32 37 86 38 80 39 82 40 33 41 85 42 79 43
REMARK SMILES IDX 78 44 34 46 66 47 46 48 65 49 47 50 50 51 64 52 83 53 48 54
REMARK SMILES IDX 49 55 63 57 84 58 51 59 35 60 36 61 44 62 37 63 43 64 45 65
REMARK SMILES IDX 42 66 38 67 39 68 40 69 41 70 67 71 68 72 76 73 69 74 75 75
REMARK SMILES IDX 77 76 74 77 70 78 71 79 72 80 73 81 52 82 53 83 61 84 54 85
REMARK SMILES IDX 60 86 62 87 59 88 55 89 56 90 57 91 58 92
REMARK H PARENT 12 12 82 45 50 56
REMARK Flexibility Score: inf
ROOT
ATOM      1  C   UNL A   1      35.056  20.788  24.890  1.00  0.00     0.274 C 
ENDROOT
BRANCH   1   2
ATOM      2  O   UNL A   1      34.849  22.208  24.990  1.00  0.00    -0.460 OA
BRANCH   2   3
ATOM      3  C   UNL A   1      34.558  22.850  23.825  1.00  0.00     0.335 C 
ATOM      4  O   UNL A   1      35.358  23.029  22.913  1.00  0.00    -0.249 OA
BRANCH   3   5
ATOM      5  C   UNL A   1      33.107  23.339  23.769  1.00  0.00     0.228 C 
ATOM      6  C   UNL A   1      31.510  24.107  25.284  1.00  0.00     0.138 C 
ATOM      7  C   UNL A   1      31.444  22.590  25.285  1.00  0.00     0.037 C 
ATOM      8  O   UNL A   1      32.824  24.368  24.741  1.00  0.00    -0.361 OA
ATOM      9  C   UNL A   1      32.059  22.243  23.953  1.00  0.00     0.047 C 
BRANCH   6  10
ATOM     10  C   UNL A   1      30.448  24.814  24.408  1.00  0.00     0.145 C 
BRANCH  10  11
ATOM     11  N   UNL A   1      29.948  26.041  25.004  1.00  0.00    -0.381 N 
ATOM     12  H   UNL A   1      28.990  26.047  25.232  1.00  0.00     0.160 HD
BRANCH  11  13
ATOM     13  C   UNL A   1      30.640  27.195  25.291  1.00  0.00     0.053 A 
ATOM     14  C   UNL A   1      30.578  28.334  24.460  1.00  0.00     0.090 A 
ATOM     15  C   UNL A   1      31.322  29.494  24.740  1.00  0.00     0.022 A 
ATOM     16  C   UNL A   1      32.118  29.555  25.878  1.00  0.00     0.001 A 
ATOM     17  C   UNL A   1      31.435  27.304  26.443  1.00  0.00     0.027 A 
ATOM     18  C   UNL A   1      32.168  28.461  26.733  1.00  0.00     0.002 A 
BRANCH  14  19
ATOM     19  S   UNL A   1      29.585  28.383  22.972  1.00  0.00     0.180 S 
ATOM     20  O   UNL A   1      28.313  27.732  23.232  1.00  0.00    -0.224 OA
ATOM     21  O   UNL A   1      30.442  27.920  21.895  1.00  0.00    -0.224 OA
BRANCH  19  22
ATOM     22  C   UNL A   1      29.269  30.112  22.694  1.00  0.00     0.139 C 
ATOM     23  C   UNL A   1      28.037  30.636  23.401  1.00  0.00     0.021 C 
ENDBRANCH  19  22
ENDBRANCH  14  19
ENDBRANCH  11  13
ENDBRANCH  10  11
ENDBRANCH   6  10
ENDBRANCH   3   5
ENDBRANCH   2   3
ENDBRANCH   1   2
BRANCH   1  24
ATOM     24  C   UNL A   1      36.541  20.424  24.984  1.00  0.00     0.275 C 
BRANCH  24  25
ATOM     25  O   UNL A   1      37.298  21.443  25.662  1.00  0.00    -0.458 OA
BRANCH  25  26
ATOM     26  C   UNL A   1      38.590  21.129  25.925  1.00  0.00     0.338 C 
ATOM     27  O   UNL A   1      39.148  20.068  25.710  1.00  0.00    -0.246 OA
BRANCH  26  28
ATOM     28  C   UNL A   1      39.294  22.323  26.418  1.00  0.00     0.060 A 
ATOM     29  C   UNL A   1      38.837  23.580  26.012  1.00  0.00     0.016 A 
ATOM     30  C   UNL A   1      40.433  22.204  27.215  1.00  0.00     0.016 A 
ATOM     31  C   UNL A   1      39.511  24.730  26.417  1.00  0.00     0.010 A 
ATOM     32  C   UNL A   1      41.108  23.360  27.622  1.00  0.00     0.010 A 
ATOM     33  C   UNL A   1      40.651  24.630  27.226  1.00  0.00    -0.014 A 
BRANCH  33  34
ATOM     34  C   UNL A   1      41.376  25.854  27.649  1.00  0.00     0.031 A 
ATOM     35  C   UNL A   1      40.671  26.903  28.460  1.00  0.00     0.074 A 
ATOM     36  C   UNL A   1      42.664  26.019  27.294  1.00  0.00     0.049 A 
ATOM     37  N   UNL A   1      41.091  28.085  28.829  1.00  0.00    -0.248 NA
ATOM     38  C   UNL A   1      39.311  26.575  28.910  1.00  0.00     0.031 C 
ATOM     39  C   UNL A   1      43.462  25.047  26.546  1.00  0.00     0.029 A 
ATOM     40  N   UNL A   1      43.526  27.065  27.507  1.00  0.00    -0.354 N 
ATOM     41  C   UNL A   1      40.044  28.653  29.546  1.00  0.00     0.074 A 
ATOM     42  C   UNL A   1      38.961  27.690  29.535  1.00  0.00     0.031 C 
ATOM     43  C   UNL A   1      44.695  25.546  26.356  1.00  0.00     0.029 A 
ATOM     44  C   UNL A   1      44.757  26.891  26.919  1.00  0.00     0.049 A 
ATOM     45  H   UNL A   1      43.285  27.864  28.030  1.00  0.00     0.167 HD
ATOM     46  C   UNL A   1      39.995  29.864  30.155  1.00  0.00     0.034 A 
ATOM     47  C   UNL A   1      45.802  27.737  26.811  1.00  0.00     0.034 A 
ATOM     48  C   UNL A   1      41.086  30.810  30.150  1.00  0.00     0.049 A 
ATOM     49  C   UNL A   1      45.691  29.112  27.418  1.00  0.00     0.074 A 
ATOM     50  C   UNL A   1      41.153  32.056  30.752  1.00  0.00     0.029 A 
ATOM     51  N   UNL A   1      42.300  30.623  29.499  1.00  0.00    -0.354 N 
ATOM     52  N   UNL A   1      44.690  29.643  28.081  1.00  0.00    -0.248 NA
ATOM     53  C   UNL A   1      46.848  30.002  27.256  1.00  0.00     0.031 C 
ATOM     54  C   UNL A   1      42.376  32.646  30.411  1.00  0.00     0.029 A 
ATOM     55  C   UNL A   1      43.103  31.742  29.652  1.00  0.00     0.049 A 
ATOM     56  H   UNL A   1      42.552  29.812  29.001  1.00  0.00     0.167 HD
ATOM     57  C   UNL A   1      45.104  30.926  28.429  1.00  0.00     0.074 A 
ATOM     58  C   UNL A   1      46.451  31.079  27.917  1.00  0.00     0.031 C 
ATOM     59  C   UNL A   1      44.435  31.889  29.111  1.00  0.00     0.034 A 
BRANCH  46  60
ATOM     60  C   UNL A   1      38.698  30.252  30.823  1.00  0.00     0.023 A 
ATOM     61  C   UNL A   1      37.680  30.934  30.132  1.00  0.00     0.031 A 
ATOM     62  C   UNL A   1      38.489  29.957  32.182  1.00  0.00     0.131 A 
ATOM     63  C   UNL A   1      36.530  31.354  30.819  1.00  0.00     0.055 A 
ATOM     64  C   UNL A   1      37.311  30.314  32.841  1.00  0.00     0.041 A 
ATOM     65  F   UNL A   1      39.433  29.327  32.897  1.00  0.00    -0.206 F 
ATOM     66  C   UNL A   1      36.329  31.030  32.164  1.00  0.00     0.022 A 
BRANCH  63  67
ATOM     67  S   UNL A   1      35.357  32.446  29.968  1.00  0.00     0.124 S 
ATOM     68  O   UNL A   1      34.902  31.594  28.872  1.00  0.00    -0.237 OA
ATOM     69  O   UNL A   1      34.377  32.727  31.010  1.00  0.00    -0.237 OA
ATOM     70  O   UNL A   1      36.180  33.583  29.563  1.00  0.00    -0.744 OA
ENDBRANCH  63  67
ENDBRANCH  46  60
BRANCH  47  71
ATOM     71  C   UNL A   1      47.015  27.338  26.043  1.00  0.00     0.023 A 
ATOM     72  C   UNL A   1      47.188  27.722  24.705  1.00  0.00     0.031 A 
ATOM     73  C   UNL A   1      48.003  26.527  26.631  1.00  0.00     0.131 A 
ATOM     74  C   UNL A   1      48.306  27.268  23.987  1.00  0.00     0.055 A 
ATOM     75  C   UNL A   1      49.137  26.118  25.928  1.00  0.00     0.041 A 
ATOM     76  F   UNL A   1      47.883  26.127  27.907  1.00  0.00    -0.206 F 
ATOM     77  C   UNL A   1      49.288  26.480  24.594  1.00  0.00     0.022 A 
BRANCH  74  78
ATOM     78  S   UNL A   1      48.423  27.659  22.220  1.00  0.00     0.124 S 
ATOM     79  O   UNL A   1      48.474  26.329  21.623  1.00  0.00    -0.237 OA
ATOM     80  O   UNL A   1      47.196  28.417  21.995  1.00  0.00    -0.237 OA
ATOM     81  O   UNL A   1      49.658  28.434  22.124  1.00  0.00    -0.744 OA
ENDBRANCH  74  78
ENDBRANCH  47  71
BRANCH  59  82
ATOM     82  C   UNL A   1      45.172  33.182  29.360  1.00  0.00     0.023 A 
ATOM     83  C   UNL A   1      45.016  34.292  28.512  1.00  0.00     0.031 A 
ATOM     84  C   UNL A   1      46.055  33.295  30.447  1.00  0.00     0.131 A 
ATOM     85  C   UNL A   1      45.773  35.452  28.737  1.00  0.00     0.055 A 
ATOM     86  C   UNL A   1      46.766  34.470  30.696  1.00  0.00     0.041 A 
ATOM     87  F   UNL A   1      46.243  32.263  31.287  1.00  0.00    -0.206 F 
ATOM     88  C   UNL A   1      46.635  35.554  29.832  1.00  0.00     0.022 A 
BRANCH  85  89
ATOM     89  S   UNL A   1      45.674  36.805  27.531  1.00  0.00     0.124 S 
ATOM     90  O   UNL A   1      44.245  37.101  27.523  1.00  0.00    -0.237 OA
ATOM     91  O   UNL A   1      46.533  37.821  28.130  1.00  0.00    -0.237 OA
ATOM     92  O   UNL A   1      46.190  36.206  26.301  1.00  0.00    -0.744 OA
ENDBRANCH  85  89
ENDBRANCH  59  82
ENDBRANCH  33  34
ENDBRANCH  26  28
ENDBRANCH  25  26
ENDBRANCH  24  25
ENDBRANCH   1  24
TORSDOF 19
ENDMDL
MODEL 2
REMARK VINA RESULT:     -11.2      5.755     10.387
REMARK SMILES CCS(=O)(=O)c1ccccc1NC[C@H]1CC[C@H](C(=O)OCCOC(=O)c2ccc(-c3c4nc(c(-c5cc(S(=O)(=O)[O-])ccc5F)c5ccc([nH]5)c(-c5cc(S(=O)(=O)[O-])ccc5F)c5nc(c(-c6cc(S(=O)(=O)[O-])ccc6F)c6ccc3[nH]6)C=C5)C=C4)cc2)O1
REMARK SMILES IDX 21 1 20 2 18 3 19 4 17 5 14 6 15 7 89 8 16 9 13 10 12 11
REMARK SMILES IDX 11 13 6 14 7 15 8 16 10 17 9 18 3 19 4 20 5 21 2 22 1 23
REMARK SMILES IDX 22 24 23 25 24 26 25 27 26 28 27 29 88 30 28 31 87 32 29 33
REMARK SMILES IDX 30 34 31 35 81 36 32 37 86 38 80 39 82 40 33 41 85 42 79 43
REMARK SMILES IDX 78 44 34 46 66 47 46 48 65 49 47 50 50 51 64 52 83 53 48 54
REMARK SMILES IDX 49 55 63 57 84 58 51 59 35 60 36 61 44 62 37 63 43 64 45 65
REMARK SMILES IDX 42 66 38 67 39 68 40 69 41 70 67 71 68 72 76 73 69 74 75 75
REMARK SMILES IDX 77 76 74 77 70 78 71 79 72 80 73 81 52 82 53 83 61 84 54 85
REMARK SMILES IDX 60 86 62 87 59 88 55 89 56 90 57 91 58 92
REMARK H PARENT 12 12 82 45 50 56
REMARK Flexibility Score: inf
ROOT
ATOM      1  C   UNL A   1      33.619  35.298  28.900  1.00  0.00     0.274 C 
ENDROOT
BRANCH   1   2
ATOM      2  O   UNL A   1      32.553  35.263  29.866  1.00  0.00    -0.460 OA
BRANCH   2   3
ATOM      3  C   UNL A   1      32.879  35.670  31.125  1.00  0.00     0.335 C 
ATOM      4  O   UNL A   1      32.317  36.578  31.726  1.00  0.00    -0.249 OA
BRANCH   3   5
ATOM      5  C   UNL A   1      34.041  34.869  31.720  1.00  0.00     0.228 C 
ATOM      6  C   UNL A   1      34.406  33.539  33.600  1.00  0.00     0.138 C 
ATOM      7  C   UNL A   1      34.632  34.982  34.014  1.00  0.00     0.037 C 
ATOM      8  O   UNL A   1      33.607  33.673  32.402  1.00  0.00    -0.361 OA
ATOM      9  C   UNL A   1      34.919  35.652  32.694  1.00  0.00     0.047 C 
BRANCH   6  10
ATOM     10  C   UNL A   1      35.688  32.738  33.269  1.00  0.00     0.145 C 
BRANCH  10  11
ATOM     11  N   UNL A   1      36.654  32.742  34.355  1.00  0.00    -0.381 N 
ATOM     12  H   UNL A   1      36.461  32.131  35.103  1.00  0.00     0.160 HD
BRANCH  11  13
ATOM     13  C   UNL A   1      37.804  33.489  34.472  1.00  0.00     0.053 A 
ATOM     14  C   UNL A   1      38.442  33.694  35.713  1.00  0.00     0.090 A 
ATOM     15  C   UNL A   1      39.594  34.493  35.828  1.00  0.00     0.022 A 
ATOM     16  C   UNL A   1      40.155  35.077  34.698  1.00  0.00     0.001 A 
ATOM     17  C   UNL A   1      38.414  34.074  33.351  1.00  0.00     0.027 A 
ATOM     18  C   UNL A   1      39.567  34.859  33.458  1.00  0.00     0.002 A 
BRANCH  14  19
ATOM     19  S   UNL A   1      37.823  32.992  37.238  1.00  0.00     0.180 S 
ATOM     20  O   UNL A   1      38.368  31.655  37.398  1.00  0.00    -0.224 OA
ATOM     21  O   UNL A   1      36.387  33.205  37.231  1.00  0.00    -0.224 OA
BRANCH  19  22
ATOM     22  C   UNL A   1      38.506  34.019  38.521  1.00  0.00     0.139 C 
ATOM     23  C   UNL A   1      39.450  33.293  39.456  1.00  0.00     0.021 C 
ENDBRANCH  19  22
ENDBRANCH  14  19
ENDBRANCH  11  13
ENDBRANCH  10  11
ENDBRANCH   6  10
ENDBRANCH   3   5
ENDBRANCH   2   3
ENDBRANCH   1   2
BRANCH   1  24
ATOM     24  C   UNL A   1      33.753  33.966  28.155  1.00  0.00     0.275 C 
BRANCH  24  25
ATOM     25  O   UNL A   1      34.788  33.140  28.720  1.00  0.00    -0.458 OA
BRANCH  25  26
ATOM     26  C   UNL A   1      34.746  31.833  28.365  1.00  0.00     0.338 C 
ATOM     27  O   UNL A   1      33.881  31.274  27.715  1.00  0.00    -0.246 OA
BRANCH  26  28
ATOM     28  C   UNL A   1      35.991  31.171  28.784  1.00  0.00     0.060 A 
ATOM     29  C   UNL A   1      35.901  29.951  29.461  1.00  0.00     0.016 A 
ATOM     30  C   UNL A   1      37.230  31.777  28.573  1.00  0.00     0.016 A 
ATOM     31  C   UNL A   1      37.057  29.322  29.918  1.00  0.00     0.010 A 
ATOM     32  C   UNL A   1      38.390  31.143  29.033  1.00  0.00     0.010 A 
ATOM     33  C   UNL A   1      38.311  29.912  29.708  1.00  0.00    -0.014 A 
BRANCH  33  34
ATOM     34  C   UNL A   1      39.541  29.247  30.205  1.00  0.00     0.031 A 
ATOM     35  C   UNL A   1      40.238  29.773  31.426  1.00  0.00     0.074 A 
ATOM     36  C   UNL A   1      40.028  28.176  29.550  1.00  0.00     0.049 A 
ATOM     37  N   UNL A   1      41.378  29.406  31.951  1.00  0.00    -0.248 NA
ATOM     38  C   UNL A   1      39.562  30.861  32.147  1.00  0.00     0.031 C 
ATOM     39  C   UNL A   1      39.409  27.551  28.381  1.00  0.00     0.029 A 
ATOM     40  N   UNL A   1      41.158  27.430  29.769  1.00  0.00    -0.354 N 
ATOM     41  C   UNL A   1      41.567  30.225  33.059  1.00  0.00     0.074 A 
ATOM     42  C   UNL A   1      40.431  31.124  33.112  1.00  0.00     0.031 C 
ATOM     43  C   UNL A   1      40.172  26.520  27.981  1.00  0.00     0.029 A 
ATOM     44  C   UNL A   1      41.357  26.446  28.829  1.00  0.00     0.049 A 
ATOM     45  H   UNL A   1      41.768  27.584  30.527  1.00  0.00     0.167 HD
ATOM     46  C   UNL A   1      42.593  30.223  33.947  1.00  0.00     0.034 A 
ATOM     47  C   UNL A   1      42.397  25.607  28.648  1.00  0.00     0.034 A 
ATOM     48  C   UNL A   1      43.717  29.320  33.873  1.00  0.00     0.049 A 
ATOM     49  C   UNL A   1      43.568  25.685  29.594  1.00  0.00     0.074 A 
ATOM     50  C   UNL A   1      44.800  29.216  34.730  1.00  0.00     0.029 A 
ATOM     51  N   UNL A   1      43.913  28.372  32.876  1.00  0.00    -0.354 N 
ATOM     52  N   UNL A   1      43.741  26.472  30.630  1.00  0.00    -0.248 NA
ATOM     53  C   UNL A   1      44.684  24.764  29.342  1.00  0.00     0.031 C 
ATOM     54  C   UNL A   1      45.679  28.255  34.217  1.00  0.00     0.029 A 
ATOM     55  C   UNL A   1      45.114  27.708  33.075  1.00  0.00     0.049 A 
ATOM     56  H   UNL A   1      43.289  28.197  32.135  1.00  0.00     0.167 HD
ATOM     57  C   UNL A   1      44.982  26.131  31.162  1.00  0.00     0.074 A 
ATOM     58  C   UNL A   1      45.502  25.054  30.344  1.00  0.00     0.031 C 
ATOM     59  C   UNL A   1      45.631  26.655  32.232  1.00  0.00     0.034 A 
BRANCH  46  60
ATOM     60  C   UNL A   1      42.569  31.269  35.035  1.00  0.00     0.023 A 
ATOM     61  C   UNL A   1      43.126  32.547  34.851  1.00  0.00     0.031 A 
ATOM     62  C   UNL A   1      42.001  30.972  36.287  1.00  0.00     0.131 A 
ATOM     63  C   UNL A   1      43.161  33.455  35.922  1.00  0.00     0.055 A 
ATOM     64  C   UNL A   1      41.976  31.905  37.325  1.00  0.00     0.041 A 
ATOM     65  F   UNL A   1      41.474  29.761  36.527  1.00  0.00    -0.206 F 
ATOM     66  C   UNL A   1      42.571  33.150  37.151  1.00  0.00     0.022 A 
BRANCH  63  67
ATOM     67  S   UNL A   1      44.108  34.991  35.731  1.00  0.00     0.124 S 
ATOM     68  O   UNL A   1      43.612  35.785  36.853  1.00  0.00    -0.237 OA
ATOM     69  O   UNL A   1      45.486  34.526  35.835  1.00  0.00    -0.237 OA
ATOM     70  O   UNL A   1      43.712  35.476  34.410  1.00  0.00    -0.744 OA
ENDBRANCH  63  67
ENDBRANCH  46  60
BRANCH  47  71
ATOM     71  C   UNL A   1      42.414  24.671  27.489  1.00  0.00     0.023 A 
ATOM     72  C   UNL A   1      41.669  23.482  27.502  1.00  0.00     0.031 A 
ATOM     73  C   UNL A   1      43.215  24.937  26.363  1.00  0.00     0.131 A 
ATOM     74  C   UNL A   1      41.766  22.586  26.426  1.00  0.00     0.055 A 
ATOM     75  C   UNL A   1      43.269  24.066  25.273  1.00  0.00     0.041 A 
ATOM     76  F   UNL A   1      43.951  26.058  26.301  1.00  0.00    -0.206 F 
ATOM     77  C   UNL A   1      42.549  22.876  25.306  1.00  0.00     0.022 A 
BRANCH  74  78
ATOM     78  S   UNL A   1      40.908  20.992  26.541  1.00  0.00     0.124 S 
ATOM     79  O   UNL A   1      40.891  20.767  27.983  1.00  0.00    -0.237 OA
ATOM     80  O   UNL A   1      39.621  21.294  25.924  1.00  0.00    -0.237 OA
ATOM     81  O   UNL A   1      41.765  20.087  25.778  1.00  0.00    -0.744 OA
ENDBRANCH  74  78
ENDBRANCH  47  71
BRANCH  59  82
ATOM     82  C   UNL A   1      46.964  26.044  32.584  1.00  0.00     0.023 A 
ATOM     83  C   UNL A   1      48.161  26.508  32.009  1.00  0.00     0.031 A 
ATOM     84  C   UNL A   1      47.036  24.971  33.489  1.00  0.00     0.131 A 
ATOM     85  C   UNL A   1      49.373  25.868  32.308  1.00  0.00     0.055 A 
ATOM     86  C   UNL A   1      48.251  24.372  33.823  1.00  0.00     0.041 A 
ATOM     87  F   UNL A   1      45.923  24.488  34.064  1.00  0.00    -0.206 F 
ATOM     88  C   UNL A   1      49.428  24.813  33.222  1.00  0.00     0.022 A 
BRANCH  85  89
ATOM     89  S   UNL A   1      50.872  26.382  31.424  1.00  0.00     0.124 S 
ATOM     90  O   UNL A   1      51.512  25.102  31.141  1.00  0.00    -0.237 OA
ATOM     91  O   UNL A   1      50.328  27.092  30.272  1.00  0.00    -0.237 OA
ATOM     92  O   UNL A   1      51.571  27.223  32.395  1.00  0.00    -0.744 OA
ENDBRANCH  85  89
ENDBRANCH  59  82
ENDBRANCH  33  34
ENDBRANCH  26  28
ENDBRANCH  25  26
ENDBRANCH  24  25
ENDBRANCH   1  24
TORSDOF 19
ENDMDL
MODEL 3
REMARK VINA RESULT:     -11.1      5.072     10.146
REMARK SMILES CCS(=O)(=O)c1ccccc1NC[C@H]1CC[C@H](C(=O)OCCOC(=O)c2ccc(-c3c4nc(c(-c5cc(S(=O)(=O)[O-])ccc5F)c5ccc([nH]5)c(-c5cc(S(=O)(=O)[O-])ccc5F)c5nc(c(-c6cc(S(=O)(=O)[O-])ccc6F)c6ccc3[nH]6)C=C5)C=C4)cc2)O1
REMARK SMILES IDX 21 1 20 2 18 3 19 4 17 5 14 6 15 7 89 8 16 9 13 10 12 11
REMARK SMILES IDX 11 13 6 14 7 15 8 16 10 17 9 18 3 19 4 20 5 21 2 22 1 23
REMARK SMILES IDX 22 24 23 25 24 26 25 27 26 28 27 29 88 30 28 31 87 32 29 33
REMARK SMILES IDX 30 34 31 35 81 36 32 37 86 38 80 39 82 40 33 41 85 42 79 43
REMARK SMILES IDX 78 44 34 46 66 47 46 48 65 49 47 50 50 51 64 52 83 53 48 54
REMARK SMILES IDX 49 55 63 57 84 58 51 59 35 60 36 61 44 62 37 63 43 64 45 65
REMARK SMILES IDX 42 66 38 67 39 68 40 69 41 70 67 71 68 72 76 73 69 74 75 75
REMARK SMILES IDX 77 76 74 77 70 78 71 79 72 80 73 81 52 82 53 83 61 84 54 85
REMARK SMILES IDX 60 86 62 87 59 88 55 89 56 90 57 91 58 92
REMARK H PARENT 12 12 82 45 50 56
REMARK Flexibility Score: inf
ROOT
ATOM      1  C   UNL A   1      31.054  29.829  24.548  1.00  0.00     0.274 C 
ENDROOT
BRANCH   1   2
ATOM      2  O   UNL A   1      30.146  28.760  24.226  1.00  0.00    -0.460 OA
BRANCH   2   3
ATOM      3  C   UNL A   1      30.414  28.079  23.076  1.00  0.00     0.335 C 
ATOM      4  O   UNL A   1      29.887  28.312  21.994  1.00  0.00    -0.249 OA
BRANCH   3   5
ATOM      5  C   UNL A   1      31.452  26.971  23.276  1.00  0.00     0.228 C 
ATOM      6  C   UNL A   1      32.032  24.971  22.228  1.00  0.00     0.138 C 
ATOM      7  C   UNL A   1      30.899  24.666  23.192  1.00  0.00     0.037 C 
ATOM      8  O   UNL A   1      31.909  26.399  22.033  1.00  0.00    -0.361 OA
ATOM      9  C   UNL A   1      30.987  25.817  24.163  1.00  0.00     0.047 C 
BRANCH   6  10
ATOM     10  C   UNL A   1      33.452  24.651  22.755  1.00  0.00     0.145 C 
BRANCH  10  11
ATOM     11  N   UNL A   1      33.715  23.224  22.841  1.00  0.00    -0.381 N 
ATOM     12  H   UNL A   1      33.122  22.646  22.308  1.00  0.00     0.160 HD
BRANCH  11  13
ATOM     13  C   UNL A   1      34.685  22.577  23.572  1.00  0.00     0.053 A 
ATOM     14  C   UNL A   1      34.390  21.476  24.402  1.00  0.00     0.090 A 
ATOM     15  C   UNL A   1      35.383  20.848  25.177  1.00  0.00     0.022 A 
ATOM     16  C   UNL A   1      36.701  21.285  25.111  1.00  0.00     0.001 A 
ATOM     17  C   UNL A   1      36.031  22.974  23.513  1.00  0.00     0.027 A 
ATOM     18  C   UNL A   1      37.025  22.344  24.271  1.00  0.00     0.002 A 
BRANCH  14  19
ATOM     19  S   UNL A   1      32.736  20.816  24.569  1.00  0.00     0.180 S 
ATOM     20  O   UNL A   1      32.795  19.579  25.327  1.00  0.00    -0.224 OA
ATOM     21  O   UNL A   1      32.153  20.837  23.239  1.00  0.00    -0.224 OA
BRANCH  19  22
ATOM     22  C   UNL A   1      31.864  22.018  25.550  1.00  0.00     0.139 C 
ATOM     23  C   UNL A   1      32.711  22.671  26.622  1.00  0.00     0.021 C 
ENDBRANCH  19  22
ENDBRANCH  14  19
ENDBRANCH  11  13
ENDBRANCH  10  11
ENDBRANCH   6  10
ENDBRANCH   3   5
ENDBRANCH   2   3
ENDBRANCH   1   2
BRANCH   1  24
ATOM     24  C   UNL A   1      31.854  29.529  25.819  1.00  0.00     0.275 C 
BRANCH  24  25
ATOM     25  O   UNL A   1      33.090  30.266  25.859  1.00  0.00    -0.458 OA
BRANCH  25  26
ATOM     26  C   UNL A   1      33.191  31.179  26.855  1.00  0.00     0.338 C 
ATOM     27  O   UNL A   1      32.396  32.060  27.129  1.00  0.00    -0.246 OA
BRANCH  26  28
ATOM     28  C   UNL A   1      34.378  30.884  27.672  1.00  0.00     0.060 A 
ATOM     29  C   UNL A   1      35.251  31.931  27.980  1.00  0.00     0.016 A 
ATOM     30  C   UNL A   1      34.665  29.578  28.072  1.00  0.00     0.016 A 
ATOM     31  C   UNL A   1      36.412  31.679  28.707  1.00  0.00     0.010 A 
ATOM     32  C   UNL A   1      35.831  29.327  28.804  1.00  0.00     0.010 A 
ATOM     33  C   UNL A   1      36.711  30.375  29.126  1.00  0.00    -0.014 A 
BRANCH  33  34
ATOM     34  C   UNL A   1      37.954  30.104  29.891  1.00  0.00     0.031 A 
ATOM     35  C   UNL A   1      38.983  29.159  29.342  1.00  0.00     0.074 A 
ATOM     36  C   UNL A   1      38.147  30.706  31.080  1.00  0.00     0.049 A 
ATOM     37  N   UNL A   1      40.074  28.706  29.904  1.00  0.00    -0.248 NA
ATOM     38  C   UNL A   1      38.747  28.654  27.982  1.00  0.00     0.031 C 
ATOM     39  C   UNL A   1      37.237  31.677  31.689  1.00  0.00     0.029 A 
ATOM     40  N   UNL A   1      39.165  30.585  31.991  1.00  0.00    -0.354 N 
ATOM     41  C   UNL A   1      40.654  27.851  28.972  1.00  0.00     0.074 A 
ATOM     42  C   UNL A   1      39.774  27.833  27.820  1.00  0.00     0.031 C 
ATOM     43  C   UNL A   1      37.735  32.058  32.877  1.00  0.00     0.029 A 
ATOM     44  C   UNL A   1      38.967  31.319  33.137  1.00  0.00     0.049 A 
ATOM     45  H   UNL A   1      39.961  30.026  31.839  1.00  0.00     0.167 HD
ATOM     46  C   UNL A   1      41.810  27.150  29.073  1.00  0.00     0.034 A 
ATOM     47  C   UNL A   1      39.676  31.359  34.283  1.00  0.00     0.034 A 
ATOM     48  C   UNL A   1      42.669  27.180  30.233  1.00  0.00     0.049 A 
ATOM     49  C   UNL A   1      40.909  30.502  34.407  1.00  0.00     0.074 A 
ATOM     50  C   UNL A   1      43.874  26.527  30.434  1.00  0.00     0.029 A 
ATOM     51  N   UNL A   1      42.410  27.893  31.398  1.00  0.00    -0.354 N 
ATOM     52  N   UNL A   1      41.439  29.687  33.524  1.00  0.00    -0.248 NA
ATOM     53  C   UNL A   1      41.635  30.567  35.682  1.00  0.00     0.031 C 
ATOM     54  C   UNL A   1      44.307  26.791  31.739  1.00  0.00     0.029 A 
ATOM     55  C   UNL A   1      43.409  27.665  32.332  1.00  0.00     0.049 A 
ATOM     56  H   UNL A   1      41.629  28.476  31.539  1.00  0.00     0.167 HD
ATOM     57  C   UNL A   1      42.571  29.152  34.135  1.00  0.00     0.074 A 
ATOM     58  C   UNL A   1      42.655  29.753  35.451  1.00  0.00     0.031 C 
ATOM     59  C   UNL A   1      43.463  28.251  33.651  1.00  0.00     0.034 A 
BRANCH  46  60
ATOM     60  C   UNL A   1      42.176  26.247  27.920  1.00  0.00     0.023 A 
ATOM     61  C   UNL A   1      41.694  24.929  27.824  1.00  0.00     0.031 A 
ATOM     62  C   UNL A   1      43.043  26.706  26.912  1.00  0.00     0.131 A 
ATOM     63  C   UNL A   1      42.134  24.098  26.781  1.00  0.00     0.055 A 
ATOM     64  C   UNL A   1      43.420  25.897  25.839  1.00  0.00     0.041 A 
ATOM     65  F   UNL A   1      43.551  27.948  26.962  1.00  0.00    -0.206 F 
ATOM     66  C   UNL A   1      42.977  24.580  25.776  1.00  0.00     0.022 A 
BRANCH  63  67
ATOM     67  S   UNL A   1      41.698  22.337  26.828  1.00  0.00     0.124 S 
ATOM     68  O   UNL A   1      42.638  21.827  27.824  1.00  0.00    -0.237 OA
ATOM     69  O   UNL A   1      40.297  22.371  27.229  1.00  0.00    -0.237 OA
ATOM     70  O   UNL A   1      41.945  21.887  25.460  1.00  0.00    -0.744 OA
ENDBRANCH  63  67
ENDBRANCH  46  60
BRANCH  47  71
ATOM     71  C   UNL A   1      39.204  32.186  35.430  1.00  0.00     0.023 A 
ATOM     72  C   UNL A   1      39.664  33.498  35.619  1.00  0.00     0.031 A 
ATOM     73  C   UNL A   1      38.312  31.654  36.380  1.00  0.00     0.131 A 
ATOM     74  C   UNL A   1      39.258  34.223  36.751  1.00  0.00     0.055 A 
ATOM     75  C   UNL A   1      37.872  32.397  37.476  1.00  0.00     0.041 A 
ATOM     76  F   UNL A   1      37.845  30.402  36.248  1.00  0.00    -0.206 F 
ATOM     77  C   UNL A   1      38.355  33.687  37.673  1.00  0.00     0.022 A 
BRANCH  74  78
ATOM     78  S   UNL A   1      39.987  35.858  37.044  1.00  0.00     0.124 S 
ATOM     79  O   UNL A   1      39.669  36.553  35.801  1.00  0.00    -0.237 OA
ATOM     80  O   UNL A   1      39.264  36.304  38.231  1.00  0.00    -0.237 OA
ATOM     81  O   UNL A   1      41.404  35.567  37.253  1.00  0.00    -0.744 OA
ENDBRANCH  74  78
ENDBRANCH  47  71
BRANCH  59  82
ATOM     82  C   UNL A   1      44.616  27.887  34.552  1.00  0.00     0.023 A 
ATOM     83  C   UNL A   1      44.554  26.781  35.417  1.00  0.00     0.031 A 
ATOM     84  C   UNL A   1      45.784  28.669  34.558  1.00  0.00     0.131 A 
ATOM     85  C   UNL A   1      45.620  26.517  36.290  1.00  0.00     0.055 A 
ATOM     86  C   UNL A   1      46.863  28.371  35.391  1.00  0.00     0.041 A 
ATOM     87  F   UNL A   1      45.895  29.738  33.752  1.00  0.00    -0.206 F 
ATOM     88  C   UNL A   1      46.780  27.296  36.272  1.00  0.00     0.022 A 
BRANCH  85  89
ATOM     89  S   UNL A   1      45.441  25.185  37.509  1.00  0.00     0.124 S 
ATOM     90  O   UNL A   1      44.442  24.328  36.879  1.00  0.00    -0.237 OA
ATOM     91  O   UNL A   1      46.793  24.642  37.581  1.00  0.00    -0.237 OA
ATOM     92  O   UNL A   1      44.989  25.881  38.713  1.00  0.00    -0.744 OA
ENDBRANCH  85  89
ENDBRANCH  59  82
ENDBRANCH  33  34
ENDBRANCH  26  28
ENDBRANCH  25  26
ENDBRANCH  24  25
ENDBRANCH   1  24
TORSDOF 19
ENDMDL
