MODEL 1
REMARK VINA RESULT:     -11.1      0.000      0.000
REMARK SMILES [NH3+][C@@H](CCCCC(=O)OCCOC(=O)c1ccc(-c2c3nc(c(-c4cc(S(=O)(=O)[O-])ccc4F)c4ccc([nH]4)c(-c4cc(S(=O)(=O)[O-])ccc4F)c4nc(c(-c5cc(S(=O)(=O)[O-])ccc5F)c5ccc2[nH]5)C=C4)C=C3)cc1)c1ccc(-c2ccccc2)cc1
REMARK SMILES IDX 9 1 7 2 8 3 6 4 5 5 4 6 3 7 2 8 1 9 78 13 79 14 89 15 80 16
REMARK SMILES IDX 88 17 81 18 82 19 83 20 87 21 84 22 86 23 85 24 10 25 11 26
REMARK SMILES IDX 12 27 13 28 14 29 15 30 16 31 77 32 17 33 76 34 18 35 19 36
REMARK SMILES IDX 20 37 70 38 21 39 75 40 69 41 71 42 22 43 74 44 68 45 67 46
REMARK SMILES IDX 23 48 55 49 35 50 54 51 36 52 39 53 53 54 72 55 37 56 38 57
REMARK SMILES IDX 52 59 73 60 40 61 24 62 25 63 33 64 26 65 32 66 34 67 31 68
REMARK SMILES IDX 27 69 28 70 29 71 30 72 56 73 57 74 65 75 58 76 64 77 66 78
REMARK SMILES IDX 63 79 59 80 60 81 61 82 62 83 41 84 42 85 50 86 43 87 49 88
REMARK SMILES IDX 51 89 48 90 44 91 45 92 46 93 47 94
REMARK H PARENT 1 10 1 11 1 12 71 47 39 58
REMARK Flexibility Score: inf
ROOT
ATOM      1  O   UNL A   1      32.496  29.282  24.719  1.00  0.00    -0.462 OA
ENDROOT
BRANCH   1   2
ATOM      2  C   UNL A   1      32.817  28.974  23.436  1.00  0.00     0.305 C 
ATOM      3  O   UNL A   1      33.955  28.913  22.989  1.00  0.00    -0.252 OA
BRANCH   2   4
ATOM      4  C   UNL A   1      31.595  28.748  22.583  1.00  0.00     0.123 C 
BRANCH   4   5
ATOM      5  C   UNL A   1      31.196  27.281  22.397  1.00  0.00     0.012 C 
BRANCH   5   6
ATOM      6  C   UNL A   1      30.300  26.693  23.496  1.00  0.00     0.007 C 
BRANCH   6   7
ATOM      7  C   UNL A   1      30.982  25.894  24.623  1.00  0.00     0.070 C 
BRANCH   7   8
ATOM      8  C   UNL A   1      30.328  24.567  25.086  1.00  0.00     0.211 C 
BRANCH   8   9
ATOM      9  N   UNL A   1      29.912  24.672  26.491  1.00  0.00    -0.351 N 
ATOM     10  H   UNL A   1      28.910  24.859  26.535  1.00  0.00     0.345 HD
ATOM     11  H   UNL A   1      30.421  25.434  26.939  1.00  0.00     0.345 HD
ATOM     12  H   UNL A   1      30.115  23.796  26.973  1.00  0.00     0.345 HD
ENDBRANCH   8   9
BRANCH   8  13
ATOM     13  C   UNL A   1      31.148  23.324  24.786  1.00  0.00     0.009 A 
ATOM     14  C   UNL A   1      31.518  22.962  23.482  1.00  0.00     0.010 A 
ATOM     15  C   UNL A   1      31.509  22.453  25.827  1.00  0.00     0.010 A 
ATOM     16  C   UNL A   1      32.149  21.741  23.223  1.00  0.00     0.009 A 
ATOM     17  C   UNL A   1      32.151  21.232  25.564  1.00  0.00     0.009 A 
ATOM     18  C   UNL A   1      32.461  20.841  24.254  1.00  0.00    -0.018 A 
BRANCH  18  19
ATOM     19  C   UNL A   1      33.057  19.524  23.946  1.00  0.00    -0.018 A 
ATOM     20  C   UNL A   1      32.465  18.660  23.009  1.00  0.00     0.009 A 
ATOM     21  C   UNL A   1      34.207  19.066  24.617  1.00  0.00     0.009 A 
ATOM     22  C   UNL A   1      32.980  17.383  22.769  1.00  0.00     0.001 A 
ATOM     23  C   UNL A   1      34.725  17.789  24.377  1.00  0.00     0.001 A 
ATOM     24  C   UNL A   1      34.108  16.947  23.458  1.00  0.00     0.000 A 
ENDBRANCH  18  19
ENDBRANCH   8  13
ENDBRANCH   7   8
ENDBRANCH   6   7
ENDBRANCH   5   6
ENDBRANCH   4   5
ENDBRANCH   2   4
ENDBRANCH   1   2
BRANCH   1  25
ATOM     25  C   UNL A   1      31.257  29.988  24.894  1.00  0.00     0.274 C 
BRANCH  25  26
ATOM     26  C   UNL A   1      31.389  30.966  26.061  1.00  0.00     0.275 C 
BRANCH  26  27
ATOM     27  O   UNL A   1      32.674  30.809  26.690  1.00  0.00    -0.458 OA
BRANCH  27  28
ATOM     28  C   UNL A   1      33.206  31.923  27.246  1.00  0.00     0.338 C 
ATOM     29  O   UNL A   1      32.734  33.046  27.257  1.00  0.00    -0.246 OA
BRANCH  28  30
ATOM     30  C   UNL A   1      34.493  31.575  27.870  1.00  0.00     0.060 A 
ATOM     31  C   UNL A   1      34.720  30.267  28.302  1.00  0.00     0.016 A 
ATOM     32  C   UNL A   1      35.444  32.570  28.096  1.00  0.00     0.016 A 
ATOM     33  C   UNL A   1      35.901  29.948  28.971  1.00  0.00     0.010 A 
ATOM     34  C   UNL A   1      36.640  32.241  28.740  1.00  0.00     0.010 A 
ATOM     35  C   UNL A   1      36.874  30.930  29.196  1.00  0.00    -0.014 A 
BRANCH  35  36
ATOM     36  C   UNL A   1      38.112  30.613  29.956  1.00  0.00     0.031 A 
ATOM     37  C   UNL A   1      39.112  29.652  29.376  1.00  0.00     0.074 A 
ATOM     38  C   UNL A   1      38.331  31.164  31.164  1.00  0.00     0.049 A 
ATOM     39  N   UNL A   1      40.153  29.095  29.937  1.00  0.00    -0.248 NA
ATOM     40  C   UNL A   1      38.896  29.259  27.976  1.00  0.00     0.031 C 
ATOM     41  C   UNL A   1      37.464  32.147  31.816  1.00  0.00     0.029 A 
ATOM     42  N   UNL A   1      39.344  30.961  32.070  1.00  0.00    -0.354 N 
ATOM     43  C   UNL A   1      40.703  28.258  28.970  1.00  0.00     0.074 A 
ATOM     44  C   UNL A   1      39.863  28.370  27.795  1.00  0.00     0.031 C 
ATOM     45  C   UNL A   1      37.976  32.452  33.019  1.00  0.00     0.029 A 
ATOM     46  C   UNL A   1      39.169  31.643  33.251  1.00  0.00     0.049 A 
ATOM     47  H   UNL A   1      40.119  30.382  31.891  1.00  0.00     0.167 HD
ATOM     48  C   UNL A   1      41.806  27.474  29.058  1.00  0.00     0.034 A 
ATOM     49  C   UNL A   1      39.862  31.587  34.407  1.00  0.00     0.034 A 
ATOM     50  C   UNL A   1      42.637  27.382  30.234  1.00  0.00     0.049 A 
ATOM     51  C   UNL A   1      41.045  30.657  34.507  1.00  0.00     0.074 A 
ATOM     52  C   UNL A   1      43.779  26.624  30.430  1.00  0.00     0.029 A 
ATOM     53  N   UNL A   1      42.415  28.074  31.419  1.00  0.00    -0.354 N 
ATOM     54  N   UNL A   1      41.532  29.840  33.601  1.00  0.00    -0.248 NA
ATOM     55  C   UNL A   1      41.767  30.639  35.785  1.00  0.00     0.031 C 
ATOM     56  C   UNL A   1      44.214  26.814  31.747  1.00  0.00     0.029 A 
ATOM     57  C   UNL A   1      43.385  27.743  32.354  1.00  0.00     0.049 A 
ATOM     58  H   UNL A   1      41.678  28.707  31.572  1.00  0.00     0.167 HD
ATOM     59  C   UNL A   1      42.630  29.226  34.197  1.00  0.00     0.074 A 
ATOM     60  C   UNL A   1      42.742  29.778  35.532  1.00  0.00     0.031 C 
ATOM     61  C   UNL A   1      43.473  28.292  33.687  1.00  0.00     0.034 A 
BRANCH  48  62
ATOM     62  C   UNL A   1      42.133  26.608  27.865  1.00  0.00     0.023 A 
ATOM     63  C   UNL A   1      41.702  25.273  27.773  1.00  0.00     0.031 A 
ATOM     64  C   UNL A   1      42.925  27.117  26.819  1.00  0.00     0.131 A 
ATOM     65  C   UNL A   1      42.124  24.473  26.700  1.00  0.00     0.055 A 
ATOM     66  C   UNL A   1      43.278  26.337  25.716  1.00  0.00     0.041 A 
ATOM     67  F   UNL A   1      43.383  28.378  26.861  1.00  0.00    -0.206 F 
ATOM     68  C   UNL A   1      42.890  25.002  25.659  1.00  0.00     0.022 A 
BRANCH  65  69
ATOM     69  S   UNL A   1      41.773  22.694  26.753  1.00  0.00     0.124 S 
ATOM     70  O   UNL A   1      42.174  22.273  25.413  1.00  0.00    -0.237 OA
ATOM     71  O   UNL A   1      42.623  22.237  27.847  1.00  0.00    -0.237 OA
ATOM     72  O   UNL A   1      40.336  22.635  27.013  1.00  0.00    -0.744 OA
ENDBRANCH  65  69
ENDBRANCH  48  62
BRANCH  49  73
ATOM     73  C   UNL A   1      39.423  32.383  35.588  1.00  0.00     0.023 A 
ATOM     74  C   UNL A   1      39.836  33.713  35.763  1.00  0.00     0.031 A 
ATOM     75  C   UNL A   1      38.614  31.805  36.584  1.00  0.00     0.131 A 
ATOM     76  C   UNL A   1      39.469  34.410  36.925  1.00  0.00     0.055 A 
ATOM     77  C   UNL A   1      38.211  32.519  37.713  1.00  0.00     0.041 A 
ATOM     78  F   UNL A   1      38.193  30.536  36.466  1.00  0.00    -0.206 F 
ATOM     79  C   UNL A   1      38.649  33.827  37.894  1.00  0.00     0.022 A 
BRANCH  76  80
ATOM     80  S   UNL A   1      40.142  36.074  37.188  1.00  0.00     0.124 S 
ATOM     81  O   UNL A   1      39.969  36.677  35.872  1.00  0.00    -0.237 OA
ATOM     82  O   UNL A   1      39.279  36.585  38.247  1.00  0.00    -0.237 OA
ATOM     83  O   UNL A   1      41.527  35.823  37.584  1.00  0.00    -0.744 OA
ENDBRANCH  76  80
ENDBRANCH  49  73
BRANCH  61  84
ATOM     84  C   UNL A   1      44.614  27.851  34.569  1.00  0.00     0.023 A 
ATOM     85  C   UNL A   1      44.520  26.711  35.387  1.00  0.00     0.031 A 
ATOM     86  C   UNL A   1      45.806  28.596  34.604  1.00  0.00     0.131 A 
ATOM     87  C   UNL A   1      45.580  26.378  36.243  1.00  0.00     0.055 A 
ATOM     88  C   UNL A   1      46.878  28.231  35.421  1.00  0.00     0.041 A 
ATOM     89  F   UNL A   1      45.947  29.694  33.844  1.00  0.00    -0.206 F 
ATOM     90  C   UNL A   1      46.763  27.123  36.255  1.00  0.00     0.022 A 
BRANCH  87  91
ATOM     91  S   UNL A   1      45.363  25.002  37.406  1.00  0.00     0.124 S 
ATOM     92  O   UNL A   1      44.538  25.609  38.444  1.00  0.00    -0.237 OA
ATOM     93  O   UNL A   1      44.710  23.993  36.579  1.00  0.00    -0.237 OA
ATOM     94  O   UNL A   1      46.730  24.677  37.812  1.00  0.00    -0.744 OA
ENDBRANCH  87  91
ENDBRANCH  61  84
ENDBRANCH  35  36
ENDBRANCH  28  30
ENDBRANCH  27  28
ENDBRANCH  26  27
ENDBRANCH  25  26
ENDBRANCH   1  25
TORSDOF 21
ENDMDL
MODEL 2
REMARK VINA RESULT:     -11.1      2.303      4.433
REMARK SMILES [NH3+][C@@H](CCCCC(=O)OCCOC(=O)c1ccc(-c2c3nc(c(-c4cc(S(=O)(=O)[O-])ccc4F)c4ccc([nH]4)c(-c4cc(S(=O)(=O)[O-])ccc4F)c4nc(c(-c5cc(S(=O)(=O)[O-])ccc5F)c5ccc2[nH]5)C=C4)C=C3)cc1)c1ccc(-c2ccccc2)cc1
REMARK SMILES IDX 9 1 7 2 8 3 6 4 5 5 4 6 3 7 2 8 1 9 78 13 79 14 89 15 80 16
REMARK SMILES IDX 88 17 81 18 82 19 83 20 87 21 84 22 86 23 85 24 10 25 11 26
REMARK SMILES IDX 12 27 13 28 14 29 15 30 16 31 77 32 17 33 76 34 18 35 19 36
REMARK SMILES IDX 20 37 70 38 21 39 75 40 69 41 71 42 22 43 74 44 68 45 67 46
REMARK SMILES IDX 23 48 55 49 35 50 54 51 36 52 39 53 53 54 72 55 37 56 38 57
REMARK SMILES IDX 52 59 73 60 40 61 24 62 25 63 33 64 26 65 32 66 34 67 31 68
REMARK SMILES IDX 27 69 28 70 29 71 30 72 56 73 57 74 65 75 58 76 64 77 66 78
REMARK SMILES IDX 63 79 59 80 60 81 61 82 62 83 41 84 42 85 50 86 43 87 49 88
REMARK SMILES IDX 51 89 48 90 44 91 45 92 46 93 47 94
REMARK H PARENT 1 10 1 11 1 12 71 47 39 58
REMARK Flexibility Score: inf
ROOT
ATOM      1  O   UNL A   1      32.589  28.900  26.300  1.00  0.00    -0.462 OA
ENDROOT
BRANCH   1   2
ATOM      2  C   UNL A   1      33.162  27.922  25.552  1.00  0.00     0.305 C 
ATOM      3  O   UNL A   1      33.910  28.109  24.601  1.00  0.00    -0.252 OA
BRANCH   2   4
ATOM      4  C   UNL A   1      32.743  26.545  25.999  1.00  0.00     0.123 C 
BRANCH   4   5
ATOM      5  C   UNL A   1      33.278  25.394  25.140  1.00  0.00     0.012 C 
BRANCH   5   6
ATOM      6  C   UNL A   1      32.587  24.038  25.346  1.00  0.00     0.007 C 
BRANCH   6   7
ATOM      7  C   UNL A   1      31.113  23.914  24.917  1.00  0.00     0.070 C 
BRANCH   7   8
ATOM      8  C   UNL A   1      30.721  24.355  23.484  1.00  0.00     0.211 C 
BRANCH   8   9
ATOM      9  N   UNL A   1      31.765  23.961  22.531  1.00  0.00    -0.351 N 
ATOM     10  H   UNL A   1      31.516  23.067  22.105  1.00  0.00     0.345 HD
ATOM     11  H   UNL A   1      32.654  23.868  23.020  1.00  0.00     0.345 HD
ATOM     12  H   UNL A   1      31.848  24.671  21.804  1.00  0.00     0.345 HD
ENDBRANCH   8   9
BRANCH   8  13
ATOM     13  C   UNL A   1      30.308  25.813  23.367  1.00  0.00     0.009 A 
ATOM     14  C   UNL A   1      29.139  26.315  23.957  1.00  0.00     0.010 A 
ATOM     15  C   UNL A   1      31.075  26.699  22.592  1.00  0.00     0.010 A 
ATOM     16  C   UNL A   1      28.712  27.625  23.714  1.00  0.00     0.009 A 
ATOM     17  C   UNL A   1      30.649  28.016  22.358  1.00  0.00     0.009 A 
ATOM     18  C   UNL A   1      29.446  28.497  22.894  1.00  0.00    -0.018 A 
BRANCH  18  19
ATOM     19  C   UNL A   1      28.935  29.850  22.590  1.00  0.00    -0.018 A 
ATOM     20  C   UNL A   1      28.620  30.228  21.273  1.00  0.00     0.009 A 
ATOM     21  C   UNL A   1      28.796  30.823  23.597  1.00  0.00     0.009 A 
ATOM     22  C   UNL A   1      28.209  31.529  20.969  1.00  0.00     0.001 A 
ATOM     23  C   UNL A   1      28.383  32.126  23.294  1.00  0.00     0.001 A 
ATOM     24  C   UNL A   1      28.096  32.478  21.979  1.00  0.00     0.000 A 
ENDBRANCH  18  19
ENDBRANCH   8  13
ENDBRANCH   7   8
ENDBRANCH   6   7
ENDBRANCH   5   6
ENDBRANCH   4   5
ENDBRANCH   2   4
ENDBRANCH   1   2
BRANCH   1  25
ATOM     25  C   UNL A   1      31.763  29.827  25.576  1.00  0.00     0.274 C 
BRANCH  25  26
ATOM     26  C   UNL A   1      31.791  31.186  26.274  1.00  0.00     0.275 C 
BRANCH  26  27
ATOM     27  O   UNL A   1      32.671  31.135  27.412  1.00  0.00    -0.458 OA
BRANCH  27  28
ATOM     28  C   UNL A   1      33.458  32.219  27.606  1.00  0.00     0.338 C 
ATOM     29  O   UNL A   1      33.180  33.386  27.397  1.00  0.00    -0.246 OA
BRANCH  28  30
ATOM     30  C   UNL A   1      34.759  31.773  28.134  1.00  0.00     0.060 A 
ATOM     31  C   UNL A   1      34.872  30.508  28.712  1.00  0.00     0.016 A 
ATOM     32  C   UNL A   1      35.845  32.648  28.123  1.00  0.00     0.016 A 
ATOM     33  C   UNL A   1      36.077  30.112  29.292  1.00  0.00     0.010 A 
ATOM     34  C   UNL A   1      37.061  32.236  28.678  1.00  0.00     0.010 A 
ATOM     35  C   UNL A   1      37.185  30.970  29.279  1.00  0.00    -0.014 A 
BRANCH  35  36
ATOM     36  C   UNL A   1      38.457  30.578  29.942  1.00  0.00     0.031 A 
ATOM     37  C   UNL A   1      39.371  29.594  29.267  1.00  0.00     0.074 A 
ATOM     38  C   UNL A   1      38.783  31.083  31.146  1.00  0.00     0.049 A 
ATOM     39  N   UNL A   1      40.422  28.977  29.739  1.00  0.00    -0.248 NA
ATOM     40  C   UNL A   1      39.042  29.252  27.876  1.00  0.00     0.031 C 
ATOM     41  C   UNL A   1      38.007  32.082  31.883  1.00  0.00     0.029 A 
ATOM     42  N   UNL A   1      39.845  30.810  31.973  1.00  0.00    -0.354 N 
ATOM     43  C   UNL A   1      40.868  28.147  28.714  1.00  0.00     0.074 A 
ATOM     44  C   UNL A   1      39.954  28.329  27.603  1.00  0.00     0.031 C 
ATOM     45  C   UNL A   1      38.613  32.330  33.055  1.00  0.00     0.029 A 
ATOM     46  C   UNL A   1      39.783  31.464  33.181  1.00  0.00     0.049 A 
ATOM     47  H   UNL A   1      40.580  30.205  31.724  1.00  0.00     0.167 HD
ATOM     48  C   UNL A   1      41.938  27.314  28.703  1.00  0.00     0.034 A 
ATOM     49  C   UNL A   1      40.551  31.345  34.283  1.00  0.00     0.034 A 
ATOM     50  C   UNL A   1      42.843  27.153  29.815  1.00  0.00     0.049 A 
ATOM     51  C   UNL A   1      41.695  30.363  34.275  1.00  0.00     0.074 A 
ATOM     52  C   UNL A   1      43.961  26.341  29.910  1.00  0.00     0.029 A 
ATOM     53  N   UNL A   1      42.734  27.817  31.031  1.00  0.00    -0.354 N 
ATOM     54  N   UNL A   1      42.083  29.553  33.316  1.00  0.00    -0.248 NA
ATOM     55  C   UNL A   1      42.503  30.276  35.499  1.00  0.00     0.031 C 
ATOM     56  C   UNL A   1      44.494  26.473  31.198  1.00  0.00     0.029 A 
ATOM     57  C   UNL A   1      43.750  27.418  31.887  1.00  0.00     0.049 A 
ATOM     58  H   UNL A   1      42.038  28.476  31.252  1.00  0.00     0.167 HD
ATOM     59  C   UNL A   1      43.191  28.876  33.817  1.00  0.00     0.074 A 
ATOM     60  C   UNL A   1      43.419  29.383  35.155  1.00  0.00     0.031 C 
ATOM     61  C   UNL A   1      43.954  27.923  33.224  1.00  0.00     0.034 A 
BRANCH  48  62
ATOM     62  C   UNL A   1      42.143  26.472  27.467  1.00  0.00     0.023 A 
ATOM     63  C   UNL A   1      41.741  25.125  27.409  1.00  0.00     0.031 A 
ATOM     64  C   UNL A   1      42.791  27.014  26.341  1.00  0.00     0.131 A 
ATOM     65  C   UNL A   1      42.053  24.350  26.281  1.00  0.00     0.055 A 
ATOM     66  C   UNL A   1      43.030  26.257  25.193  1.00  0.00     0.041 A 
ATOM     67  F   UNL A   1      43.216  28.287  26.347  1.00  0.00    -0.206 F 
ATOM     68  C   UNL A   1      42.674  24.912  25.164  1.00  0.00     0.022 A 
BRANCH  65  69
ATOM     69  S   UNL A   1      41.760  22.561  26.350  1.00  0.00     0.124 S 
ATOM     70  O   UNL A   1      40.311  22.491  26.185  1.00  0.00    -0.237 OA
ATOM     71  O   UNL A   1      42.555  22.068  25.231  1.00  0.00    -0.237 OA
ATOM     72  O   UNL A   1      42.248  22.184  27.675  1.00  0.00    -0.744 OA
ENDBRANCH  65  69
ENDBRANCH  48  62
BRANCH  49  73
ATOM     73  C   UNL A   1      40.229  32.123  35.514  1.00  0.00     0.023 A 
ATOM     74  C   UNL A   1      39.226  31.700  36.399  1.00  0.00     0.031 A 
ATOM     75  C   UNL A   1      40.897  33.329  35.796  1.00  0.00     0.131 A 
ATOM     76  C   UNL A   1      38.893  32.495  37.507  1.00  0.00     0.055 A 
ATOM     77  C   UNL A   1      40.596  34.090  36.926  1.00  0.00     0.041 A 
ATOM     78  F   UNL A   1      41.863  33.778  34.980  1.00  0.00    -0.206 F 
ATOM     79  C   UNL A   1      39.580  33.680  37.784  1.00  0.00     0.022 A 
BRANCH  76  80
ATOM     80  S   UNL A   1      37.494  31.995  38.546  1.00  0.00     0.124 S 
ATOM     81  O   UNL A   1      36.480  32.973  38.172  1.00  0.00    -0.237 OA
ATOM     82  O   UNL A   1      37.260  30.626  38.100  1.00  0.00    -0.237 OA
ATOM     83  O   UNL A   1      38.016  32.124  39.906  1.00  0.00    -0.744 OA
ENDBRANCH  76  80
ENDBRANCH  49  73
BRANCH  61  84
ATOM     84  C   UNL A   1      45.133  27.408  34.012  1.00  0.00     0.023 A 
ATOM     85  C   UNL A   1      45.045  26.250  34.803  1.00  0.00     0.031 A 
ATOM     86  C   UNL A   1      46.356  28.101  33.983  1.00  0.00     0.131 A 
ATOM     87  C   UNL A   1      46.146  25.846  35.574  1.00  0.00     0.055 A 
ATOM     88  C   UNL A   1      47.464  27.666  34.712  1.00  0.00     0.041 A 
ATOM     89  F   UNL A   1      46.493  29.214  33.245  1.00  0.00    -0.206 F 
ATOM     90  C   UNL A   1      47.358  26.540  35.523  1.00  0.00     0.022 A 
BRANCH  87  91
ATOM     91  S   UNL A   1      45.949  24.447  36.712  1.00  0.00     0.124 S 
ATOM     92  O   UNL A   1      44.723  23.827  36.222  1.00  0.00    -0.237 OA
ATOM     93  O   UNL A   1      47.178  23.690  36.493  1.00  0.00    -0.237 OA
ATOM     94  O   UNL A   1      45.841  25.083  38.024  1.00  0.00    -0.744 OA
ENDBRANCH  87  91
ENDBRANCH  61  84
ENDBRANCH  35  36
ENDBRANCH  28  30
ENDBRANCH  27  28
ENDBRANCH  26  27
ENDBRANCH  25  26
ENDBRANCH   1  25
TORSDOF 21
ENDMDL
MODEL 3
REMARK VINA RESULT:     -11.1      5.553     10.372
REMARK SMILES [NH3+][C@@H](CCCCC(=O)OCCOC(=O)c1ccc(-c2c3nc(c(-c4cc(S(=O)(=O)[O-])ccc4F)c4ccc([nH]4)c(-c4cc(S(=O)(=O)[O-])ccc4F)c4nc(c(-c5cc(S(=O)(=O)[O-])ccc5F)c5ccc2[nH]5)C=C4)C=C3)cc1)c1ccc(-c2ccccc2)cc1
REMARK SMILES IDX 9 1 7 2 8 3 6 4 5 5 4 6 3 7 2 8 1 9 78 13 79 14 89 15 80 16
REMARK SMILES IDX 88 17 81 18 82 19 83 20 87 21 84 22 86 23 85 24 10 25 11 26
REMARK SMILES IDX 12 27 13 28 14 29 15 30 16 31 77 32 17 33 76 34 18 35 19 36
REMARK SMILES IDX 20 37 70 38 21 39 75 40 69 41 71 42 22 43 74 44 68 45 67 46
REMARK SMILES IDX 23 48 55 49 35 50 54 51 36 52 39 53 53 54 72 55 37 56 38 57
REMARK SMILES IDX 52 59 73 60 40 61 24 62 25 63 33 64 26 65 32 66 34 67 31 68
REMARK SMILES IDX 27 69 28 70 29 71 30 72 56 73 57 74 65 75 58 76 64 77 66 78
REMARK SMILES IDX 63 79 59 80 60 81 61 82 62 83 41 84 42 85 50 86 43 87 49 88
REMARK SMILES IDX 51 89 48 90 44 91 45 92 46 93 47 94
REMARK H PARENT 1 10 1 11 1 12 71 47 39 58
REMARK Flexibility Score: inf
ROOT
ATOM      1  O   UNL A   1      42.376  19.527  25.392  1.00  0.00    -0.462 OA
ENDROOT
BRANCH   1   2
ATOM      2  C   UNL A   1      43.468  18.720  25.403  1.00  0.00     0.305 C 
ATOM      3  O   UNL A   1      43.660  17.807  26.195  1.00  0.00    -0.252 OA
BRANCH   2   4
ATOM      4  C   UNL A   1      44.466  19.097  24.339  1.00  0.00     0.123 C 
BRANCH   4   5
ATOM      5  C   UNL A   1      45.817  19.592  24.863  1.00  0.00     0.012 C 
BRANCH   5   6
ATOM      6  C   UNL A   1      46.028  21.113  24.820  1.00  0.00     0.007 C 
BRANCH   6   7
ATOM      7  C   UNL A   1      44.776  22.010  24.859  1.00  0.00     0.070 C 
BRANCH   7   8
ATOM      8  C   UNL A   1      44.960  23.522  25.147  1.00  0.00     0.211 C 
BRANCH   8   9
ATOM      9  N   UNL A   1      46.212  24.002  24.549  1.00  0.00    -0.351 N 
ATOM     10  H   UNL A   1      46.843  24.315  25.287  1.00  0.00     0.345 HD
ATOM     11  H   UNL A   1      46.011  24.778  23.919  1.00  0.00     0.345 HD
ATOM     12  H   UNL A   1      46.651  23.244  24.026  1.00  0.00     0.345 HD
ENDBRANCH   8   9
BRANCH   8  13
ATOM     13  C   UNL A   1      44.796  23.907  26.608  1.00  0.00     0.009 A 
ATOM     14  C   UNL A   1      45.851  24.428  27.372  1.00  0.00     0.010 A 
ATOM     15  C   UNL A   1      43.572  23.685  27.259  1.00  0.00     0.010 A 
ATOM     16  C   UNL A   1      45.710  24.640  28.748  1.00  0.00     0.009 A 
ATOM     17  C   UNL A   1      43.432  23.908  28.638  1.00  0.00     0.009 A 
ATOM     18  C   UNL A   1      44.505  24.366  29.414  1.00  0.00    -0.018 A 
BRANCH  18  19
ATOM     19  C   UNL A   1      44.405  24.524  30.880  1.00  0.00    -0.018 A 
ATOM     20  C   UNL A   1      44.168  23.419  31.716  1.00  0.00     0.009 A 
ATOM     21  C   UNL A   1      44.490  25.792  31.487  1.00  0.00     0.009 A 
ATOM     22  C   UNL A   1      43.997  23.572  33.094  1.00  0.00     0.001 A 
ATOM     23  C   UNL A   1      44.321  25.947  32.867  1.00  0.00     0.001 A 
ATOM     24  C   UNL A   1      44.068  24.837  33.668  1.00  0.00     0.000 A 
ENDBRANCH  18  19
ENDBRANCH   8  13
ENDBRANCH   7   8
ENDBRANCH   6   7
ENDBRANCH   5   6
ENDBRANCH   4   5
ENDBRANCH   2   4
ENDBRANCH   1   2
BRANCH   1  25
ATOM     25  C   UNL A   1      41.994  20.068  26.667  1.00  0.00     0.274 C 
BRANCH  25  26
ATOM     26  C   UNL A   1      40.505  20.413  26.648  1.00  0.00     0.275 C 
BRANCH  26  27
ATOM     27  O   UNL A   1      40.298  21.726  27.201  1.00  0.00    -0.458 OA
BRANCH  27  28
ATOM     28  C   UNL A   1      39.457  22.536  26.517  1.00  0.00     0.338 C 
ATOM     29  O   UNL A   1      38.610  22.211  25.705  1.00  0.00    -0.246 OA
BRANCH  28  30
ATOM     30  C   UNL A   1      39.715  23.931  26.912  1.00  0.00     0.060 A 
ATOM     31  C   UNL A   1      40.236  24.827  25.978  1.00  0.00     0.016 A 
ATOM     32  C   UNL A   1      39.511  24.324  28.235  1.00  0.00     0.016 A 
ATOM     33  C   UNL A   1      40.565  26.126  26.366  1.00  0.00     0.010 A 
ATOM     34  C   UNL A   1      39.813  25.635  28.613  1.00  0.00     0.010 A 
ATOM     35  C   UNL A   1      40.355  26.544  27.686  1.00  0.00    -0.014 A 
BRANCH  35  36
ATOM     36  C   UNL A   1      40.753  27.909  28.123  1.00  0.00     0.031 A 
ATOM     37  C   UNL A   1      42.207  28.287  28.138  1.00  0.00     0.074 A 
ATOM     38  C   UNL A   1      39.823  28.797  28.522  1.00  0.00     0.049 A 
ATOM     39  N   UNL A   1      42.788  29.341  28.650  1.00  0.00    -0.248 NA
ATOM     40  C   UNL A   1      43.131  27.339  27.499  1.00  0.00     0.031 C 
ATOM     41  C   UNL A   1      38.377  28.570  28.509  1.00  0.00     0.029 A 
ATOM     42  N   UNL A   1      39.957  30.064  29.036  1.00  0.00    -0.354 N 
ATOM     43  C   UNL A   1      44.151  29.172  28.424  1.00  0.00     0.074 A 
ATOM     44  C   UNL A   1      44.306  27.900  27.746  1.00  0.00     0.031 C 
ATOM     45  C   UNL A   1      37.759  29.656  29.001  1.00  0.00     0.029 A 
ATOM     46  C   UNL A   1      38.764  30.628  29.423  1.00  0.00     0.049 A 
ATOM     47  H   UNL A   1      40.823  30.522  29.120  1.00  0.00     0.167 HD
ATOM     48  C   UNL A   1      45.173  30.000  28.752  1.00  0.00     0.034 A 
ATOM     49  C   UNL A   1      38.511  31.776  30.085  1.00  0.00     0.034 A 
ATOM     50  C   UNL A   1      44.999  31.268  29.419  1.00  0.00     0.049 A 
ATOM     51  C   UNL A   1      39.667  32.650  30.501  1.00  0.00     0.074 A 
ATOM     52  C   UNL A   1      45.963  32.188  29.794  1.00  0.00     0.029 A 
ATOM     53  N   UNL A   1      43.775  31.796  29.814  1.00  0.00    -0.354 N 
ATOM     54  N   UNL A   1      40.954  32.461  30.319  1.00  0.00    -0.248 NA
ATOM     55  C   UNL A   1      39.336  33.890  31.215  1.00  0.00     0.031 C 
ATOM     56  C   UNL A   1      45.330  33.244  30.462  1.00  0.00     0.029 A 
ATOM     57  C   UNL A   1      43.964  33.017  30.446  1.00  0.00     0.049 A 
ATOM     58  H   UNL A   1      42.903  31.367  29.665  1.00  0.00     0.167 HD
ATOM     59  C   UNL A   1      41.583  33.569  30.880  1.00  0.00     0.074 A 
ATOM     60  C   UNL A   1      40.534  34.428  31.391  1.00  0.00     0.031 C 
ATOM     61  C   UNL A   1      42.907  33.854  30.963  1.00  0.00     0.034 A 
BRANCH  48  62
ATOM     62  C   UNL A   1      46.572  29.524  28.445  1.00  0.00     0.023 A 
ATOM     63  C   UNL A   1      47.275  28.668  29.313  1.00  0.00     0.031 A 
ATOM     64  C   UNL A   1      47.231  29.966  27.283  1.00  0.00     0.131 A 
ATOM     65  C   UNL A   1      48.612  28.342  29.042  1.00  0.00     0.055 A 
ATOM     66  C   UNL A   1      48.537  29.576  26.982  1.00  0.00     0.041 A 
ATOM     67  F   UNL A   1      46.619  30.801  26.428  1.00  0.00    -0.206 F 
ATOM     68  C   UNL A   1      49.241  28.771  27.872  1.00  0.00     0.022 A 
BRANCH  65  69
ATOM     69  S   UNL A   1      49.565  27.462  30.311  1.00  0.00     0.124 S 
ATOM     70  O   UNL A   1      50.823  27.208  29.615  1.00  0.00    -0.237 OA
ATOM     71  O   UNL A   1      49.620  28.435  31.396  1.00  0.00    -0.237 OA
ATOM     72  O   UNL A   1      48.759  26.272  30.582  1.00  0.00    -0.744 OA
ENDBRANCH  65  69
ENDBRANCH  48  62
BRANCH  49  73
ATOM     73  C   UNL A   1      37.114  32.137  30.459  1.00  0.00     0.023 A 
ATOM     74  C   UNL A   1      36.254  32.759  29.541  1.00  0.00     0.031 A 
ATOM     75  C   UNL A   1      36.635  31.902  31.761  1.00  0.00     0.131 A 
ATOM     76  C   UNL A   1      34.972  33.159  29.947  1.00  0.00     0.055 A 
ATOM     77  C   UNL A   1      35.341  32.256  32.145  1.00  0.00     0.041 A 
ATOM     78  F   UNL A   1      37.418  31.312  32.677  1.00  0.00    -0.206 F 
ATOM     79  C   UNL A   1      34.504  32.899  31.238  1.00  0.00     0.022 A 
BRANCH  76  80
ATOM     80  S   UNL A   1      33.942  34.091  28.781  1.00  0.00     0.124 S 
ATOM     81  O   UNL A   1      34.890  35.069  28.263  1.00  0.00    -0.237 OA
ATOM     82  O   UNL A   1      33.521  33.050  27.850  1.00  0.00    -0.237 OA
ATOM     83  O   UNL A   1      32.880  34.637  29.624  1.00  0.00    -0.744 OA
ENDBRANCH  76  80
ENDBRANCH  49  73
BRANCH  61  84
ATOM     84  C   UNL A   1      43.281  35.173  31.592  1.00  0.00     0.023 A 
ATOM     85  C   UNL A   1      43.527  36.319  30.816  1.00  0.00     0.031 A 
ATOM     86  C   UNL A   1      43.412  35.275  32.989  1.00  0.00     0.131 A 
ATOM     87  C   UNL A   1      43.941  37.507  31.439  1.00  0.00     0.055 A 
ATOM     88  C   UNL A   1      43.775  36.473  33.607  1.00  0.00     0.041 A 
ATOM     89  F   UNL A   1      43.191  34.210  33.775  1.00  0.00    -0.206 F 
ATOM     90  C   UNL A   1      44.053  37.594  32.830  1.00  0.00     0.022 A 
BRANCH  87  91
ATOM     91  S   UNL A   1      44.412  38.918  30.401  1.00  0.00     0.124 S 
ATOM     92  O   UNL A   1      43.521  39.965  30.889  1.00  0.00    -0.237 OA
ATOM     93  O   UNL A   1      45.826  39.084  30.720  1.00  0.00    -0.237 OA
ATOM     94  O   UNL A   1      44.135  38.452  29.043  1.00  0.00    -0.744 OA
ENDBRANCH  87  91
ENDBRANCH  61  84
ENDBRANCH  35  36
ENDBRANCH  28  30
ENDBRANCH  27  28
ENDBRANCH  26  27
ENDBRANCH  25  26
ENDBRANCH   1  25
TORSDOF 21
ENDMDL
