MODEL 1
REMARK VINA RESULT:     -11.4      0.000      0.000
REMARK SMILES COCc1ccccc1C(=O)N1CCC[C@@H](C(=O)OCCOC(=O)c2ccc(-c3c4nc(c(-c5cc(S(=O)(=O)[O-])ccc5F)c5ccc([nH]5)c(-c5cc(S(=O)(=O)[O-])ccc5F)c5nc(c(-c6cc(S(=O)(=O)[O-])ccc6F)c6ccc3[nH]6)C=C5)C=C4)cc2)C1
REMARK SMILES IDX 20 1 19 2 17 3 18 4 16 5 12 6 13 7 88 8 14 9 15 10 10 11
REMARK SMILES IDX 11 12 9 13 4 14 5 15 6 16 8 17 7 18 3 19 2 20 1 21 21 22
REMARK SMILES IDX 22 23 23 24 24 25 25 26 26 27 87 28 27 29 86 30 28 31 29 32
REMARK SMILES IDX 30 33 80 34 31 35 85 36 79 37 81 38 32 39 84 40 78 41 77 42
REMARK SMILES IDX 33 44 65 45 45 46 64 47 46 48 49 49 63 50 82 51 47 52 48 53
REMARK SMILES IDX 62 55 83 56 50 57 34 58 35 59 43 60 36 61 42 62 44 63 41 64
REMARK SMILES IDX 37 65 38 66 39 67 40 68 66 69 67 70 75 71 68 72 74 73 76 74
REMARK SMILES IDX 73 75 69 76 70 77 71 78 72 79 51 80 52 81 60 82 53 83 59 84
REMARK SMILES IDX 61 85 58 86 54 87 55 88 56 89 57 90
REMARK H PARENT 81 43 49 54
REMARK Flexibility Score: inf
ROOT
ATOM      1  C   UNL A   1      31.496  29.668  25.304  1.00  0.00     0.274 C 
ENDROOT
BRANCH   1   2
ATOM      2  O   UNL A   1      32.292  28.524  25.682  1.00  0.00    -0.462 OA
BRANCH   2   3
ATOM      3  C   UNL A   1      31.576  27.458  26.131  1.00  0.00     0.310 C 
ATOM      4  O   UNL A   1      31.062  27.413  27.243  1.00  0.00    -0.252 OA
BRANCH   3   5
ATOM      5  C   UNL A   1      31.516  26.303  25.150  1.00  0.00     0.119 C 
ATOM      6  N   UNL A   1      32.296  24.025  24.751  1.00  0.00    -0.338 N 
ATOM      7  C   UNL A   1      31.072  23.631  24.055  1.00  0.00     0.120 C 
ATOM      8  C   UNL A   1      32.046  25.011  25.784  1.00  0.00     0.135 C 
ATOM      9  C   UNL A   1      30.280  24.837  23.522  1.00  0.00     0.022 C 
ATOM     10  C   UNL A   1      30.146  25.978  24.546  1.00  0.00     0.019 C 
BRANCH   6  11
ATOM     11  C   UNL A   1      33.519  23.999  24.060  1.00  0.00     0.254 C 
ATOM     12  O   UNL A   1      33.600  24.413  22.901  1.00  0.00    -0.269 OA
BRANCH  11  13
ATOM     13  C   UNL A   1      34.655  23.158  24.597  1.00  0.00     0.045 A 
ATOM     14  C   UNL A   1      34.767  21.757  24.678  1.00  0.00    -0.010 A 
ATOM     15  C   UNL A   1      36.026  21.192  24.998  1.00  0.00     0.007 A 
ATOM     16  C   UNL A   1      37.077  21.977  25.460  1.00  0.00     0.000 A 
ATOM     17  C   UNL A   1      35.708  23.928  25.138  1.00  0.00     0.014 A 
ATOM     18  C   UNL A   1      36.890  23.342  25.598  1.00  0.00     0.001 A 
BRANCH  14  19
ATOM     19  C   UNL A   1      33.641  20.755  24.622  1.00  0.00     0.196 C 
BRANCH  19  20
ATOM     20  O   UNL A   1      34.057  19.396  24.669  1.00  0.00    -0.380 OA
ATOM     21  C   UNL A   1      33.074  18.469  24.240  1.00  0.00     0.195 C 
ENDBRANCH  19  20
ENDBRANCH  14  19
ENDBRANCH  11  13
ENDBRANCH   6  11
ENDBRANCH   3   5
ENDBRANCH   2   3
ENDBRANCH   1   2
BRANCH   1  22
ATOM     22  C   UNL A   1      31.712  30.842  26.257  1.00  0.00     0.275 C 
BRANCH  22  23
ATOM     23  O   UNL A   1      32.862  30.605  27.088  1.00  0.00    -0.458 OA
BRANCH  23  24
ATOM     24  C   UNL A   1      33.573  31.694  27.447  1.00  0.00     0.338 C 
ATOM     25  O   UNL A   1      33.190  32.865  27.422  1.00  0.00    -0.246 OA
BRANCH  24  26
ATOM     26  C   UNL A   1      34.909  31.304  27.925  1.00  0.00     0.060 A 
ATOM     27  C   UNL A   1      35.126  29.998  28.356  1.00  0.00     0.016 A 
ATOM     28  C   UNL A   1      35.915  32.255  28.085  1.00  0.00     0.016 A 
ATOM     29  C   UNL A   1      36.286  29.665  29.048  1.00  0.00     0.010 A 
ATOM     30  C   UNL A   1      37.134  31.887  28.672  1.00  0.00     0.010 A 
ATOM     31  C   UNL A   1      37.320  30.593  29.190  1.00  0.00    -0.014 A 
BRANCH  31  32
ATOM     32  C   UNL A   1      38.557  30.212  29.926  1.00  0.00     0.031 A 
ATOM     33  C   UNL A   1      39.548  29.280  29.281  1.00  0.00     0.074 A 
ATOM     34  C   UNL A   1      38.820  30.730  31.144  1.00  0.00     0.049 A 
ATOM     35  N   UNL A   1      40.579  28.676  29.809  1.00  0.00    -0.248 NA
ATOM     36  C   UNL A   1      39.344  28.988  27.853  1.00  0.00     0.031 C 
ATOM     37  C   UNL A   1      37.995  31.719  31.843  1.00  0.00     0.029 A 
ATOM     38  N   UNL A   1      39.863  30.506  32.011  1.00  0.00    -0.354 N 
ATOM     39  C   UNL A   1      41.113  27.883  28.797  1.00  0.00     0.074 A 
ATOM     40  C   UNL A   1      40.298  28.100  27.620  1.00  0.00     0.031 C 
ATOM     41  C   UNL A   1      38.577  32.035  33.010  1.00  0.00     0.029 A 
ATOM     42  C   UNL A   1      39.759  31.202  33.195  1.00  0.00     0.049 A 
ATOM     43  H   UNL A   1      40.613  29.902  31.806  1.00  0.00     0.167 HD
ATOM     44  C   UNL A   1      42.171  27.038  28.857  1.00  0.00     0.034 A 
ATOM     45  C   UNL A   1      40.498  31.134  34.323  1.00  0.00     0.034 A 
ATOM     46  C   UNL A   1      42.994  26.865  30.028  1.00  0.00     0.049 A 
ATOM     47  C   UNL A   1      41.632  30.138  34.384  1.00  0.00     0.074 A 
ATOM     48  C   UNL A   1      44.077  26.021  30.205  1.00  0.00     0.029 A 
ATOM     49  N   UNL A   1      42.831  27.554  31.222  1.00  0.00    -0.354 N 
ATOM     50  N   UNL A   1      42.073  29.330  33.448  1.00  0.00    -0.248 NA
ATOM     51  C   UNL A   1      42.352  30.030  35.660  1.00  0.00     0.031 C 
ATOM     52  C   UNL A   1      44.531  26.159  31.521  1.00  0.00     0.029 A 
ATOM     53  C   UNL A   1      43.774  27.135  32.146  1.00  0.00     0.049 A 
ATOM     54  H   UNL A   1      42.145  28.242  31.388  1.00  0.00     0.167 HD
ATOM     55  C   UNL A   1      43.130  28.629  34.021  1.00  0.00     0.074 A 
ATOM     56  C   UNL A   1      43.279  29.129  35.372  1.00  0.00     0.031 C 
ATOM     57  C   UNL A   1      43.904  27.650  33.487  1.00  0.00     0.034 A 
BRANCH  44  58
ATOM     58  C   UNL A   1      42.435  26.168  27.656  1.00  0.00     0.023 A 
ATOM     59  C   UNL A   1      41.984  24.841  27.571  1.00  0.00     0.031 A 
ATOM     60  C   UNL A   1      43.173  26.689  26.577  1.00  0.00     0.131 A 
ATOM     61  C   UNL A   1      42.318  24.064  26.449  1.00  0.00     0.055 A 
ATOM     62  C   UNL A   1      43.447  25.931  25.437  1.00  0.00     0.041 A 
ATOM     63  F   UNL A   1      43.648  27.944  26.617  1.00  0.00    -0.206 F 
ATOM     64  C   UNL A   1      43.026  24.607  25.374  1.00  0.00     0.022 A 
BRANCH  61  65
ATOM     65  S   UNL A   1      41.902  22.299  26.455  1.00  0.00     0.124 S 
ATOM     66  O   UNL A   1      42.550  21.838  25.229  1.00  0.00    -0.237 OA
ATOM     67  O   UNL A   1      42.496  21.836  27.704  1.00  0.00    -0.237 OA
ATOM     68  O   UNL A   1      40.440  22.290  26.420  1.00  0.00    -0.744 OA
ENDBRANCH  61  65
ENDBRANCH  44  58
BRANCH  45  69
ATOM     69  C   UNL A   1      40.151  31.953  35.523  1.00  0.00     0.023 A 
ATOM     70  C   UNL A   1      39.201  31.504  36.454  1.00  0.00     0.031 A 
ATOM     71  C   UNL A   1      40.698  33.237  35.712  1.00  0.00     0.131 A 
ATOM     72  C   UNL A   1      38.783  32.352  37.494  1.00  0.00     0.055 A 
ATOM     73  C   UNL A   1      40.330  34.048  36.787  1.00  0.00     0.041 A 
ATOM     74  F   UNL A   1      41.603  33.725  34.850  1.00  0.00    -0.206 F 
ATOM     75  C   UNL A   1      39.353  33.613  37.676  1.00  0.00     0.022 A 
BRANCH  72  76
ATOM     76  S   UNL A   1      37.390  31.828  38.530  1.00  0.00     0.124 S 
ATOM     77  O   UNL A   1      36.361  32.787  38.152  1.00  0.00    -0.237 OA
ATOM     78  O   UNL A   1      37.184  30.454  38.083  1.00  0.00    -0.237 OA
ATOM     79  O   UNL A   1      37.907  31.968  39.890  1.00  0.00    -0.744 OA
ENDBRANCH  72  76
ENDBRANCH  45  69
BRANCH  57  80
ATOM     80  C   UNL A   1      45.003  27.099  34.358  1.00  0.00     0.023 A 
ATOM     81  C   UNL A   1      44.824  25.932  35.120  1.00  0.00     0.031 A 
ATOM     82  C   UNL A   1      46.243  27.759  34.433  1.00  0.00     0.131 A 
ATOM     83  C   UNL A   1      45.852  25.484  35.962  1.00  0.00     0.055 A 
ATOM     84  C   UNL A   1      47.280  27.279  35.232  1.00  0.00     0.041 A 
ATOM     85  F   UNL A   1      46.463  28.878  33.725  1.00  0.00    -0.206 F 
ATOM     86  C   UNL A   1      47.084  26.142  36.012  1.00  0.00     0.022 A 
BRANCH  83  87
ATOM     87  S   UNL A   1      45.535  24.066  37.048  1.00  0.00     0.124 S 
ATOM     88  O   UNL A   1      46.879  23.541  37.262  1.00  0.00    -0.237 OA
ATOM     89  O   UNL A   1      44.904  24.693  38.204  1.00  0.00    -0.237 OA
ATOM     90  O   UNL A   1      44.655  23.212  36.251  1.00  0.00    -0.744 OA
ENDBRANCH  83  87
ENDBRANCH  57  80
ENDBRANCH  31  32
ENDBRANCH  24  26
ENDBRANCH  23  24
ENDBRANCH  22  23
ENDBRANCH   1  22
TORSDOF 18
ENDMDL
MODEL 2
REMARK VINA RESULT:     -11.1      1.610      2.007
REMARK SMILES COCc1ccccc1C(=O)N1CCC[C@@H](C(=O)OCCOC(=O)c2ccc(-c3c4nc(c(-c5cc(S(=O)(=O)[O-])ccc5F)c5ccc([nH]5)c(-c5cc(S(=O)(=O)[O-])ccc5F)c5nc(c(-c6cc(S(=O)(=O)[O-])ccc6F)c6ccc3[nH]6)C=C5)C=C4)cc2)C1
REMARK SMILES IDX 20 1 19 2 17 3 18 4 16 5 12 6 13 7 88 8 14 9 15 10 10 11
REMARK SMILES IDX 11 12 9 13 4 14 5 15 6 16 8 17 7 18 3 19 2 20 1 21 21 22
REMARK SMILES IDX 22 23 23 24 24 25 25 26 26 27 87 28 27 29 86 30 28 31 29 32
REMARK SMILES IDX 30 33 80 34 31 35 85 36 79 37 81 38 32 39 84 40 78 41 77 42
REMARK SMILES IDX 33 44 65 45 45 46 64 47 46 48 49 49 63 50 82 51 47 52 48 53
REMARK SMILES IDX 62 55 83 56 50 57 34 58 35 59 43 60 36 61 42 62 44 63 41 64
REMARK SMILES IDX 37 65 38 66 39 67 40 68 66 69 67 70 75 71 68 72 74 73 76 74
REMARK SMILES IDX 73 75 69 76 70 77 71 78 72 79 51 80 52 81 60 82 53 83 59 84
REMARK SMILES IDX 61 85 58 86 54 87 55 88 56 89 57 90
REMARK H PARENT 81 43 49 54
REMARK Flexibility Score: inf
ROOT
ATOM      1  C   UNL A   1      31.439  29.319  24.098  1.00  0.00     0.274 C 
ENDROOT
BRANCH   1   2
ATOM      2  O   UNL A   1      31.011  27.944  24.202  1.00  0.00    -0.462 OA
BRANCH   2   3
ATOM      3  C   UNL A   1      31.716  27.071  23.433  1.00  0.00     0.310 C 
ATOM      4  O   UNL A   1      31.773  27.145  22.210  1.00  0.00    -0.252 OA
BRANCH   3   5
ATOM      5  C   UNL A   1      32.383  25.960  24.222  1.00  0.00     0.119 C 
ATOM      6  N   UNL A   1      34.528  24.881  24.660  1.00  0.00    -0.338 N 
ATOM      7  C   UNL A   1      34.193  24.577  26.051  1.00  0.00     0.120 C 
ATOM      8  C   UNL A   1      33.910  26.111  24.204  1.00  0.00     0.135 C 
ATOM      9  C   UNL A   1      32.677  24.591  26.311  1.00  0.00     0.022 C 
ATOM     10  C   UNL A   1      31.963  25.803  25.687  1.00  0.00     0.019 C 
BRANCH   6  11
ATOM     11  C   UNL A   1      34.781  23.827  23.768  1.00  0.00     0.254 C 
ATOM     12  O   UNL A   1      34.234  23.787  22.663  1.00  0.00    -0.269 OA
BRANCH  11  13
ATOM     13  C   UNL A   1      35.450  22.571  24.276  1.00  0.00     0.045 A 
ATOM     14  C   UNL A   1      34.871  21.349  24.672  1.00  0.00    -0.010 A 
ATOM     15  C   UNL A   1      35.716  20.232  24.885  1.00  0.00     0.007 A 
ATOM     16  C   UNL A   1      37.099  20.370  24.946  1.00  0.00     0.000 A 
ATOM     17  C   UNL A   1      36.849  22.703  24.417  1.00  0.00     0.014 A 
ATOM     18  C   UNL A   1      37.660  21.626  24.782  1.00  0.00     0.001 A 
BRANCH  14  19
ATOM     19  C   UNL A   1      33.433  21.115  25.064  1.00  0.00     0.196 C 
BRANCH  19  20
ATOM     20  O   UNL A   1      32.938  19.821  24.746  1.00  0.00    -0.380 OA
ATOM     21  C   UNL A   1      32.355  19.719  23.458  1.00  0.00     0.195 C 
ENDBRANCH  19  20
ENDBRANCH  14  19
ENDBRANCH  11  13
ENDBRANCH   6  11
ENDBRANCH   3   5
ENDBRANCH   2   3
ENDBRANCH   1   2
BRANCH   1  22
ATOM     22  C   UNL A   1      31.488  29.997  25.466  1.00  0.00     0.275 C 
BRANCH  22  23
ATOM     23  O   UNL A   1      32.833  29.999  25.974  1.00  0.00    -0.458 OA
BRANCH  23  24
ATOM     24  C   UNL A   1      33.153  31.010  26.809  1.00  0.00     0.338 C 
ATOM     25  O   UNL A   1      32.437  31.962  27.122  1.00  0.00    -0.246 OA
BRANCH  24  26
ATOM     26  C   UNL A   1      34.507  30.820  27.354  1.00  0.00     0.060 A 
ATOM     27  C   UNL A   1      34.976  29.530  27.584  1.00  0.00     0.016 A 
ATOM     28  C   UNL A   1      35.266  31.911  27.774  1.00  0.00     0.016 A 
ATOM     29  C   UNL A   1      36.131  29.319  28.329  1.00  0.00     0.010 A 
ATOM     30  C   UNL A   1      36.494  31.698  28.417  1.00  0.00     0.010 A 
ATOM     31  C   UNL A   1      36.924  30.397  28.732  1.00  0.00    -0.014 A 
BRANCH  31  32
ATOM     32  C   UNL A   1      38.162  30.147  29.520  1.00  0.00     0.031 A 
ATOM     33  C   UNL A   1      39.254  29.289  28.939  1.00  0.00     0.074 A 
ATOM     34  C   UNL A   1      38.335  30.722  30.729  1.00  0.00     0.049 A 
ATOM     35  N   UNL A   1      40.314  28.793  29.520  1.00  0.00    -0.248 NA
ATOM     36  C   UNL A   1      39.128  28.939  27.515  1.00  0.00     0.031 C 
ATOM     37  C   UNL A   1      37.402  31.654  31.368  1.00  0.00     0.029 A 
ATOM     38  N   UNL A   1      39.361  30.615  31.638  1.00  0.00    -0.354 N 
ATOM     39  C   UNL A   1      40.951  28.022  28.553  1.00  0.00     0.074 A 
ATOM     40  C   UNL A   1      40.164  28.132  27.342  1.00  0.00     0.031 C 
ATOM     41  C   UNL A   1      37.911  32.053  32.544  1.00  0.00     0.029 A 
ATOM     42  C   UNL A   1      39.154  31.333  32.795  1.00  0.00     0.049 A 
ATOM     43  H   UNL A   1      40.168  30.075  31.477  1.00  0.00     0.167 HD
ATOM     44  C   UNL A   1      42.077  27.277  28.675  1.00  0.00     0.034 A 
ATOM     45  C   UNL A   1      39.854  31.364  33.948  1.00  0.00     0.034 A 
ATOM     46  C   UNL A   1      42.869  27.210  29.878  1.00  0.00     0.049 A 
ATOM     47  C   UNL A   1      41.068  30.474  34.079  1.00  0.00     0.074 A 
ATOM     48  C   UNL A   1      44.014  26.471  30.118  1.00  0.00     0.029 A 
ATOM     49  N   UNL A   1      42.602  27.917  31.043  1.00  0.00    -0.354 N 
ATOM     50  N   UNL A   1      41.611  29.681  33.185  1.00  0.00    -0.248 NA
ATOM     51  C   UNL A   1      41.747  30.466  35.382  1.00  0.00     0.031 C 
ATOM     52  C   UNL A   1      44.406  26.686  31.444  1.00  0.00     0.029 A 
ATOM     53  C   UNL A   1      43.544  27.610  32.012  1.00  0.00     0.049 A 
ATOM     54  H   UNL A   1      41.853  28.545  31.164  1.00  0.00     0.167 HD
ATOM     55  C   UNL A   1      42.704  29.093  33.816  1.00  0.00     0.074 A 
ATOM     56  C   UNL A   1      42.760  29.643  35.154  1.00  0.00     0.031 C 
ATOM     57  C   UNL A   1      43.580  28.172  33.339  1.00  0.00     0.034 A 
BRANCH  44  58
ATOM     58  C   UNL A   1      42.459  26.399  27.511  1.00  0.00     0.023 A 
ATOM     59  C   UNL A   1      42.059  25.056  27.414  1.00  0.00     0.031 A 
ATOM     60  C   UNL A   1      43.260  26.929  26.483  1.00  0.00     0.131 A 
ATOM     61  C   UNL A   1      42.502  24.276  26.334  1.00  0.00     0.055 A 
ATOM     62  C   UNL A   1      43.644  26.165  25.380  1.00  0.00     0.041 A 
ATOM     63  F   UNL A   1      43.689  28.200  26.539  1.00  0.00    -0.206 F 
ATOM     64  C   UNL A   1      43.272  24.827  25.306  1.00  0.00     0.022 A 
BRANCH  61  65
ATOM     65  S   UNL A   1      42.143  22.498  26.337  1.00  0.00     0.124 S 
ATOM     66  O   UNL A   1      42.774  22.072  27.585  1.00  0.00    -0.237 OA
ATOM     67  O   UNL A   1      40.686  22.467  26.315  1.00  0.00    -0.237 OA
ATOM     68  O   UNL A   1      42.795  22.013  25.121  1.00  0.00    -0.744 OA
ENDBRANCH  61  65
ENDBRANCH  44  58
BRANCH  45  69
ATOM     69  C   UNL A   1      39.394  32.183  35.110  1.00  0.00     0.023 A 
ATOM     70  C   UNL A   1      39.897  33.475  35.327  1.00  0.00     0.031 A 
ATOM     71  C   UNL A   1      38.512  31.653  36.072  1.00  0.00     0.131 A 
ATOM     72  C   UNL A   1      39.563  34.169  36.502  1.00  0.00     0.055 A 
ATOM     73  C   UNL A   1      38.130  32.374  37.203  1.00  0.00     0.041 A 
ATOM     74  F   UNL A   1      38.006  30.419  35.924  1.00  0.00    -0.206 F 
ATOM     75  C   UNL A   1      38.671  33.635  37.433  1.00  0.00     0.022 A 
BRANCH  72  76
ATOM     76  S   UNL A   1      40.416  35.731  36.856  1.00  0.00     0.124 S 
ATOM     77  O   UNL A   1      41.769  35.441  36.399  1.00  0.00    -0.237 OA
ATOM     78  O   UNL A   1      39.654  36.677  36.048  1.00  0.00    -0.237 OA
ATOM     79  O   UNL A   1      40.262  35.881  38.301  1.00  0.00    -0.744 OA
ENDBRANCH  72  76
ENDBRANCH  45  69
BRANCH  57  80
ATOM     80  C   UNL A   1      44.690  27.745  34.264  1.00  0.00     0.023 A 
ATOM     81  C   UNL A   1      44.547  26.649  35.132  1.00  0.00     0.031 A 
ATOM     82  C   UNL A   1      45.905  28.454  34.282  1.00  0.00     0.131 A 
ATOM     83  C   UNL A   1      45.583  26.320  36.017  1.00  0.00     0.055 A 
ATOM     84  C   UNL A   1      46.952  28.089  35.128  1.00  0.00     0.041 A 
ATOM     85  F   UNL A   1      46.091  29.509  33.473  1.00  0.00    -0.206 F 
ATOM     86  C   UNL A   1      46.790  27.024  36.011  1.00  0.00     0.022 A 
BRANCH  83  87
ATOM     87  S   UNL A   1      45.307  25.001  37.230  1.00  0.00     0.124 S 
ATOM     88  O   UNL A   1      45.205  23.821  36.378  1.00  0.00    -0.237 OA
ATOM     89  O   UNL A   1      46.503  25.084  38.061  1.00  0.00    -0.237 OA
ATOM     90  O   UNL A   1      44.065  25.397  37.893  1.00  0.00    -0.744 OA
ENDBRANCH  83  87
ENDBRANCH  57  80
ENDBRANCH  31  32
ENDBRANCH  24  26
ENDBRANCH  23  24
ENDBRANCH  22  23
ENDBRANCH   1  22
TORSDOF 18
ENDMDL
MODEL 3
REMARK VINA RESULT:     -10.8      1.679      2.262
REMARK SMILES COCc1ccccc1C(=O)N1CCC[C@@H](C(=O)OCCOC(=O)c2ccc(-c3c4nc(c(-c5cc(S(=O)(=O)[O-])ccc5F)c5ccc([nH]5)c(-c5cc(S(=O)(=O)[O-])ccc5F)c5nc(c(-c6cc(S(=O)(=O)[O-])ccc6F)c6ccc3[nH]6)C=C5)C=C4)cc2)C1
REMARK SMILES IDX 20 1 19 2 17 3 18 4 16 5 12 6 13 7 88 8 14 9 15 10 10 11
REMARK SMILES IDX 11 12 9 13 4 14 5 15 6 16 8 17 7 18 3 19 2 20 1 21 21 22
REMARK SMILES IDX 22 23 23 24 24 25 25 26 26 27 87 28 27 29 86 30 28 31 29 32
REMARK SMILES IDX 30 33 80 34 31 35 85 36 79 37 81 38 32 39 84 40 78 41 77 42
REMARK SMILES IDX 33 44 65 45 45 46 64 47 46 48 49 49 63 50 82 51 47 52 48 53
REMARK SMILES IDX 62 55 83 56 50 57 34 58 35 59 43 60 36 61 42 62 44 63 41 64
REMARK SMILES IDX 37 65 38 66 39 67 40 68 66 69 67 70 75 71 68 72 74 73 76 74
REMARK SMILES IDX 73 75 69 76 70 77 71 78 72 79 51 80 52 81 60 82 53 83 59 84
REMARK SMILES IDX 61 85 58 86 54 87 55 88 56 89 57 90
REMARK H PARENT 81 43 49 54
REMARK Flexibility Score: inf
ROOT
ATOM      1  C   UNL A   1      31.803  28.607  25.641  1.00  0.00     0.274 C 
ENDROOT
BRANCH   1   2
ATOM      2  O   UNL A   1      32.961  27.744  25.652  1.00  0.00    -0.462 OA
BRANCH   2   3
ATOM      3  C   UNL A   1      32.968  26.790  24.683  1.00  0.00     0.310 C 
ATOM      4  O   UNL A   1      33.029  27.047  23.486  1.00  0.00    -0.252 OA
BRANCH   3   5
ATOM      5  C   UNL A   1      32.838  25.375  25.215  1.00  0.00     0.119 C 
ATOM      6  N   UNL A   1      34.083  23.543  26.239  1.00  0.00    -0.338 N 
ATOM      7  C   UNL A   1      32.941  23.089  27.031  1.00  0.00     0.120 C 
ATOM      8  C   UNL A   1      34.073  24.979  26.035  1.00  0.00     0.135 C 
ATOM      9  C   UNL A   1      31.598  23.581  26.467  1.00  0.00     0.022 C 
ATOM     10  C   UNL A   1      31.609  25.070  26.077  1.00  0.00     0.019 C 
BRANCH   6  11
ATOM     11  C   UNL A   1      34.641  22.682  25.280  1.00  0.00     0.254 C 
ATOM     12  O   UNL A   1      35.863  22.621  25.118  1.00  0.00    -0.269 OA
BRANCH  11  13
ATOM     13  C   UNL A   1      33.751  22.085  24.214  1.00  0.00     0.045 A 
ATOM     14  C   UNL A   1      33.136  20.819  24.170  1.00  0.00    -0.010 A 
ATOM     15  C   UNL A   1      32.152  20.573  23.182  1.00  0.00     0.007 A 
ATOM     16  C   UNL A   1      31.952  21.452  22.123  1.00  0.00     0.000 A 
ATOM     17  C   UNL A   1      33.586  22.927  23.092  1.00  0.00     0.014 A 
ATOM     18  C   UNL A   1      32.725  22.599  22.042  1.00  0.00     0.001 A 
BRANCH  14  19
ATOM     19  C   UNL A   1      33.522  19.599  24.969  1.00  0.00     0.196 C 
BRANCH  19  20
ATOM     20  O   UNL A   1      34.788  19.047  24.630  1.00  0.00    -0.380 OA
ATOM     21  C   UNL A   1      34.773  17.649  24.399  1.00  0.00     0.195 C 
ENDBRANCH  19  20
ENDBRANCH  14  19
ENDBRANCH  11  13
ENDBRANCH   6  11
ENDBRANCH   3   5
ENDBRANCH   2   3
ENDBRANCH   1   2
BRANCH   1  22
ATOM     22  C   UNL A   1      32.186  30.066  25.879  1.00  0.00     0.275 C 
BRANCH  22  23
ATOM     23  O   UNL A   1      32.760  30.224  27.188  1.00  0.00    -0.458 OA
BRANCH  23  24
ATOM     24  C   UNL A   1      33.484  31.345  27.390  1.00  0.00     0.338 C 
ATOM     25  O   UNL A   1      33.095  32.506  27.259  1.00  0.00    -0.246 OA
BRANCH  24  26
ATOM     26  C   UNL A   1      34.844  31.006  27.838  1.00  0.00     0.060 A 
ATOM     27  C   UNL A   1      35.128  29.704  28.240  1.00  0.00     0.016 A 
ATOM     28  C   UNL A   1      35.809  32.000  27.999  1.00  0.00     0.016 A 
ATOM     29  C   UNL A   1      36.313  29.411  28.905  1.00  0.00     0.010 A 
ATOM     30  C   UNL A   1      37.054  31.676  28.558  1.00  0.00     0.010 A 
ATOM     31  C   UNL A   1      37.307  30.383  29.048  1.00  0.00    -0.014 A 
BRANCH  31  32
ATOM     32  C   UNL A   1      38.573  30.044  29.755  1.00  0.00     0.031 A 
ATOM     33  C   UNL A   1      39.548  29.090  29.119  1.00  0.00     0.074 A 
ATOM     34  C   UNL A   1      38.876  30.621  30.937  1.00  0.00     0.049 A 
ATOM     35  N   UNL A   1      40.602  28.517  29.636  1.00  0.00    -0.248 NA
ATOM     36  C   UNL A   1      39.295  28.730  27.715  1.00  0.00     0.031 C 
ATOM     37  C   UNL A   1      38.068  31.636  31.619  1.00  0.00     0.029 A 
ATOM     38  N   UNL A   1      39.950  30.444  31.776  1.00  0.00    -0.354 N 
ATOM     39  C   UNL A   1      41.106  27.682  28.644  1.00  0.00     0.074 A 
ATOM     40  C   UNL A   1      40.247  27.838  27.488  1.00  0.00     0.031 C 
ATOM     41  C   UNL A   1      38.689  32.010  32.749  1.00  0.00     0.029 A 
ATOM     42  C   UNL A   1      39.884  31.194  32.929  1.00  0.00     0.049 A 
ATOM     43  H   UNL A   1      40.698  29.836  31.571  1.00  0.00     0.167 HD
ATOM     44  C   UNL A   1      42.172  26.848  28.704  1.00  0.00     0.034 A 
ATOM     45  C   UNL A   1      40.663  31.184  34.031  1.00  0.00     0.034 A 
ATOM     46  C   UNL A   1      43.039  26.735  29.852  1.00  0.00     0.049 A 
ATOM     47  C   UNL A   1      41.807  30.199  34.097  1.00  0.00     0.074 A 
ATOM     48  C   UNL A   1      44.134  25.907  30.027  1.00  0.00     0.029 A 
ATOM     49  N   UNL A   1      42.912  27.478  31.017  1.00  0.00    -0.354 N 
ATOM     50  N   UNL A   1      42.220  29.351  33.184  1.00  0.00    -0.248 NA
ATOM     51  C   UNL A   1      42.573  30.156  35.349  1.00  0.00     0.031 C 
ATOM     52  C   UNL A   1      44.634  26.110  31.319  1.00  0.00     0.029 A 
ATOM     53  C   UNL A   1      43.892  27.109  31.925  1.00  0.00     0.049 A 
ATOM     54  H   UNL A   1      42.227  28.168  31.175  1.00  0.00     0.167 HD
ATOM     55  C   UNL A   1      43.303  28.684  33.751  1.00  0.00     0.074 A 
ATOM     56  C   UNL A   1      43.497  29.249  35.070  1.00  0.00     0.031 C 
ATOM     57  C   UNL A   1      44.066  27.687  33.235  1.00  0.00     0.034 A 
BRANCH  44  58
ATOM     58  C   UNL A   1      42.400  25.924  27.536  1.00  0.00     0.023 A 
ATOM     59  C   UNL A   1      41.907  24.609  27.505  1.00  0.00     0.031 A 
ATOM     60  C   UNL A   1      43.146  26.379  26.433  1.00  0.00     0.131 A 
ATOM     61  C   UNL A   1      42.208  23.780  26.413  1.00  0.00     0.055 A 
ATOM     62  C   UNL A   1      43.387  25.570  25.322  1.00  0.00     0.041 A 
ATOM     63  F   UNL A   1      43.660  27.619  26.422  1.00  0.00    -0.206 F 
ATOM     64  C   UNL A   1      42.925  24.258  25.312  1.00  0.00     0.022 A 
BRANCH  61  65
ATOM     65  S   UNL A   1      41.737  22.030  26.489  1.00  0.00     0.124 S 
ATOM     66  O   UNL A   1      40.288  22.107  26.318  1.00  0.00    -0.237 OA
ATOM     67  O   UNL A   1      42.482  21.451  25.378  1.00  0.00    -0.237 OA
ATOM     68  O   UNL A   1      42.179  21.613  27.820  1.00  0.00    -0.744 OA
ENDBRANCH  61  65
ENDBRANCH  44  58
BRANCH  45  69
ATOM     69  C   UNL A   1      40.354  32.056  35.204  1.00  0.00     0.023 A 
ATOM     70  C   UNL A   1      39.372  31.688  36.138  1.00  0.00     0.031 A 
ATOM     71  C   UNL A   1      40.970  33.312  35.361  1.00  0.00     0.131 A 
ATOM     72  C   UNL A   1      38.995  32.588  37.149  1.00  0.00     0.055 A 
ATOM     73  C   UNL A   1      40.638  34.174  36.407  1.00  0.00     0.041 A 
ATOM     74  F   UNL A   1      41.907  33.723  34.493  1.00  0.00    -0.206 F 
ATOM     75  C   UNL A   1      39.632  33.820  37.300  1.00  0.00     0.022 A 
BRANCH  72  76
ATOM     76  S   UNL A   1      37.566  32.172  38.187  1.00  0.00     0.124 S 
ATOM     77  O   UNL A   1      37.391  30.755  37.898  1.00  0.00    -0.237 OA
ATOM     78  O   UNL A   1      38.060  32.500  39.521  1.00  0.00    -0.237 OA
ATOM     79  O   UNL A   1      36.513  33.049  37.681  1.00  0.00    -0.744 OA
ENDBRANCH  72  76
ENDBRANCH  45  69
BRANCH  57  80
ATOM     80  C   UNL A   1      45.200  27.184  34.090  1.00  0.00     0.023 A 
ATOM     81  C   UNL A   1      46.478  27.766  34.035  1.00  0.00     0.031 A 
ATOM     82  C   UNL A   1      44.998  26.101  34.964  1.00  0.00     0.131 A 
ATOM     83  C   UNL A   1      47.521  27.233  34.805  1.00  0.00     0.055 A 
ATOM     84  C   UNL A   1      46.027  25.608  35.767  1.00  0.00     0.041 A 
ATOM     85  F   UNL A   1      43.796  25.511  35.053  1.00  0.00    -0.206 F 
ATOM     86  C   UNL A   1      47.300  26.166  35.681  1.00  0.00     0.022 A 
BRANCH  83  87
ATOM     87  S   UNL A   1      49.193  27.904  34.596  1.00  0.00     0.124 S 
ATOM     88  O   UNL A   1      49.025  29.282  35.047  1.00  0.00    -0.237 OA
ATOM     89  O   UNL A   1      49.987  27.042  35.463  1.00  0.00    -0.237 OA
ATOM     90  O   UNL A   1      49.449  27.748  33.164  1.00  0.00    -0.744 OA
ENDBRANCH  83  87
ENDBRANCH  57  80
ENDBRANCH  31  32
ENDBRANCH  24  26
ENDBRANCH  23  24
ENDBRANCH  22  23
ENDBRANCH   1  22
TORSDOF 18
ENDMDL
