MODEL 1
REMARK VINA RESULT:     -10.3      0.000      0.000
REMARK SMILES CS(=O)(=O)CC(=O)N1CCO[C@@H](CC(=O)OCCOC(=O)c2ccc(-c3c4nc(c(-c5cc(S(=O)(=O)[O-])ccc5F)c5ccc([nH]5)c(-c5cc(S(=O)(=O)[O-])ccc5F)c5nc(c(-c6cc(S(=O)(=O)[O-])ccc6F)c6ccc3[nH]6)C=C5)C=C4)cc2)C1
REMARK SMILES IDX 17 1 16 2 14 3 15 4 13 5 12 6 8 7 9 8 85 9 10 10 11 11 6 12
REMARK SMILES IDX 7 13 5 14 2 15 1 16 3 17 4 18 18 19 19 20 20 21 21 22 22 23
REMARK SMILES IDX 23 24 84 25 24 26 83 27 25 28 26 29 27 30 77 31 28 32 82 33
REMARK SMILES IDX 76 34 78 35 29 36 81 37 75 38 74 39 30 41 62 42 42 43 61 44
REMARK SMILES IDX 43 45 46 46 60 47 79 48 44 49 45 50 59 52 80 53 47 54 31 55
REMARK SMILES IDX 32 56 40 57 33 58 39 59 41 60 38 61 34 62 35 63 36 64 37 65
REMARK SMILES IDX 63 66 64 67 72 68 65 69 71 70 73 71 70 72 66 73 67 74 68 75
REMARK SMILES IDX 69 76 48 77 49 78 57 79 50 80 56 81 58 82 55 83 51 84 52 85
REMARK SMILES IDX 53 86 54 87
REMARK H PARENT 78 40 46 51
REMARK Flexibility Score: inf
ROOT
ATOM      1  C   UNL A   1      35.495  20.468  24.998  1.00  0.00     0.274 C 
ENDROOT
BRANCH   1   2
ATOM      2  O   UNL A   1      34.975  21.811  25.008  1.00  0.00    -0.462 OA
BRANCH   2   3
ATOM      3  C   UNL A   1      34.007  22.087  24.099  1.00  0.00     0.308 C 
ATOM      4  O   UNL A   1      32.969  21.451  23.971  1.00  0.00    -0.252 OA
BRANCH   3   5
ATOM      5  C   UNL A   1      34.389  23.223  23.190  1.00  0.00     0.156 C 
BRANCH   5   6
ATOM      6  C   UNL A   1      33.288  24.252  22.947  1.00  0.00     0.148 C 
ATOM      7  N   UNL A   1      32.272  26.396  23.639  1.00  0.00    -0.337 N 
ATOM      8  C   UNL A   1      32.522  26.926  22.301  1.00  0.00     0.148 C 
ATOM      9  C   UNL A   1      33.205  25.340  24.049  1.00  0.00     0.152 C 
ATOM     10  C   UNL A   1      32.577  25.801  21.280  1.00  0.00     0.182 C 
ATOM     11  O   UNL A   1      33.587  24.857  21.662  1.00  0.00    -0.374 OA
BRANCH   7  12
ATOM     12  C   UNL A   1      31.347  26.901  24.530  1.00  0.00     0.237 C 
ATOM     13  O   UNL A   1      30.287  26.317  24.766  1.00  0.00    -0.274 OA
BRANCH  12  14
ATOM     14  C   UNL A   1      31.604  28.266  25.095  1.00  0.00     0.236 C 
BRANCH  14  15
ATOM     15  S   UNL A   1      32.309  28.270  26.717  1.00  0.00     0.156 S 
ATOM     16  C   UNL A   1      32.507  29.965  27.208  1.00  0.00     0.158 C 
ATOM     17  O   UNL A   1      33.640  27.697  26.629  1.00  0.00    -0.229 OA
ATOM     18  O   UNL A   1      31.340  27.685  27.628  1.00  0.00    -0.229 OA
ENDBRANCH  14  15
ENDBRANCH  12  14
ENDBRANCH   7  12
ENDBRANCH   5   6
ENDBRANCH   3   5
ENDBRANCH   2   3
ENDBRANCH   1   2
BRANCH   1  19
ATOM     19  C   UNL A   1      37.024  20.451  24.926  1.00  0.00     0.275 C 
BRANCH  19  20
ATOM     20  O   UNL A   1      37.612  21.312  25.918  1.00  0.00    -0.458 OA
BRANCH  20  21
ATOM     21  C   UNL A   1      38.940  21.134  26.124  1.00  0.00     0.338 C 
ATOM     22  O   UNL A   1      39.584  20.124  25.902  1.00  0.00    -0.246 OA
BRANCH  21  23
ATOM     23  C   UNL A   1      39.551  22.410  26.536  1.00  0.00     0.060 A 
ATOM     24  C   UNL A   1      38.993  23.597  26.051  1.00  0.00     0.016 A 
ATOM     25  C   UNL A   1      40.691  22.440  27.341  1.00  0.00     0.016 A 
ATOM     26  C   UNL A   1      39.577  24.823  26.370  1.00  0.00     0.010 A 
ATOM     27  C   UNL A   1      41.273  23.672  27.663  1.00  0.00     0.010 A 
ATOM     28  C   UNL A   1      40.724  24.872  27.173  1.00  0.00    -0.014 A 
BRANCH  28  29
ATOM     29  C   UNL A   1      41.357  26.181  27.479  1.00  0.00     0.031 A 
ATOM     30  C   UNL A   1      42.767  26.458  27.035  1.00  0.00     0.074 A 
ATOM     31  C   UNL A   1      40.661  27.119  28.149  1.00  0.00     0.049 A 
ATOM     32  N   UNL A   1      43.509  27.514  27.247  1.00  0.00    -0.248 NA
ATOM     33  C   UNL A   1      43.431  25.402  26.255  1.00  0.00     0.031 C 
ATOM     34  C   UNL A   1      39.280  26.970  28.613  1.00  0.00     0.029 A 
ATOM     35  N   UNL A   1      41.018  28.378  28.565  1.00  0.00    -0.354 N 
ATOM     36  C   UNL A   1      44.733  27.247  26.644  1.00  0.00     0.074 A 
ATOM     37  C   UNL A   1      44.638  25.920  26.073  1.00  0.00     0.031 C 
ATOM     38  C   UNL A   1      38.911  28.090  29.256  1.00  0.00     0.029 A 
ATOM     39  C   UNL A   1      40.038  29.017  29.291  1.00  0.00     0.049 A 
ATOM     40  H   UNL A   1      41.891  28.784  28.363  1.00  0.00     0.167 HD
ATOM     41  C   UNL A   1      45.833  28.039  26.577  1.00  0.00     0.034 A 
ATOM     42  C   UNL A   1      40.059  30.202  29.936  1.00  0.00     0.034 A 
ATOM     43  C   UNL A   1      45.908  29.365  27.141  1.00  0.00     0.049 A 
ATOM     44  C   UNL A   1      41.310  31.044  29.876  1.00  0.00     0.074 A 
ATOM     45  C   UNL A   1      46.954  30.269  27.076  1.00  0.00     0.029 A 
ATOM     46  N   UNL A   1      44.905  29.974  27.883  1.00  0.00    -0.354 N 
ATOM     47  N   UNL A   1      42.447  30.793  29.270  1.00  0.00    -0.248 NA
ATOM     48  C   UNL A   1      41.275  32.333  30.579  1.00  0.00     0.031 C 
ATOM     49  C   UNL A   1      46.614  31.393  27.837  1.00  0.00     0.029 A 
ATOM     50  C   UNL A   1      45.324  31.224  28.316  1.00  0.00     0.049 A 
ATOM     51  H   UNL A   1      44.024  29.577  28.074  1.00  0.00     0.167 HD
ATOM     52  C   UNL A   1      43.254  31.904  29.502  1.00  0.00     0.074 A 
ATOM     53  C   UNL A   1      42.465  32.834  30.281  1.00  0.00     0.031 C 
ATOM     54  C   UNL A   1      44.532  32.135  29.107  1.00  0.00     0.034 A 
BRANCH  41  55
ATOM     55  C   UNL A   1      47.066  27.471  25.919  1.00  0.00     0.023 A 
ATOM     56  C   UNL A   1      48.033  26.750  26.640  1.00  0.00     0.031 A 
ATOM     57  C   UNL A   1      47.270  27.652  24.540  1.00  0.00     0.131 A 
ATOM     58  C   UNL A   1      49.182  26.276  25.987  1.00  0.00     0.055 A 
ATOM     59  C   UNL A   1      48.382  27.123  23.883  1.00  0.00     0.041 A 
ATOM     60  F   UNL A   1      46.390  28.351  23.806  1.00  0.00    -0.206 F 
ATOM     61  C   UNL A   1      49.351  26.438  24.609  1.00  0.00     0.022 A 
BRANCH  58  62
ATOM     62  S   UNL A   1      50.505  25.533  26.981  1.00  0.00     0.124 S 
ATOM     63  O   UNL A   1      51.442  25.098  25.947  1.00  0.00    -0.237 OA
ATOM     64  O   UNL A   1      50.941  26.649  27.811  1.00  0.00    -0.237 OA
ATOM     65  O   UNL A   1      49.830  24.450  27.696  1.00  0.00    -0.744 OA
ENDBRANCH  58  62
ENDBRANCH  41  55
BRANCH  42  66
ATOM     66  C   UNL A   1      38.887  30.642  30.748  1.00  0.00     0.023 A 
ATOM     67  C   UNL A   1      37.763  31.232  30.149  1.00  0.00     0.031 A 
ATOM     68  C   UNL A   1      38.909  30.541  32.151  1.00  0.00     0.131 A 
ATOM     69  C   UNL A   1      36.732  31.746  30.952  1.00  0.00     0.055 A 
ATOM     70  C   UNL A   1      37.854  31.002  32.942  1.00  0.00     0.041 A 
ATOM     71  F   UNL A   1      39.960  29.990  32.777  1.00  0.00    -0.206 F 
ATOM     72  C   UNL A   1      36.764  31.623  32.342  1.00  0.00     0.022 A 
BRANCH  69  73
ATOM     73  S   UNL A   1      35.394  32.678  30.156  1.00  0.00     0.124 S 
ATOM     74  O   UNL A   1      34.402  32.746  31.223  1.00  0.00    -0.237 OA
ATOM     75  O   UNL A   1      36.058  33.931  29.816  1.00  0.00    -0.237 OA
ATOM     76  O   UNL A   1      35.027  31.839  29.016  1.00  0.00    -0.744 OA
ENDBRANCH  69  73
ENDBRANCH  42  66
BRANCH  54  77
ATOM     77  C   UNL A   1      45.133  33.467  29.487  1.00  0.00     0.023 A 
ATOM     78  C   UNL A   1      45.026  34.591  28.649  1.00  0.00     0.031 A 
ATOM     79  C   UNL A   1      45.844  33.604  30.692  1.00  0.00     0.131 A 
ATOM     80  C   UNL A   1      45.669  35.788  29.000  1.00  0.00     0.055 A 
ATOM     81  C   UNL A   1      46.433  34.814  31.064  1.00  0.00     0.041 A 
ATOM     82  F   UNL A   1      45.980  32.563  31.528  1.00  0.00    -0.206 F 
ATOM     83  C   UNL A   1      46.359  35.910  30.209  1.00  0.00     0.022 A 
BRANCH  80  84
ATOM     84  S   UNL A   1      45.674  37.156  27.809  1.00  0.00     0.124 S 
ATOM     85  O   UNL A   1      44.451  37.870  28.163  1.00  0.00    -0.237 OA
ATOM     86  O   UNL A   1      46.924  37.839  28.122  1.00  0.00    -0.237 OA
ATOM     87  O   UNL A   1      45.644  36.482  26.512  1.00  0.00    -0.744 OA
ENDBRANCH  80  84
ENDBRANCH  54  77
ENDBRANCH  28  29
ENDBRANCH  21  23
ENDBRANCH  20  21
ENDBRANCH  19  20
ENDBRANCH   1  19
TORSDOF 18
ENDMDL
MODEL 2
REMARK VINA RESULT:     -10.3      2.649      4.251
REMARK SMILES CS(=O)(=O)CC(=O)N1CCO[C@@H](CC(=O)OCCOC(=O)c2ccc(-c3c4nc(c(-c5cc(S(=O)(=O)[O-])ccc5F)c5ccc([nH]5)c(-c5cc(S(=O)(=O)[O-])ccc5F)c5nc(c(-c6cc(S(=O)(=O)[O-])ccc6F)c6ccc3[nH]6)C=C5)C=C4)cc2)C1
REMARK SMILES IDX 17 1 16 2 14 3 15 4 13 5 12 6 8 7 9 8 85 9 10 10 11 11 6 12
REMARK SMILES IDX 7 13 5 14 2 15 1 16 3 17 4 18 18 19 19 20 20 21 21 22 22 23
REMARK SMILES IDX 23 24 84 25 24 26 83 27 25 28 26 29 27 30 77 31 28 32 82 33
REMARK SMILES IDX 76 34 78 35 29 36 81 37 75 38 74 39 30 41 62 42 42 43 61 44
REMARK SMILES IDX 43 45 46 46 60 47 79 48 44 49 45 50 59 52 80 53 47 54 31 55
REMARK SMILES IDX 32 56 40 57 33 58 39 59 41 60 38 61 34 62 35 63 36 64 37 65
REMARK SMILES IDX 63 66 64 67 72 68 65 69 71 70 73 71 70 72 66 73 67 74 68 75
REMARK SMILES IDX 69 76 48 77 49 78 57 79 50 80 56 81 58 82 55 83 51 84 52 85
REMARK SMILES IDX 53 86 54 87
REMARK H PARENT 78 40 46 51
REMARK Flexibility Score: inf
ROOT
ATOM      1  C   UNL A   1      38.934  21.126  26.075  1.00  0.00     0.274 C 
ENDROOT
BRANCH   1   2
ATOM      2  O   UNL A   1      38.068  21.548  25.003  1.00  0.00    -0.462 OA
BRANCH   2   3
ATOM      3  C   UNL A   1      37.088  22.426  25.333  1.00  0.00     0.308 C 
ATOM      4  O   UNL A   1      37.198  23.644  25.287  1.00  0.00    -0.252 OA
BRANCH   3   5
ATOM      5  C   UNL A   1      35.859  21.733  25.856  1.00  0.00     0.156 C 
BRANCH   5   6
ATOM      6  C   UNL A   1      34.880  21.263  24.785  1.00  0.00     0.148 C 
ATOM      7  N   UNL A   1      32.919  19.856  24.248  1.00  0.00    -0.337 N 
ATOM      8  C   UNL A   1      32.197  21.055  23.827  1.00  0.00     0.148 C 
ATOM      9  C   UNL A   1      33.958  20.106  25.253  1.00  0.00     0.152 C 
ATOM     10  C   UNL A   1      33.167  22.133  23.373  1.00  0.00     0.182 C 
ATOM     11  O   UNL A   1      34.087  22.427  24.432  1.00  0.00    -0.374 OA
BRANCH   7  12
ATOM     12  C   UNL A   1      32.600  18.568  23.872  1.00  0.00     0.237 C 
ATOM     13  O   UNL A   1      32.150  18.312  22.752  1.00  0.00    -0.274 OA
BRANCH  12  14
ATOM     14  C   UNL A   1      32.678  17.500  24.922  1.00  0.00     0.236 C 
BRANCH  14  15
ATOM     15  S   UNL A   1      33.693  16.118  24.491  1.00  0.00     0.156 S 
ATOM     16  C   UNL A   1      35.225  16.287  25.373  1.00  0.00     0.158 C 
ATOM     17  O   UNL A   1      34.006  16.215  23.077  1.00  0.00    -0.229 OA
ATOM     18  O   UNL A   1      33.053  14.917  24.999  1.00  0.00    -0.229 OA
ENDBRANCH  14  15
ENDBRANCH  12  14
ENDBRANCH   7  12
ENDBRANCH   5   6
ENDBRANCH   3   5
ENDBRANCH   2   3
ENDBRANCH   1   2
BRANCH   1  19
ATOM     19  C   UNL A   1      39.635  19.805  25.751  1.00  0.00     0.275 C 
BRANCH  19  20
ATOM     20  O   UNL A   1      40.774  19.585  26.604  1.00  0.00    -0.458 OA
BRANCH  20  21
ATOM     21  C   UNL A   1      41.953  20.050  26.125  1.00  0.00     0.338 C 
ATOM     22  O   UNL A   1      42.718  19.468  25.377  1.00  0.00    -0.246 OA
BRANCH  21  23
ATOM     23  C   UNL A   1      42.130  21.456  26.530  1.00  0.00     0.060 A 
ATOM     24  C   UNL A   1      42.216  22.428  25.528  1.00  0.00     0.016 A 
ATOM     25  C   UNL A   1      42.267  21.810  27.874  1.00  0.00     0.016 A 
ATOM     26  C   UNL A   1      42.443  23.761  25.868  1.00  0.00     0.010 A 
ATOM     27  C   UNL A   1      42.490  23.150  28.213  1.00  0.00     0.010 A 
ATOM     28  C   UNL A   1      42.587  24.134  27.211  1.00  0.00    -0.014 A 
BRANCH  28  29
ATOM     29  C   UNL A   1      42.861  25.553  27.559  1.00  0.00     0.031 A 
ATOM     30  C   UNL A   1      44.254  26.103  27.430  1.00  0.00     0.074 A 
ATOM     31  C   UNL A   1      41.856  26.342  27.983  1.00  0.00     0.049 A 
ATOM     32  N   UNL A   1      44.704  27.295  27.730  1.00  0.00    -0.248 NA
ATOM     33  C   UNL A   1      45.278  25.189  26.900  1.00  0.00     0.031 C 
ATOM     34  C   UNL A   1      40.460  25.923  28.128  1.00  0.00     0.029 A 
ATOM     35  N   UNL A   1      41.851  27.657  28.378  1.00  0.00    -0.354 N 
ATOM     36  C   UNL A   1      46.064  27.272  27.444  1.00  0.00     0.074 A 
ATOM     37  C   UNL A   1      46.369  25.940  26.963  1.00  0.00     0.031 C 
ATOM     38  C   UNL A   1      39.738  26.958  28.587  1.00  0.00     0.029 A 
ATOM     39  C   UNL A   1      40.622  28.098  28.813  1.00  0.00     0.049 A 
ATOM     40  H   UNL A   1      42.651  28.230  28.353  1.00  0.00     0.167 HD
ATOM     41  C   UNL A   1      46.973  28.271  27.573  1.00  0.00     0.034 A 
ATOM     42  C   UNL A   1      40.257  29.276  29.359  1.00  0.00     0.034 A 
ATOM     43  C   UNL A   1      46.651  29.597  28.043  1.00  0.00     0.049 A 
ATOM     44  C   UNL A   1      41.297  30.357  29.526  1.00  0.00     0.074 A 
ATOM     45  C   UNL A   1      47.486  30.696  28.154  1.00  0.00     0.029 A 
ATOM     46  N   UNL A   1      45.401  30.004  28.490  1.00  0.00    -0.354 N 
ATOM     47  N   UNL A   1      42.572  30.331  29.216  1.00  0.00    -0.248 NA
ATOM     48  C   UNL A   1      40.845  31.627  30.108  1.00  0.00     0.031 C 
ATOM     49  C   UNL A   1      46.762  31.743  28.735  1.00  0.00     0.029 A 
ATOM     50  C   UNL A   1      45.453  31.323  28.917  1.00  0.00     0.049 A 
ATOM     51  H   UNL A   1      44.595  29.439  28.503  1.00  0.00     0.167 HD
ATOM     52  C   UNL A   1      43.068  31.590  29.546  1.00  0.00     0.074 A 
ATOM     53  C   UNL A   1      41.951  32.355  30.055  1.00  0.00     0.031 C 
ATOM     54  C   UNL A   1      44.333  32.070  29.438  1.00  0.00     0.034 A 
BRANCH  41  55
ATOM     55  C   UNL A   1      48.413  27.955  27.258  1.00  0.00     0.023 A 
ATOM     56  C   UNL A   1      48.976  28.214  25.996  1.00  0.00     0.031 A 
ATOM     57  C   UNL A   1      49.239  27.390  28.246  1.00  0.00     0.131 A 
ATOM     58  C   UNL A   1      50.312  27.865  25.742  1.00  0.00     0.055 A 
ATOM     59  C   UNL A   1      50.585  27.105  28.008  1.00  0.00     0.041 A 
ATOM     60  F   UNL A   1      48.749  27.103  29.462  1.00  0.00    -0.206 F 
ATOM     61  C   UNL A   1      51.126  27.334  26.747  1.00  0.00     0.022 A 
BRANCH  58  62
ATOM     62  S   UNL A   1      50.947  28.019  24.050  1.00  0.00     0.124 S 
ATOM     63  O   UNL A   1      49.739  27.795  23.260  1.00  0.00    -0.237 OA
ATOM     64  O   UNL A   1      51.478  29.376  24.035  1.00  0.00    -0.237 OA
ATOM     65  O   UNL A   1      51.947  26.956  23.961  1.00  0.00    -0.744 OA
ENDBRANCH  58  62
ENDBRANCH  41  55
BRANCH  42  66
ATOM     66  C   UNL A   1      38.862  29.484  29.847  1.00  0.00     0.023 A 
ATOM     67  C   UNL A   1      37.908  30.161  29.070  1.00  0.00     0.031 A 
ATOM     68  C   UNL A   1      38.485  29.068  31.137  1.00  0.00     0.131 A 
ATOM     69  C   UNL A   1      36.643  30.447  29.609  1.00  0.00     0.055 A 
ATOM     70  C   UNL A   1      37.207  29.304  31.646  1.00  0.00     0.041 A 
ATOM     71  F   UNL A   1      39.358  28.421  31.925  1.00  0.00    -0.206 F 
ATOM     72  C   UNL A   1      36.282  30.012  30.885  1.00  0.00     0.022 A 
BRANCH  69  73
ATOM     73  S   UNL A   1      35.511  31.494  28.654  1.00  0.00     0.124 S 
ATOM     74  O   UNL A   1      36.434  32.410  27.994  1.00  0.00    -0.237 OA
ATOM     75  O   UNL A   1      34.849  30.520  27.794  1.00  0.00    -0.237 OA
ATOM     76  O   UNL A   1      34.660  32.097  29.678  1.00  0.00    -0.744 OA
ENDBRANCH  69  73
ENDBRANCH  42  66
BRANCH  54  77
ATOM     77  C   UNL A   1      44.555  33.506  29.849  1.00  0.00     0.023 A 
ATOM     78  C   UNL A   1      44.413  34.566  28.935  1.00  0.00     0.031 A 
ATOM     79  C   UNL A   1      44.939  33.814  31.166  1.00  0.00     0.131 A 
ATOM     80  C   UNL A   1      44.710  35.878  29.336  1.00  0.00     0.055 A 
ATOM     81  C   UNL A   1      45.175  35.127  31.575  1.00  0.00     0.041 A 
ATOM     82  F   UNL A   1      45.091  32.842  32.079  1.00  0.00    -0.206 F 
ATOM     83  C   UNL A   1      45.075  36.167  30.653  1.00  0.00     0.022 A 
BRANCH  80  84
ATOM     84  S   UNL A   1      44.704  37.192  28.086  1.00  0.00     0.124 S 
ATOM     85  O   UNL A   1      45.227  38.328  28.838  1.00  0.00    -0.237 OA
ATOM     86  O   UNL A   1      45.583  36.649  27.057  1.00  0.00    -0.237 OA
ATOM     87  O   UNL A   1      43.296  37.297  27.705  1.00  0.00    -0.744 OA
ENDBRANCH  80  84
ENDBRANCH  54  77
ENDBRANCH  28  29
ENDBRANCH  21  23
ENDBRANCH  20  21
ENDBRANCH  19  20
ENDBRANCH   1  19
TORSDOF 18
ENDMDL
MODEL 3
REMARK VINA RESULT:     -10.3      1.813      2.275
REMARK SMILES CS(=O)(=O)CC(=O)N1CCO[C@@H](CC(=O)OCCOC(=O)c2ccc(-c3c4nc(c(-c5cc(S(=O)(=O)[O-])ccc5F)c5ccc([nH]5)c(-c5cc(S(=O)(=O)[O-])ccc5F)c5nc(c(-c6cc(S(=O)(=O)[O-])ccc6F)c6ccc3[nH]6)C=C5)C=C4)cc2)C1
REMARK SMILES IDX 17 1 16 2 14 3 15 4 13 5 12 6 8 7 9 8 85 9 10 10 11 11 6 12
REMARK SMILES IDX 7 13 5 14 2 15 1 16 3 17 4 18 18 19 19 20 20 21 21 22 22 23
REMARK SMILES IDX 23 24 84 25 24 26 83 27 25 28 26 29 27 30 77 31 28 32 82 33
REMARK SMILES IDX 76 34 78 35 29 36 81 37 75 38 74 39 30 41 62 42 42 43 61 44
REMARK SMILES IDX 43 45 46 46 60 47 79 48 44 49 45 50 59 52 80 53 47 54 31 55
REMARK SMILES IDX 32 56 40 57 33 58 39 59 41 60 38 61 34 62 35 63 36 64 37 65
REMARK SMILES IDX 63 66 64 67 72 68 65 69 71 70 73 71 70 72 66 73 67 74 68 75
REMARK SMILES IDX 69 76 48 77 49 78 57 79 50 80 56 81 58 82 55 83 51 84 52 85
REMARK SMILES IDX 53 86 54 87
REMARK H PARENT 78 40 46 51
REMARK Flexibility Score: inf
ROOT
ATOM      1  C   UNL A   1      35.751  20.066  24.978  1.00  0.00     0.274 C 
ENDROOT
BRANCH   1   2
ATOM      2  O   UNL A   1      35.254  21.099  25.850  1.00  0.00    -0.462 OA
BRANCH   2   3
ATOM      3  C   UNL A   1      33.909  21.150  26.015  1.00  0.00     0.308 C 
ATOM      4  O   UNL A   1      33.138  20.240  25.738  1.00  0.00    -0.252 OA
BRANCH   3   5
ATOM      5  C   UNL A   1      33.446  22.497  26.498  1.00  0.00     0.156 C 
BRANCH   5   6
ATOM      6  C   UNL A   1      32.976  23.448  25.403  1.00  0.00     0.148 C 
ATOM      7  N   UNL A   1      33.470  25.465  24.060  1.00  0.00    -0.337 N 
ATOM      8  C   UNL A   1      33.394  24.654  22.847  1.00  0.00     0.148 C 
ATOM      9  C   UNL A   1      33.861  24.713  25.258  1.00  0.00     0.152 C 
ATOM     10  C   UNL A   1      32.500  23.444  23.066  1.00  0.00     0.182 C 
ATOM     11  O   UNL A   1      32.994  22.678  24.173  1.00  0.00    -0.374 OA
BRANCH   7  12
ATOM     12  C   UNL A   1      33.333  26.836  24.104  1.00  0.00     0.237 C 
ATOM     13  O   UNL A   1      33.643  27.488  25.104  1.00  0.00    -0.274 OA
BRANCH  12  14
ATOM     14  C   UNL A   1      32.654  27.503  22.944  1.00  0.00     0.236 C 
BRANCH  14  15
ATOM     15  S   UNL A   1      30.983  27.993  23.253  1.00  0.00     0.156 S 
ATOM     16  C   UNL A   1      30.204  26.685  24.167  1.00  0.00     0.158 C 
ATOM     17  O   UNL A   1      30.299  28.083  21.975  1.00  0.00    -0.229 OA
ATOM     18  O   UNL A   1      31.012  29.151  24.130  1.00  0.00    -0.229 OA
ENDBRANCH  14  15
ENDBRANCH  12  14
ENDBRANCH   7  12
ENDBRANCH   5   6
ENDBRANCH   3   5
ENDBRANCH   2   3
ENDBRANCH   1   2
BRANCH   1  19
ATOM     19  C   UNL A   1      37.281  20.042  24.940  1.00  0.00     0.275 C 
BRANCH  19  20
ATOM     20  O   UNL A   1      37.847  21.171  25.633  1.00  0.00    -0.458 OA
BRANCH  20  21
ATOM     21  C   UNL A   1      39.100  20.984  26.114  1.00  0.00     0.338 C 
ATOM     22  O   UNL A   1      39.732  19.943  26.120  1.00  0.00    -0.246 OA
BRANCH  21  23
ATOM     23  C   UNL A   1      39.670  22.281  26.521  1.00  0.00     0.060 A 
ATOM     24  C   UNL A   1      39.042  23.448  26.077  1.00  0.00     0.016 A 
ATOM     25  C   UNL A   1      40.841  22.350  27.280  1.00  0.00     0.016 A 
ATOM     26  C   UNL A   1      39.584  24.694  26.391  1.00  0.00     0.010 A 
ATOM     27  C   UNL A   1      41.381  23.603  27.596  1.00  0.00     0.010 A 
ATOM     28  C   UNL A   1      40.760  24.783  27.148  1.00  0.00    -0.014 A 
BRANCH  28  29
ATOM     29  C   UNL A   1      41.346  26.115  27.448  1.00  0.00     0.031 A 
ATOM     30  C   UNL A   1      42.716  26.467  26.937  1.00  0.00     0.074 A 
ATOM     31  C   UNL A   1      40.644  27.007  28.172  1.00  0.00     0.049 A 
ATOM     32  N   UNL A   1      43.419  27.553  27.132  1.00  0.00    -0.248 NA
ATOM     33  C   UNL A   1      43.386  25.458  26.101  1.00  0.00     0.031 C 
ATOM     34  C   UNL A   1      39.297  26.784  28.703  1.00  0.00     0.029 A 
ATOM     35  N   UNL A   1      40.963  28.273  28.595  1.00  0.00    -0.354 N 
ATOM     36  C   UNL A   1      44.621  27.355  26.461  1.00  0.00     0.074 A 
ATOM     37  C   UNL A   1      44.557  26.036  25.868  1.00  0.00     0.031 C 
ATOM     38  C   UNL A   1      38.912  27.873  29.388  1.00  0.00     0.029 A 
ATOM     39  C   UNL A   1      39.995  28.852  29.384  1.00  0.00     0.049 A 
ATOM     40  H   UNL A   1      41.805  28.724  28.357  1.00  0.00     0.167 HD
ATOM     41  C   UNL A   1      45.678  28.199  26.353  1.00  0.00     0.034 A 
ATOM     42  C   UNL A   1      39.995  30.024  30.052  1.00  0.00     0.034 A 
ATOM     43  C   UNL A   1      45.720  29.517  26.940  1.00  0.00     0.049 A 
ATOM     44  C   UNL A   1      41.200  30.926  29.945  1.00  0.00     0.074 A 
ATOM     45  C   UNL A   1      46.719  30.471  26.840  1.00  0.00     0.029 A 
ATOM     46  N   UNL A   1      44.731  30.064  27.746  1.00  0.00    -0.354 N 
ATOM     47  N   UNL A   1      42.314  30.740  29.275  1.00  0.00    -0.248 NA
ATOM     48  C   UNL A   1      41.143  32.199  30.675  1.00  0.00     0.031 C 
ATOM     49  C   UNL A   1      46.367  31.563  27.642  1.00  0.00     0.029 A 
ATOM     50  C   UNL A   1      45.114  31.324  28.183  1.00  0.00     0.049 A 
ATOM     51  H   UNL A   1      43.881  29.622  27.974  1.00  0.00     0.167 HD
ATOM     52  C   UNL A   1      43.080  31.884  29.489  1.00  0.00     0.074 A 
ATOM     53  C   UNL A   1      42.291  32.761  30.327  1.00  0.00     0.031 C 
ATOM     54  C   UNL A   1      44.323  32.182  29.032  1.00  0.00     0.034 A 
BRANCH  41  55
ATOM     55  C   UNL A   1      46.899  27.703  25.621  1.00  0.00     0.023 A 
ATOM     56  C   UNL A   1      47.121  27.983  24.262  1.00  0.00     0.031 A 
ATOM     57  C   UNL A   1      47.864  26.941  26.304  1.00  0.00     0.131 A 
ATOM     58  C   UNL A   1      48.255  27.465  23.618  1.00  0.00     0.055 A 
ATOM     59  C   UNL A   1      49.023  26.483  25.675  1.00  0.00     0.041 A 
ATOM     60  F   UNL A   1      47.693  26.626  27.597  1.00  0.00    -0.206 F 
ATOM     61  C   UNL A   1      49.219  26.737  24.321  1.00  0.00     0.022 A 
BRANCH  58  62
ATOM     62  S   UNL A   1      48.407  27.668  21.822  1.00  0.00     0.124 S 
ATOM     63  O   UNL A   1      49.520  28.609  21.723  1.00  0.00    -0.237 OA
ATOM     64  O   UNL A   1      48.678  26.308  21.372  1.00  0.00    -0.237 OA
ATOM     65  O   UNL A   1      47.107  28.208  21.426  1.00  0.00    -0.744 OA
ENDBRANCH  58  62
ENDBRANCH  41  55
BRANCH  42  66
ATOM     66  C   UNL A   1      38.848  30.393  30.932  1.00  0.00     0.023 A 
ATOM     67  C   UNL A   1      37.715  31.046  30.422  1.00  0.00     0.031 A 
ATOM     68  C   UNL A   1      38.904  30.159  32.318  1.00  0.00     0.131 A 
ATOM     69  C   UNL A   1      36.710  31.489  31.297  1.00  0.00     0.055 A 
ATOM     70  C   UNL A   1      37.875  30.549  33.176  1.00  0.00     0.041 A 
ATOM     71  F   UNL A   1      39.966  29.542  32.861  1.00  0.00    -0.206 F 
ATOM     72  C   UNL A   1      36.776  31.233  32.668  1.00  0.00     0.022 A 
BRANCH  69  73
ATOM     73  S   UNL A   1      35.362  32.502  30.629  1.00  0.00     0.124 S 
ATOM     74  O   UNL A   1      34.925  31.705  29.488  1.00  0.00    -0.237 OA
ATOM     75  O   UNL A   1      34.441  32.565  31.758  1.00  0.00    -0.237 OA
ATOM     76  O   UNL A   1      36.019  33.764  30.292  1.00  0.00    -0.744 OA
ENDBRANCH  69  73
ENDBRANCH  42  66
BRANCH  54  77
ATOM     77  C   UNL A   1      44.881  33.534  29.408  1.00  0.00     0.023 A 
ATOM     78  C   UNL A   1      44.640  34.676  28.624  1.00  0.00     0.031 A 
ATOM     79  C   UNL A   1      45.686  33.674  30.552  1.00  0.00     0.131 A 
ATOM     80  C   UNL A   1      45.245  35.896  28.963  1.00  0.00     0.055 A 
ATOM     81  C   UNL A   1      46.237  34.903  30.917  1.00  0.00     0.041 A 
ATOM     82  F   UNL A   1      45.950  32.616  31.336  1.00  0.00    -0.206 F 
ATOM     83  C   UNL A   1      46.030  36.020  30.112  1.00  0.00     0.022 A 
BRANCH  80  84
ATOM     84  S   UNL A   1      45.072  37.299  27.827  1.00  0.00     0.124 S 
ATOM     85  O   UNL A   1      46.158  37.062  26.882  1.00  0.00    -0.237 OA
ATOM     86  O   UNL A   1      43.722  37.115  27.306  1.00  0.00    -0.237 OA
ATOM     87  O   UNL A   1      45.247  38.465  28.692  1.00  0.00    -0.744 OA
ENDBRANCH  80  84
ENDBRANCH  54  77
ENDBRANCH  28  29
ENDBRANCH  21  23
ENDBRANCH  20  21
ENDBRANCH  19  20
ENDBRANCH   1  19
TORSDOF 18
ENDMDL
