MODEL 1
REMARK VINA RESULT:     -12.2      0.000      0.000
REMARK SMILES O=C(OCCOC(=O)[C@H]1CS[C@]2(c3ccccc3)CCC(=O)N12)c1ccc(-c2c3nc(c(-c4cc(S(=O)(=O)[O-])ccc4F)c4ccc([nH]4)c(-c4cc(S(=O)(=O)[O-])ccc4F)c4nc(c(-c5cc(S(=O)(=O)[O-])ccc5F)c5ccc2[nH]5)C=C4)C=C3)cc1
REMARK SMILES IDX 4 1 3 2 2 3 1 4 24 5 25 6 86 7 26 8 85 9 27 10 28 11 29 12
REMARK SMILES IDX 79 13 30 14 84 15 78 16 80 17 31 18 83 19 77 20 76 21 32 23
REMARK SMILES IDX 64 24 44 25 63 26 45 27 48 28 62 29 81 30 46 31 47 32 61 34
REMARK SMILES IDX 82 35 49 36 33 37 34 38 42 39 35 40 41 41 43 42 40 43 36 44
REMARK SMILES IDX 37 45 38 46 39 47 65 48 66 49 74 50 67 51 73 52 75 53 72 54
REMARK SMILES IDX 68 55 69 56 70 57 71 58 50 59 51 60 59 61 52 62 58 63 60 64
REMARK SMILES IDX 57 65 53 66 54 67 55 68 56 69 5 70 6 71 7 72 8 73 9 74 10 75
REMARK SMILES IDX 23 76 11 77 12 78 21 79 19 80 20 81 22 82 13 83 14 84 18 85
REMARK SMILES IDX 15 86 17 87 16 88
REMARK H PARENT 80 22 48 33
REMARK Flexibility Score: inf
ROOT
ATOM      1  C   UNL A   1      31.792  30.391  25.624  1.00  0.00     0.275 C 
ENDROOT
BRANCH   1   2
ATOM      2  O   UNL A   1      31.676  31.132  26.854  1.00  0.00    -0.458 OA
BRANCH   2   3
ATOM      3  C   UNL A   1      32.501  32.094  27.340  1.00  0.00     0.338 C 
ATOM      4  O   UNL A   1      32.223  33.278  27.183  1.00  0.00    -0.246 OA
BRANCH   3   5
ATOM      5  C   UNL A   1      33.830  31.775  27.898  1.00  0.00     0.060 A 
ATOM      6  C   UNL A   1      34.518  30.174  27.916  1.00  0.00     0.016 A 
ATOM      7  C   UNL A   1      34.956  33.127  28.258  1.00  0.00     0.016 A 
ATOM      8  C   UNL A   1      36.174  29.788  28.207  1.00  0.00     0.010 A 
ATOM      9  C   UNL A   1      36.914  32.606  28.456  1.00  0.00     0.010 A 
ATOM     10  C   UNL A   1      37.368  30.925  28.489  1.00  0.00    -0.014 A 
BRANCH  10  11
ATOM     11  C   UNL A   1      38.532  30.438  29.292  1.00  0.00     0.031 A 
ATOM     12  C   UNL A   1      38.704  30.793  30.763  1.00  0.00     0.074 A 
ATOM     13  C   UNL A   1      39.294  29.470  28.765  1.00  0.00     0.049 A 
ATOM     14  N   UNL A   1      39.755  30.743  31.544  1.00  0.00    -0.248 NA
ATOM     15  C   UNL A   1      37.545  31.322  31.467  1.00  0.00     0.031 C 
ATOM     16  C   UNL A   1      39.145  28.912  27.421  1.00  0.00     0.029 A 
ATOM     17  N   UNL A   1      40.318  28.758  29.317  1.00  0.00    -0.354 N 
ATOM     18  C   UNL A   1      39.363  31.351  32.749  1.00  0.00     0.074 A 
ATOM     19  C   UNL A   1      38.045  31.866  32.558  1.00  0.00     0.031 C 
ATOM     20  C   UNL A   1      40.037  27.924  27.260  1.00  0.00     0.029 A 
ATOM     21  C   UNL A   1      40.880  27.860  28.447  1.00  0.00     0.049 A 
ATOM     22  H   UNL A   1      40.624  28.878  30.246  1.00  0.00     0.167 HD
ATOM     23  C   UNL A   1      39.971  31.369  33.959  1.00  0.00     0.034 A 
ATOM     24  C   UNL A   1      41.997  27.126  28.583  1.00  0.00     0.034 A 
ATOM     25  C   UNL A   1      41.159  30.607  34.201  1.00  0.00     0.049 A 
ATOM     26  C   UNL A   1      42.734  27.216  29.892  1.00  0.00     0.074 A 
ATOM     27  C   UNL A   1      41.910  30.507  35.354  1.00  0.00     0.029 A 
ATOM     28  N   UNL A   1      41.719  29.742  33.269  1.00  0.00    -0.354 N 
ATOM     29  N   UNL A   1      42.448  27.939  30.955  1.00  0.00    -0.248 NA
ATOM     30  C   UNL A   1      43.929  26.383  30.028  1.00  0.00     0.031 C 
ATOM     31  C   UNL A   1      42.966  29.630  35.095  1.00  0.00     0.029 A 
ATOM     32  C   UNL A   1      42.817  29.115  33.815  1.00  0.00     0.049 A 
ATOM     33  H   UNL A   1      41.380  29.599  32.356  1.00  0.00     0.167 HD
ATOM     34  C   UNL A   1      43.421  27.627  31.897  1.00  0.00     0.074 A 
ATOM     35  C   UNL A   1      44.274  26.625  31.282  1.00  0.00     0.031 C 
ATOM     36  C   UNL A   1      43.614  28.117  33.150  1.00  0.00     0.034 A 
BRANCH  23  37
ATOM     37  C   UNL A   1      39.386  32.223  35.072  1.00  0.00     0.023 A 
ATOM     38  C   UNL A   1      39.759  33.560  35.317  1.00  0.00     0.031 A 
ATOM     39  C   UNL A   1      38.441  31.651  35.945  1.00  0.00     0.131 A 
ATOM     40  C   UNL A   1      39.263  34.239  36.446  1.00  0.00     0.055 A 
ATOM     41  C   UNL A   1      37.875  32.364  37.006  1.00  0.00     0.041 A 
ATOM     42  F   UNL A   1      38.059  30.372  35.793  1.00  0.00    -0.206 F 
ATOM     43  C   UNL A   1      38.298  33.661  37.271  1.00  0.00     0.022 A 
BRANCH  40  44
ATOM     44  S   UNL A   1      40.015  35.823  36.925  1.00  0.00     0.124 S 
ATOM     45  O   UNL A   1      39.688  36.662  35.774  1.00  0.00    -0.237 OA
ATOM     46  O   UNL A   1      39.322  36.142  38.167  1.00  0.00    -0.237 OA
ATOM     47  O   UNL A   1      41.434  35.502  37.067  1.00  0.00    -0.744 OA
ENDBRANCH  40  44
ENDBRANCH  23  37
BRANCH  24  48
ATOM     48  C   UNL A   1      42.498  26.327  27.434  1.00  0.00     0.023 A 
ATOM     49  C   UNL A   1      42.096  25.002  27.236  1.00  0.00     0.031 A 
ATOM     50  C   UNL A   1      43.412  26.883  26.516  1.00  0.00     0.131 A 
ATOM     51  C   UNL A   1      42.644  24.260  26.181  1.00  0.00     0.055 A 
ATOM     52  C   UNL A   1      43.889  26.168  25.419  1.00  0.00     0.041 A 
ATOM     53  F   UNL A   1      43.835  28.150  26.659  1.00  0.00    -0.206 F 
ATOM     54  C   UNL A   1      43.518  24.839  25.257  1.00  0.00     0.022 A 
BRANCH  51  55
ATOM     55  S   UNL A   1      42.298  22.483  26.115  1.00  0.00     0.124 S 
ATOM     56  O   UNL A   1      40.841  22.468  26.060  1.00  0.00    -0.237 OA
ATOM     57  O   UNL A   1      42.992  22.087  24.893  1.00  0.00    -0.237 OA
ATOM     58  O   UNL A   1      42.883  21.980  27.356  1.00  0.00    -0.744 OA
ENDBRANCH  51  55
ENDBRANCH  24  48
BRANCH  36  59
ATOM     59  C   UNL A   1      44.752  27.526  33.930  1.00  0.00     0.023 A 
ATOM     60  C   UNL A   1      44.579  26.348  34.669  1.00  0.00     0.031 A 
ATOM     61  C   UNL A   1      46.003  28.164  33.958  1.00  0.00     0.131 A 
ATOM     62  C   UNL A   1      45.612  25.903  35.498  1.00  0.00     0.055 A 
ATOM     63  C   UNL A   1      47.062  27.654  34.704  1.00  0.00     0.041 A 
ATOM     64  F   UNL A   1      46.213  29.293  33.261  1.00  0.00    -0.206 F 
ATOM     65  C   UNL A   1      46.862  26.530  35.500  1.00  0.00     0.022 A 
BRANCH  62  66
ATOM     66  S   UNL A   1      45.231  24.605  36.699  1.00  0.00     0.124 S 
ATOM     67  O   UNL A   1      43.998  24.045  36.150  1.00  0.00    -0.237 OA
ATOM     68  O   UNL A   1      46.409  23.748  36.619  1.00  0.00    -0.237 OA
ATOM     69  O   UNL A   1      45.076  25.337  37.954  1.00  0.00    -0.744 OA
ENDBRANCH  62  66
ENDBRANCH  36  59
ENDBRANCH  10  11
ENDBRANCH   3   5
ENDBRANCH   2   3
ENDBRANCH   1   2
BRANCH   1  70
ATOM     70  C   UNL A   1      31.755  28.852  25.824  1.00  0.00     0.274 C 
BRANCH  70  71
ATOM     71  O   UNL A   1      32.958  28.128  25.457  1.00  0.00    -0.461 OA
BRANCH  71  72
ATOM     72  C   UNL A   1      33.286  27.908  24.141  1.00  0.00     0.329 C 
ATOM     73  O   UNL A   1      34.283  28.379  23.617  1.00  0.00    -0.250 OA
BRANCH  72  74
ATOM     74  C   UNL A   1      32.269  26.881  23.507  1.00  0.00     0.206 C 
ATOM     75  C   UNL A   1      32.690  26.387  22.087  1.00  0.00     0.109 C 
ATOM     76  N   UNL A   1      31.908  25.597  24.341  1.00  0.00    -0.309 N 
ATOM     77  S   UNL A   1      32.937  24.552  21.859  1.00  0.00    -0.126 SA
ATOM     78  C   UNL A   1      32.937  24.108  23.650  1.00  0.00     0.116 C 
ATOM     79  C   UNL A   1      30.621  24.953  25.775  1.00  0.00     0.224 C 
ATOM     80  C   UNL A   1      32.092  22.477  24.353  1.00  0.00     0.055 C 
ATOM     81  C   UNL A   1      30.785  22.939  25.732  1.00  0.00     0.104 C 
ATOM     82  O   UNL A   1      29.963  25.420  26.719  1.00  0.00    -0.275 OA
BRANCH  78  83
ATOM     83  C   UNL A   1      34.498  23.935  24.117  1.00  0.00    -0.012 A 
ATOM     84  C   UNL A   1      35.025  24.337  25.343  1.00  0.00     0.007 A 
ATOM     85  C   UNL A   1      35.447  23.302  23.260  1.00  0.00     0.007 A 
ATOM     86  C   UNL A   1      36.328  23.950  25.744  1.00  0.00     0.000 A 
ATOM     87  C   UNL A   1      36.689  22.821  23.683  1.00  0.00     0.000 A 
ATOM     88  C   UNL A   1      37.128  23.134  24.946  1.00  0.00     0.000 A 
ENDBRANCH  78  83
ENDBRANCH  72  74
ENDBRANCH  71  72
ENDBRANCH  70  71
ENDBRANCH   1  70
TORSDOF 15
ENDMDL
MODEL 2
REMARK VINA RESULT:     -12.0      0.499      8.004
REMARK SMILES O=C(OCCOC(=O)[C@H]1CS[C@]2(c3ccccc3)CCC(=O)N12)c1ccc(-c2c3nc(c(-c4cc(S(=O)(=O)[O-])ccc4F)c4ccc([nH]4)c(-c4cc(S(=O)(=O)[O-])ccc4F)c4nc(c(-c5cc(S(=O)(=O)[O-])ccc5F)c5ccc2[nH]5)C=C4)C=C3)cc1
REMARK SMILES IDX 4 1 3 2 2 3 1 4 24 5 25 6 86 7 26 8 85 9 27 10 28 11 29 12
REMARK SMILES IDX 79 13 30 14 84 15 78 16 80 17 31 18 83 19 77 20 76 21 32 23
REMARK SMILES IDX 64 24 44 25 63 26 45 27 48 28 62 29 81 30 46 31 47 32 61 34
REMARK SMILES IDX 82 35 49 36 33 37 34 38 42 39 35 40 41 41 43 42 40 43 36 44
REMARK SMILES IDX 37 45 38 46 39 47 65 48 66 49 74 50 67 51 73 52 75 53 72 54
REMARK SMILES IDX 68 55 69 56 70 57 71 58 50 59 51 60 59 61 52 62 58 63 60 64
REMARK SMILES IDX 57 65 53 66 54 67 55 68 56 69 5 70 6 71 7 72 8 73 9 74 10 75
REMARK SMILES IDX 23 76 11 77 12 78 21 79 19 80 20 81 22 82 13 83 14 84 18 85
REMARK SMILES IDX 15 86 17 87 16 88
REMARK H PARENT 80 22 48 33
REMARK Flexibility Score: inf
ROOT
ATOM      1  C   UNL A   1      32.171  30.130  25.421  1.00  0.00     0.275 C 
ENDROOT
BRANCH   1   2
ATOM      2  O   UNL A   1      31.625  31.096  26.340  1.00  0.00    -0.458 OA
BRANCH   2   3
ATOM      3  C   UNL A   1      32.287  31.989  27.118  1.00  0.00     0.338 C 
ATOM      4  O   UNL A   1      31.892  33.147  27.197  1.00  0.00    -0.246 OA
BRANCH   3   5
ATOM      5  C   UNL A   1      33.588  31.670  27.740  1.00  0.00     0.060 A 
ATOM      6  C   UNL A   1      34.196  30.050  27.946  1.00  0.00     0.016 A 
ATOM      7  C   UNL A   1      34.772  32.999  27.981  1.00  0.00     0.016 A 
ATOM      8  C   UNL A   1      35.825  29.620  28.317  1.00  0.00     0.010 A 
ATOM      9  C   UNL A   1      36.698  32.411  28.283  1.00  0.00     0.010 A 
ATOM     10  C   UNL A   1      37.068  30.724  28.505  1.00  0.00    -0.014 A 
BRANCH  10  11
ATOM     11  C   UNL A   1      38.190  30.273  29.384  1.00  0.00     0.031 A 
ATOM     12  C   UNL A   1      39.290  29.348  28.879  1.00  0.00     0.074 A 
ATOM     13  C   UNL A   1      38.357  30.899  30.557  1.00  0.00     0.049 A 
ATOM     14  N   UNL A   1      40.157  28.607  29.525  1.00  0.00    -0.248 NA
ATOM     15  C   UNL A   1      39.426  29.189  27.439  1.00  0.00     0.031 C 
ATOM     16  C   UNL A   1      37.472  31.927  31.102  1.00  0.00     0.029 A 
ATOM     17  N   UNL A   1      39.356  30.787  31.479  1.00  0.00    -0.354 N 
ATOM     18  C   UNL A   1      40.808  27.840  28.543  1.00  0.00     0.074 A 
ATOM     19  C   UNL A   1      40.165  28.107  27.297  1.00  0.00     0.031 C 
ATOM     20  C   UNL A   1      37.981  32.370  32.260  1.00  0.00     0.029 A 
ATOM     21  C   UNL A   1      39.163  31.580  32.580  1.00  0.00     0.049 A 
ATOM     22  H   UNL A   1      40.136  30.197  31.366  1.00  0.00     0.167 HD
ATOM     23  C   UNL A   1      41.929  27.084  28.624  1.00  0.00     0.034 A 
ATOM     24  C   UNL A   1      39.835  31.603  33.743  1.00  0.00     0.034 A 
ATOM     25  C   UNL A   1      42.718  27.056  29.819  1.00  0.00     0.049 A 
ATOM     26  C   UNL A   1      41.027  30.693  33.876  1.00  0.00     0.074 A 
ATOM     27  C   UNL A   1      43.874  26.351  30.083  1.00  0.00     0.029 A 
ATOM     28  N   UNL A   1      42.455  27.848  30.930  1.00  0.00    -0.354 N 
ATOM     29  N   UNL A   1      41.518  29.840  33.002  1.00  0.00    -0.248 NA
ATOM     30  C   UNL A   1      41.762  30.759  35.139  1.00  0.00     0.031 C 
ATOM     31  C   UNL A   1      44.272  26.666  31.384  1.00  0.00     0.029 A 
ATOM     32  C   UNL A   1      43.419  27.636  31.891  1.00  0.00     0.049 A 
ATOM     33  H   UNL A   1      41.694  28.465  31.016  1.00  0.00     0.167 HD
ATOM     34  C   UNL A   1      42.639  29.282  33.606  1.00  0.00     0.074 A 
ATOM     35  C   UNL A   1      42.763  29.927  34.901  1.00  0.00     0.031 C 
ATOM     36  C   UNL A   1      43.489  28.322  33.155  1.00  0.00     0.034 A 
BRANCH  23  37
ATOM     37  C   UNL A   1      42.347  26.245  27.427  1.00  0.00     0.023 A 
ATOM     38  C   UNL A   1      41.962  24.903  27.235  1.00  0.00     0.031 A 
ATOM     39  C   UNL A   1      43.200  26.812  26.461  1.00  0.00     0.131 A 
ATOM     40  C   UNL A   1      42.496  24.158  26.167  1.00  0.00     0.055 A 
ATOM     41  C   UNL A   1      43.646  26.097  25.346  1.00  0.00     0.041 A 
ATOM     42  F   UNL A   1      43.633  28.076  26.593  1.00  0.00    -0.206 F 
ATOM     43  C   UNL A   1      43.307  24.757  25.202  1.00  0.00     0.022 A 
BRANCH  40  44
ATOM     44  S   UNL A   1      42.256  22.356  26.139  1.00  0.00     0.124 S 
ATOM     45  O   UNL A   1      40.800  22.256  26.064  1.00  0.00    -0.237 OA
ATOM     46  O   UNL A   1      42.988  21.956  24.943  1.00  0.00    -0.237 OA
ATOM     47  O   UNL A   1      42.838  21.912  27.404  1.00  0.00    -0.744 OA
ENDBRANCH  40  44
ENDBRANCH  23  37
BRANCH  24  48
ATOM     48  C   UNL A   1      39.345  32.451  34.862  1.00  0.00     0.023 A 
ATOM     49  C   UNL A   1      39.824  33.751  35.055  1.00  0.00     0.031 A 
ATOM     50  C   UNL A   1      38.391  31.956  35.774  1.00  0.00     0.131 A 
ATOM     51  C   UNL A   1      39.389  34.494  36.162  1.00  0.00     0.055 A 
ATOM     52  C   UNL A   1      37.899  32.730  36.824  1.00  0.00     0.041 A 
ATOM     53  F   UNL A   1      37.899  30.713  35.638  1.00  0.00    -0.206 F 
ATOM     54  C   UNL A   1      38.413  34.003  37.033  1.00  0.00     0.022 A 
BRANCH  51  55
ATOM     55  S   UNL A   1      40.222  36.062  36.520  1.00  0.00     0.124 S 
ATOM     56  O   UNL A   1      39.572  36.464  37.762  1.00  0.00    -0.237 OA
ATOM     57  O   UNL A   1      41.616  35.644  36.630  1.00  0.00    -0.237 OA
ATOM     58  O   UNL A   1      39.907  36.885  35.354  1.00  0.00    -0.744 OA
ENDBRANCH  51  55
ENDBRANCH  24  48
BRANCH  36  59
ATOM     59  C   UNL A   1      44.640  27.975  34.053  1.00  0.00     0.023 A 
ATOM     60  C   UNL A   1      44.551  26.906  34.954  1.00  0.00     0.031 A 
ATOM     61  C   UNL A   1      45.819  28.739  34.026  1.00  0.00     0.131 A 
ATOM     62  C   UNL A   1      45.582  26.699  35.874  1.00  0.00     0.055 A 
ATOM     63  C   UNL A   1      46.887  28.459  34.874  1.00  0.00     0.041 A 
ATOM     64  F   UNL A   1      45.950  29.770  33.174  1.00  0.00    -0.206 F 
ATOM     65  C   UNL A   1      46.761  27.448  35.823  1.00  0.00     0.022 A 
BRANCH  62  66
ATOM     66  S   UNL A   1      45.274  25.557  37.244  1.00  0.00     0.124 S 
ATOM     67  O   UNL A   1      45.581  26.393  38.402  1.00  0.00    -0.237 OA
ATOM     68  O   UNL A   1      43.866  25.219  37.059  1.00  0.00    -0.237 OA
ATOM     69  O   UNL A   1      46.215  24.468  36.997  1.00  0.00    -0.744 OA
ENDBRANCH  62  66
ENDBRANCH  36  59
ENDBRANCH  10  11
ENDBRANCH   3   5
ENDBRANCH   2   3
ENDBRANCH   1   2
BRANCH   1  70
ATOM     70  C   UNL A   1      31.751  28.669  25.738  1.00  0.00     0.274 C 
BRANCH  70  71
ATOM     71  O   UNL A   1      32.711  27.636  25.391  1.00  0.00    -0.461 OA
BRANCH  71  72
ATOM     72  C   UNL A   1      33.066  27.401  24.085  1.00  0.00     0.329 C 
ATOM     73  O   UNL A   1      34.023  27.939  23.550  1.00  0.00    -0.250 OA
BRANCH  72  74
ATOM     74  C   UNL A   1      32.146  26.271  23.482  1.00  0.00     0.206 C 
ATOM     75  C   UNL A   1      32.614  25.774  22.077  1.00  0.00     0.109 C 
ATOM     76  N   UNL A   1      31.898  24.984  24.354  1.00  0.00    -0.309 N 
ATOM     77  S   UNL A   1      33.022  23.961  21.904  1.00  0.00    -0.126 SA
ATOM     78  C   UNL A   1      33.057  23.573  23.708  1.00  0.00     0.116 C 
ATOM     79  C   UNL A   1      30.669  24.272  25.806  1.00  0.00     0.224 C 
ATOM     80  C   UNL A   1      32.356  21.895  24.459  1.00  0.00     0.055 C 
ATOM     81  C   UNL A   1      31.010  22.280  25.823  1.00  0.00     0.104 C 
ATOM     82  O   UNL A   1      29.969  24.707  26.736  1.00  0.00    -0.275 OA
BRANCH  78  83
ATOM     83  C   UNL A   1      34.625  23.553  24.180  1.00  0.00    -0.012 A 
ATOM     84  C   UNL A   1      35.118  24.079  25.373  1.00  0.00     0.007 A 
ATOM     85  C   UNL A   1      35.621  22.934  23.367  1.00  0.00     0.007 A 
ATOM     86  C   UNL A   1      36.446  23.822  25.796  1.00  0.00     0.000 A 
ATOM     87  C   UNL A   1      36.895  22.580  23.818  1.00  0.00     0.000 A 
ATOM     88  C   UNL A   1      37.307  23.015  25.055  1.00  0.00     0.000 A 
ENDBRANCH  78  83
ENDBRANCH  72  74
ENDBRANCH  71  72
ENDBRANCH  70  71
ENDBRANCH   1  70
TORSDOF 15
ENDMDL
MODEL 3
REMARK VINA RESULT:     -12.0      4.576     10.005
REMARK SMILES O=C(OCCOC(=O)[C@H]1CS[C@]2(c3ccccc3)CCC(=O)N12)c1ccc(-c2c3nc(c(-c4cc(S(=O)(=O)[O-])ccc4F)c4ccc([nH]4)c(-c4cc(S(=O)(=O)[O-])ccc4F)c4nc(c(-c5cc(S(=O)(=O)[O-])ccc5F)c5ccc2[nH]5)C=C4)C=C3)cc1
REMARK SMILES IDX 4 1 3 2 2 3 1 4 24 5 25 6 86 7 26 8 85 9 27 10 28 11 29 12
REMARK SMILES IDX 79 13 30 14 84 15 78 16 80 17 31 18 83 19 77 20 76 21 32 23
REMARK SMILES IDX 64 24 44 25 63 26 45 27 48 28 62 29 81 30 46 31 47 32 61 34
REMARK SMILES IDX 82 35 49 36 33 37 34 38 42 39 35 40 41 41 43 42 40 43 36 44
REMARK SMILES IDX 37 45 38 46 39 47 65 48 66 49 74 50 67 51 73 52 75 53 72 54
REMARK SMILES IDX 68 55 69 56 70 57 71 58 50 59 51 60 59 61 52 62 58 63 60 64
REMARK SMILES IDX 57 65 53 66 54 67 55 68 56 69 5 70 6 71 7 72 8 73 9 74 10 75
REMARK SMILES IDX 23 76 11 77 12 78 21 79 19 80 20 81 22 82 13 83 14 84 18 85
REMARK SMILES IDX 15 86 17 87 16 88
REMARK H PARENT 80 22 48 33
REMARK Flexibility Score: inf
ROOT
ATOM      1  C   UNL A   1      36.255  21.571  24.669  1.00  0.00     0.275 C 
ENDROOT
BRANCH   1   2
ATOM      2  O   UNL A   1      37.131  20.671  25.376  1.00  0.00    -0.458 OA
BRANCH   2   3
ATOM      3  C   UNL A   1      38.481  20.731  25.500  1.00  0.00     0.338 C 
ATOM      4  O   UNL A   1      39.162  19.736  25.279  1.00  0.00    -0.246 OA
BRANCH   3   5
ATOM      5  C   UNL A   1      39.161  21.908  26.075  1.00  0.00     0.060 A 
ATOM      6  C   UNL A   1      38.457  23.501  26.145  1.00  0.00     0.016 A 
ATOM      7  C   UNL A   1      40.631  21.647  27.073  1.00  0.00     0.016 A 
ATOM      8  C   UNL A   1      39.021  24.816  27.109  1.00  0.00     0.010 A 
ATOM      9  C   UNL A   1      41.156  23.199  28.283  1.00  0.00     0.010 A 
ATOM     10  C   UNL A   1      40.331  24.726  28.145  1.00  0.00    -0.014 A 
BRANCH  10  11
ATOM     11  C   UNL A   1      41.027  26.024  28.404  1.00  0.00     0.031 A 
ATOM     12  C   UNL A   1      42.400  26.334  27.823  1.00  0.00     0.074 A 
ATOM     13  C   UNL A   1      40.312  27.019  28.947  1.00  0.00     0.049 A 
ATOM     14  N   UNL A   1      43.294  27.233  28.156  1.00  0.00    -0.248 NA
ATOM     15  C   UNL A   1      42.874  25.495  26.732  1.00  0.00     0.031 C 
ATOM     16  C   UNL A   1      38.927  26.916  29.404  1.00  0.00     0.029 A 
ATOM     17  N   UNL A   1      40.646  28.323  29.166  1.00  0.00    -0.354 N 
ATOM     18  C   UNL A   1      44.432  26.941  27.387  1.00  0.00     0.074 A 
ATOM     19  C   UNL A   1      44.169  25.731  26.677  1.00  0.00     0.031 C 
ATOM     20  C   UNL A   1      38.520  28.119  29.832  1.00  0.00     0.029 A 
ATOM     21  C   UNL A   1      39.649  29.039  29.776  1.00  0.00     0.049 A 
ATOM     22  H   UNL A   1      41.515  28.711  28.912  1.00  0.00     0.167 HD
ATOM     23  C   UNL A   1      45.552  27.671  27.168  1.00  0.00     0.034 A 
ATOM     24  C   UNL A   1      39.682  30.279  30.291  1.00  0.00     0.034 A 
ATOM     25  C   UNL A   1      45.673  29.008  27.668  1.00  0.00     0.049 A 
ATOM     26  C   UNL A   1      40.958  31.063  30.137  1.00  0.00     0.074 A 
ATOM     27  C   UNL A   1      46.726  29.891  27.549  1.00  0.00     0.029 A 
ATOM     28  N   UNL A   1      44.646  29.678  28.322  1.00  0.00    -0.354 N 
ATOM     29  N   UNL A   1      42.088  30.700  29.567  1.00  0.00    -0.248 NA
ATOM     30  C   UNL A   1      40.960  32.422  30.679  1.00  0.00     0.031 C 
ATOM     31  C   UNL A   1      46.360  31.075  28.193  1.00  0.00     0.029 A 
ATOM     32  C   UNL A   1      45.047  30.959  28.629  1.00  0.00     0.049 A 
ATOM     33  H   UNL A   1      43.766  29.293  28.535  1.00  0.00     0.167 HD
ATOM     34  C   UNL A   1      42.931  31.802  29.662  1.00  0.00     0.074 A 
ATOM     35  C   UNL A   1      42.159  32.846  30.313  1.00  0.00     0.031 C 
ATOM     36  C   UNL A   1      44.222  31.952  29.267  1.00  0.00     0.034 A 
BRANCH  23  37
ATOM     37  C   UNL A   1      46.702  27.053  26.388  1.00  0.00     0.023 A 
ATOM     38  C   UNL A   1      47.796  26.398  26.987  1.00  0.00     0.031 A 
ATOM     39  C   UNL A   1      46.711  27.166  24.985  1.00  0.00     0.131 A 
ATOM     40  C   UNL A   1      48.881  25.967  26.201  1.00  0.00     0.055 A 
ATOM     41  C   UNL A   1      47.744  26.645  24.200  1.00  0.00     0.041 A 
ATOM     42  F   UNL A   1      45.717  27.804  24.346  1.00  0.00    -0.206 F 
ATOM     43  C   UNL A   1      48.845  26.055  24.809  1.00  0.00     0.022 A 
BRANCH  40  44
ATOM     44  S   UNL A   1      50.414  25.440  27.023  1.00  0.00     0.124 S 
ATOM     45  O   UNL A   1      50.731  26.616  27.831  1.00  0.00    -0.237 OA
ATOM     46  O   UNL A   1      49.990  24.254  27.758  1.00  0.00    -0.237 OA
ATOM     47  O   UNL A   1      51.333  25.191  25.914  1.00  0.00    -0.744 OA
ENDBRANCH  40  44
ENDBRANCH  23  37
BRANCH  24  48
ATOM     48  C   UNL A   1      38.511  30.795  31.047  1.00  0.00     0.023 A 
ATOM     49  C   UNL A   1      37.418  31.372  30.392  1.00  0.00     0.031 A 
ATOM     50  C   UNL A   1      38.479  30.732  32.455  1.00  0.00     0.131 A 
ATOM     51  C   UNL A   1      36.363  31.910  31.143  1.00  0.00     0.055 A 
ATOM     52  C   UNL A   1      37.389  31.191  33.193  1.00  0.00     0.041 A 
ATOM     53  F   UNL A   1      39.503  30.191  33.136  1.00  0.00    -0.206 F 
ATOM     54  C   UNL A   1      36.329  31.802  32.536  1.00  0.00     0.022 A 
BRANCH  51  55
ATOM     55  S   UNL A   1      35.099  32.874  30.275  1.00  0.00     0.124 S 
ATOM     56  O   UNL A   1      35.866  34.031  29.828  1.00  0.00    -0.237 OA
ATOM     57  O   UNL A   1      34.674  31.944  29.234  1.00  0.00    -0.237 OA
ATOM     58  O   UNL A   1      34.107  33.143  31.314  1.00  0.00    -0.744 OA
ENDBRANCH  51  55
ENDBRANCH  24  48
BRANCH  36  59
ATOM     59  C   UNL A   1      44.833  33.306  29.483  1.00  0.00     0.023 A 
ATOM     60  C   UNL A   1      44.744  34.299  28.498  1.00  0.00     0.031 A 
ATOM     61  C   UNL A   1      45.534  33.589  30.666  1.00  0.00     0.131 A 
ATOM     62  C   UNL A   1      45.444  35.496  28.668  1.00  0.00     0.055 A 
ATOM     63  C   UNL A   1      46.140  34.825  30.874  1.00  0.00     0.041 A 
ATOM     64  F   UNL A   1      45.641  32.668  31.639  1.00  0.00    -0.206 F 
ATOM     65  C   UNL A   1      46.118  35.778  29.860  1.00  0.00     0.022 A 
BRANCH  62  66
ATOM     66  S   UNL A   1      45.603  36.591  27.237  1.00  0.00     0.124 S 
ATOM     67  O   UNL A   1      46.517  37.611  27.744  1.00  0.00    -0.237 OA
ATOM     68  O   UNL A   1      46.148  35.698  26.219  1.00  0.00    -0.237 OA
ATOM     69  O   UNL A   1      44.235  37.044  27.001  1.00  0.00    -0.744 OA
ENDBRANCH  62  66
ENDBRANCH  36  59
ENDBRANCH  10  11
ENDBRANCH   3   5
ENDBRANCH   2   3
ENDBRANCH   1   2
BRANCH   1  70
ATOM     70  C   UNL A   1      34.804  21.582  25.221  1.00  0.00     0.274 C 
BRANCH  70  71
ATOM     71  O   UNL A   1      34.397  22.781  25.931  1.00  0.00    -0.461 OA
BRANCH  71  72
ATOM     72  C   UNL A   1      33.222  22.826  26.641  1.00  0.00     0.329 C 
ATOM     73  O   UNL A   1      33.181  22.802  27.861  1.00  0.00    -0.250 OA
BRANCH  72  74
ATOM     74  C   UNL A   1      32.012  23.041  25.650  1.00  0.00     0.206 C 
ATOM     75  C   UNL A   1      30.696  23.482  26.365  1.00  0.00     0.109 C 
ATOM     76  N   UNL A   1      32.221  24.028  24.443  1.00  0.00    -0.309 N 
ATOM     77  S   UNL A   1      29.943  25.107  25.842  1.00  0.00    -0.126 SA
ATOM     78  C   UNL A   1      31.398  25.723  24.887  1.00  0.00     0.116 C 
ATOM     79  C   UNL A   1      32.915  24.066  22.534  1.00  0.00     0.224 C 
ATOM     80  C   UNL A   1      31.231  26.718  23.198  1.00  0.00     0.055 C 
ATOM     81  C   UNL A   1      32.244  25.820  21.788  1.00  0.00     0.104 C 
ATOM     82  O   UNL A   1      33.729  23.453  21.822  1.00  0.00    -0.275 OA
BRANCH  78  83
ATOM     83  C   UNL A   1      32.209  26.775  25.846  1.00  0.00    -0.012 A 
ATOM     84  C   UNL A   1      33.585  26.999  25.819  1.00  0.00     0.007 A 
ATOM     85  C   UNL A   1      31.511  27.584  26.791  1.00  0.00     0.007 A 
ATOM     86  C   UNL A   1      34.166  28.080  26.527  1.00  0.00     0.000 A 
ATOM     87  C   UNL A   1      32.050  28.717  27.407  1.00  0.00     0.000 A 
ATOM     88  C   UNL A   1      33.392  28.978  27.260  1.00  0.00     0.000 A 
ENDBRANCH  78  83
ENDBRANCH  72  74
ENDBRANCH  71  72
ENDBRANCH  70  71
ENDBRANCH   1  70
TORSDOF 15
ENDMDL
