MODEL 1
REMARK VINA RESULT:     -12.0      0.000      0.000
REMARK SMILES O=C(Cn1nc(C(=O)OCCOC(=O)c2ccc(-c3c4nc(c(-c5cc(S(=O)(=O)[O-])ccc5F)c5ccc([nH]5)c(-c5cc(S(=O)(=O)[O-])ccc5F)c5nc(c(-c6cc(S(=O)(=O)[O-])ccc6F)c6ccc3[nH]6)C=C5)C=C4)cc2)c2ccccc2c1=O)Nc1ccc2c(c1)C(=O)c1ccccc1C2=O
REMARK SMILES IDX 10 1 9 2 7 3 8 4 6 5 4 6 5 7 84 8 83 9 85 10 78 11 82 12
REMARK SMILES IDX 79 13 81 14 80 15 3 16 2 17 1 18 86 19 87 21 88 22 92 23
REMARK SMILES IDX 89 24 91 25 90 26 93 27 101 28 94 29 95 30 100 31 102 32
REMARK SMILES IDX 96 33 99 34 97 35 98 36 11 37 12 38 13 39 14 40 15 41 16 42
REMARK SMILES IDX 77 43 17 44 76 45 18 46 19 47 20 48 70 49 21 50 75 51 69 52
REMARK SMILES IDX 71 53 22 54 74 55 68 56 67 57 23 59 55 60 35 61 54 62 36 63
REMARK SMILES IDX 39 64 53 65 72 66 37 67 38 68 52 70 73 71 40 72 24 73 25 74
REMARK SMILES IDX 33 75 26 76 32 77 34 78 31 79 27 80 28 81 29 82 30 83 56 84
REMARK SMILES IDX 57 85 65 86 58 87 64 88 66 89 63 90 59 91 60 92 61 93 62 94
REMARK SMILES IDX 41 95 42 96 50 97 43 98 49 99 51 100 48 101 44 102 45 103
REMARK SMILES IDX 46 104 47 105
REMARK H PARENT 86 20 71 58 39 69
REMARK Flexibility Score: inf
ROOT
ATOM      1  C   UNL A   1      43.917  20.423  25.845  1.00  0.00     0.275 C 
ENDROOT
BRANCH   1   2
ATOM      2  O   UNL A   1      42.620  19.790  25.780  1.00  0.00    -0.457 OA
BRANCH   2   3
ATOM      3  C   UNL A   1      41.812  19.951  26.847  1.00  0.00     0.359 C 
ATOM      4  O   UNL A   1      41.646  19.175  27.773  1.00  0.00    -0.244 OA
BRANCH   3   5
ATOM      5  C   UNL A   1      41.034  21.263  26.763  1.00  0.00     0.176 A 
ATOM      6  N   UNL A   1      39.268  22.450  25.864  1.00  0.00    -0.219 N 
ATOM      7  N   UNL A   1      40.042  21.306  25.914  1.00  0.00    -0.161 NA
ATOM      8  C   UNL A   1      39.376  23.483  26.791  1.00  0.00     0.275 A 
ATOM      9  C   UNL A   1      40.628  23.544  27.547  1.00  0.00     0.051 A 
ATOM     10  O   UNL A   1      38.504  24.320  27.005  1.00  0.00    -0.267 OA
ATOM     11  C   UNL A   1      41.408  22.402  27.628  1.00  0.00     0.022 A 
ATOM     12  C   UNL A   1      40.997  24.725  28.206  1.00  0.00     0.014 A 
ATOM     13  C   UNL A   1      42.498  22.409  28.493  1.00  0.00     0.011 A 
ATOM     14  C   UNL A   1      42.154  24.753  28.979  1.00  0.00     0.001 A 
ATOM     15  C   UNL A   1      42.888  23.584  29.147  1.00  0.00     0.001 A 
BRANCH   6  16
ATOM     16  C   UNL A   1      38.111  22.428  24.970  1.00  0.00     0.248 C 
BRANCH  16  17
ATOM     17  C   UNL A   1      36.998  21.564  25.586  1.00  0.00     0.246 C 
ATOM     18  O   UNL A   1      36.910  20.358  25.370  1.00  0.00    -0.273 OA
ATOM     19  N   UNL A   1      36.063  22.306  26.296  1.00  0.00    -0.324 N 
ATOM     20  H   UNL A   1      36.400  23.077  26.808  1.00  0.00     0.169 HD
BRANCH  19  21
ATOM     21  C   UNL A   1      34.673  22.058  26.349  1.00  0.00     0.042 A 
ATOM     22  C   UNL A   1      34.064  22.146  27.613  1.00  0.00     0.027 A 
ATOM     23  C   UNL A   1      33.884  22.022  25.197  1.00  0.00     0.039 A 
ATOM     24  C   UNL A   1      32.692  22.369  27.729  1.00  0.00     0.015 A 
ATOM     25  C   UNL A   1      32.527  22.323  25.317  1.00  0.00     0.036 A 
ATOM     26  C   UNL A   1      31.957  22.571  26.566  1.00  0.00     0.034 A 
ATOM     27  C   UNL A   1      31.764  22.696  24.110  1.00  0.00     0.194 C 
ATOM     28  C   UNL A   1      30.715  23.371  26.635  1.00  0.00     0.194 C 
ATOM     29  O   UNL A   1      31.865  22.076  23.065  1.00  0.00    -0.289 OA
ATOM     30  C   UNL A   1      30.981  23.937  24.236  1.00  0.00     0.034 A 
ATOM     31  C   UNL A   1      30.497  24.296  25.497  1.00  0.00     0.034 A 
ATOM     32  O   UNL A   1      30.006  23.381  27.632  1.00  0.00    -0.289 OA
ATOM     33  C   UNL A   1      30.901  24.822  23.161  1.00  0.00     0.013 A 
ATOM     34  C   UNL A   1      29.972  25.571  25.709  1.00  0.00     0.013 A 
ATOM     35  C   UNL A   1      30.399  26.105  23.378  1.00  0.00     0.001 A 
ATOM     36  C   UNL A   1      29.951  26.482  24.650  1.00  0.00     0.001 A 
ENDBRANCH  19  21
ENDBRANCH  16  17
ENDBRANCH   6  16
ENDBRANCH   3   5
ENDBRANCH   2   3
ENDBRANCH   1   2
BRANCH   1  37
ATOM     37  C   UNL A   1      44.117  21.368  24.661  1.00  0.00     0.275 C 
BRANCH  37  38
ATOM     38  O   UNL A   1      43.895  22.709  25.124  1.00  0.00    -0.458 OA
BRANCH  38  39
ATOM     39  C   UNL A   1      44.829  23.629  24.786  1.00  0.00     0.338 C 
ATOM     40  O   UNL A   1      45.665  23.555  23.907  1.00  0.00    -0.246 OA
BRANCH  39  41
ATOM     41  C   UNL A   1      44.593  24.826  25.614  1.00  0.00     0.060 A 
ATOM     42  C   UNL A   1      45.257  25.034  26.816  1.00  0.00     0.016 A 
ATOM     43  C   UNL A   1      43.759  25.815  25.108  1.00  0.00     0.016 A 
ATOM     44  C   UNL A   1      45.050  26.235  27.516  1.00  0.00     0.010 A 
ATOM     45  C   UNL A   1      43.690  27.061  25.729  1.00  0.00     0.010 A 
ATOM     46  C   UNL A   1      44.301  27.297  26.963  1.00  0.00    -0.014 A 
BRANCH  46  47
ATOM     47  C   UNL A   1      44.162  28.633  27.642  1.00  0.00     0.031 A 
ATOM     48  C   UNL A   1      42.860  29.068  28.299  1.00  0.00     0.074 A 
ATOM     49  C   UNL A   1      45.183  29.519  27.615  1.00  0.00     0.049 A 
ATOM     50  N   UNL A   1      42.566  30.210  28.875  1.00  0.00    -0.248 NA
ATOM     51  C   UNL A   1      41.716  28.143  28.237  1.00  0.00     0.031 C 
ATOM     52  C   UNL A   1      46.445  29.333  26.896  1.00  0.00     0.029 A 
ATOM     53  N   UNL A   1      45.336  30.746  28.221  1.00  0.00    -0.354 N 
ATOM     54  C   UNL A   1      41.208  30.148  29.185  1.00  0.00     0.074 A 
ATOM     55  C   UNL A   1      40.713  28.914  28.626  1.00  0.00     0.031 C 
ATOM     56  C   UNL A   1      47.276  30.342  27.189  1.00  0.00     0.029 A 
ATOM     57  C   UNL A   1      46.594  31.289  28.069  1.00  0.00     0.049 A 
ATOM     58  H   UNL A   1      44.613  31.195  28.717  1.00  0.00     0.167 HD
ATOM     59  C   UNL A   1      40.451  30.992  29.930  1.00  0.00     0.034 A 
ATOM     60  C   UNL A   1      47.154  32.401  28.592  1.00  0.00     0.034 A 
ATOM     61  C   UNL A   1      40.978  32.156  30.594  1.00  0.00     0.049 A 
ATOM     62  C   UNL A   1      46.343  33.268  29.523  1.00  0.00     0.074 A 
ATOM     63  C   UNL A   1      40.328  33.003  31.474  1.00  0.00     0.029 A 
ATOM     64  N   UNL A   1      42.282  32.615  30.485  1.00  0.00    -0.354 N 
ATOM     65  N   UNL A   1      45.095  33.124  29.901  1.00  0.00    -0.248 NA
ATOM     66  C   UNL A   1      47.011  34.439  30.109  1.00  0.00     0.031 C 
ATOM     67  C   UNL A   1      41.224  33.998  31.863  1.00  0.00     0.029 A 
ATOM     68  C   UNL A   1      42.453  33.735  31.281  1.00  0.00     0.049 A 
ATOM     69  H   UNL A   1      42.981  32.206  29.927  1.00  0.00     0.167 HD
ATOM     70  C   UNL A   1      44.841  34.164  30.791  1.00  0.00     0.074 A 
ATOM     71  C   UNL A   1      46.069  34.919  30.911  1.00  0.00     0.031 C 
ATOM     72  C   UNL A   1      43.689  34.464  31.440  1.00  0.00     0.034 A 
BRANCH  59  73
ATOM     73  C   UNL A   1      38.993  30.656  30.165  1.00  0.00     0.023 A 
ATOM     74  C   UNL A   1      37.989  31.230  29.359  1.00  0.00     0.031 A 
ATOM     75  C   UNL A   1      38.585  29.877  31.264  1.00  0.00     0.131 A 
ATOM     76  C   UNL A   1      36.638  31.030  29.677  1.00  0.00     0.055 A 
ATOM     77  C   UNL A   1      37.240  29.630  31.540  1.00  0.00     0.041 A 
ATOM     78  F   UNL A   1      39.495  29.323  32.084  1.00  0.00    -0.206 F 
ATOM     79  C   UNL A   1      36.259  30.220  30.751  1.00  0.00     0.022 A 
BRANCH  76  80
ATOM     80  S   UNL A   1      35.317  31.875  28.763  1.00  0.00     0.124 S 
ATOM     81  O   UNL A   1      34.568  32.514  29.843  1.00  0.00    -0.237 OA
ATOM     82  O   UNL A   1      36.074  32.786  27.907  1.00  0.00    -0.237 OA
ATOM     83  O   UNL A   1      34.619  30.796  28.076  1.00  0.00    -0.744 OA
ENDBRANCH  76  80
ENDBRANCH  59  73
BRANCH  60  84
ATOM     84  C   UNL A   1      48.601  32.671  28.337  1.00  0.00     0.023 A 
ATOM     85  C   UNL A   1      49.028  33.345  27.180  1.00  0.00     0.031 A 
ATOM     86  C   UNL A   1      49.584  32.140  29.193  1.00  0.00     0.131 A 
ATOM     87  C   UNL A   1      50.395  33.404  26.874  1.00  0.00     0.055 A 
ATOM     88  C   UNL A   1      50.947  32.267  28.921  1.00  0.00     0.041 A 
ATOM     89  F   UNL A   1      49.226  31.473  30.301  1.00  0.00    -0.206 F 
ATOM     90  C   UNL A   1      51.358  32.886  27.745  1.00  0.00     0.022 A 
BRANCH  87  91
ATOM     91  S   UNL A   1      50.959  34.025  25.265  1.00  0.00     0.124 S 
ATOM     92  O   UNL A   1      52.123  34.824  25.639  1.00  0.00    -0.237 OA
ATOM     93  O   UNL A   1      51.247  32.782  24.553  1.00  0.00    -0.237 OA
ATOM     94  O   UNL A   1      49.812  34.775  24.767  1.00  0.00    -0.744 OA
ENDBRANCH  87  91
ENDBRANCH  60  84
BRANCH  72  95
ATOM     95  C   UNL A   1      43.653  35.642  32.383  1.00  0.00     0.023 A 
ATOM     96  C   UNL A   1      43.680  36.951  31.861  1.00  0.00     0.031 A 
ATOM     97  C   UNL A   1      43.805  35.475  33.769  1.00  0.00     0.131 A 
ATOM     98  C   UNL A   1      43.920  38.036  32.712  1.00  0.00     0.055 A 
ATOM     99  C   UNL A   1      43.991  36.566  34.620  1.00  0.00     0.041 A 
ATOM    100  F   UNL A   1      43.802  34.248  34.313  1.00  0.00    -0.206 F 
ATOM    101  C   UNL A   1      44.069  37.851  34.090  1.00  0.00     0.022 A 
BRANCH  98 102
ATOM    102  S   UNL A   1      44.163  39.708  32.049  1.00  0.00     0.124 S 
ATOM    103  O   UNL A   1      43.345  39.676  30.839  1.00  0.00    -0.237 OA
ATOM    104  O   UNL A   1      43.646  40.544  33.129  1.00  0.00    -0.237 OA
ATOM    105  O   UNL A   1      45.602  39.793  31.823  1.00  0.00    -0.744 OA
ENDBRANCH  98 102
ENDBRANCH  72  95
ENDBRANCH  46  47
ENDBRANCH  39  41
ENDBRANCH  38  39
ENDBRANCH  37  38
ENDBRANCH   1  37
TORSDOF 17
ENDMDL
MODEL 2
REMARK VINA RESULT:     -12.0      8.198     15.994
REMARK SMILES O=C(Cn1nc(C(=O)OCCOC(=O)c2ccc(-c3c4nc(c(-c5cc(S(=O)(=O)[O-])ccc5F)c5ccc([nH]5)c(-c5cc(S(=O)(=O)[O-])ccc5F)c5nc(c(-c6cc(S(=O)(=O)[O-])ccc6F)c6ccc3[nH]6)C=C5)C=C4)cc2)c2ccccc2c1=O)Nc1ccc2c(c1)C(=O)c1ccccc1C2=O
REMARK SMILES IDX 10 1 9 2 7 3 8 4 6 5 4 6 5 7 84 8 83 9 85 10 78 11 82 12
REMARK SMILES IDX 79 13 81 14 80 15 3 16 2 17 1 18 86 19 87 21 88 22 92 23
REMARK SMILES IDX 89 24 91 25 90 26 93 27 101 28 94 29 95 30 100 31 102 32
REMARK SMILES IDX 96 33 99 34 97 35 98 36 11 37 12 38 13 39 14 40 15 41 16 42
REMARK SMILES IDX 77 43 17 44 76 45 18 46 19 47 20 48 70 49 21 50 75 51 69 52
REMARK SMILES IDX 71 53 22 54 74 55 68 56 67 57 23 59 55 60 35 61 54 62 36 63
REMARK SMILES IDX 39 64 53 65 72 66 37 67 38 68 52 70 73 71 40 72 24 73 25 74
REMARK SMILES IDX 33 75 26 76 32 77 34 78 31 79 27 80 28 81 29 82 30 83 56 84
REMARK SMILES IDX 57 85 65 86 58 87 64 88 66 89 63 90 59 91 60 92 61 93 62 94
REMARK SMILES IDX 41 95 42 96 50 97 43 98 49 99 51 100 48 101 44 102 45 103
REMARK SMILES IDX 46 104 47 105
REMARK H PARENT 86 20 71 58 39 69
REMARK Flexibility Score: inf
ROOT
ATOM      1  C   UNL A   1      47.002  39.093  27.464  1.00  0.00     0.275 C 
ENDROOT
BRANCH   1   2
ATOM      2  O   UNL A   1      46.525  40.293  26.816  1.00  0.00    -0.457 OA
BRANCH   2   3
ATOM      3  C   UNL A   1      46.187  40.187  25.515  1.00  0.00     0.359 C 
ATOM      4  O   UNL A   1      46.798  39.598  24.638  1.00  0.00    -0.244 OA
BRANCH   3   5
ATOM      5  C   UNL A   1      44.908  40.963  25.207  1.00  0.00     0.176 A 
ATOM      6  N   UNL A   1      43.874  42.671  24.044  1.00  0.00    -0.219 N 
ATOM      7  N   UNL A   1      45.021  41.989  24.407  1.00  0.00    -0.161 NA
ATOM      8  C   UNL A   1      42.593  42.213  24.340  1.00  0.00     0.275 A 
ATOM      9  C   UNL A   1      42.489  41.242  25.430  1.00  0.00     0.051 A 
ATOM     10  O   UNL A   1      41.575  42.569  23.753  1.00  0.00    -0.267 OA
ATOM     11  C   UNL A   1      43.622  40.533  25.794  1.00  0.00     0.022 A 
ATOM     12  C   UNL A   1      41.255  41.012  26.055  1.00  0.00     0.014 A 
ATOM     13  C   UNL A   1      43.480  39.485  26.700  1.00  0.00     0.011 A 
ATOM     14  C   UNL A   1      41.151  40.037  27.042  1.00  0.00     0.001 A 
ATOM     15  C   UNL A   1      42.259  39.252  27.342  1.00  0.00     0.001 A 
BRANCH   6  16
ATOM     16  C   UNL A   1      44.026  43.755  23.076  1.00  0.00     0.248 C 
BRANCH  16  17
ATOM     17  C   UNL A   1      43.904  43.194  21.649  1.00  0.00     0.246 C 
ATOM     18  O   UNL A   1      44.749  42.444  21.166  1.00  0.00    -0.273 OA
ATOM     19  N   UNL A   1      42.823  43.714  20.950  1.00  0.00    -0.324 N 
ATOM     20  H   UNL A   1      41.999  43.883  21.462  1.00  0.00     0.169 HD
BRANCH  19  21
ATOM     21  C   UNL A   1      42.797  44.025  19.572  1.00  0.00     0.042 A 
ATOM     22  C   UNL A   1      41.533  44.248  18.999  1.00  0.00     0.027 A 
ATOM     23  C   UNL A   1      43.952  44.389  18.874  1.00  0.00     0.039 A 
ATOM     24  C   UNL A   1      41.405  44.980  17.818  1.00  0.00     0.015 A 
ATOM     25  C   UNL A   1      43.814  45.186  17.738  1.00  0.00     0.036 A 
ATOM     26  C   UNL A   1      42.551  45.541  17.263  1.00  0.00     0.034 A 
ATOM     27  C   UNL A   1      44.988  45.917  17.226  1.00  0.00     0.194 C 
ATOM     28  C   UNL A   1      42.421  46.756  16.428  1.00  0.00     0.194 C 
ATOM     29  O   UNL A   1      46.082  45.389  17.117  1.00  0.00    -0.289 OA
ATOM     30  C   UNL A   1      44.762  47.353  16.983  1.00  0.00     0.034 A 
ATOM     31  C   UNL A   1      43.478  47.776  16.630  1.00  0.00     0.034 A 
ATOM     32  O   UNL A   1      41.430  46.966  15.743  1.00  0.00    -0.289 OA
ATOM     33  C   UNL A   1      45.759  48.277  17.294  1.00  0.00     0.013 A 
ATOM     34  C   UNL A   1      43.161  49.134  16.635  1.00  0.00     0.013 A 
ATOM     35  C   UNL A   1      45.437  49.634  17.323  1.00  0.00     0.001 A 
ATOM     36  C   UNL A   1      44.140  50.059  17.010  1.00  0.00     0.001 A 
ENDBRANCH  19  21
ENDBRANCH  16  17
ENDBRANCH   6  16
ENDBRANCH   3   5
ENDBRANCH   2   3
ENDBRANCH   1   2
BRANCH   1  37
ATOM     37  C   UNL A   1      46.447  38.988  28.883  1.00  0.00     0.275 C 
BRANCH  37  38
ATOM     38  O   UNL A   1      45.854  37.689  29.030  1.00  0.00    -0.458 OA
BRANCH  38  39
ATOM     39  C   UNL A   1      46.689  36.674  29.355  1.00  0.00     0.338 C 
ATOM     40  O   UNL A   1      47.829  36.751  29.770  1.00  0.00    -0.246 OA
BRANCH  39  41
ATOM     41  C   UNL A   1      45.932  35.416  29.224  1.00  0.00     0.060 A 
ATOM     42  C   UNL A   1      45.289  35.061  28.045  1.00  0.00     0.016 A 
ATOM     43  C   UNL A   1      45.964  34.522  30.287  1.00  0.00     0.016 A 
ATOM     44  C   UNL A   1      44.655  33.809  27.959  1.00  0.00     0.010 A 
ATOM     45  C   UNL A   1      45.473  33.227  30.131  1.00  0.00     0.010 A 
ATOM     46  C   UNL A   1      44.777  32.843  28.982  1.00  0.00    -0.014 A 
BRANCH  46  47
ATOM     47  C   UNL A   1      44.204  31.457  28.862  1.00  0.00     0.031 A 
ATOM     48  C   UNL A   1      42.818  31.112  29.386  1.00  0.00     0.074 A 
ATOM     49  C   UNL A   1      44.953  30.455  28.347  1.00  0.00     0.049 A 
ATOM     50  N   UNL A   1      42.208  29.950  29.408  1.00  0.00    -0.248 NA
ATOM     51  C   UNL A   1      42.046  32.181  30.040  1.00  0.00     0.031 C 
ATOM     52  C   UNL A   1      46.355  30.569  27.941  1.00  0.00     0.029 A 
ATOM     53  N   UNL A   1      44.639  29.146  28.056  1.00  0.00    -0.354 N 
ATOM     54  C   UNL A   1      41.024  30.149  30.116  1.00  0.00     0.074 A 
ATOM     55  C   UNL A   1      41.061  31.504  30.610  1.00  0.00     0.031 C 
ATOM     56  C   UNL A   1      46.743  29.427  27.358  1.00  0.00     0.029 A 
ATOM     57  C   UNL A   1      45.642  28.467  27.398  1.00  0.00     0.049 A 
ATOM     58  H   UNL A   1      43.778  28.732  28.295  1.00  0.00     0.167 HD
ATOM     59  C   UNL A   1      39.965  29.318  30.282  1.00  0.00     0.034 A 
ATOM     60  C   UNL A   1      45.676  27.228  26.861  1.00  0.00     0.034 A 
ATOM     61  C   UNL A   1      39.876  28.013  29.680  1.00  0.00     0.049 A 
ATOM     62  C   UNL A   1      44.448  26.356  26.939  1.00  0.00     0.074 A 
ATOM     63  C   UNL A   1      38.798  27.146  29.677  1.00  0.00     0.029 A 
ATOM     64  N   UNL A   1      40.881  27.404  28.945  1.00  0.00    -0.354 N 
ATOM     65  N   UNL A   1      43.294  26.611  27.508  1.00  0.00    -0.248 NA
ATOM     66  C   UNL A   1      44.515  25.036  26.294  1.00  0.00     0.031 C 
ATOM     67  C   UNL A   1      39.165  25.996  28.980  1.00  0.00     0.029 A 
ATOM     68  C   UNL A   1      40.447  26.171  28.487  1.00  0.00     0.049 A 
ATOM     69  H   UNL A   1      41.770  27.790  28.772  1.00  0.00     0.167 HD
ATOM     70  C   UNL A   1      42.491  25.500  27.263  1.00  0.00     0.074 A 
ATOM     71  C   UNL A   1      43.282  24.579  26.478  1.00  0.00     0.031 C 
ATOM     72  C   UNL A   1      41.217  25.270  27.664  1.00  0.00     0.034 A 
BRANCH  59  73
ATOM     73  C   UNL A   1      38.761  29.810  31.060  1.00  0.00     0.023 A 
ATOM     74  C   UNL A   1      37.772  30.589  30.428  1.00  0.00     0.031 A 
ATOM     75  C   UNL A   1      38.659  29.622  32.452  1.00  0.00     0.131 A 
ATOM     76  C   UNL A   1      36.742  31.161  31.189  1.00  0.00     0.055 A 
ATOM     77  C   UNL A   1      37.598  30.142  33.194  1.00  0.00     0.041 A 
ATOM     78  F   UNL A   1      39.586  28.909  33.115  1.00  0.00    -0.206 F 
ATOM     79  C   UNL A   1      36.640  30.927  32.563  1.00  0.00     0.022 A 
BRANCH  76  80
ATOM     80  S   UNL A   1      35.537  32.297  30.445  1.00  0.00     0.124 S 
ATOM     81  O   UNL A   1      34.547  32.424  31.513  1.00  0.00    -0.237 OA
ATOM     82  O   UNL A   1      36.350  33.487  30.204  1.00  0.00    -0.237 OA
ATOM     83  O   UNL A   1      35.079  31.592  29.254  1.00  0.00    -0.744 OA
ENDBRANCH  76  80
ENDBRANCH  59  73
BRANCH  60  84
ATOM     84  C   UNL A   1      46.886  26.805  26.092  1.00  0.00     0.023 A 
ATOM     85  C   UNL A   1      47.974  26.180  26.723  1.00  0.00     0.031 A 
ATOM     86  C   UNL A   1      47.016  27.142  24.732  1.00  0.00     0.131 A 
ATOM     87  C   UNL A   1      49.168  25.981  26.016  1.00  0.00     0.055 A 
ATOM     88  C   UNL A   1      48.181  26.873  24.012  1.00  0.00     0.041 A 
ATOM     89  F   UNL A   1      46.011  27.756  24.089  1.00  0.00    -0.206 F 
ATOM     90  C   UNL A   1      49.273  26.305  24.661  1.00  0.00     0.022 A 
BRANCH  87  91
ATOM     91  S   UNL A   1      50.671  25.427  26.870  1.00  0.00     0.124 S 
ATOM     92  O   UNL A   1      51.517  25.010  25.756  1.00  0.00    -0.237 OA
ATOM     93  O   UNL A   1      51.087  26.648  27.557  1.00  0.00    -0.237 OA
ATOM     94  O   UNL A   1      50.196  24.355  27.738  1.00  0.00    -0.744 OA
ENDBRANCH  87  91
ENDBRANCH  60  84
BRANCH  72  95
ATOM     95  C   UNL A   1      40.532  23.987  27.258  1.00  0.00     0.023 A 
ATOM     96  C   UNL A   1      41.256  22.777  27.275  1.00  0.00     0.031 A 
ATOM     97  C   UNL A   1      39.259  23.992  26.665  1.00  0.00     0.131 A 
ATOM     98  C   UNL A   1      40.728  21.640  26.651  1.00  0.00     0.055 A 
ATOM     99  C   UNL A   1      38.715  22.841  26.092  1.00  0.00     0.041 A 
ATOM    100  F   UNL A   1      38.536  25.122  26.611  1.00  0.00    -0.206 F 
ATOM    101  C   UNL A   1      39.459  21.664  26.066  1.00  0.00     0.022 A 
BRANCH  98 102
ATOM    102  S   UNL A   1      41.716  20.127  26.476  1.00  0.00     0.124 S 
ATOM    103  O   UNL A   1      40.778  19.230  25.806  1.00  0.00    -0.237 OA
ATOM    104  O   UNL A   1      42.834  20.586  25.656  1.00  0.00    -0.237 OA
ATOM    105  O   UNL A   1      42.050  19.763  27.848  1.00  0.00    -0.744 OA
ENDBRANCH  98 102
ENDBRANCH  72  95
ENDBRANCH  46  47
ENDBRANCH  39  41
ENDBRANCH  38  39
ENDBRANCH  37  38
ENDBRANCH   1  37
TORSDOF 17
ENDMDL
MODEL 3
REMARK VINA RESULT:     -11.8      1.720      7.331
REMARK SMILES O=C(Cn1nc(C(=O)OCCOC(=O)c2ccc(-c3c4nc(c(-c5cc(S(=O)(=O)[O-])ccc5F)c5ccc([nH]5)c(-c5cc(S(=O)(=O)[O-])ccc5F)c5nc(c(-c6cc(S(=O)(=O)[O-])ccc6F)c6ccc3[nH]6)C=C5)C=C4)cc2)c2ccccc2c1=O)Nc1ccc2c(c1)C(=O)c1ccccc1C2=O
REMARK SMILES IDX 10 1 9 2 7 3 8 4 6 5 4 6 5 7 84 8 83 9 85 10 78 11 82 12
REMARK SMILES IDX 79 13 81 14 80 15 3 16 2 17 1 18 86 19 87 21 88 22 92 23
REMARK SMILES IDX 89 24 91 25 90 26 93 27 101 28 94 29 95 30 100 31 102 32
REMARK SMILES IDX 96 33 99 34 97 35 98 36 11 37 12 38 13 39 14 40 15 41 16 42
REMARK SMILES IDX 77 43 17 44 76 45 18 46 19 47 20 48 70 49 21 50 75 51 69 52
REMARK SMILES IDX 71 53 22 54 74 55 68 56 67 57 23 59 55 60 35 61 54 62 36 63
REMARK SMILES IDX 39 64 53 65 72 66 37 67 38 68 52 70 73 71 40 72 24 73 25 74
REMARK SMILES IDX 33 75 26 76 32 77 34 78 31 79 27 80 28 81 29 82 30 83 56 84
REMARK SMILES IDX 57 85 65 86 58 87 64 88 66 89 63 90 59 91 60 92 61 93 62 94
REMARK SMILES IDX 41 95 42 96 50 97 43 98 49 99 51 100 48 101 44 102 45 103
REMARK SMILES IDX 46 104 47 105
REMARK H PARENT 86 20 71 58 39 69
REMARK Flexibility Score: inf
ROOT
ATOM      1  C   UNL A   1      43.012  20.177  25.772  1.00  0.00     0.275 C 
ENDROOT
BRANCH   1   2
ATOM      2  O   UNL A   1      41.721  20.765  25.497  1.00  0.00    -0.457 OA
BRANCH   2   3
ATOM      3  C   UNL A   1      40.793  20.675  26.471  1.00  0.00     0.359 C 
ATOM      4  O   UNL A   1      40.791  19.910  27.422  1.00  0.00    -0.244 OA
BRANCH   3   5
ATOM      5  C   UNL A   1      39.641  21.649  26.234  1.00  0.00     0.176 A 
ATOM      6  N   UNL A   1      37.517  22.022  25.406  1.00  0.00    -0.219 N 
ATOM      7  N   UNL A   1      38.611  21.193  25.574  1.00  0.00    -0.161 NA
ATOM      8  C   UNL A   1      37.384  23.246  26.055  1.00  0.00     0.275 A 
ATOM      9  C   UNL A   1      38.619  23.847  26.560  1.00  0.00     0.051 A 
ATOM     10  O   UNL A   1      36.319  23.832  26.224  1.00  0.00    -0.267 OA
ATOM     11  C   UNL A   1      39.721  23.030  26.756  1.00  0.00     0.022 A 
ATOM     12  C   UNL A   1      38.663  25.213  26.875  1.00  0.00     0.014 A 
ATOM     13  C   UNL A   1      40.830  23.564  27.405  1.00  0.00     0.011 A 
ATOM     14  C   UNL A   1      39.820  25.760  27.420  1.00  0.00     0.001 A 
ATOM     15  C   UNL A   1      40.894  24.928  27.713  1.00  0.00     0.001 A 
BRANCH   6  16
ATOM     16  C   UNL A   1      36.347  21.448  24.744  1.00  0.00     0.248 C 
BRANCH  16  17
ATOM     17  C   UNL A   1      35.831  22.423  23.672  1.00  0.00     0.246 C 
ATOM     18  O   UNL A   1      36.557  23.263  23.147  1.00  0.00    -0.273 OA
ATOM     19  N   UNL A   1      34.462  22.325  23.461  1.00  0.00    -0.324 N 
ATOM     20  H   UNL A   1      34.065  21.425  23.510  1.00  0.00     0.169 HD
BRANCH  19  21
ATOM     21  C   UNL A   1      33.585  23.398  23.184  1.00  0.00     0.042 A 
ATOM     22  C   UNL A   1      32.210  23.106  23.183  1.00  0.00     0.027 A 
ATOM     23  C   UNL A   1      34.015  24.727  23.206  1.00  0.00     0.039 A 
ATOM     24  C   UNL A   1      31.267  24.116  23.374  1.00  0.00     0.015 A 
ATOM     25  C   UNL A   1      33.073  25.722  23.474  1.00  0.00     0.036 A 
ATOM     26  C   UNL A   1      31.724  25.404  23.634  1.00  0.00     0.034 A 
ATOM     27  C   UNL A   1      33.538  27.053  23.906  1.00  0.00     0.194 C 
ATOM     28  C   UNL A   1      30.863  26.327  24.406  1.00  0.00     0.194 C 
ATOM     29  O   UNL A   1      34.462  27.626  23.354  1.00  0.00    -0.289 OA
ATOM     30  C   UNL A   1      32.886  27.568  25.123  1.00  0.00     0.034 A 
ATOM     31  C   UNL A   1      31.573  27.172  25.395  1.00  0.00     0.034 A 
ATOM     32  O   UNL A   1      29.643  26.278  24.342  1.00  0.00    -0.289 OA
ATOM     33  C   UNL A   1      33.633  28.266  26.070  1.00  0.00     0.013 A 
ATOM     34  C   UNL A   1      31.009  27.428  26.644  1.00  0.00     0.013 A 
ATOM     35  C   UNL A   1      33.078  28.501  27.329  1.00  0.00     0.001 A 
ATOM     36  C   UNL A   1      31.778  28.071  27.619  1.00  0.00     0.001 A 
ENDBRANCH  19  21
ENDBRANCH  16  17
ENDBRANCH   6  16
ENDBRANCH   3   5
ENDBRANCH   2   3
ENDBRANCH   1   2
BRANCH   1  37
ATOM     37  C   UNL A   1      44.136  21.142  25.399  1.00  0.00     0.275 C 
BRANCH  37  38
ATOM     38  O   UNL A   1      43.662  22.479  25.621  1.00  0.00    -0.458 OA
BRANCH  38  39
ATOM     39  C   UNL A   1      44.339  23.473  25.000  1.00  0.00     0.338 C 
ATOM     40  O   UNL A   1      44.907  23.431  23.925  1.00  0.00    -0.246 OA
BRANCH  39  41
ATOM     41  C   UNL A   1      44.181  24.694  25.812  1.00  0.00     0.060 A 
ATOM     42  C   UNL A   1      44.666  24.784  27.110  1.00  0.00     0.016 A 
ATOM     43  C   UNL A   1      43.624  25.813  25.206  1.00  0.00     0.016 A 
ATOM     44  C   UNL A   1      44.557  26.003  27.801  1.00  0.00     0.010 A 
ATOM     45  C   UNL A   1      43.670  27.052  25.842  1.00  0.00     0.010 A 
ATOM     46  C   UNL A   1      44.103  27.179  27.165  1.00  0.00    -0.014 A 
BRANCH  46  47
ATOM     47  C   UNL A   1      44.087  28.519  27.849  1.00  0.00     0.031 A 
ATOM     48  C   UNL A   1      45.320  29.409  27.903  1.00  0.00     0.074 A 
ATOM     49  C   UNL A   1      42.980  28.932  28.507  1.00  0.00     0.049 A 
ATOM     50  N   UNL A   1      45.480  30.565  28.504  1.00  0.00    -0.248 NA
ATOM     51  C   UNL A   1      46.554  28.910  27.275  1.00  0.00     0.031 C 
ATOM     52  C   UNL A   1      41.762  28.141  28.694  1.00  0.00     0.029 A 
ATOM     53  N   UNL A   1      42.686  30.126  29.128  1.00  0.00    -0.354 N 
ATOM     54  C   UNL A   1      46.828  30.889  28.365  1.00  0.00     0.074 A 
ATOM     55  C   UNL A   1      47.463  29.756  27.736  1.00  0.00     0.031 C 
ATOM     56  C   UNL A   1      40.824  28.900  29.275  1.00  0.00     0.029 A 
ATOM     57  C   UNL A   1      41.383  30.219  29.566  1.00  0.00     0.049 A 
ATOM     58  H   UNL A   1      43.346  30.847  29.247  1.00  0.00     0.167 HD
ATOM     59  C   UNL A   1      47.475  32.044  28.658  1.00  0.00     0.034 A 
ATOM     60  C   UNL A   1      40.697  31.246  30.114  1.00  0.00     0.034 A 
ATOM     61  C   UNL A   1      46.815  33.218  29.167  1.00  0.00     0.049 A 
ATOM     62  C   UNL A   1      41.391  32.569  30.320  1.00  0.00     0.074 A 
ATOM     63  C   UNL A   1      47.351  34.476  29.375  1.00  0.00     0.029 A 
ATOM     64  N   UNL A   1      45.474  33.293  29.510  1.00  0.00    -0.354 N 
ATOM     65  N   UNL A   1      42.637  32.891  30.068  1.00  0.00    -0.248 NA
ATOM     66  C   UNL A   1      40.591  33.673  30.870  1.00  0.00     0.031 C 
ATOM     67  C   UNL A   1      46.348  35.299  29.885  1.00  0.00     0.029 A 
ATOM     68  C   UNL A   1      45.167  34.576  29.931  1.00  0.00     0.049 A 
ATOM     69  H   UNL A   1      44.834  32.547  29.461  1.00  0.00     0.167 HD
ATOM     70  C   UNL A   1      42.761  34.239  30.398  1.00  0.00     0.074 A 
ATOM     71  C   UNL A   1      41.458  34.677  30.850  1.00  0.00     0.031 C 
ATOM     72  C   UNL A   1      43.859  35.030  30.337  1.00  0.00     0.034 A 
BRANCH  59  73
ATOM     73  C   UNL A   1      48.955  32.155  28.351  1.00  0.00     0.023 A 
ATOM     74  C   UNL A   1      49.393  32.774  27.163  1.00  0.00     0.031 A 
ATOM     75  C   UNL A   1      49.923  31.535  29.163  1.00  0.00     0.131 A 
ATOM     76  C   UNL A   1      50.752  32.740  26.818  1.00  0.00     0.055 A 
ATOM     77  C   UNL A   1      51.281  31.558  28.847  1.00  0.00     0.041 A 
ATOM     78  F   UNL A   1      49.563  30.907  30.297  1.00  0.00    -0.206 F 
ATOM     79  C   UNL A   1      51.699  32.152  27.662  1.00  0.00     0.022 A 
BRANCH  76  80
ATOM     80  S   UNL A   1      51.339  33.385  25.226  1.00  0.00     0.124 S 
ATOM     81  O   UNL A   1      51.443  32.164  24.429  1.00  0.00    -0.237 OA
ATOM     82  O   UNL A   1      50.254  34.286  24.845  1.00  0.00    -0.237 OA
ATOM     83  O   UNL A   1      52.607  34.025  25.553  1.00  0.00    -0.744 OA
ENDBRANCH  76  80
ENDBRANCH  59  73
BRANCH  60  84
ATOM     84  C   UNL A   1      39.236  31.081  30.382  1.00  0.00     0.023 A 
ATOM     85  C   UNL A   1      38.271  31.432  29.424  1.00  0.00     0.031 A 
ATOM     86  C   UNL A   1      38.789  30.687  31.657  1.00  0.00     0.131 A 
ATOM     87  C   UNL A   1      36.915  31.455  29.779  1.00  0.00     0.055 A 
ATOM     88  C   UNL A   1      37.433  30.638  31.981  1.00  0.00     0.041 A 
ATOM     89  F   UNL A   1      39.673  30.358  32.611  1.00  0.00    -0.206 F 
ATOM     90  C   UNL A   1      36.488  31.043  31.044  1.00  0.00     0.022 A 
BRANCH  87  91
ATOM     91  S   UNL A   1      35.674  32.158  28.657  1.00  0.00     0.124 S 
ATOM     92  O   UNL A   1      35.311  31.003  27.842  1.00  0.00    -0.237 OA
ATOM     93  O   UNL A   1      34.653  32.617  29.596  1.00  0.00    -0.237 OA
ATOM     94  O   UNL A   1      36.401  33.216  27.963  1.00  0.00    -0.744 OA
ENDBRANCH  87  91
ENDBRANCH  60  84
BRANCH  72  95
ATOM     95  C   UNL A   1      43.749  36.483  30.732  1.00  0.00     0.023 A 
ATOM     96  C   UNL A   1      43.589  37.465  29.733  1.00  0.00     0.031 A 
ATOM     97  C   UNL A   1      44.010  36.907  32.045  1.00  0.00     0.131 A 
ATOM     98  C   UNL A   1      43.757  38.818  30.052  1.00  0.00     0.055 A 
ATOM     99  C   UNL A   1      44.123  38.261  32.367  1.00  0.00     0.041 A 
ATOM    100  F   UNL A   1      44.185  36.011  33.029  1.00  0.00    -0.206 F 
ATOM    101  C   UNL A   1      44.016  39.221  31.365  1.00  0.00     0.022 A 
BRANCH  98 102
ATOM    102  S   UNL A   1      43.760  40.090  28.757  1.00  0.00     0.124 S 
ATOM    103  O   UNL A   1      42.342  40.179  28.417  1.00  0.00    -0.237 OA
ATOM    104  O   UNL A   1      44.306  41.245  29.464  1.00  0.00    -0.237 OA
ATOM    105  O   UNL A   1      44.613  39.529  27.714  1.00  0.00    -0.744 OA
ENDBRANCH  98 102
ENDBRANCH  72  95
ENDBRANCH  46  47
ENDBRANCH  39  41
ENDBRANCH  38  39
ENDBRANCH  37  38
ENDBRANCH   1  37
TORSDOF 17
ENDMDL
