MODEL 1
REMARK VINA RESULT:     -11.6      0.000      0.000
REMARK SMILES C[C@H]1Cc2ccc(C3CC3)cc2[C@H](C(=O)OCCOC(=O)c2ccc(-c3c4nc(c(-c5cc(S(=O)(=O)[O-])ccc5F)c5ccc([nH]5)c(-c5cc(S(=O)(=O)[O-])ccc5F)c5nc(c(-c6cc(S(=O)(=O)[O-])ccc6F)c6ccc3[nH]6)C=C5)C=C4)cc2)[NH2+]1
REMARK SMILES IDX 18 1 17 2 16 3 14 4 15 5 13 6 1 7 2 8 3 9 85 10 4 11 5 14
REMARK SMILES IDX 12 15 6 16 11 17 7 18 8 19 9 20 10 21 19 22 20 23 21 24
REMARK SMILES IDX 22 25 23 26 84 27 24 28 83 29 25 30 26 31 27 32 77 33 28 34
REMARK SMILES IDX 82 35 76 36 78 37 29 38 81 39 75 40 74 41 30 43 62 44 42 45
REMARK SMILES IDX 61 46 43 47 46 48 60 49 79 50 44 51 45 52 59 54 80 55 47 56
REMARK SMILES IDX 31 57 32 58 40 59 33 60 39 61 41 62 38 63 34 64 35 65 36 66
REMARK SMILES IDX 37 67 63 68 64 69 72 70 65 71 71 72 73 73 70 74 66 75 67 76
REMARK SMILES IDX 68 77 69 78 48 79 49 80 57 81 50 82 56 83 58 84 55 85 51 86
REMARK SMILES IDX 52 87 53 88 54 89
REMARK H PARENT 85 12 85 13 78 42 46 53
REMARK Flexibility Score: inf
ROOT
ATOM      1  C   UNL A   1      37.283  21.527  24.363  1.00  0.00     0.275 C 
ENDROOT
BRANCH   1   2
ATOM      2  C   UNL A   1      36.628  22.623  23.521  1.00  0.00     0.274 C 
BRANCH   2   3
ATOM      3  O   UNL A   1      36.181  23.729  24.334  1.00  0.00    -0.457 OA
BRANCH   3   4
ATOM      4  C   UNL A   1      34.854  24.055  24.251  1.00  0.00     0.369 C 
ATOM      5  O   UNL A   1      34.342  24.583  23.271  1.00  0.00    -0.245 OA
BRANCH   4   6
ATOM      6  C   UNL A   1      34.121  23.717  25.579  1.00  0.00     0.325 C 
ATOM      7  C   UNL A   1      32.164  20.524  24.989  1.00  0.00     0.075 C 
ATOM      8  C   UNL A   1      32.544  21.996  24.801  1.00  0.00     0.184 C 
ATOM      9  C   UNL A   1      31.318  22.889  25.075  1.00  0.00     0.100 C 
ATOM     10  N   UNL A   1      33.680  22.306  25.679  1.00  0.00    -0.328 N 
ATOM     11  C   UNL A   1      31.654  24.306  25.465  1.00  0.00    -0.032 A 
ATOM     12  H   UNL A   1      34.462  21.702  25.423  1.00  0.00     0.347 HD
ATOM     13  H   UNL A   1      33.376  22.148  26.640  1.00  0.00     0.347 HD
ATOM     14  C   UNL A   1      30.632  25.249  25.592  1.00  0.00     0.005 A 
ATOM     15  C   UNL A   1      32.967  24.676  25.785  1.00  0.00     0.025 A 
ATOM     16  C   UNL A   1      30.913  26.539  26.053  1.00  0.00     0.004 A 
ATOM     17  C   UNL A   1      33.228  25.976  26.253  1.00  0.00     0.014 A 
ATOM     18  C   UNL A   1      32.212  26.932  26.415  1.00  0.00    -0.044 A 
BRANCH  18  19
ATOM     19  C   UNL A   1      32.461  28.328  26.947  1.00  0.00     0.019 C 
ATOM     20  C   UNL A   1      33.840  28.855  27.264  1.00  0.00     0.009 C 
ATOM     21  C   UNL A   1      33.108  29.358  26.054  1.00  0.00     0.009 C 
ENDBRANCH  18  19
ENDBRANCH   4   6
ENDBRANCH   3   4
ENDBRANCH   2   3
ENDBRANCH   1   2
BRANCH   1  22
ATOM     22  O   UNL A   1      37.637  22.039  25.659  1.00  0.00    -0.458 OA
BRANCH  22  23
ATOM     23  C   UNL A   1      38.866  21.690  26.105  1.00  0.00     0.338 C 
ATOM     24  O   UNL A   1      39.466  20.653  25.894  1.00  0.00    -0.246 OA
BRANCH  23  25
ATOM     25  C   UNL A   1      39.478  22.872  26.726  1.00  0.00     0.060 A 
ATOM     26  C   UNL A   1      40.520  22.796  27.646  1.00  0.00     0.016 A 
ATOM     27  C   UNL A   1      39.016  24.109  26.291  1.00  0.00     0.016 A 
ATOM     28  C   UNL A   1      41.086  23.987  28.129  1.00  0.00     0.010 A 
ATOM     29  C   UNL A   1      39.602  25.283  26.738  1.00  0.00     0.010 A 
ATOM     30  C   UNL A   1      40.640  25.242  27.666  1.00  0.00    -0.014 A 
BRANCH  30  31
ATOM     31  C   UNL A   1      41.305  26.517  28.040  1.00  0.00     0.031 A 
ATOM     32  C   UNL A   1      42.738  26.801  27.671  1.00  0.00     0.074 A 
ATOM     33  C   UNL A   1      40.653  27.362  28.861  1.00  0.00     0.049 A 
ATOM     34  N   UNL A   1      43.448  27.876  27.901  1.00  0.00    -0.248 NA
ATOM     35  C   UNL A   1      43.489  25.724  27.004  1.00  0.00     0.031 C 
ATOM     36  C   UNL A   1      39.334  27.106  29.446  1.00  0.00     0.029 A 
ATOM     37  N   UNL A   1      41.007  28.588  29.363  1.00  0.00    -0.354 N 
ATOM     38  C   UNL A   1      44.720  27.610  27.408  1.00  0.00     0.074 A 
ATOM     39  C   UNL A   1      44.710  26.239  26.947  1.00  0.00     0.031 C 
ATOM     40  C   UNL A   1      38.974  28.161  30.189  1.00  0.00     0.029 A 
ATOM     41  C   UNL A   1      40.034  29.165  30.144  1.00  0.00     0.049 A 
ATOM     42  H   UNL A   1      41.875  29.015  29.179  1.00  0.00     0.167 HD
ATOM     43  C   UNL A   1      45.783  28.446  27.308  1.00  0.00     0.034 A 
ATOM     44  C   UNL A   1      39.982  30.377  30.731  1.00  0.00     0.034 A 
ATOM     45  C   UNL A   1      45.758  29.818  27.753  1.00  0.00     0.049 A 
ATOM     46  C   UNL A   1      41.116  31.342  30.504  1.00  0.00     0.074 A 
ATOM     47  C   UNL A   1      46.730  30.789  27.594  1.00  0.00     0.029 A 
ATOM     48  N   UNL A   1      44.710  30.412  28.442  1.00  0.00    -0.354 N 
ATOM     49  N   UNL A   1      42.246  31.145  29.866  1.00  0.00    -0.248 NA
ATOM     50  C   UNL A   1      40.960  32.701  31.038  1.00  0.00     0.031 C 
ATOM     51  C   UNL A   1      46.290  31.955  28.223  1.00  0.00     0.029 A 
ATOM     52  C   UNL A   1      45.016  31.734  28.722  1.00  0.00     0.049 A 
ATOM     53  H   UNL A   1      43.871  29.962  28.694  1.00  0.00     0.167 HD
ATOM     54  C   UNL A   1      42.926  32.358  29.905  1.00  0.00     0.074 A 
ATOM     55  C   UNL A   1      42.067  33.292  30.604  1.00  0.00     0.031 C 
ATOM     56  C   UNL A   1      44.152  32.665  29.409  1.00  0.00     0.034 A 
BRANCH  43  57
ATOM     57  C   UNL A   1      47.038  27.948  26.625  1.00  0.00     0.023 A 
ATOM     58  C   UNL A   1      47.195  28.065  25.230  1.00  0.00     0.031 A 
ATOM     59  C   UNL A   1      48.019  27.237  27.341  1.00  0.00     0.131 A 
ATOM     60  C   UNL A   1      48.292  27.462  24.599  1.00  0.00     0.055 A 
ATOM     61  C   UNL A   1      49.134  26.680  26.714  1.00  0.00     0.041 A 
ATOM     62  F   UNL A   1      47.912  27.077  28.671  1.00  0.00    -0.206 F 
ATOM     63  C   UNL A   1      49.268  26.782  25.335  1.00  0.00     0.022 A 
BRANCH  60  64
ATOM     64  S   UNL A   1      48.468  27.471  22.792  1.00  0.00     0.124 S 
ATOM     65  O   UNL A   1      48.468  26.043  22.485  1.00  0.00    -0.237 OA
ATOM     66  O   UNL A   1      47.272  28.197  22.373  1.00  0.00    -0.237 OA
ATOM     67  O   UNL A   1      49.734  28.156  22.566  1.00  0.00    -0.744 OA
ENDBRANCH  60  64
ENDBRANCH  43  57
BRANCH  44  68
ATOM     68  C   UNL A   1      38.733  30.764  31.447  1.00  0.00     0.023 A 
ATOM     69  C   UNL A   1      37.753  31.558  30.825  1.00  0.00     0.031 A 
ATOM     70  C   UNL A   1      38.590  30.482  32.816  1.00  0.00     0.131 A 
ATOM     71  C   UNL A   1      36.710  32.097  31.591  1.00  0.00     0.055 A 
ATOM     72  C   UNL A   1      37.514  30.968  33.560  1.00  0.00     0.041 A 
ATOM     73  F   UNL A   1      39.516  29.749  33.454  1.00  0.00    -0.206 F 
ATOM     74  C   UNL A   1      36.577  31.795  32.951  1.00  0.00     0.022 A 
BRANCH  71  75
ATOM     75  S   UNL A   1      35.573  33.324  30.888  1.00  0.00     0.124 S 
ATOM     76  O   UNL A   1      34.340  32.556  30.755  1.00  0.00    -0.237 OA
ATOM     77  O   UNL A   1      35.566  34.353  31.927  1.00  0.00    -0.237 OA
ATOM     78  O   UNL A   1      36.215  33.711  29.636  1.00  0.00    -0.744 OA
ENDBRANCH  71  75
ENDBRANCH  44  68
BRANCH  56  79
ATOM     79  C   UNL A   1      44.676  34.069  29.593  1.00  0.00     0.023 A 
ATOM     80  C   UNL A   1      44.551  35.009  28.551  1.00  0.00     0.031 A 
ATOM     81  C   UNL A   1      45.433  34.422  30.722  1.00  0.00     0.131 A 
ATOM     82  C   UNL A   1      45.208  36.243  28.644  1.00  0.00     0.055 A 
ATOM     83  C   UNL A   1      46.051  35.669  30.829  1.00  0.00     0.041 A 
ATOM     84  F   UNL A   1      45.592  33.555  31.735  1.00  0.00    -0.206 F 
ATOM     85  C   UNL A   1      45.951  36.580  29.781  1.00  0.00     0.022 A 
BRANCH  82  86
ATOM     86  S   UNL A   1      45.197  37.419  27.263  1.00  0.00     0.124 S 
ATOM     87  O   UNL A   1      46.023  36.729  26.273  1.00  0.00    -0.237 OA
ATOM     88  O   UNL A   1      43.775  37.499  26.939  1.00  0.00    -0.237 OA
ATOM     89  O   UNL A   1      45.783  38.630  27.824  1.00  0.00    -0.744 OA
ENDBRANCH  82  86
ENDBRANCH  56  79
ENDBRANCH  30  31
ENDBRANCH  23  25
ENDBRANCH  22  23
ENDBRANCH   1  22
TORSDOF 15
ENDMDL
MODEL 2
REMARK VINA RESULT:     -11.6      4.971     10.142
REMARK SMILES C[C@H]1Cc2ccc(C3CC3)cc2[C@H](C(=O)OCCOC(=O)c2ccc(-c3c4nc(c(-c5cc(S(=O)(=O)[O-])ccc5F)c5ccc([nH]5)c(-c5cc(S(=O)(=O)[O-])ccc5F)c5nc(c(-c6cc(S(=O)(=O)[O-])ccc6F)c6ccc3[nH]6)C=C5)C=C4)cc2)[NH2+]1
REMARK SMILES IDX 18 1 17 2 16 3 14 4 15 5 13 6 1 7 2 8 3 9 85 10 4 11 5 14
REMARK SMILES IDX 12 15 6 16 11 17 7 18 8 19 9 20 10 21 19 22 20 23 21 24
REMARK SMILES IDX 22 25 23 26 84 27 24 28 83 29 25 30 26 31 27 32 77 33 28 34
REMARK SMILES IDX 82 35 76 36 78 37 29 38 81 39 75 40 74 41 30 43 62 44 42 45
REMARK SMILES IDX 61 46 43 47 46 48 60 49 79 50 44 51 45 52 59 54 80 55 47 56
REMARK SMILES IDX 31 57 32 58 40 59 33 60 39 61 41 62 38 63 34 64 35 65 36 66
REMARK SMILES IDX 37 67 63 68 64 69 72 70 65 71 71 72 73 73 70 74 66 75 67 76
REMARK SMILES IDX 68 77 69 78 48 79 49 80 57 81 50 82 56 83 58 84 55 85 51 86
REMARK SMILES IDX 52 87 53 88 54 89
REMARK H PARENT 85 12 85 13 78 42 46 53
REMARK Flexibility Score: inf
ROOT
ATOM      1  C   UNL A   1      32.066  30.284  26.637  1.00  0.00     0.275 C 
ENDROOT
BRANCH   1   2
ATOM      2  C   UNL A   1      31.774  28.815  26.327  1.00  0.00     0.274 C 
BRANCH   2   3
ATOM      3  O   UNL A   1      32.808  28.223  25.513  1.00  0.00    -0.457 OA
BRANCH   3   4
ATOM      4  C   UNL A   1      32.635  28.289  24.156  1.00  0.00     0.369 C 
ATOM      5  O   UNL A   1      32.704  29.328  23.509  1.00  0.00    -0.245 OA
BRANCH   4   6
ATOM      6  C   UNL A   1      32.289  26.889  23.579  1.00  0.00     0.325 C 
ATOM      7  C   UNL A   1      28.547  26.415  23.969  1.00  0.00     0.075 C 
ATOM      8  C   UNL A   1      29.997  26.600  24.427  1.00  0.00     0.184 C 
ATOM      9  C   UNL A   1      30.405  25.435  25.349  1.00  0.00     0.100 C 
ATOM     10  N   UNL A   1      30.856  26.714  23.241  1.00  0.00    -0.328 N 
ATOM     11  C   UNL A   1      31.891  25.187  25.420  1.00  0.00    -0.032 A 
ATOM     12  H   UNL A   1      30.551  27.520  22.695  1.00  0.00     0.347 HD
ATOM     13  H   UNL A   1      30.770  25.844  22.717  1.00  0.00     0.347 HD
ATOM     14  C   UNL A   1      32.394  24.259  26.335  1.00  0.00     0.005 A 
ATOM     15  C   UNL A   1      32.772  25.811  24.527  1.00  0.00     0.025 A 
ATOM     16  C   UNL A   1      33.755  23.941  26.343  1.00  0.00     0.004 A 
ATOM     17  C   UNL A   1      34.136  25.472  24.548  1.00  0.00     0.014 A 
ATOM     18  C   UNL A   1      34.659  24.522  25.439  1.00  0.00    -0.044 A 
BRANCH  18  19
ATOM     19  C   UNL A   1      36.118  24.116  25.460  1.00  0.00     0.019 C 
ATOM     20  C   UNL A   1      36.579  22.716  25.790  1.00  0.00     0.009 C 
ATOM     21  C   UNL A   1      36.652  23.210  24.375  1.00  0.00     0.009 C 
ENDBRANCH  18  19
ENDBRANCH   4   6
ENDBRANCH   3   4
ENDBRANCH   2   3
ENDBRANCH   1   2
BRANCH   1  22
ATOM     22  O   UNL A   1      33.482  30.528  26.605  1.00  0.00    -0.458 OA
BRANCH  22  23
ATOM     23  C   UNL A   1      33.924  31.496  27.441  1.00  0.00     0.338 C 
ATOM     24  O   UNL A   1      33.294  32.439  27.884  1.00  0.00    -0.246 OA
BRANCH  23  25
ATOM     25  C   UNL A   1      35.257  31.110  27.922  1.00  0.00     0.060 A 
ATOM     26  C   UNL A   1      36.298  32.018  28.093  1.00  0.00     0.016 A 
ATOM     27  C   UNL A   1      35.422  29.777  28.282  1.00  0.00     0.016 A 
ATOM     28  C   UNL A   1      37.514  31.563  28.626  1.00  0.00     0.010 A 
ATOM     29  C   UNL A   1      36.609  29.337  28.846  1.00  0.00     0.010 A 
ATOM     30  C   UNL A   1      37.674  30.218  29.021  1.00  0.00    -0.014 A 
BRANCH  30  31
ATOM     31  C   UNL A   1      38.890  29.728  29.721  1.00  0.00     0.031 A 
ATOM     32  C   UNL A   1      39.290  30.253  31.076  1.00  0.00     0.074 A 
ATOM     33  C   UNL A   1      39.729  28.914  29.052  1.00  0.00     0.049 A 
ATOM     34  N   UNL A   1      40.305  29.903  31.825  1.00  0.00    -0.248 NA
ATOM     35  C   UNL A   1      38.479  31.342  31.644  1.00  0.00     0.031 C 
ATOM     36  C   UNL A   1      39.550  28.492  27.661  1.00  0.00     0.029 A 
ATOM     37  N   UNL A   1      40.901  28.313  29.434  1.00  0.00    -0.354 N 
ATOM     38  C   UNL A   1      40.255  30.723  32.947  1.00  0.00     0.074 A 
ATOM     39  C   UNL A   1      39.162  31.647  32.739  1.00  0.00     0.031 C 
ATOM     40  C   UNL A   1      40.550  27.667  27.322  1.00  0.00     0.029 A 
ATOM     41  C   UNL A   1      41.447  27.506  28.463  1.00  0.00     0.049 A 
ATOM     42  H   UNL A   1      41.311  28.446  30.319  1.00  0.00     0.167 HD
ATOM     43  C   UNL A   1      41.021  30.677  34.065  1.00  0.00     0.034 A 
ATOM     44  C   UNL A   1      42.527  26.701  28.496  1.00  0.00     0.034 A 
ATOM     45  C   UNL A   1      42.089  29.728  34.257  1.00  0.00     0.049 A 
ATOM     46  C   UNL A   1      43.292  26.565  29.786  1.00  0.00     0.074 A 
ATOM     47  C   UNL A   1      42.850  29.510  35.391  1.00  0.00     0.029 A 
ATOM     48  N   UNL A   1      42.548  28.840  33.294  1.00  0.00    -0.354 N 
ATOM     49  N   UNL A   1      43.117  27.210  30.915  1.00  0.00    -0.248 NA
ATOM     50  C   UNL A   1      44.374  25.572  29.825  1.00  0.00     0.031 C 
ATOM     51  C   UNL A   1      43.795  28.524  35.102  1.00  0.00     0.029 A 
ATOM     52  C   UNL A   1      43.586  28.079  33.806  1.00  0.00     0.049 A 
ATOM     53  H   UNL A   1      42.187  28.761  32.381  1.00  0.00     0.167 HD
ATOM     54  C   UNL A   1      44.051  26.688  31.805  1.00  0.00     0.074 A 
ATOM     55  C   UNL A   1      44.770  25.653  31.089  1.00  0.00     0.031 C 
ATOM     56  C   UNL A   1      44.292  27.039  33.094  1.00  0.00     0.034 A 
BRANCH  43  57
ATOM     57  C   UNL A   1      40.696  31.615  35.207  1.00  0.00     0.023 A 
ATOM     58  C   UNL A   1      39.601  31.363  36.058  1.00  0.00     0.031 A 
ATOM     59  C   UNL A   1      41.391  32.828  35.370  1.00  0.00     0.131 A 
ATOM     60  C   UNL A   1      39.225  32.319  37.011  1.00  0.00     0.055 A 
ATOM     61  C   UNL A   1      41.041  33.754  36.352  1.00  0.00     0.041 A 
ATOM     62  F   UNL A   1      42.431  33.131  34.575  1.00  0.00    -0.206 F 
ATOM     63  C   UNL A   1      39.946  33.507  37.171  1.00  0.00     0.022 A 
BRANCH  60  64
ATOM     64  S   UNL A   1      37.744  32.100  38.039  1.00  0.00     0.124 S 
ATOM     65  O   UNL A   1      37.351  30.732  37.708  1.00  0.00    -0.237 OA
ATOM     66  O   UNL A   1      38.277  32.285  39.386  1.00  0.00    -0.237 OA
ATOM     67  O   UNL A   1      36.835  33.138  37.571  1.00  0.00    -0.744 OA
ENDBRANCH  60  64
ENDBRANCH  43  57
BRANCH  44  68
ATOM     68  C   UNL A   1      42.820  25.861  27.299  1.00  0.00     0.023 A 
ATOM     69  C   UNL A   1      42.311  24.555  27.184  1.00  0.00     0.031 A 
ATOM     70  C   UNL A   1      43.749  26.300  26.341  1.00  0.00     0.131 A 
ATOM     71  C   UNL A   1      42.790  23.713  26.170  1.00  0.00     0.055 A 
ATOM     72  C   UNL A   1      44.174  25.479  25.296  1.00  0.00     0.041 A 
ATOM     73  F   UNL A   1      44.278  27.530  26.428  1.00  0.00    -0.206 F 
ATOM     74  C   UNL A   1      43.707  24.171  25.218  1.00  0.00     0.022 A 
BRANCH  71  75
ATOM     75  S   UNL A   1      42.354  21.952  26.137  1.00  0.00     0.124 S 
ATOM     76  O   UNL A   1      42.663  21.536  27.502  1.00  0.00    -0.237 OA
ATOM     77  O   UNL A   1      40.932  22.003  25.801  1.00  0.00    -0.237 OA
ATOM     78  O   UNL A   1      43.219  21.402  25.099  1.00  0.00    -0.744 OA
ENDBRANCH  71  75
ENDBRANCH  44  68
BRANCH  56  79
ATOM     79  C   UNL A   1      45.381  26.318  33.849  1.00  0.00     0.023 A 
ATOM     80  C   UNL A   1      45.087  25.128  34.544  1.00  0.00     0.031 A 
ATOM     81  C   UNL A   1      46.654  26.888  34.014  1.00  0.00     0.131 A 
ATOM     82  C   UNL A   1      46.043  24.569  35.403  1.00  0.00     0.055 A 
ATOM     83  C   UNL A   1      47.618  26.304  34.837  1.00  0.00     0.041 A 
ATOM     84  F   UNL A   1      46.978  28.029  33.383  1.00  0.00    -0.206 F 
ATOM     85  C   UNL A   1      47.308  25.147  35.547  1.00  0.00     0.022 A 
BRANCH  82  86
ATOM     86  S   UNL A   1      45.651  23.125  36.429  1.00  0.00     0.124 S 
ATOM     87  O   UNL A   1      45.303  23.747  37.705  1.00  0.00    -0.237 OA
ATOM     88  O   UNL A   1      44.533  22.527  35.704  1.00  0.00    -0.237 OA
ATOM     89  O   UNL A   1      46.885  22.349  36.433  1.00  0.00    -0.744 OA
ENDBRANCH  82  86
ENDBRANCH  56  79
ENDBRANCH  30  31
ENDBRANCH  23  25
ENDBRANCH  22  23
ENDBRANCH   1  22
TORSDOF 15
ENDMDL
MODEL 3
REMARK VINA RESULT:     -11.4      1.112      7.794
REMARK SMILES C[C@H]1Cc2ccc(C3CC3)cc2[C@H](C(=O)OCCOC(=O)c2ccc(-c3c4nc(c(-c5cc(S(=O)(=O)[O-])ccc5F)c5ccc([nH]5)c(-c5cc(S(=O)(=O)[O-])ccc5F)c5nc(c(-c6cc(S(=O)(=O)[O-])ccc6F)c6ccc3[nH]6)C=C5)C=C4)cc2)[NH2+]1
REMARK SMILES IDX 18 1 17 2 16 3 14 4 15 5 13 6 1 7 2 8 3 9 85 10 4 11 5 14
REMARK SMILES IDX 12 15 6 16 11 17 7 18 8 19 9 20 10 21 19 22 20 23 21 24
REMARK SMILES IDX 22 25 23 26 84 27 24 28 83 29 25 30 26 31 27 32 77 33 28 34
REMARK SMILES IDX 82 35 76 36 78 37 29 38 81 39 75 40 74 41 30 43 62 44 42 45
REMARK SMILES IDX 61 46 43 47 46 48 60 49 79 50 44 51 45 52 59 54 80 55 47 56
REMARK SMILES IDX 31 57 32 58 40 59 33 60 39 61 41 62 38 63 34 64 35 65 36 66
REMARK SMILES IDX 37 67 63 68 64 69 72 70 65 71 71 72 73 73 70 74 66 75 67 76
REMARK SMILES IDX 68 77 69 78 48 79 49 80 57 81 50 82 56 83 58 84 55 85 51 86
REMARK SMILES IDX 52 87 53 88 54 89
REMARK H PARENT 85 12 85 13 78 42 46 53
REMARK Flexibility Score: inf
ROOT
ATOM      1  C   UNL A   1      38.526  19.690  25.413  1.00  0.00     0.275 C 
ENDROOT
BRANCH   1   2
ATOM      2  C   UNL A   1      37.434  20.558  24.785  1.00  0.00     0.274 C 
BRANCH   2   3
ATOM      3  O   UNL A   1      36.787  21.397  25.764  1.00  0.00    -0.457 OA
BRANCH   3   4
ATOM      4  C   UNL A   1      35.750  22.173  25.319  1.00  0.00     0.369 C 
ATOM      5  O   UNL A   1      35.807  22.879  24.319  1.00  0.00    -0.245 OA
BRANCH   4   6
ATOM      6  C   UNL A   1      34.536  22.072  26.283  1.00  0.00     0.325 C 
ATOM      7  C   UNL A   1      32.842  18.750  25.600  1.00  0.00     0.075 C 
ATOM      8  C   UNL A   1      33.327  20.171  25.295  1.00  0.00     0.184 C 
ATOM      9  C   UNL A   1      32.133  21.050  24.877  1.00  0.00     0.100 C 
ATOM     10  N   UNL A   1      34.032  20.692  26.474  1.00  0.00    -0.328 N 
ATOM     11  C   UNL A   1      32.346  22.529  25.084  1.00  0.00    -0.032 A 
ATOM     12  H   UNL A   1      34.825  20.082  26.674  1.00  0.00     0.347 HD
ATOM     13  H   UNL A   1      33.365  20.714  27.244  1.00  0.00     0.347 HD
ATOM     14  C   UNL A   1      31.398  23.437  24.606  1.00  0.00     0.005 A 
ATOM     15  C   UNL A   1      33.437  23.007  25.821  1.00  0.00     0.025 A 
ATOM     16  C   UNL A   1      31.527  24.802  24.878  1.00  0.00     0.004 A 
ATOM     17  C   UNL A   1      33.544  24.383  26.089  1.00  0.00     0.014 A 
ATOM     18  C   UNL A   1      32.590  25.310  25.643  1.00  0.00    -0.044 A 
BRANCH  18  19
ATOM     19  C   UNL A   1      32.664  26.792  25.947  1.00  0.00     0.019 C 
ATOM     20  C   UNL A   1      31.556  27.759  25.606  1.00  0.00     0.009 C 
ATOM     21  C   UNL A   1      31.794  27.371  27.036  1.00  0.00     0.009 C 
ENDBRANCH  18  19
ENDBRANCH   4   6
ENDBRANCH   3   4
ENDBRANCH   2   3
ENDBRANCH   1   2
BRANCH   1  22
ATOM     22  O   UNL A   1      39.740  20.446  25.559  1.00  0.00    -0.458 OA
BRANCH  22  23
ATOM     23  C   UNL A   1      40.332  20.365  26.773  1.00  0.00     0.338 C 
ATOM     24  O   UNL A   1      40.673  19.358  27.367  1.00  0.00    -0.246 OA
BRANCH  23  25
ATOM     25  C   UNL A   1      40.712  21.722  27.187  1.00  0.00     0.060 A 
ATOM     26  C   UNL A   1      41.640  21.980  28.192  1.00  0.00     0.016 A 
ATOM     27  C   UNL A   1      40.152  22.769  26.465  1.00  0.00     0.016 A 
ATOM     28  C   UNL A   1      41.989  23.312  28.467  1.00  0.00     0.010 A 
ATOM     29  C   UNL A   1      40.527  24.080  26.709  1.00  0.00     0.010 A 
ATOM     30  C   UNL A   1      41.445  24.373  27.715  1.00  0.00    -0.014 A 
BRANCH  30  31
ATOM     31  C   UNL A   1      41.894  25.781  27.874  1.00  0.00     0.031 A 
ATOM     32  C   UNL A   1      41.030  26.818  28.543  1.00  0.00     0.074 A 
ATOM     33  C   UNL A   1      43.033  26.161  27.263  1.00  0.00     0.049 A 
ATOM     34  N   UNL A   1      41.294  28.078  28.781  1.00  0.00    -0.248 NA
ATOM     35  C   UNL A   1      39.677  26.406  28.954  1.00  0.00     0.031 C 
ATOM     36  C   UNL A   1      43.858  25.294  26.420  1.00  0.00     0.029 A 
ATOM     37  N   UNL A   1      43.684  27.369  27.236  1.00  0.00    -0.354 N 
ATOM     38  C   UNL A   1      40.149  28.606  29.368  1.00  0.00     0.074 A 
ATOM     39  C   UNL A   1      39.158  27.554  29.368  1.00  0.00     0.031 C 
ATOM     40  C   UNL A   1      44.926  25.983  25.996  1.00  0.00     0.029 A 
ATOM     41  C   UNL A   1      44.861  27.343  26.526  1.00  0.00     0.049 A 
ATOM     42  H   UNL A   1      43.341  28.176  27.684  1.00  0.00     0.167 HD
ATOM     43  C   UNL A   1      39.961  29.840  29.898  1.00  0.00     0.034 A 
ATOM     44  C   UNL A   1      45.800  28.292  26.348  1.00  0.00     0.034 A 
ATOM     45  C   UNL A   1      40.977  30.863  29.907  1.00  0.00     0.049 A 
ATOM     46  C   UNL A   1      45.636  29.615  27.049  1.00  0.00     0.074 A 
ATOM     47  C   UNL A   1      40.940  32.103  30.519  1.00  0.00     0.029 A 
ATOM     48  N   UNL A   1      42.209  30.767  29.277  1.00  0.00    -0.354 N 
ATOM     49  N   UNL A   1      44.626  30.043  27.769  1.00  0.00    -0.248 NA
ATOM     50  C   UNL A   1      46.746  30.572  26.949  1.00  0.00     0.031 C 
ATOM     51  C   UNL A   1      42.129  32.773  30.223  1.00  0.00     0.029 A 
ATOM     52  C   UNL A   1      42.937  31.929  29.478  1.00  0.00     0.049 A 
ATOM     53  H   UNL A   1      42.522  29.988  28.762  1.00  0.00     0.167 HD
ATOM     54  C   UNL A   1      44.986  31.307  28.225  1.00  0.00     0.074 A 
ATOM     55  C   UNL A   1      46.321  31.564  27.721  1.00  0.00     0.031 C 
ATOM     56  C   UNL A   1      44.272  32.176  28.986  1.00  0.00     0.034 A 
BRANCH  43  57
ATOM     57  C   UNL A   1      38.648  30.142  30.586  1.00  0.00     0.023 A 
ATOM     58  C   UNL A   1      37.656  30.908  29.944  1.00  0.00     0.031 A 
ATOM     59  C   UNL A   1      38.435  29.783  31.931  1.00  0.00     0.131 A 
ATOM     60  C   UNL A   1      36.514  31.306  30.653  1.00  0.00     0.055 A 
ATOM     61  C   UNL A   1      37.275  30.141  32.617  1.00  0.00     0.041 A 
ATOM     62  F   UNL A   1      39.355  29.069  32.601  1.00  0.00    -0.206 F 
ATOM     63  C   UNL A   1      36.313  30.916  31.981  1.00  0.00     0.022 A 
BRANCH  60  64
ATOM     64  S   UNL A   1      35.272  32.403  29.911  1.00  0.00     0.124 S 
ATOM     65  O   UNL A   1      34.759  31.579  28.819  1.00  0.00    -0.237 OA
ATOM     66  O   UNL A   1      34.346  32.611  31.020  1.00  0.00    -0.237 OA
ATOM     67  O   UNL A   1      36.038  33.573  29.500  1.00  0.00    -0.744 OA
ENDBRANCH  60  64
ENDBRANCH  43  57
BRANCH  44  68
ATOM     68  C   UNL A   1      47.036  27.933  25.594  1.00  0.00     0.023 A 
ATOM     69  C   UNL A   1      47.160  28.216  24.222  1.00  0.00     0.031 A 
ATOM     70  C   UNL A   1      48.032  27.154  26.206  1.00  0.00     0.131 A 
ATOM     71  C   UNL A   1      48.223  27.663  23.495  1.00  0.00     0.055 A 
ATOM     72  C   UNL A   1      49.123  26.660  25.491  1.00  0.00     0.041 A 
ATOM     73  F   UNL A   1      47.939  26.840  27.507  1.00  0.00    -0.206 F 
ATOM     74  C   UNL A   1      49.213  26.898  24.124  1.00  0.00     0.022 A 
BRANCH  71  75
ATOM     75  S   UNL A   1      48.282  27.790  21.686  1.00  0.00     0.124 S 
ATOM     76  O   UNL A   1      48.606  26.422  21.295  1.00  0.00    -0.237 OA
ATOM     77  O   UNL A   1      46.924  28.230  21.374  1.00  0.00    -0.237 OA
ATOM     78  O   UNL A   1      49.327  28.779  21.444  1.00  0.00    -0.744 OA
ENDBRANCH  71  75
ENDBRANCH  44  68
BRANCH  56  79
ATOM     79  C   UNL A   1      44.891  33.506  29.339  1.00  0.00     0.023 A 
ATOM     80  C   UNL A   1      44.733  34.608  28.475  1.00  0.00     0.031 A 
ATOM     81  C   UNL A   1      45.761  33.638  30.434  1.00  0.00     0.131 A 
ATOM     82  C   UNL A   1      45.467  35.780  28.700  1.00  0.00     0.055 A 
ATOM     83  C   UNL A   1      46.458  34.823  30.678  1.00  0.00     0.041 A 
ATOM     84  F   UNL A   1      45.955  32.612  31.278  1.00  0.00    -0.206 F 
ATOM     85  C   UNL A   1      46.322  35.895  29.800  1.00  0.00     0.022 A 
BRANCH  82  86
ATOM     86  S   UNL A   1      45.407  37.163  27.527  1.00  0.00     0.124 S 
ATOM     87  O   UNL A   1      45.841  38.283  28.360  1.00  0.00    -0.237 OA
ATOM     88  O   UNL A   1      46.361  36.742  26.505  1.00  0.00    -0.237 OA
ATOM     89  O   UNL A   1      44.012  37.208  27.105  1.00  0.00    -0.744 OA
ENDBRANCH  82  86
ENDBRANCH  56  79
ENDBRANCH  30  31
ENDBRANCH  23  25
ENDBRANCH  22  23
ENDBRANCH   1  22
TORSDOF 15
ENDMDL
