MODEL 1
REMARK VINA RESULT:     -12.2      0.000      0.000
REMARK SMILES CS(=O)(=O)c1ccc(N2N=C(C(=O)OCCOC(=O)c3ccc(-c4c5nc(c(-c6cc(S(=O)(=O)[O-])ccc6F)c6ccc([nH]6)c(-c6cc(S(=O)(=O)[O-])ccc6F)c6nc(c(-c7cc(S(=O)(=O)[O-])ccc7F)c7ccc4[nH]7)C=C6)C=C5)cc3)C[C@H]2c2ccco2)cc1
REMARK SMILES IDX 16 1 15 2 14 3 12 4 13 5 11 6 9 7 10 8 84 9 83 10 8 11 5 12
REMARK SMILES IDX 6 13 91 14 7 15 90 16 2 17 1 18 3 19 4 20 85 21 86 22 89 23
REMARK SMILES IDX 87 24 88 25 17 26 18 27 19 28 20 29 21 30 82 31 22 32 81 33
REMARK SMILES IDX 23 34 24 35 25 36 75 37 26 38 80 39 74 40 76 41 27 42 79 43
REMARK SMILES IDX 73 44 72 45 28 47 60 48 40 49 59 50 41 51 44 52 58 53 77 54
REMARK SMILES IDX 42 55 43 56 57 58 78 59 45 60 29 61 30 62 38 63 31 64 37 65
REMARK SMILES IDX 39 66 36 67 32 68 33 69 34 70 35 71 61 72 62 73 70 74 63 75
REMARK SMILES IDX 69 76 71 77 68 78 64 79 65 80 66 81 67 82 46 83 47 84 55 85
REMARK SMILES IDX 48 86 54 87 56 88 53 89 49 90 50 91 51 92 52 93
REMARK H PARENT 76 46 44 57
REMARK Flexibility Score: inf
ROOT
ATOM      1  C   UNL A   1      36.476  21.175  24.680  1.00  0.00     0.275 C 
ENDROOT
BRANCH   1   2
ATOM      2  C   UNL A   1      34.997  21.571  24.670  1.00  0.00     0.275 C 
BRANCH   2   3
ATOM      3  O   UNL A   1      34.901  22.979  24.923  1.00  0.00    -0.458 OA
BRANCH   3   4
ATOM      4  C   UNL A   1      34.602  23.752  23.864  1.00  0.00     0.354 C 
ATOM      5  O   UNL A   1      35.062  23.699  22.740  1.00  0.00    -0.245 OA
BRANCH   4   6
ATOM      6  C   UNL A   1      33.520  24.698  24.299  1.00  0.00     0.148 C 
ATOM      7  N   UNL A   1      31.913  26.058  24.230  1.00  0.00    -0.254 N 
ATOM      8  N   UNL A   1      32.888  25.478  23.474  1.00  0.00    -0.169 NA
ATOM      9  C   UNL A   1      32.145  25.913  25.672  1.00  0.00     0.180 C 
ATOM     10  C   UNL A   1      33.016  24.654  25.706  1.00  0.00     0.101 C 
BRANCH   7  11
ATOM     11  C   UNL A   1      31.040  27.004  23.711  1.00  0.00     0.060 A 
ATOM     12  C   UNL A   1      29.252  28.959  22.773  1.00  0.00     0.067 A 
ATOM     13  C   UNL A   1      28.761  27.776  23.332  1.00  0.00     0.022 A 
ATOM     14  C   UNL A   1      30.626  29.159  22.642  1.00  0.00     0.022 A 
ATOM     15  C   UNL A   1      29.654  26.817  23.812  1.00  0.00     0.029 A 
ATOM     16  C   UNL A   1      31.509  28.172  23.094  1.00  0.00     0.029 A 
BRANCH  12  17
ATOM     17  S   UNL A   1      28.061  30.180  22.275  1.00  0.00     0.175 S 
ATOM     18  C   UNL A   1      28.742  31.774  22.652  1.00  0.00     0.163 C 
ATOM     19  O   UNL A   1      26.904  29.969  23.128  1.00  0.00    -0.224 OA
ATOM     20  O   UNL A   1      27.943  30.072  20.834  1.00  0.00    -0.224 OA
ENDBRANCH  12  17
ENDBRANCH   7  11
BRANCH   9  21
ATOM     21  C   UNL A   1      32.823  27.102  26.305  1.00  0.00     0.128 A 
ATOM     22  C   UNL A   1      32.408  28.016  27.255  1.00  0.00     0.048 A 
ATOM     23  O   UNL A   1      34.071  27.444  25.856  1.00  0.00    -0.467 OA
ATOM     24  C   UNL A   1      33.448  28.970  27.380  1.00  0.00     0.042 A 
ATOM     25  C   UNL A   1      34.432  28.580  26.503  1.00  0.00     0.195 A 
ENDBRANCH   9  21
ENDBRANCH   4   6
ENDBRANCH   3   4
ENDBRANCH   2   3
ENDBRANCH   1   2
BRANCH   1  26
ATOM     26  O   UNL A   1      37.124  21.733  25.839  1.00  0.00    -0.458 OA
BRANCH  26  27
ATOM     27  C   UNL A   1      38.447  21.449  25.956  1.00  0.00     0.338 C 
ATOM     28  O   UNL A   1      39.003  20.420  25.602  1.00  0.00    -0.246 OA
BRANCH  27  29
ATOM     29  C   UNL A   1      39.167  22.642  26.449  1.00  0.00     0.060 A 
ATOM     30  C   UNL A   1      38.702  23.898  26.046  1.00  0.00     0.016 A 
ATOM     31  C   UNL A   1      40.274  22.542  27.300  1.00  0.00     0.016 A 
ATOM     32  C   UNL A   1      39.334  25.055  26.499  1.00  0.00     0.010 A 
ATOM     33  C   UNL A   1      40.916  23.703  27.743  1.00  0.00     0.010 A 
ATOM     34  C   UNL A   1      40.449  24.964  27.341  1.00  0.00    -0.014 A 
BRANCH  34  35
ATOM     35  C   UNL A   1      41.138  26.202  27.764  1.00  0.00     0.031 A 
ATOM     36  C   UNL A   1      42.567  26.432  27.370  1.00  0.00     0.074 A 
ATOM     37  C   UNL A   1      40.469  27.133  28.467  1.00  0.00     0.049 A 
ATOM     38  N   UNL A   1      43.319  27.486  27.558  1.00  0.00    -0.248 NA
ATOM     39  C   UNL A   1      43.236  25.322  26.678  1.00  0.00     0.031 C 
ATOM     40  C   UNL A   1      39.081  27.021  28.915  1.00  0.00     0.029 A 
ATOM     41  N   UNL A   1      40.874  28.360  28.923  1.00  0.00    -0.354 N 
ATOM     42  C   UNL A   1      44.542  27.183  26.976  1.00  0.00     0.074 A 
ATOM     43  C   UNL A   1      44.444  25.828  26.471  1.00  0.00     0.031 C 
ATOM     44  C   UNL A   1      38.751  28.136  29.590  1.00  0.00     0.029 A 
ATOM     45  C   UNL A   1      39.898  29.039  29.608  1.00  0.00     0.049 A 
ATOM     46  H   UNL A   1      41.777  28.720  28.772  1.00  0.00     0.167 HD
ATOM     47  C   UNL A   1      45.646  27.965  26.863  1.00  0.00     0.034 A 
ATOM     48  C   UNL A   1      39.927  30.258  30.176  1.00  0.00     0.034 A 
ATOM     49  C   UNL A   1      45.757  29.294  27.408  1.00  0.00     0.049 A 
ATOM     50  C   UNL A   1      41.163  31.102  30.059  1.00  0.00     0.074 A 
ATOM     51  C   UNL A   1      46.837  30.159  27.377  1.00  0.00     0.029 A 
ATOM     52  N   UNL A   1      44.746  29.949  28.099  1.00  0.00    -0.354 N 
ATOM     53  N   UNL A   1      42.309  30.810  29.494  1.00  0.00    -0.248 NA
ATOM     54  C   UNL A   1      41.096  32.450  30.639  1.00  0.00     0.031 C 
ATOM     55  C   UNL A   1      46.491  31.321  28.082  1.00  0.00     0.029 A 
ATOM     56  C   UNL A   1      45.183  31.197  28.517  1.00  0.00     0.049 A 
ATOM     57  H   UNL A   1      43.848  29.581  28.267  1.00  0.00     0.167 HD
ATOM     58  C   UNL A   1      43.104  31.939  29.651  1.00  0.00     0.074 A 
ATOM     59  C   UNL A   1      42.301  32.922  30.353  1.00  0.00     0.031 C 
ATOM     60  C   UNL A   1      44.381  32.148  29.244  1.00  0.00     0.034 A 
BRANCH  47  61
ATOM     61  C   UNL A   1      46.828  27.357  26.156  1.00  0.00     0.023 A 
ATOM     62  C   UNL A   1      47.829  26.673  26.869  1.00  0.00     0.031 A 
ATOM     63  C   UNL A   1      46.987  27.519  24.771  1.00  0.00     0.131 A 
ATOM     64  C   UNL A   1      48.978  26.226  26.200  1.00  0.00     0.055 A 
ATOM     65  C   UNL A   1      48.109  27.026  24.102  1.00  0.00     0.041 A 
ATOM     66  F   UNL A   1      46.072  28.187  24.052  1.00  0.00    -0.206 F 
ATOM     67  C   UNL A   1      49.117  26.386  24.819  1.00  0.00     0.022 A 
BRANCH  64  68
ATOM     68  S   UNL A   1      50.351  25.551  27.175  1.00  0.00     0.124 S 
ATOM     69  O   UNL A   1      51.409  25.442  26.174  1.00  0.00    -0.237 OA
ATOM     70  O   UNL A   1      50.540  26.572  28.199  1.00  0.00    -0.237 OA
ATOM     71  O   UNL A   1      49.832  24.273  27.658  1.00  0.00    -0.744 OA
ENDBRANCH  64  68
ENDBRANCH  47  61
BRANCH  48  72
ATOM     72  C   UNL A   1      38.741  30.757  30.909  1.00  0.00     0.023 A 
ATOM     73  C   UNL A   1      37.714  31.435  30.239  1.00  0.00     0.031 A 
ATOM     74  C   UNL A   1      38.628  30.559  32.294  1.00  0.00     0.131 A 
ATOM     75  C   UNL A   1      36.615  31.916  30.964  1.00  0.00     0.055 A 
ATOM     76  C   UNL A   1      37.527  31.028  33.010  1.00  0.00     0.041 A 
ATOM     77  F   UNL A   1      39.588  29.902  32.965  1.00  0.00    -0.206 F 
ATOM     78  C   UNL A   1      36.513  31.714  32.344  1.00  0.00     0.022 A 
BRANCH  75  79
ATOM     79  S   UNL A   1      35.305  32.799  30.072  1.00  0.00     0.124 S 
ATOM     80  O   UNL A   1      34.824  31.771  29.155  1.00  0.00    -0.237 OA
ATOM     81  O   UNL A   1      34.393  33.171  31.149  1.00  0.00    -0.237 OA
ATOM     82  O   UNL A   1      36.013  33.914  29.448  1.00  0.00    -0.744 OA
ENDBRANCH  75  79
ENDBRANCH  48  72
BRANCH  60  83
ATOM     83  C   UNL A   1      44.972  33.493  29.558  1.00  0.00     0.023 A 
ATOM     84  C   UNL A   1      44.772  34.592  28.705  1.00  0.00     0.031 A 
ATOM     85  C   UNL A   1      45.763  33.668  30.706  1.00  0.00     0.131 A 
ATOM     86  C   UNL A   1      45.386  35.818  28.998  1.00  0.00     0.055 A 
ATOM     87  C   UNL A   1      46.350  34.898  31.005  1.00  0.00     0.041 A 
ATOM     88  F   UNL A   1      45.987  32.643  31.543  1.00  0.00    -0.206 F 
ATOM     89  C   UNL A   1      46.170  35.978  30.144  1.00  0.00     0.022 A 
BRANCH  86  90
ATOM     90  S   UNL A   1      45.204  37.188  27.822  1.00  0.00     0.124 S 
ATOM     91  O   UNL A   1      46.578  37.664  27.686  1.00  0.00    -0.237 OA
ATOM     92  O   UNL A   1      44.641  36.522  26.652  1.00  0.00    -0.237 OA
ATOM     93  O   UNL A   1      44.297  38.109  28.506  1.00  0.00    -0.744 OA
ENDBRANCH  86  90
ENDBRANCH  60  83
ENDBRANCH  34  35
ENDBRANCH  27  29
ENDBRANCH  26  27
ENDBRANCH   1  26
TORSDOF 17
ENDMDL
MODEL 2
REMARK VINA RESULT:     -11.9      5.158      7.619
REMARK SMILES CS(=O)(=O)c1ccc(N2N=C(C(=O)OCCOC(=O)c3ccc(-c4c5nc(c(-c6cc(S(=O)(=O)[O-])ccc6F)c6ccc([nH]6)c(-c6cc(S(=O)(=O)[O-])ccc6F)c6nc(c(-c7cc(S(=O)(=O)[O-])ccc7F)c7ccc4[nH]7)C=C6)C=C5)cc3)C[C@H]2c2ccco2)cc1
REMARK SMILES IDX 16 1 15 2 14 3 12 4 13 5 11 6 9 7 10 8 84 9 83 10 8 11 5 12
REMARK SMILES IDX 6 13 91 14 7 15 90 16 2 17 1 18 3 19 4 20 85 21 86 22 89 23
REMARK SMILES IDX 87 24 88 25 17 26 18 27 19 28 20 29 21 30 82 31 22 32 81 33
REMARK SMILES IDX 23 34 24 35 25 36 75 37 26 38 80 39 74 40 76 41 27 42 79 43
REMARK SMILES IDX 73 44 72 45 28 47 60 48 40 49 59 50 41 51 44 52 58 53 77 54
REMARK SMILES IDX 42 55 43 56 57 58 78 59 45 60 29 61 30 62 38 63 31 64 37 65
REMARK SMILES IDX 39 66 36 67 32 68 33 69 34 70 35 71 61 72 62 73 70 74 63 75
REMARK SMILES IDX 69 76 71 77 68 78 64 79 65 80 66 81 67 82 46 83 47 84 55 85
REMARK SMILES IDX 48 86 54 87 56 88 53 89 49 90 50 91 51 92 52 93
REMARK H PARENT 76 46 44 57
REMARK Flexibility Score: inf
ROOT
ATOM      1  C   UNL A   1      31.815  29.651  24.994  1.00  0.00     0.275 C 
ENDROOT
BRANCH   1   2
ATOM      2  C   UNL A   1      31.994  28.779  23.748  1.00  0.00     0.275 C 
BRANCH   2   3
ATOM      3  O   UNL A   1      33.325  28.246  23.753  1.00  0.00    -0.458 OA
BRANCH   3   4
ATOM      4  C   UNL A   1      33.552  27.216  22.917  1.00  0.00     0.354 C 
ATOM      5  O   UNL A   1      33.826  27.254  21.734  1.00  0.00    -0.245 OA
BRANCH   4   6
ATOM      6  C   UNL A   1      33.462  25.959  23.732  1.00  0.00     0.148 C 
ATOM      7  N   UNL A   1      33.453  23.919  24.259  1.00  0.00    -0.254 N 
ATOM      8  N   UNL A   1      33.371  24.776  23.202  1.00  0.00    -0.169 NA
ATOM      9  C   UNL A   1      33.236  24.581  25.551  1.00  0.00     0.180 C 
ATOM     10  C   UNL A   1      33.640  26.020  25.217  1.00  0.00     0.101 C 
BRANCH   7  11
ATOM     11  C   UNL A   1      33.349  22.543  24.105  1.00  0.00     0.060 A 
ATOM     12  C   UNL A   1      33.077  19.754  23.897  1.00  0.00     0.067 A 
ATOM     13  C   UNL A   1      34.037  20.299  24.755  1.00  0.00     0.022 A 
ATOM     14  C   UNL A   1      32.280  20.587  23.113  1.00  0.00     0.022 A 
ATOM     15  C   UNL A   1      34.154  21.685  24.867  1.00  0.00     0.029 A 
ATOM     16  C   UNL A   1      32.435  21.974  23.209  1.00  0.00     0.029 A 
BRANCH  12  17
ATOM     17  S   UNL A   1      32.912  17.985  23.879  1.00  0.00     0.175 S 
ATOM     18  C   UNL A   1      34.494  17.298  24.295  1.00  0.00     0.163 C 
ATOM     19  O   UNL A   1      32.615  17.633  22.501  1.00  0.00    -0.224 OA
ATOM     20  O   UNL A   1      31.984  17.650  24.941  1.00  0.00    -0.224 OA
ENDBRANCH  12  17
ENDBRANCH   7  11
BRANCH   9  21
ATOM     21  C   UNL A   1      31.820  24.482  26.060  1.00  0.00     0.128 A 
ATOM     22  C   UNL A   1      31.108  23.449  26.638  1.00  0.00     0.048 A 
ATOM     23  O   UNL A   1      31.001  25.566  25.893  1.00  0.00    -0.467 OA
ATOM     24  C   UNL A   1      29.785  23.922  26.819  1.00  0.00     0.042 A 
ATOM     25  C   UNL A   1      29.771  25.212  26.344  1.00  0.00     0.195 A 
ENDBRANCH   9  21
ENDBRANCH   4   6
ENDBRANCH   3   4
ENDBRANCH   2   3
ENDBRANCH   1   2
BRANCH   1  26
ATOM     26  O   UNL A   1      33.100  30.101  25.464  1.00  0.00    -0.458 OA
BRANCH  26  27
ATOM     27  C   UNL A   1      33.066  30.913  26.553  1.00  0.00     0.338 C 
ATOM     28  O   UNL A   1      32.137  31.631  26.895  1.00  0.00    -0.246 OA
BRANCH  27  29
ATOM     29  C   UNL A   1      34.279  30.695  27.370  1.00  0.00     0.060 A 
ATOM     30  C   UNL A   1      34.611  29.379  27.707  1.00  0.00     0.016 A 
ATOM     31  C   UNL A   1      35.087  31.756  27.794  1.00  0.00     0.016 A 
ATOM     32  C   UNL A   1      35.755  29.118  28.459  1.00  0.00     0.010 A 
ATOM     33  C   UNL A   1      36.227  31.494  28.561  1.00  0.00     0.010 A 
ATOM     34  C   UNL A   1      36.564  30.174  28.898  1.00  0.00    -0.014 A 
BRANCH  34  35
ATOM     35  C   UNL A   1      37.742  29.879  29.742  1.00  0.00     0.031 A 
ATOM     36  C   UNL A   1      38.846  29.016  29.206  1.00  0.00     0.074 A 
ATOM     37  C   UNL A   1      37.835  30.417  30.970  1.00  0.00     0.049 A 
ATOM     38  N   UNL A   1      39.999  28.716  29.745  1.00  0.00    -0.248 NA
ATOM     39  C   UNL A   1      38.613  28.407  27.889  1.00  0.00     0.031 C 
ATOM     40  C   UNL A   1      36.825  31.264  31.604  1.00  0.00     0.029 A 
ATOM     41  N   UNL A   1      38.836  30.328  31.903  1.00  0.00    -0.354 N 
ATOM     42  C   UNL A   1      40.649  27.911  28.820  1.00  0.00     0.074 A 
ATOM     43  C   UNL A   1      39.739  27.732  27.706  1.00  0.00     0.031 C 
ATOM     44  C   UNL A   1      37.257  31.614  32.828  1.00  0.00     0.029 A 
ATOM     45  C   UNL A   1      38.574  31.026  33.054  1.00  0.00     0.049 A 
ATOM     46  H   UNL A   1      39.663  29.814  31.759  1.00  0.00     0.167 HD
ATOM     47  C   UNL A   1      41.894  27.375  28.886  1.00  0.00     0.034 A 
ATOM     48  C   UNL A   1      39.321  31.180  34.163  1.00  0.00     0.034 A 
ATOM     49  C   UNL A   1      42.778  27.515  30.016  1.00  0.00     0.049 A 
ATOM     50  C   UNL A   1      40.688  30.564  34.228  1.00  0.00     0.074 A 
ATOM     51  C   UNL A   1      44.045  26.990  30.199  1.00  0.00     0.029 A 
ATOM     52  N   UNL A   1      42.476  28.229  31.168  1.00  0.00    -0.354 N 
ATOM     53  N   UNL A   1      41.298  29.815  33.340  1.00  0.00    -0.248 NA
ATOM     54  C   UNL A   1      41.475  30.836  35.438  1.00  0.00     0.031 C 
ATOM     55  C   UNL A   1      44.494  27.355  31.476  1.00  0.00     0.029 A 
ATOM     56  C   UNL A   1      43.523  28.141  32.073  1.00  0.00     0.049 A 
ATOM     57  H   UNL A   1      41.640  28.727  31.320  1.00  0.00     0.167 HD
ATOM     58  C   UNL A   1      42.543  29.524  33.885  1.00  0.00     0.074 A 
ATOM     59  C   UNL A   1      42.601  30.188  35.174  1.00  0.00     0.031 C 
ATOM     60  C   UNL A   1      43.550  28.780  33.364  1.00  0.00     0.034 A 
BRANCH  47  61
ATOM     61  C   UNL A   1      42.332  26.551  27.705  1.00  0.00     0.023 A 
ATOM     62  C   UNL A   1      41.929  25.210  27.564  1.00  0.00     0.031 A 
ATOM     63  C   UNL A   1      43.211  27.087  26.751  1.00  0.00     0.131 A 
ATOM     64  C   UNL A   1      42.452  24.432  26.521  1.00  0.00     0.055 A 
ATOM     65  C   UNL A   1      43.687  26.322  25.685  1.00  0.00     0.041 A 
ATOM     66  F   UNL A   1      43.645  28.352  26.857  1.00  0.00    -0.206 F 
ATOM     67  C   UNL A   1      43.317  24.984  25.573  1.00  0.00     0.022 A 
BRANCH  64  68
ATOM     68  S   UNL A   1      42.094  22.653  26.493  1.00  0.00     0.124 S 
ATOM     69  O   UNL A   1      42.905  22.163  27.604  1.00  0.00    -0.237 OA
ATOM     70  O   UNL A   1      40.650  22.621  26.690  1.00  0.00    -0.237 OA
ATOM     71  O   UNL A   1      42.551  22.234  25.170  1.00  0.00    -0.744 OA
ENDBRANCH  64  68
ENDBRANCH  47  61
BRANCH  48  72
ATOM     72  C   UNL A   1      38.789  31.955  35.307  1.00  0.00     0.023 A 
ATOM     73  C   UNL A   1      38.204  31.308  36.404  1.00  0.00     0.031 A 
ATOM     74  C   UNL A   1      38.859  33.357  35.308  1.00  0.00     0.131 A 
ATOM     75  C   UNL A   1      37.687  32.070  37.461  1.00  0.00     0.055 A 
ATOM     76  C   UNL A   1      38.356  34.111  36.368  1.00  0.00     0.041 A 
ATOM     77  F   UNL A   1      39.425  34.008  34.279  1.00  0.00    -0.206 F 
ATOM     78  C   UNL A   1      37.762  33.466  37.452  1.00  0.00     0.022 A 
BRANCH  75  79
ATOM     79  S   UNL A   1      36.928  31.206  38.864  1.00  0.00     0.124 S 
ATOM     80  O   UNL A   1      36.877  29.833  38.376  1.00  0.00    -0.237 OA
ATOM     81  O   UNL A   1      37.879  31.466  39.940  1.00  0.00    -0.237 OA
ATOM     82  O   UNL A   1      35.633  31.869  39.008  1.00  0.00    -0.744 OA
ENDBRANCH  75  79
ENDBRANCH  48  72
BRANCH  60  83
ATOM     83  C   UNL A   1      44.791  28.656  34.201  1.00  0.00     0.023 A 
ATOM     84  C   UNL A   1      44.939  27.615  35.132  1.00  0.00     0.031 A 
ATOM     85  C   UNL A   1      45.822  29.604  34.082  1.00  0.00     0.131 A 
ATOM     86  C   UNL A   1      46.085  27.561  35.938  1.00  0.00     0.055 A 
ATOM     87  C   UNL A   1      46.972  29.530  34.869  1.00  0.00     0.041 A 
ATOM     88  F   UNL A   1      45.719  30.619  33.212  1.00  0.00    -0.206 F 
ATOM     89  C   UNL A   1      47.104  28.510  35.809  1.00  0.00     0.022 A 
BRANCH  86  90
ATOM     90  S   UNL A   1      46.199  26.272  37.210  1.00  0.00     0.124 S 
ATOM     91  O   UNL A   1      45.714  26.967  38.399  1.00  0.00    -0.237 OA
ATOM     92  O   UNL A   1      45.325  25.231  36.679  1.00  0.00    -0.237 OA
ATOM     93  O   UNL A   1      47.622  25.935  37.230  1.00  0.00    -0.744 OA
ENDBRANCH  86  90
ENDBRANCH  60  83
ENDBRANCH  34  35
ENDBRANCH  27  29
ENDBRANCH  26  27
ENDBRANCH   1  26
TORSDOF 17
ENDMDL
MODEL 3
REMARK VINA RESULT:     -11.8      1.528      7.563
REMARK SMILES CS(=O)(=O)c1ccc(N2N=C(C(=O)OCCOC(=O)c3ccc(-c4c5nc(c(-c6cc(S(=O)(=O)[O-])ccc6F)c6ccc([nH]6)c(-c6cc(S(=O)(=O)[O-])ccc6F)c6nc(c(-c7cc(S(=O)(=O)[O-])ccc7F)c7ccc4[nH]7)C=C6)C=C5)cc3)C[C@H]2c2ccco2)cc1
REMARK SMILES IDX 16 1 15 2 14 3 12 4 13 5 11 6 9 7 10 8 84 9 83 10 8 11 5 12
REMARK SMILES IDX 6 13 91 14 7 15 90 16 2 17 1 18 3 19 4 20 85 21 86 22 89 23
REMARK SMILES IDX 87 24 88 25 17 26 18 27 19 28 20 29 21 30 82 31 22 32 81 33
REMARK SMILES IDX 23 34 24 35 25 36 75 37 26 38 80 39 74 40 76 41 27 42 79 43
REMARK SMILES IDX 73 44 72 45 28 47 60 48 40 49 59 50 41 51 44 52 58 53 77 54
REMARK SMILES IDX 42 55 43 56 57 58 78 59 45 60 29 61 30 62 38 63 31 64 37 65
REMARK SMILES IDX 39 66 36 67 32 68 33 69 34 70 35 71 61 72 62 73 70 74 63 75
REMARK SMILES IDX 69 76 71 77 68 78 64 79 65 80 66 81 67 82 46 83 47 84 55 85
REMARK SMILES IDX 48 86 54 87 56 88 53 89 49 90 50 91 51 92 52 93
REMARK H PARENT 76 46 44 57
REMARK Flexibility Score: inf
ROOT
ATOM      1  C   UNL A   1      35.755  20.754  25.095  1.00  0.00     0.275 C 
ENDROOT
BRANCH   1   2
ATOM      2  C   UNL A   1      34.415  21.395  24.722  1.00  0.00     0.275 C 
BRANCH   2   3
ATOM      3  O   UNL A   1      34.509  22.808  24.945  1.00  0.00    -0.458 OA
BRANCH   3   4
ATOM      4  C   UNL A   1      34.169  23.595  23.908  1.00  0.00     0.354 C 
ATOM      5  O   UNL A   1      34.507  23.494  22.745  1.00  0.00    -0.245 OA
BRANCH   4   6
ATOM      6  C   UNL A   1      33.218  24.631  24.433  1.00  0.00     0.148 C 
ATOM      7  N   UNL A   1      31.702  26.091  24.510  1.00  0.00    -0.254 N 
ATOM      8  N   UNL A   1      32.524  25.412  23.661  1.00  0.00    -0.169 NA
ATOM      9  C   UNL A   1      32.125  26.000  25.912  1.00  0.00     0.180 C 
ATOM     10  C   UNL A   1      32.915  24.688  25.897  1.00  0.00     0.101 C 
BRANCH   7  11
ATOM     11  C   UNL A   1      30.823  27.069  24.063  1.00  0.00     0.060 A 
ATOM     12  C   UNL A   1      29.091  29.037  23.050  1.00  0.00     0.067 A 
ATOM     13  C   UNL A   1      30.418  29.362  23.349  1.00  0.00     0.022 A 
ATOM     14  C   UNL A   1      28.611  27.751  23.289  1.00  0.00     0.022 A 
ATOM     15  C   UNL A   1      31.278  28.376  23.835  1.00  0.00     0.029 A 
ATOM     16  C   UNL A   1      29.475  26.781  23.812  1.00  0.00     0.029 A 
BRANCH  12  17
ATOM     17  S   UNL A   1      28.081  30.314  22.340  1.00  0.00     0.175 S 
ATOM     18  C   UNL A   1      28.933  31.854  22.564  1.00  0.00     0.163 C 
ATOM     19  O   UNL A   1      26.870  30.347  23.140  1.00  0.00    -0.224 OA
ATOM     20  O   UNL A   1      28.017  30.041  20.917  1.00  0.00    -0.224 OA
ENDBRANCH  12  17
ENDBRANCH   7  11
BRANCH   9  21
ATOM     21  C   UNL A   1      32.955  27.169  26.378  1.00  0.00     0.128 A 
ATOM     22  C   UNL A   1      34.253  27.556  26.110  1.00  0.00     0.048 A 
ATOM     23  O   UNL A   1      32.403  28.022  27.296  1.00  0.00    -0.467 OA
ATOM     24  C   UNL A   1      34.511  28.692  26.917  1.00  0.00     0.042 A 
ATOM     25  C   UNL A   1      33.356  28.930  27.623  1.00  0.00     0.195 A 
ENDBRANCH   9  21
ENDBRANCH   4   6
ENDBRANCH   3   4
ENDBRANCH   2   3
ENDBRANCH   1   2
BRANCH   1  26
ATOM     26  O   UNL A   1      36.629  21.746  25.668  1.00  0.00    -0.458 OA
BRANCH  26  27
ATOM     27  C   UNL A   1      37.935  21.383  25.758  1.00  0.00     0.338 C 
ATOM     28  O   UNL A   1      38.414  20.306  25.435  1.00  0.00    -0.246 OA
BRANCH  27  29
ATOM     29  C   UNL A   1      38.744  22.548  26.176  1.00  0.00     0.060 A 
ATOM     30  C   UNL A   1      38.277  23.822  25.836  1.00  0.00     0.016 A 
ATOM     31  C   UNL A   1      39.935  22.404  26.897  1.00  0.00     0.016 A 
ATOM     32  C   UNL A   1      38.992  24.954  26.223  1.00  0.00     0.010 A 
ATOM     33  C   UNL A   1      40.659  23.540  27.273  1.00  0.00     0.010 A 
ATOM     34  C   UNL A   1      40.191  24.820  26.935  1.00  0.00    -0.014 A 
BRANCH  34  35
ATOM     35  C   UNL A   1      40.962  26.031  27.286  1.00  0.00     0.031 A 
ATOM     36  C   UNL A   1      40.323  27.108  28.112  1.00  0.00     0.074 A 
ATOM     37  C   UNL A   1      42.243  26.144  26.897  1.00  0.00     0.049 A 
ATOM     38  N   UNL A   1      40.852  28.198  28.605  1.00  0.00    -0.248 NA
ATOM     39  C   UNL A   1      38.896  26.933  28.417  1.00  0.00     0.031 C 
ATOM     40  C   UNL A   1      42.972  25.168  26.086  1.00  0.00     0.029 A 
ATOM     41  N   UNL A   1      43.159  27.134  27.139  1.00  0.00    -0.354 N 
ATOM     42  C   UNL A   1      39.834  28.825  29.310  1.00  0.00     0.074 A 
ATOM     43  C   UNL A   1      38.644  28.015  29.139  1.00  0.00     0.031 C 
ATOM     44  C   UNL A   1      44.225  25.614  25.891  1.00  0.00     0.029 A 
ATOM     45  C   UNL A   1      44.386  26.895  26.573  1.00  0.00     0.049 A 
ATOM     46  H   UNL A   1      42.956  27.939  27.668  1.00  0.00     0.167 HD
ATOM     47  C   UNL A   1      39.885  29.967  30.041  1.00  0.00     0.034 A 
ATOM     48  C   UNL A   1      45.516  27.625  26.613  1.00  0.00     0.034 A 
ATOM     49  C   UNL A   1      41.057  30.796  30.170  1.00  0.00     0.049 A 
ATOM     50  C   UNL A   1      45.549  28.897  27.410  1.00  0.00     0.074 A 
ATOM     51  C   UNL A   1      41.209  31.986  30.859  1.00  0.00     0.029 A 
ATOM     52  N   UNL A   1      42.284  30.521  29.580  1.00  0.00    -0.354 N 
ATOM     53  N   UNL A   1      44.583  29.473  28.084  1.00  0.00    -0.248 NA
ATOM     54  C   UNL A   1      46.837  29.602  27.468  1.00  0.00     0.031 C 
ATOM     55  C   UNL A   1      42.517  32.450  30.655  1.00  0.00     0.029 A 
ATOM     56  C   UNL A   1      43.191  31.528  29.871  1.00  0.00     0.049 A 
ATOM     57  H   UNL A   1      42.481  29.726  29.033  1.00  0.00     0.167 HD
ATOM     58  C   UNL A   1      45.145  30.612  28.647  1.00  0.00     0.074 A 
ATOM     59  C   UNL A   1      46.538  30.636  28.244  1.00  0.00     0.031 C 
ATOM     60  C   UNL A   1      44.564  31.552  29.434  1.00  0.00     0.034 A 
BRANCH  47  61
ATOM     61  C   UNL A   1      38.606  30.391  30.712  1.00  0.00     0.023 A 
ATOM     62  C   UNL A   1      37.630  31.129  30.017  1.00  0.00     0.031 A 
ATOM     63  C   UNL A   1      38.390  30.114  32.071  1.00  0.00     0.131 A 
ATOM     64  C   UNL A   1      36.506  31.615  30.702  1.00  0.00     0.055 A 
ATOM     65  C   UNL A   1      37.244  30.556  32.734  1.00  0.00     0.041 A 
ATOM     66  F   UNL A   1      39.304  29.437  32.783  1.00  0.00    -0.206 F 
ATOM     67  C   UNL A   1      36.301  31.321  32.052  1.00  0.00     0.022 A 
BRANCH  64  68
ATOM     68  S   UNL A   1      35.381  32.749  29.841  1.00  0.00     0.124 S 
ATOM     69  O   UNL A   1      34.424  33.083  30.893  1.00  0.00    -0.237 OA
ATOM     70  O   UNL A   1      36.276  33.822  29.424  1.00  0.00    -0.237 OA
ATOM     71  O   UNL A   1      34.838  31.934  28.756  1.00  0.00    -0.744 OA
ENDBRANCH  64  68
ENDBRANCH  47  61
BRANCH  48  72
ATOM     72  C   UNL A   1      46.714  27.169  25.872  1.00  0.00     0.023 A 
ATOM     73  C   UNL A   1      46.966  27.616  24.568  1.00  0.00     0.031 A 
ATOM     74  C   UNL A   1      47.617  26.273  26.466  1.00  0.00     0.131 A 
ATOM     75  C   UNL A   1      48.096  27.147  23.883  1.00  0.00     0.055 A 
ATOM     76  C   UNL A   1      48.746  25.819  25.786  1.00  0.00     0.041 A 
ATOM     77  F   UNL A   1      47.412  25.835  27.718  1.00  0.00    -0.206 F 
ATOM     78  C   UNL A   1      48.989  26.255  24.484  1.00  0.00     0.022 A 
BRANCH  75  79
ATOM     79  S   UNL A   1      48.393  27.736  22.193  1.00  0.00     0.124 S 
ATOM     80  O   UNL A   1      49.657  28.447  22.343  1.00  0.00    -0.237 OA
ATOM     81  O   UNL A   1      48.447  26.490  21.436  1.00  0.00    -0.237 OA
ATOM     82  O   UNL A   1      47.229  28.576  21.919  1.00  0.00    -0.744 OA
ENDBRANCH  75  79
ENDBRANCH  48  72
BRANCH  60  83
ATOM     83  C   UNL A   1      45.446  32.675  29.899  1.00  0.00     0.023 A 
ATOM     84  C   UNL A   1      45.577  33.855  29.148  1.00  0.00     0.031 A 
ATOM     85  C   UNL A   1      46.182  32.550  31.089  1.00  0.00     0.131 A 
ATOM     86  C   UNL A   1      46.454  34.860  29.581  1.00  0.00     0.055 A 
ATOM     87  C   UNL A   1      47.034  33.564  31.529  1.00  0.00     0.041 A 
ATOM     88  F   UNL A   1      46.094  31.436  31.833  1.00  0.00    -0.206 F 
ATOM     89  C   UNL A   1      47.180  34.723  30.769  1.00  0.00     0.022 A 
BRANCH  86  90
ATOM     90  S   UNL A   1      46.690  36.324  28.536  1.00  0.00     0.124 S 
ATOM     91  O   UNL A   1      47.895  35.979  27.787  1.00  0.00    -0.237 OA
ATOM     92  O   UNL A   1      45.450  36.361  27.767  1.00  0.00    -0.237 OA
ATOM     93  O   UNL A   1      46.853  37.412  29.500  1.00  0.00    -0.744 OA
ENDBRANCH  86  90
ENDBRANCH  60  83
ENDBRANCH  34  35
ENDBRANCH  27  29
ENDBRANCH  26  27
ENDBRANCH   1  26
TORSDOF 17
ENDMDL
