MODEL 1
REMARK VINA RESULT:     -11.7      0.000      0.000
REMARK SMILES COc1nc2c(cc1C(=O)NCc1ccc(C(=O)OCCOC(=O)c3ccc(-c4c5nc(c(-c6cc(S(=O)(=O)[O-])ccc6F)c6ccc([nH]6)c(-c6cc(S(=O)(=O)[O-])ccc6F)c6nc(c(-c7cc(S(=O)(=O)[O-])ccc7F)c7ccc4[nH]7)C=C6)C=C5)cc3)s1)CCC2
REMARK SMILES IDX 20 1 19 2 17 3 18 4 16 5 13 6 14 7 88 8 15 9 12 10 11 11
REMARK SMILES IDX 9 12 10 13 8 15 3 16 4 17 5 18 7 19 6 20 91 21 89 22 90 23
REMARK SMILES IDX 2 24 1 25 21 26 22 27 23 28 24 29 25 30 26 31 87 32 27 33
REMARK SMILES IDX 86 34 28 35 29 36 30 37 80 38 31 39 85 40 79 41 81 42 32 43
REMARK SMILES IDX 84 44 78 45 77 46 33 48 65 49 45 50 64 51 46 52 49 53 63 54
REMARK SMILES IDX 82 55 47 56 48 57 62 59 83 60 50 61 34 62 35 63 43 64 36 65
REMARK SMILES IDX 42 66 44 67 41 68 37 69 38 70 39 71 40 72 66 73 67 74 75 75
REMARK SMILES IDX 68 76 74 77 76 78 73 79 69 80 70 81 71 82 72 83 51 84 52 85
REMARK SMILES IDX 60 86 53 87 59 88 61 89 58 90 54 91 55 92 56 93 57 94
REMARK H PARENT 11 14 81 47 49 58
REMARK Flexibility Score: inf
ROOT
ATOM      1  C   UNL A   1      35.514  20.144  25.013  1.00  0.00     0.275 C 
ENDROOT
BRANCH   1   2
ATOM      2  O   UNL A   1      34.824  21.403  24.958  1.00  0.00    -0.458 OA
BRANCH   2   3
ATOM      3  C   UNL A   1      33.946  21.622  25.983  1.00  0.00     0.348 C 
ATOM      4  O   UNL A   1      34.074  21.164  27.105  1.00  0.00    -0.245 OA
BRANCH   3   5
ATOM      5  C   UNL A   1      32.924  22.556  25.553  1.00  0.00     0.112 A 
ATOM      6  C   UNL A   1      31.326  23.753  24.098  1.00  0.00     0.025 A 
ATOM      7  C   UNL A   1      31.109  24.020  25.434  1.00  0.00     0.018 A 
ATOM      8  S   UNL A   1      32.705  22.775  23.875  1.00  0.00    -0.131 S 
ATOM      9  C   UNL A   1      32.034  23.327  26.274  1.00  0.00     0.028 A 
BRANCH   6  10
ATOM     10  C   UNL A   1      30.691  24.321  22.881  1.00  0.00     0.163 C 
BRANCH  10  11
ATOM     11  N   UNL A   1      31.627  24.950  21.985  1.00  0.00    -0.347 N 
ATOM     12  C   UNL A   1      32.442  26.039  22.154  1.00  0.00     0.257 C 
ATOM     13  O   UNL A   1      33.339  26.205  21.324  1.00  0.00    -0.269 OA
ATOM     14  H   UNL A   1      31.692  24.524  21.100  1.00  0.00     0.164 HD
BRANCH  12  15
ATOM     15  C   UNL A   1      32.239  27.103  23.174  1.00  0.00     0.102 A 
ATOM     16  C   UNL A   1      31.320  28.163  23.168  1.00  0.00     0.226 A 
ATOM     17  N   UNL A   1      31.351  29.197  24.054  1.00  0.00    -0.218 NA
ATOM     18  C   UNL A   1      32.255  29.102  25.036  1.00  0.00     0.048 A 
ATOM     19  C   UNL A   1      33.097  27.008  24.288  1.00  0.00     0.025 A 
ATOM     20  C   UNL A   1      33.089  28.017  25.227  1.00  0.00    -0.025 A 
ATOM     21  C   UNL A   1      32.467  30.141  26.100  1.00  0.00     0.057 C 
ATOM     22  C   UNL A   1      33.839  28.130  26.510  1.00  0.00     0.038 C 
ATOM     23  C   UNL A   1      33.765  29.642  26.757  1.00  0.00     0.011 C 
BRANCH  16  24
ATOM     24  O   UNL A   1      30.313  28.308  22.259  1.00  0.00    -0.480 OA
ATOM     25  C   UNL A   1      30.084  29.662  21.895  1.00  0.00     0.280 C 
ENDBRANCH  16  24
ENDBRANCH  12  15
ENDBRANCH  10  11
ENDBRANCH   6  10
ENDBRANCH   3   5
ENDBRANCH   2   3
ENDBRANCH   1   2
BRANCH   1  26
ATOM     26  C   UNL A   1      37.012  20.358  24.796  1.00  0.00     0.275 C 
BRANCH  26  27
ATOM     27  O   UNL A   1      37.552  21.283  25.761  1.00  0.00    -0.458 OA
BRANCH  27  28
ATOM     28  C   UNL A   1      38.867  21.133  26.046  1.00  0.00     0.338 C 
ATOM     29  O   UNL A   1      39.544  20.130  25.888  1.00  0.00    -0.246 OA
BRANCH  28  30
ATOM     30  C   UNL A   1      39.413  22.380  26.603  1.00  0.00     0.060 A 
ATOM     31  C   UNL A   1      38.883  23.605  26.202  1.00  0.00     0.016 A 
ATOM     32  C   UNL A   1      40.549  22.337  27.413  1.00  0.00     0.016 A 
ATOM     33  C   UNL A   1      39.548  24.790  26.525  1.00  0.00     0.010 A 
ATOM     34  C   UNL A   1      41.160  23.531  27.811  1.00  0.00     0.010 A 
ATOM     35  C   UNL A   1      40.694  24.769  27.335  1.00  0.00    -0.014 A 
BRANCH  35  36
ATOM     36  C   UNL A   1      41.410  26.034  27.673  1.00  0.00     0.031 A 
ATOM     37  C   UNL A   1      40.743  27.088  28.520  1.00  0.00     0.074 A 
ATOM     38  C   UNL A   1      42.663  26.240  27.220  1.00  0.00     0.049 A 
ATOM     39  N   UNL A   1      41.171  28.284  28.836  1.00  0.00    -0.248 NA
ATOM     40  C   UNL A   1      39.423  26.761  29.081  1.00  0.00     0.031 C 
ATOM     41  C   UNL A   1      43.430  25.293  26.411  1.00  0.00     0.029 A 
ATOM     42  N   UNL A   1      43.512  27.311  27.371  1.00  0.00    -0.354 N 
ATOM     43  C   UNL A   1      40.165  28.861  29.602  1.00  0.00     0.074 A 
ATOM     44  C   UNL A   1      39.094  27.893  29.688  1.00  0.00     0.031 C 
ATOM     45  C   UNL A   1      44.641  25.810  26.159  1.00  0.00     0.029 A 
ATOM     46  C   UNL A   1      44.716  27.154  26.725  1.00  0.00     0.049 A 
ATOM     47  H   UNL A   1      43.281  28.112  27.893  1.00  0.00     0.167 HD
ATOM     48  C   UNL A   1      40.140  30.084  30.187  1.00  0.00     0.034 A 
ATOM     49  C   UNL A   1      45.757  28.000  26.573  1.00  0.00     0.034 A 
ATOM     50  C   UNL A   1      41.226  31.028  30.132  1.00  0.00     0.049 A 
ATOM     51  C   UNL A   1      45.696  29.364  27.210  1.00  0.00     0.074 A 
ATOM     52  C   UNL A   1      41.301  32.276  30.726  1.00  0.00     0.029 A 
ATOM     53  N   UNL A   1      42.423  30.833  29.459  1.00  0.00    -0.354 N 
ATOM     54  N   UNL A   1      44.743  29.884  27.947  1.00  0.00    -0.248 NA
ATOM     55  C   UNL A   1      46.842  30.259  26.994  1.00  0.00     0.031 C 
ATOM     56  C   UNL A   1      42.522  32.855  30.374  1.00  0.00     0.029 A 
ATOM     57  C   UNL A   1      43.233  31.947  29.607  1.00  0.00     0.049 A 
ATOM     58  H   UNL A   1      42.661  30.024  28.952  1.00  0.00     0.167 HD
ATOM     59  C   UNL A   1      45.183  31.157  28.298  1.00  0.00     0.074 A 
ATOM     60  C   UNL A   1      46.495  31.321  27.710  1.00  0.00     0.031 C 
ATOM     61  C   UNL A   1      44.550  32.101  29.038  1.00  0.00     0.034 A 
BRANCH  48  62
ATOM     62  C   UNL A   1      38.910  30.494  30.957  1.00  0.00     0.023 A 
ATOM     63  C   UNL A   1      37.855  31.150  30.294  1.00  0.00     0.031 A 
ATOM     64  C   UNL A   1      38.841  30.358  32.354  1.00  0.00     0.131 A 
ATOM     65  C   UNL A   1      36.789  31.676  31.035  1.00  0.00     0.055 A 
ATOM     66  C   UNL A   1      37.759  30.854  33.083  1.00  0.00     0.041 A 
ATOM     67  F   UNL A   1      39.824  29.740  33.028  1.00  0.00    -0.206 F 
ATOM     68  C   UNL A   1      36.732  31.526  32.424  1.00  0.00     0.022 A 
BRANCH  65  69
ATOM     69  S   UNL A   1      35.461  32.611  30.230  1.00  0.00     0.124 S 
ATOM     70  O   UNL A   1      35.263  31.854  28.995  1.00  0.00    -0.237 OA
ATOM     71  O   UNL A   1      34.380  32.507  31.206  1.00  0.00    -0.237 OA
ATOM     72  O   UNL A   1      36.028  33.944  30.053  1.00  0.00    -0.744 OA
ENDBRANCH  65  69
ENDBRANCH  48  62
BRANCH  49  73
ATOM     73  C   UNL A   1      46.947  27.550  25.796  1.00  0.00     0.023 A 
ATOM     74  C   UNL A   1      47.136  27.955  24.463  1.00  0.00     0.031 A 
ATOM     75  C   UNL A   1      47.851  26.623  26.341  1.00  0.00     0.131 A 
ATOM     76  C   UNL A   1      48.158  27.382  23.698  1.00  0.00     0.055 A 
ATOM     77  C   UNL A   1      48.910  26.102  25.595  1.00  0.00     0.041 A 
ATOM     78  F   UNL A   1      47.706  26.202  27.608  1.00  0.00    -0.206 F 
ATOM     79  C   UNL A   1      49.057  26.470  24.261  1.00  0.00     0.022 A 
BRANCH  76  80
ATOM     80  S   UNL A   1      48.290  27.717  21.921  1.00  0.00     0.124 S 
ATOM     81  O   UNL A   1      46.976  28.278  21.615  1.00  0.00    -0.237 OA
ATOM     82  O   UNL A   1      49.403  28.663  21.881  1.00  0.00    -0.237 OA
ATOM     83  O   UNL A   1      48.564  26.408  21.341  1.00  0.00    -0.744 OA
ENDBRANCH  76  80
ENDBRANCH  49  73
BRANCH  61  84
ATOM     84  C   UNL A   1      45.248  33.413  29.287  1.00  0.00     0.023 A 
ATOM     85  C   UNL A   1      46.042  33.577  30.438  1.00  0.00     0.031 A 
ATOM     86  C   UNL A   1      44.997  34.537  28.483  1.00  0.00     0.131 A 
ATOM     87  C   UNL A   1      46.522  34.847  30.777  1.00  0.00     0.055 A 
ATOM     88  C   UNL A   1      45.514  35.793  28.802  1.00  0.00     0.041 A 
ATOM     89  F   UNL A   1      44.239  34.429  27.381  1.00  0.00    -0.206 F 
ATOM     90  C   UNL A   1      46.268  35.955  29.961  1.00  0.00     0.022 A 
BRANCH  87  91
ATOM     91  S   UNL A   1      47.434  35.123  32.321  1.00  0.00     0.124 S 
ATOM     92  O   UNL A   1      48.056  33.819  32.544  1.00  0.00    -0.237 OA
ATOM     93  O   UNL A   1      48.351  36.195  31.948  1.00  0.00    -0.237 OA
ATOM     94  O   UNL A   1      46.398  35.486  33.282  1.00  0.00    -0.744 OA
ENDBRANCH  87  91
ENDBRANCH  61  84
ENDBRANCH  35  36
ENDBRANCH  28  30
ENDBRANCH  27  28
ENDBRANCH  26  27
ENDBRANCH   1  26
TORSDOF 18
ENDMDL
MODEL 2
REMARK VINA RESULT:     -11.7      4.789      9.791
REMARK SMILES COc1nc2c(cc1C(=O)NCc1ccc(C(=O)OCCOC(=O)c3ccc(-c4c5nc(c(-c6cc(S(=O)(=O)[O-])ccc6F)c6ccc([nH]6)c(-c6cc(S(=O)(=O)[O-])ccc6F)c6nc(c(-c7cc(S(=O)(=O)[O-])ccc7F)c7ccc4[nH]7)C=C6)C=C5)cc3)s1)CCC2
REMARK SMILES IDX 20 1 19 2 17 3 18 4 16 5 13 6 14 7 88 8 15 9 12 10 11 11
REMARK SMILES IDX 9 12 10 13 8 15 3 16 4 17 5 18 7 19 6 20 91 21 89 22 90 23
REMARK SMILES IDX 2 24 1 25 21 26 22 27 23 28 24 29 25 30 26 31 87 32 27 33
REMARK SMILES IDX 86 34 28 35 29 36 30 37 80 38 31 39 85 40 79 41 81 42 32 43
REMARK SMILES IDX 84 44 78 45 77 46 33 48 65 49 45 50 64 51 46 52 49 53 63 54
REMARK SMILES IDX 82 55 47 56 48 57 62 59 83 60 50 61 34 62 35 63 43 64 36 65
REMARK SMILES IDX 42 66 44 67 41 68 37 69 38 70 39 71 40 72 66 73 67 74 75 75
REMARK SMILES IDX 68 76 74 77 76 78 73 79 69 80 70 81 71 82 72 83 51 84 52 85
REMARK SMILES IDX 60 86 53 87 59 88 61 89 58 90 54 91 55 92 56 93 57 94
REMARK H PARENT 11 14 81 47 49 58
REMARK Flexibility Score: inf
ROOT
ATOM      1  C   UNL A   1      31.820  30.055  24.960  1.00  0.00     0.275 C 
ENDROOT
BRANCH   1   2
ATOM      2  O   UNL A   1      30.663  29.215  24.822  1.00  0.00    -0.458 OA
BRANCH   2   3
ATOM      3  C   UNL A   1      30.351  28.873  23.535  1.00  0.00     0.348 C 
ATOM      4  O   UNL A   1      29.856  29.636  22.725  1.00  0.00    -0.245 OA
BRANCH   3   5
ATOM      5  C   UNL A   1      30.797  27.519  23.273  1.00  0.00     0.112 A 
ATOM      6  C   UNL A   1      30.872  25.050  23.273  1.00  0.00     0.025 A 
ATOM      7  C   UNL A   1      31.755  25.594  22.364  1.00  0.00     0.018 A 
ATOM      8  S   UNL A   1      30.098  26.262  24.189  1.00  0.00    -0.131 S 
ATOM      9  C   UNL A   1      31.712  27.022  22.365  1.00  0.00     0.028 A 
BRANCH   6  10
ATOM     10  C   UNL A   1      30.653  23.640  23.685  1.00  0.00     0.163 C 
BRANCH  10  11
ATOM     11  N   UNL A   1      30.588  23.464  25.114  1.00  0.00    -0.347 N 
ATOM     12  C   UNL A   1      31.526  23.673  26.091  1.00  0.00     0.257 C 
ATOM     13  O   UNL A   1      31.128  23.701  27.258  1.00  0.00    -0.269 OA
ATOM     14  H   UNL A   1      29.720  23.137  25.444  1.00  0.00     0.164 HD
BRANCH  12  15
ATOM     15  C   UNL A   1      32.995  23.729  25.860  1.00  0.00     0.102 A 
ATOM     16  C   UNL A   1      33.834  24.852  25.802  1.00  0.00     0.226 A 
ATOM     17  N   UNL A   1      35.131  24.808  25.386  1.00  0.00    -0.218 NA
ATOM     18  C   UNL A   1      35.625  23.589  25.134  1.00  0.00     0.048 A 
ATOM     19  C   UNL A   1      33.601  22.469  25.681  1.00  0.00     0.025 A 
ATOM     20  C   UNL A   1      34.932  22.410  25.325  1.00  0.00    -0.025 A 
ATOM     21  C   UNL A   1      37.021  23.323  24.647  1.00  0.00     0.057 C 
ATOM     22  C   UNL A   1      35.816  21.225  25.139  1.00  0.00     0.038 C 
ATOM     23  C   UNL A   1      36.936  21.831  24.283  1.00  0.00     0.011 C 
BRANCH  16  24
ATOM     24  O   UNL A   1      33.449  26.121  26.115  1.00  0.00    -0.480 OA
ATOM     25  C   UNL A   1      33.980  27.098  25.230  1.00  0.00     0.280 C 
ENDBRANCH  16  24
ENDBRANCH  12  15
ENDBRANCH  10  11
ENDBRANCH   6  10
ENDBRANCH   3   5
ENDBRANCH   2   3
ENDBRANCH   1   2
BRANCH   1  26
ATOM     26  C   UNL A   1      31.738  30.850  26.263  1.00  0.00     0.275 C 
BRANCH  26  27
ATOM     27  O   UNL A   1      32.825  30.514  27.148  1.00  0.00    -0.458 OA
BRANCH  27  28
ATOM     28  C   UNL A   1      33.596  31.552  27.552  1.00  0.00     0.338 C 
ATOM     29  O   UNL A   1      33.281  32.730  27.590  1.00  0.00    -0.246 OA
BRANCH  28  30
ATOM     30  C   UNL A   1      34.927  31.072  27.954  1.00  0.00     0.060 A 
ATOM     31  C   UNL A   1      35.104  29.732  28.296  1.00  0.00     0.016 A 
ATOM     32  C   UNL A   1      35.967  31.985  28.132  1.00  0.00     0.016 A 
ATOM     33  C   UNL A   1      36.286  29.322  28.913  1.00  0.00     0.010 A 
ATOM     34  C   UNL A   1      37.185  31.551  28.667  1.00  0.00     0.010 A 
ATOM     35  C   UNL A   1      37.344  30.225  29.106  1.00  0.00    -0.014 A 
BRANCH  35  36
ATOM     36  C   UNL A   1      38.605  29.789  29.773  1.00  0.00     0.031 A 
ATOM     37  C   UNL A   1      39.500  28.763  29.124  1.00  0.00     0.074 A 
ATOM     38  C   UNL A   1      38.952  30.313  30.966  1.00  0.00     0.049 A 
ATOM     39  N   UNL A   1      40.581  28.196  29.596  1.00  0.00    -0.248 NA
ATOM     40  C   UNL A   1      39.132  28.312  27.773  1.00  0.00     0.031 C 
ATOM     41  C   UNL A   1      38.187  31.329  31.690  1.00  0.00     0.029 A 
ATOM     42  N   UNL A   1      40.031  30.066  31.781  1.00  0.00    -0.354 N 
ATOM     43  C   UNL A   1      41.002  27.301  28.619  1.00  0.00     0.074 A 
ATOM     44  C   UNL A   1      40.050  27.385  27.534  1.00  0.00     0.031 C 
ATOM     45  C   UNL A   1      38.831  31.637  32.826  1.00  0.00     0.029 A 
ATOM     46  C   UNL A   1      40.017  30.792  32.949  1.00  0.00     0.049 A 
ATOM     47  H   UNL A   1      40.746  29.431  31.549  1.00  0.00     0.167 HD
ATOM     48  C   UNL A   1      42.088  26.491  28.622  1.00  0.00     0.034 A 
ATOM     49  C   UNL A   1      40.841  30.767  34.018  1.00  0.00     0.034 A 
ATOM     50  C   UNL A   1      43.056  26.442  29.688  1.00  0.00     0.049 A 
ATOM     51  C   UNL A   1      42.027  29.840  34.011  1.00  0.00     0.074 A 
ATOM     52  C   UNL A   1      44.207  25.676  29.760  1.00  0.00     0.029 A 
ATOM     53  N   UNL A   1      42.998  27.186  30.857  1.00  0.00    -0.354 N 
ATOM     54  N   UNL A   1      42.419  29.015  33.069  1.00  0.00    -0.248 NA
ATOM     55  C   UNL A   1      42.880  29.830  35.208  1.00  0.00     0.031 C 
ATOM     56  C   UNL A   1      44.820  25.921  30.990  1.00  0.00     0.029 A 
ATOM     57  C   UNL A   1      44.082  26.882  31.663  1.00  0.00     0.049 A 
ATOM     58  H   UNL A   1      42.292  27.834  31.080  1.00  0.00     0.167 HD
ATOM     59  C   UNL A   1      43.574  28.405  33.550  1.00  0.00     0.074 A 
ATOM     60  C   UNL A   1      43.828  28.968  34.859  1.00  0.00     0.031 C 
ATOM     61  C   UNL A   1      44.346  27.460  32.958  1.00  0.00     0.034 A 
BRANCH  48  62
ATOM     62  C   UNL A   1      42.320  25.585  27.440  1.00  0.00     0.023 A 
ATOM     63  C   UNL A   1      41.811  24.272  27.452  1.00  0.00     0.031 A 
ATOM     64  C   UNL A   1      43.151  25.970  26.373  1.00  0.00     0.131 A 
ATOM     65  C   UNL A   1      42.164  23.380  26.432  1.00  0.00     0.055 A 
ATOM     66  C   UNL A   1      43.471  25.086  25.341  1.00  0.00     0.041 A 
ATOM     67  F   UNL A   1      43.660  27.211  26.320  1.00  0.00    -0.206 F 
ATOM     68  C   UNL A   1      42.986  23.782  25.374  1.00  0.00     0.022 A 
BRANCH  65  69
ATOM     69  S   UNL A   1      41.607  21.655  26.463  1.00  0.00     0.124 S 
ATOM     70  O   UNL A   1      40.306  21.745  25.802  1.00  0.00    -0.237 OA
ATOM     71  O   UNL A   1      42.652  20.983  25.696  1.00  0.00    -0.237 OA
ATOM     72  O   UNL A   1      41.556  21.328  27.884  1.00  0.00    -0.744 OA
ENDBRANCH  65  69
ENDBRANCH  48  62
BRANCH  49  73
ATOM     73  C   UNL A   1      40.564  31.678  35.165  1.00  0.00     0.023 A 
ATOM     74  C   UNL A   1      39.550  31.382  36.094  1.00  0.00     0.031 A 
ATOM     75  C   UNL A   1      41.234  32.906  35.285  1.00  0.00     0.131 A 
ATOM     76  C   UNL A   1      39.187  32.332  37.056  1.00  0.00     0.055 A 
ATOM     77  C   UNL A   1      40.914  33.824  36.286  1.00  0.00     0.041 A 
ATOM     78  F   UNL A   1      42.204  33.234  34.416  1.00  0.00    -0.206 F 
ATOM     79  C   UNL A   1      39.874  33.546  37.169  1.00  0.00     0.022 A 
BRANCH  76  80
ATOM     80  S   UNL A   1      37.743  32.072  38.121  1.00  0.00     0.124 S 
ATOM     81  O   UNL A   1      37.402  30.679  37.843  1.00  0.00    -0.237 OA
ATOM     82  O   UNL A   1      38.303  32.331  39.446  1.00  0.00    -0.237 OA
ATOM     83  O   UNL A   1      36.781  33.061  37.647  1.00  0.00    -0.744 OA
ENDBRANCH  76  80
ENDBRANCH  49  73
BRANCH  61  84
ATOM     84  C   UNL A   1      45.563  26.958  33.691  1.00  0.00     0.023 A 
ATOM     85  C   UNL A   1      45.435  25.925  34.638  1.00  0.00     0.031 A 
ATOM     86  C   UNL A   1      46.804  27.607  33.574  1.00  0.00     0.131 A 
ATOM     87  C   UNL A   1      46.518  25.598  35.463  1.00  0.00     0.055 A 
ATOM     88  C   UNL A   1      47.893  27.248  34.369  1.00  0.00     0.041 A 
ATOM     89  F   UNL A   1      46.971  28.603  32.690  1.00  0.00    -0.206 F 
ATOM     90  C   UNL A   1      47.748  26.250  35.329  1.00  0.00     0.022 A 
BRANCH  87  91
ATOM     91  S   UNL A   1      46.350  24.366  36.785  1.00  0.00     0.124 S 
ATOM     92  O   UNL A   1      46.825  25.107  37.953  1.00  0.00    -0.237 OA
ATOM     93  O   UNL A   1      44.918  24.088  36.764  1.00  0.00    -0.237 OA
ATOM     94  O   UNL A   1      47.213  23.271  36.356  1.00  0.00    -0.744 OA
ENDBRANCH  87  91
ENDBRANCH  61  84
ENDBRANCH  35  36
ENDBRANCH  28  30
ENDBRANCH  27  28
ENDBRANCH  26  27
ENDBRANCH   1  26
TORSDOF 18
ENDMDL
MODEL 3
REMARK VINA RESULT:     -11.6      2.083      2.443
REMARK SMILES COc1nc2c(cc1C(=O)NCc1ccc(C(=O)OCCOC(=O)c3ccc(-c4c5nc(c(-c6cc(S(=O)(=O)[O-])ccc6F)c6ccc([nH]6)c(-c6cc(S(=O)(=O)[O-])ccc6F)c6nc(c(-c7cc(S(=O)(=O)[O-])ccc7F)c7ccc4[nH]7)C=C6)C=C5)cc3)s1)CCC2
REMARK SMILES IDX 20 1 19 2 17 3 18 4 16 5 13 6 14 7 88 8 15 9 12 10 11 11
REMARK SMILES IDX 9 12 10 13 8 15 3 16 4 17 5 18 7 19 6 20 91 21 89 22 90 23
REMARK SMILES IDX 2 24 1 25 21 26 22 27 23 28 24 29 25 30 26 31 87 32 27 33
REMARK SMILES IDX 86 34 28 35 29 36 30 37 80 38 31 39 85 40 79 41 81 42 32 43
REMARK SMILES IDX 84 44 78 45 77 46 33 48 65 49 45 50 64 51 46 52 49 53 63 54
REMARK SMILES IDX 82 55 47 56 48 57 62 59 83 60 50 61 34 62 35 63 43 64 36 65
REMARK SMILES IDX 42 66 44 67 41 68 37 69 38 70 39 71 40 72 66 73 67 74 75 75
REMARK SMILES IDX 68 76 74 77 76 78 73 79 69 80 70 81 71 82 72 83 51 84 52 85
REMARK SMILES IDX 60 86 53 87 59 88 61 89 58 90 54 91 55 92 56 93 57 94
REMARK H PARENT 11 14 81 47 49 58
REMARK Flexibility Score: inf
ROOT
ATOM      1  C   UNL A   1      35.099  20.796  25.344  1.00  0.00     0.275 C 
ENDROOT
BRANCH   1   2
ATOM      2  O   UNL A   1      35.147  21.523  26.583  1.00  0.00    -0.458 OA
BRANCH   2   3
ATOM      3  C   UNL A   1      34.012  22.224  26.882  1.00  0.00     0.348 C 
ATOM      4  O   UNL A   1      33.413  22.138  27.940  1.00  0.00    -0.245 OA
BRANCH   3   5
ATOM      5  C   UNL A   1      33.712  23.143  25.802  1.00  0.00     0.112 A 
ATOM      6  C   UNL A   1      32.464  24.324  24.027  1.00  0.00     0.025 A 
ATOM      7  C   UNL A   1      33.655  24.952  24.327  1.00  0.00     0.018 A 
ATOM      8  S   UNL A   1      32.293  22.867  24.897  1.00  0.00    -0.131 S 
ATOM      9  C   UNL A   1      34.377  24.267  25.353  1.00  0.00     0.028 A 
BRANCH   6  10
ATOM     10  C   UNL A   1      31.456  24.611  22.974  1.00  0.00     0.163 C 
BRANCH  10  11
ATOM     11  N   UNL A   1      30.154  24.934  23.499  1.00  0.00    -0.347 N 
ATOM     12  C   UNL A   1      29.638  26.116  23.963  1.00  0.00     0.257 C 
ATOM     13  O   UNL A   1      28.415  26.180  24.104  1.00  0.00    -0.269 OA
ATOM     14  H   UNL A   1      29.527  24.175  23.529  1.00  0.00     0.164 HD
BRANCH  12  15
ATOM     15  C   UNL A   1      30.450  27.269  24.438  1.00  0.00     0.102 A 
ATOM     16  C   UNL A   1      30.794  28.444  23.754  1.00  0.00     0.226 A 
ATOM     17  N   UNL A   1      31.708  29.346  24.209  1.00  0.00    -0.218 NA
ATOM     18  C   UNL A   1      32.200  29.117  25.432  1.00  0.00     0.048 A 
ATOM     19  C   UNL A   1      30.923  27.138  25.760  1.00  0.00     0.025 A 
ATOM     20  C   UNL A   1      31.797  28.082  26.255  1.00  0.00    -0.025 A 
ATOM     21  C   UNL A   1      33.231  29.975  26.108  1.00  0.00     0.057 C 
ATOM     22  C   UNL A   1      32.388  28.211  27.617  1.00  0.00     0.038 C 
ATOM     23  C   UNL A   1      33.599  29.107  27.323  1.00  0.00     0.011 C 
BRANCH  16  24
ATOM     24  O   UNL A   1      30.288  28.808  22.541  1.00  0.00    -0.480 OA
ATOM     25  C   UNL A   1      29.120  29.611  22.643  1.00  0.00     0.280 C 
ENDBRANCH  16  24
ENDBRANCH  12  15
ENDBRANCH  10  11
ENDBRANCH   6  10
ENDBRANCH   3   5
ENDBRANCH   2   3
ENDBRANCH   1   2
BRANCH   1  26
ATOM     26  C   UNL A   1      36.505  20.350  24.944  1.00  0.00     0.275 C 
BRANCH  26  27
ATOM     27  O   UNL A   1      37.457  21.421  25.101  1.00  0.00    -0.458 OA
BRANCH  27  28
ATOM     28  C   UNL A   1      38.594  21.103  25.764  1.00  0.00     0.338 C 
ATOM     29  O   UNL A   1      39.089  19.994  25.884  1.00  0.00    -0.246 OA
BRANCH  28  30
ATOM     30  C   UNL A   1      39.189  22.309  26.361  1.00  0.00     0.060 A 
ATOM     31  C   UNL A   1      38.613  23.555  26.120  1.00  0.00     0.016 A 
ATOM     32  C   UNL A   1      40.405  22.216  27.039  1.00  0.00     0.016 A 
ATOM     33  C   UNL A   1      39.302  24.718  26.466  1.00  0.00     0.010 A 
ATOM     34  C   UNL A   1      41.049  23.383  27.467  1.00  0.00     0.010 A 
ATOM     35  C   UNL A   1      40.528  24.648  27.145  1.00  0.00    -0.014 A 
BRANCH  35  36
ATOM     36  C   UNL A   1      41.269  25.891  27.508  1.00  0.00     0.031 A 
ATOM     37  C   UNL A   1      40.596  26.980  28.305  1.00  0.00     0.074 A 
ATOM     38  C   UNL A   1      42.552  26.048  27.123  1.00  0.00     0.049 A 
ATOM     39  N   UNL A   1      41.048  28.164  28.630  1.00  0.00    -0.248 NA
ATOM     40  C   UNL A   1      39.236  26.706  28.797  1.00  0.00     0.031 C 
ATOM     41  C   UNL A   1      43.327  25.063  26.367  1.00  0.00     0.029 A 
ATOM     42  N   UNL A   1      43.429  27.090  27.308  1.00  0.00    -0.354 N 
ATOM     43  C   UNL A   1      40.023  28.786  29.333  1.00  0.00     0.074 A 
ATOM     44  C   UNL A   1      38.915  27.858  29.372  1.00  0.00     0.031 C 
ATOM     45  C   UNL A   1      44.568  25.534  26.177  1.00  0.00     0.029 A 
ATOM     46  C   UNL A   1      44.660  26.883  26.731  1.00  0.00     0.049 A 
ATOM     47  H   UNL A   1      43.198  27.906  27.807  1.00  0.00     0.167 HD
ATOM     48  C   UNL A   1      40.009  30.016  29.902  1.00  0.00     0.034 A 
ATOM     49  C   UNL A   1      45.737  27.690  26.626  1.00  0.00     0.034 A 
ATOM     50  C   UNL A   1      41.130  30.921  29.897  1.00  0.00     0.049 A 
ATOM     51  C   UNL A   1      45.690  29.063  27.244  1.00  0.00     0.074 A 
ATOM     52  C   UNL A   1      41.218  32.174  30.479  1.00  0.00     0.029 A 
ATOM     53  N   UNL A   1      42.354  30.676  29.293  1.00  0.00    -0.354 N 
ATOM     54  N   UNL A   1      44.718  29.626  27.921  1.00  0.00    -0.248 NA
ATOM     55  C   UNL A   1      46.878  29.914  27.081  1.00  0.00     0.031 C 
ATOM     56  C   UNL A   1      42.476  32.705  30.189  1.00  0.00     0.029 A 
ATOM     57  C   UNL A   1      43.195  31.762  29.472  1.00  0.00     0.049 A 
ATOM     58  H   UNL A   1      42.591  29.852  28.809  1.00  0.00     0.167 HD
ATOM     59  C   UNL A   1      45.183  30.887  28.282  1.00  0.00     0.074 A 
ATOM     60  C   UNL A   1      46.530  30.997  27.765  1.00  0.00     0.031 C 
ATOM     61  C   UNL A   1      44.545  31.862  28.975  1.00  0.00     0.034 A 
BRANCH  48  62
ATOM     62  C   UNL A   1      38.755  30.479  30.599  1.00  0.00     0.023 A 
ATOM     63  C   UNL A   1      37.811  31.256  29.900  1.00  0.00     0.031 A 
ATOM     64  C   UNL A   1      38.561  30.270  31.975  1.00  0.00     0.131 A 
ATOM     65  C   UNL A   1      36.731  31.823  30.587  1.00  0.00     0.055 A 
ATOM     66  C   UNL A   1      37.463  30.809  32.648  1.00  0.00     0.041 A 
ATOM     67  F   UNL A   1      39.435  29.537  32.682  1.00  0.00    -0.206 F 
ATOM     68  C   UNL A   1      36.548  31.598  31.955  1.00  0.00     0.022 A 
BRANCH  65  69
ATOM     69  S   UNL A   1      35.548  32.907  29.743  1.00  0.00     0.124 S 
ATOM     70  O   UNL A   1      35.024  33.704  30.850  1.00  0.00    -0.237 OA
ATOM     71  O   UNL A   1      36.407  33.626  28.807  1.00  0.00    -0.237 OA
ATOM     72  O   UNL A   1      34.593  31.982  29.142  1.00  0.00    -0.744 OA
ENDBRANCH  65  69
ENDBRANCH  48  62
BRANCH  49  73
ATOM     73  C   UNL A   1      46.951  27.187  25.922  1.00  0.00     0.023 A 
ATOM     74  C   UNL A   1      47.974  26.527  26.626  1.00  0.00     0.031 A 
ATOM     75  C   UNL A   1      47.152  27.456  24.558  1.00  0.00     0.131 A 
ATOM     76  C   UNL A   1      49.179  26.224  25.982  1.00  0.00     0.055 A 
ATOM     77  C   UNL A   1      48.330  27.093  23.902  1.00  0.00     0.041 A 
ATOM     78  F   UNL A   1      46.206  28.090  23.847  1.00  0.00    -0.206 F 
ATOM     79  C   UNL A   1      49.358  26.487  24.620  1.00  0.00     0.022 A 
BRANCH  76  80
ATOM     80  S   UNL A   1      50.594  25.576  26.914  1.00  0.00     0.124 S 
ATOM     81  O   UNL A   1      50.001  24.451  27.631  1.00  0.00    -0.237 OA
ATOM     82  O   UNL A   1      51.518  25.222  25.839  1.00  0.00    -0.237 OA
ATOM     83  O   UNL A   1      51.006  26.703  27.743  1.00  0.00    -0.744 OA
ENDBRANCH  76  80
ENDBRANCH  49  73
BRANCH  61  84
ATOM     84  C   UNL A   1      45.275  33.152  29.247  1.00  0.00     0.023 A 
ATOM     85  C   UNL A   1      45.242  34.190  28.296  1.00  0.00     0.031 A 
ATOM     86  C   UNL A   1      46.127  33.288  30.355  1.00  0.00     0.131 A 
ATOM     87  C   UNL A   1      46.079  35.302  28.450  1.00  0.00     0.055 A 
ATOM     88  C   UNL A   1      46.928  34.418  30.526  1.00  0.00     0.041 A 
ATOM     89  F   UNL A   1      46.197  32.321  31.283  1.00  0.00    -0.206 F 
ATOM     90  C   UNL A   1      46.917  35.424  29.564  1.00  0.00     0.022 A 
BRANCH  87  91
ATOM     91  S   UNL A   1      46.163  36.594  27.179  1.00  0.00     0.124 S 
ATOM     92  O   UNL A   1      47.247  37.440  27.677  1.00  0.00    -0.237 OA
ATOM     93  O   UNL A   1      46.474  35.823  25.979  1.00  0.00    -0.237 OA
ATOM     94  O   UNL A   1      44.839  37.205  27.211  1.00  0.00    -0.744 OA
ENDBRANCH  87  91
ENDBRANCH  61  84
ENDBRANCH  35  36
ENDBRANCH  28  30
ENDBRANCH  27  28
ENDBRANCH  26  27
ENDBRANCH   1  26
TORSDOF 18
ENDMDL
