MODEL 1
REMARK VINA RESULT:     -10.2      0.000      0.000
REMARK SMILES C=CCn1cc(CC)cc1C(=O)OCCOC(=O)c1ccc(-c2c3nc(c(-c4cc(S(=O)(=O)[O-])ccc4F)c4ccc([nH]4)c(-c4cc(S(=O)(=O)[O-])ccc4F)c4nc(c(-c5cc(S(=O)(=O)[O-])ccc5F)c5ccc2[nH]5)C=C4)C=C3)cc1
REMARK SMILES IDX 15 1 14 2 13 3 11 4 12 5 10 6 4 7 5 8 6 9 9 10 3 11 2 12
REMARK SMILES IDX 1 13 7 14 8 15 16 16 17 17 18 18 19 19 20 20 81 21 21 22
REMARK SMILES IDX 80 23 22 24 23 25 24 26 74 27 25 28 79 29 73 30 75 31 26 32
REMARK SMILES IDX 78 33 72 34 71 35 27 37 59 38 39 39 58 40 40 41 43 42 57 43
REMARK SMILES IDX 76 44 41 45 42 46 56 48 77 49 44 50 28 51 29 52 37 53 30 54
REMARK SMILES IDX 36 55 38 56 35 57 31 58 32 59 33 60 34 61 60 62 61 63 69 64
REMARK SMILES IDX 62 65 68 66 70 67 67 68 63 69 64 70 65 71 66 72 45 73 46 74
REMARK SMILES IDX 54 75 47 76 53 77 55 78 52 79 48 80 49 81 50 82 51 83
REMARK H PARENT 75 36 43 47
REMARK Flexibility Score: inf
ROOT
ATOM      1  C   UNL A   1      34.859  29.233  27.289  1.00  0.00     0.275 C 
ENDROOT
BRANCH   1   2
ATOM      2  C   UNL A   1      33.769  30.119  26.684  1.00  0.00     0.275 C 
BRANCH   2   3
ATOM      3  O   UNL A   1      32.486  29.933  27.311  1.00  0.00    -0.457 OA
BRANCH   3   4
ATOM      4  C   UNL A   1      31.880  28.736  27.078  1.00  0.00     0.355 C 
ATOM      5  O   UNL A   1      31.447  28.007  27.971  1.00  0.00    -0.244 OA
BRANCH   4   6
ATOM      6  C   UNL A   1      31.709  28.465  25.661  1.00  0.00     0.128 A 
ATOM      7  N   UNL A   1      32.167  27.410  24.892  1.00  0.00    -0.338 N 
ATOM      8  C   UNL A   1      31.750  27.569  23.585  1.00  0.00     0.090 A 
ATOM      9  C   UNL A   1      31.033  28.741  23.482  1.00  0.00    -0.030 A 
ATOM     10  C   UNL A   1      31.041  29.310  24.781  1.00  0.00     0.039 A 
BRANCH   7  11
ATOM     11  C   UNL A   1      32.891  26.220  25.326  1.00  0.00     0.149 C 
BRANCH  11  12
ATOM     12  C   UNL A   1      33.727  25.671  24.201  1.00  0.00    -0.013 C 
ATOM     13  C   UNL A   1      34.491  24.575  24.287  1.00  0.00     0.006 C 
ENDBRANCH  11  12
ENDBRANCH   7  11
BRANCH   9  14
ATOM     14  C   UNL A   1      30.383  29.292  22.256  1.00  0.00     0.034 C 
ATOM     15  C   UNL A   1      29.128  30.094  22.573  1.00  0.00     0.009 C 
ENDBRANCH   9  14
ENDBRANCH   4   6
ENDBRANCH   3   4
ENDBRANCH   2   3
ENDBRANCH   1   2
BRANCH   1  16
ATOM     16  O   UNL A   1      35.383  29.740  28.519  1.00  0.00    -0.458 OA
BRANCH  16  17
ATOM     17  C   UNL A   1      36.602  30.301  28.359  1.00  0.00     0.338 C 
ATOM     18  O   UNL A   1      36.839  31.451  28.017  1.00  0.00    -0.246 OA
BRANCH  17  19
ATOM     19  C   UNL A   1      37.660  29.297  28.354  1.00  0.00     0.060 A 
ATOM     20  C   UNL A   1      37.713  28.458  29.469  1.00  0.00     0.016 A 
ATOM     21  C   UNL A   1      38.765  29.502  27.517  1.00  0.00     0.016 A 
ATOM     22  C   UNL A   1      38.933  27.945  29.846  1.00  0.00     0.010 A 
ATOM     23  C   UNL A   1      39.995  29.016  27.915  1.00  0.00     0.010 A 
ATOM     24  C   UNL A   1      40.076  28.269  29.097  1.00  0.00    -0.014 A 
BRANCH  24  25
ATOM     25  C   UNL A   1      41.304  27.537  29.433  1.00  0.00     0.031 A 
ATOM     26  C   UNL A   1      41.428  26.361  28.419  1.00  0.00     0.074 A 
ATOM     27  C   UNL A   1      41.984  27.945  30.561  1.00  0.00     0.049 A 
ATOM     28  N   UNL A   1      41.874  25.160  28.592  1.00  0.00    -0.248 NA
ATOM     29  C   UNL A   1      40.836  26.484  27.043  1.00  0.00     0.031 C 
ATOM     30  C   UNL A   1      41.692  29.167  31.362  1.00  0.00     0.029 A 
ATOM     31  N   UNL A   1      43.056  27.443  31.276  1.00  0.00    -0.354 N 
ATOM     32  C   UNL A   1      41.923  24.536  27.321  1.00  0.00     0.074 A 
ATOM     33  C   UNL A   1      41.089  25.308  26.464  1.00  0.00     0.031 C 
ATOM     34  C   UNL A   1      42.488  29.251  32.463  1.00  0.00     0.029 A 
ATOM     35  C   UNL A   1      43.402  28.123  32.500  1.00  0.00     0.049 A 
ATOM     36  H   UNL A   1      43.561  26.657  30.963  1.00  0.00     0.167 HD
ATOM     37  C   UNL A   1      42.834  23.562  27.020  1.00  0.00     0.034 A 
ATOM     38  C   UNL A   1      44.347  27.769  33.447  1.00  0.00     0.034 A 
ATOM     39  C   UNL A   1      43.614  23.302  28.185  1.00  0.00     0.049 A 
ATOM     40  C   UNL A   1      45.071  26.697  32.756  1.00  0.00     0.074 A 
ATOM     41  C   UNL A   1      43.280  22.790  29.411  1.00  0.00     0.029 A 
ATOM     42  N   UNL A   1      44.795  24.008  28.281  1.00  0.00    -0.354 N 
ATOM     43  N   UNL A   1      45.904  26.901  31.786  1.00  0.00    -0.248 NA
ATOM     44  C   UNL A   1      44.842  25.304  33.156  1.00  0.00     0.031 C 
ATOM     45  C   UNL A   1      43.934  23.683  30.279  1.00  0.00     0.029 A 
ATOM     46  C   UNL A   1      44.892  24.428  29.576  1.00  0.00     0.049 A 
ATOM     47  H   UNL A   1      45.441  24.177  27.558  1.00  0.00     0.167 HD
ATOM     48  C   UNL A   1      46.007  25.658  31.231  1.00  0.00     0.074 A 
ATOM     49  C   UNL A   1      45.637  24.709  32.268  1.00  0.00     0.031 C 
ATOM     50  C   UNL A   1      45.760  25.534  29.900  1.00  0.00     0.034 A 
BRANCH  37  51
ATOM     51  C   UNL A   1      43.372  23.005  25.728  1.00  0.00     0.023 A 
ATOM     52  C   UNL A   1      43.446  21.588  25.667  1.00  0.00     0.031 A 
ATOM     53  C   UNL A   1      44.116  23.706  24.773  1.00  0.00     0.131 A 
ATOM     54  C   UNL A   1      44.367  20.938  24.842  1.00  0.00     0.055 A 
ATOM     55  C   UNL A   1      44.974  23.044  23.880  1.00  0.00     0.041 A 
ATOM     56  F   UNL A   1      44.119  25.043  24.722  1.00  0.00    -0.206 F 
ATOM     57  C   UNL A   1      45.140  21.661  23.943  1.00  0.00     0.022 A 
BRANCH  54  58
ATOM     58  S   UNL A   1      44.669  19.173  25.140  1.00  0.00     0.124 S 
ATOM     59  O   UNL A   1      43.590  18.831  26.060  1.00  0.00    -0.237 OA
ATOM     60  O   UNL A   1      44.563  18.615  23.794  1.00  0.00    -0.237 OA
ATOM     61  O   UNL A   1      46.012  19.153  25.715  1.00  0.00    -0.744 OA
ENDBRANCH  54  58
ENDBRANCH  37  51
BRANCH  38  62
ATOM     62  C   UNL A   1      44.939  28.024  34.858  1.00  0.00     0.023 A 
ATOM     63  C   UNL A   1      46.024  28.838  35.231  1.00  0.00     0.031 A 
ATOM     64  C   UNL A   1      44.210  27.494  35.990  1.00  0.00     0.131 A 
ATOM     65  C   UNL A   1      46.248  29.152  36.618  1.00  0.00     0.055 A 
ATOM     66  C   UNL A   1      44.358  27.899  37.315  1.00  0.00     0.041 A 
ATOM     67  F   UNL A   1      43.281  26.536  35.865  1.00  0.00    -0.206 F 
ATOM     68  C   UNL A   1      45.376  28.752  37.637  1.00  0.00     0.022 A 
BRANCH  65  69
ATOM     69  S   UNL A   1      47.688  30.117  37.187  1.00  0.00     0.124 S 
ATOM     70  O   UNL A   1      48.093  29.380  38.380  1.00  0.00    -0.237 OA
ATOM     71  O   UNL A   1      48.598  30.054  36.051  1.00  0.00    -0.237 OA
ATOM     72  O   UNL A   1      47.125  31.444  37.447  1.00  0.00    -0.744 OA
ENDBRANCH  65  69
ENDBRANCH  38  62
BRANCH  50  73
ATOM     73  C   UNL A   1      46.058  26.783  29.065  1.00  0.00     0.023 A 
ATOM     74  C   UNL A   1      44.989  27.562  28.567  1.00  0.00     0.031 A 
ATOM     75  C   UNL A   1      47.340  27.175  28.637  1.00  0.00     0.131 A 
ATOM     76  C   UNL A   1      45.204  28.624  27.664  1.00  0.00     0.055 A 
ATOM     77  C   UNL A   1      47.560  28.236  27.739  1.00  0.00     0.041 A 
ATOM     78  F   UNL A   1      48.431  26.540  29.064  1.00  0.00    -0.206 F 
ATOM     79  C   UNL A   1      46.488  28.965  27.245  1.00  0.00     0.022 A 
BRANCH  76  80
ATOM     80  S   UNL A   1      43.783  29.577  27.058  1.00  0.00     0.124 S 
ATOM     81  O   UNL A   1      43.154  30.039  28.290  1.00  0.00    -0.237 OA
ATOM     82  O   UNL A   1      44.416  30.605  26.238  1.00  0.00    -0.237 OA
ATOM     83  O   UNL A   1      43.006  28.591  26.304  1.00  0.00    -0.744 OA
ENDBRANCH  76  80
ENDBRANCH  50  73
ENDBRANCH  24  25
ENDBRANCH  17  19
ENDBRANCH  16  17
ENDBRANCH   1  16
TORSDOF 17
ENDMDL
MODEL 2
REMARK VINA RESULT:     -10.1      4.454      9.917
REMARK SMILES C=CCn1cc(CC)cc1C(=O)OCCOC(=O)c1ccc(-c2c3nc(c(-c4cc(S(=O)(=O)[O-])ccc4F)c4ccc([nH]4)c(-c4cc(S(=O)(=O)[O-])ccc4F)c4nc(c(-c5cc(S(=O)(=O)[O-])ccc5F)c5ccc2[nH]5)C=C4)C=C3)cc1
REMARK SMILES IDX 15 1 14 2 13 3 11 4 12 5 10 6 4 7 5 8 6 9 9 10 3 11 2 12
REMARK SMILES IDX 1 13 7 14 8 15 16 16 17 17 18 18 19 19 20 20 81 21 21 22
REMARK SMILES IDX 80 23 22 24 23 25 24 26 74 27 25 28 79 29 73 30 75 31 26 32
REMARK SMILES IDX 78 33 72 34 71 35 27 37 59 38 39 39 58 40 40 41 43 42 57 43
REMARK SMILES IDX 76 44 41 45 42 46 56 48 77 49 44 50 28 51 29 52 37 53 30 54
REMARK SMILES IDX 36 55 38 56 35 57 31 58 32 59 33 60 34 61 60 62 61 63 69 64
REMARK SMILES IDX 62 65 68 66 70 67 67 68 63 69 64 70 65 71 66 72 45 73 46 74
REMARK SMILES IDX 54 75 47 76 53 77 55 78 52 79 48 80 49 81 50 82 51 83
REMARK H PARENT 75 36 43 47
REMARK Flexibility Score: inf
ROOT
ATOM      1  C   UNL A   1      39.782  21.803  26.098  1.00  0.00     0.275 C 
ENDROOT
BRANCH   1   2
ATOM      2  C   UNL A   1      38.437  21.365  25.517  1.00  0.00     0.275 C 
BRANCH   2   3
ATOM      3  O   UNL A   1      37.407  22.357  25.684  1.00  0.00    -0.457 OA
BRANCH   3   4
ATOM      4  C   UNL A   1      36.424  22.357  24.740  1.00  0.00     0.355 C 
ATOM      5  O   UNL A   1      36.570  22.811  23.606  1.00  0.00    -0.244 OA
BRANCH   4   6
ATOM      6  C   UNL A   1      35.224  21.671  25.188  1.00  0.00     0.128 A 
ATOM      7  N   UNL A   1      34.260  22.061  26.101  1.00  0.00    -0.338 N 
ATOM      8  C   UNL A   1      33.289  21.084  26.201  1.00  0.00     0.090 A 
ATOM      9  C   UNL A   1      33.620  20.036  25.371  1.00  0.00    -0.030 A 
ATOM     10  C   UNL A   1      34.849  20.400  24.765  1.00  0.00     0.039 A 
BRANCH   7  11
ATOM     11  C   UNL A   1      34.148  23.329  26.813  1.00  0.00     0.149 C 
BRANCH  11  12
ATOM     12  C   UNL A   1      33.621  24.403  25.899  1.00  0.00    -0.013 C 
ATOM     13  C   UNL A   1      34.357  25.406  25.402  1.00  0.00     0.006 C 
ENDBRANCH  11  12
ENDBRANCH   7  11
BRANCH   9  14
ATOM     14  C   UNL A   1      32.841  18.781  25.154  1.00  0.00     0.034 C 
ATOM     15  C   UNL A   1      33.293  18.021  23.915  1.00  0.00     0.009 C 
ENDBRANCH   9  14
ENDBRANCH   4   6
ENDBRANCH   3   4
ENDBRANCH   2   3
ENDBRANCH   1   2
BRANCH   1  16
ATOM     16  O   UNL A   1      39.682  22.927  26.975  1.00  0.00    -0.458 OA
BRANCH  16  17
ATOM     17  C   UNL A   1      40.556  23.906  26.650  1.00  0.00     0.338 C 
ATOM     18  O   UNL A   1      41.671  23.760  26.169  1.00  0.00    -0.246 OA
BRANCH  17  19
ATOM     19  C   UNL A   1      40.155  25.192  27.207  1.00  0.00     0.060 A 
ATOM     20  C   UNL A   1      40.981  26.276  26.900  1.00  0.00     0.016 A 
ATOM     21  C   UNL A   1      39.291  25.197  28.310  1.00  0.00     0.016 A 
ATOM     22  C   UNL A   1      41.063  27.313  27.801  1.00  0.00     0.010 A 
ATOM     23  C   UNL A   1      39.400  26.222  29.231  1.00  0.00     0.010 A 
ATOM     24  C   UNL A   1      40.312  27.256  28.986  1.00  0.00    -0.014 A 
BRANCH  24  25
ATOM     25  C   UNL A   1      40.293  28.475  29.805  1.00  0.00     0.031 A 
ATOM     26  C   UNL A   1      41.353  28.286  30.930  1.00  0.00     0.074 A 
ATOM     27  C   UNL A   1      39.335  29.417  29.499  1.00  0.00     0.049 A 
ATOM     28  N   UNL A   1      41.334  28.675  32.163  1.00  0.00    -0.248 NA
ATOM     29  C   UNL A   1      42.554  27.411  30.699  1.00  0.00     0.031 C 
ATOM     30  C   UNL A   1      38.440  29.398  28.307  1.00  0.00     0.029 A 
ATOM     31  N   UNL A   1      38.902  30.584  30.101  1.00  0.00    -0.354 N 
ATOM     32  C   UNL A   1      42.606  28.395  32.719  1.00  0.00     0.074 A 
ATOM     33  C   UNL A   1      43.220  27.445  31.855  1.00  0.00     0.031 C 
ATOM     34  C   UNL A   1      37.547  30.424  28.329  1.00  0.00     0.029 A 
ATOM     35  C   UNL A   1      37.763  31.242  29.508  1.00  0.00     0.049 A 
ATOM     36  H   UNL A   1      39.352  30.951  30.897  1.00  0.00     0.167 HD
ATOM     37  C   UNL A   1      43.144  29.145  33.728  1.00  0.00     0.034 A 
ATOM     38  C   UNL A   1      37.070  32.349  29.969  1.00  0.00     0.034 A 
ATOM     39  C   UNL A   1      42.199  30.147  34.095  1.00  0.00     0.049 A 
ATOM     40  C   UNL A   1      37.949  32.823  31.042  1.00  0.00     0.074 A 
ATOM     41  C   UNL A   1      40.950  30.062  34.652  1.00  0.00     0.029 A 
ATOM     42  N   UNL A   1      42.346  31.365  33.465  1.00  0.00    -0.354 N 
ATOM     43  N   UNL A   1      39.075  33.430  30.835  1.00  0.00    -0.248 NA
ATOM     44  C   UNL A   1      37.562  32.595  32.439  1.00  0.00     0.031 C 
ATOM     45  C   UNL A   1      40.219  30.954  33.847  1.00  0.00     0.029 A 
ATOM     46  C   UNL A   1      41.091  31.779  33.122  1.00  0.00     0.049 A 
ATOM     47  H   UNL A   1      43.190  31.842  33.296  1.00  0.00     0.167 HD
ATOM     48  C   UNL A   1      39.687  33.319  32.051  1.00  0.00     0.074 A 
ATOM     49  C   UNL A   1      38.630  33.126  33.031  1.00  0.00     0.031 C 
ATOM     50  C   UNL A   1      40.930  32.772  32.089  1.00  0.00     0.034 A 
BRANCH  37  51
ATOM     51  C   UNL A   1      44.546  29.340  34.245  1.00  0.00     0.023 A 
ATOM     52  C   UNL A   1      44.691  29.214  35.652  1.00  0.00     0.031 A 
ATOM     53  C   UNL A   1      45.597  29.966  33.567  1.00  0.00     0.131 A 
ATOM     54  C   UNL A   1      45.720  29.861  36.342  1.00  0.00     0.055 A 
ATOM     55  C   UNL A   1      46.679  30.536  34.256  1.00  0.00     0.041 A 
ATOM     56  F   UNL A   1      45.580  30.134  32.239  1.00  0.00    -0.206 F 
ATOM     57  C   UNL A   1      46.721  30.529  35.650  1.00  0.00     0.022 A 
BRANCH  54  58
ATOM     58  S   UNL A   1      45.579  29.981  38.148  1.00  0.00     0.124 S 
ATOM     59  O   UNL A   1      46.971  29.867  38.569  1.00  0.00    -0.237 OA
ATOM     60  O   UNL A   1      44.965  31.296  38.319  1.00  0.00    -0.237 OA
ATOM     61  O   UNL A   1      44.726  28.848  38.496  1.00  0.00    -0.744 OA
ENDBRANCH  54  58
ENDBRANCH  37  51
BRANCH  38  62
ATOM     62  C   UNL A   1      35.822  33.258  29.824  1.00  0.00     0.023 A 
ATOM     63  C   UNL A   1      35.144  33.998  30.812  1.00  0.00     0.031 A 
ATOM     64  C   UNL A   1      35.350  33.532  28.485  1.00  0.00     0.131 A 
ATOM     65  C   UNL A   1      34.172  34.989  30.431  1.00  0.00     0.055 A 
ATOM     66  C   UNL A   1      34.501  34.574  28.118  1.00  0.00     0.041 A 
ATOM     67  F   UNL A   1      35.709  32.790  27.428  1.00  0.00    -0.206 F 
ATOM     68  C   UNL A   1      33.915  35.327  29.097  1.00  0.00     0.022 A 
BRANCH  65  69
ATOM     69  S   UNL A   1      33.183  35.916  31.651  1.00  0.00     0.124 S 
ATOM     70  O   UNL A   1      34.219  36.498  32.499  1.00  0.00    -0.237 OA
ATOM     71  O   UNL A   1      32.428  36.849  30.824  1.00  0.00    -0.237 OA
ATOM     72  O   UNL A   1      32.375  34.876  32.294  1.00  0.00    -0.744 OA
ENDBRANCH  65  69
ENDBRANCH  38  62
BRANCH  50  73
ATOM     73  C   UNL A   1      41.762  32.961  30.815  1.00  0.00     0.023 A 
ATOM     74  C   UNL A   1      42.298  31.831  30.157  1.00  0.00     0.031 A 
ATOM     75  C   UNL A   1      42.150  34.206  30.288  1.00  0.00     0.131 A 
ATOM     76  C   UNL A   1      43.199  31.960  29.080  1.00  0.00     0.055 A 
ATOM     77  C   UNL A   1      43.046  34.340  29.212  1.00  0.00     0.041 A 
ATOM     78  F   UNL A   1      41.685  35.345  30.802  1.00  0.00    -0.206 F 
ATOM     79  C   UNL A   1      43.578  33.213  28.603  1.00  0.00     0.022 A 
BRANCH  76  80
ATOM     80  S   UNL A   1      43.856  30.465  28.286  1.00  0.00     0.124 S 
ATOM     81  O   UNL A   1      42.659  29.842  27.731  1.00  0.00    -0.237 OA
ATOM     82  O   UNL A   1      44.803  31.008  27.318  1.00  0.00    -0.237 OA
ATOM     83  O   UNL A   1      44.471  29.732  29.394  1.00  0.00    -0.744 OA
ENDBRANCH  76  80
ENDBRANCH  50  73
ENDBRANCH  24  25
ENDBRANCH  17  19
ENDBRANCH  16  17
ENDBRANCH   1  16
TORSDOF 17
ENDMDL
MODEL 3
REMARK VINA RESULT:     -10.0      3.888      9.693
REMARK SMILES C=CCn1cc(CC)cc1C(=O)OCCOC(=O)c1ccc(-c2c3nc(c(-c4cc(S(=O)(=O)[O-])ccc4F)c4ccc([nH]4)c(-c4cc(S(=O)(=O)[O-])ccc4F)c4nc(c(-c5cc(S(=O)(=O)[O-])ccc5F)c5ccc2[nH]5)C=C4)C=C3)cc1
REMARK SMILES IDX 15 1 14 2 13 3 11 4 12 5 10 6 4 7 5 8 6 9 9 10 3 11 2 12
REMARK SMILES IDX 1 13 7 14 8 15 16 16 17 17 18 18 19 19 20 20 81 21 21 22
REMARK SMILES IDX 80 23 22 24 23 25 24 26 74 27 25 28 79 29 73 30 75 31 26 32
REMARK SMILES IDX 78 33 72 34 71 35 27 37 59 38 39 39 58 40 40 41 43 42 57 43
REMARK SMILES IDX 76 44 41 45 42 46 56 48 77 49 44 50 28 51 29 52 37 53 30 54
REMARK SMILES IDX 36 55 38 56 35 57 31 58 32 59 33 60 34 61 60 62 61 63 69 64
REMARK SMILES IDX 62 65 68 66 70 67 67 68 63 69 64 70 65 71 66 72 45 73 46 74
REMARK SMILES IDX 54 75 47 76 53 77 55 78 52 79 48 80 49 81 50 82 51 83
REMARK H PARENT 75 36 43 47
REMARK Flexibility Score: inf
ROOT
ATOM      1  C   UNL A   1      35.126  32.467  31.022  1.00  0.00     0.275 C 
ENDROOT
BRANCH   1   2
ATOM      2  C   UNL A   1      34.892  32.761  32.505  1.00  0.00     0.275 C 
BRANCH   2   3
ATOM      3  O   UNL A   1      36.115  32.983  33.231  1.00  0.00    -0.457 OA
BRANCH   3   4
ATOM      4  C   UNL A   1      36.687  34.209  33.070  1.00  0.00     0.355 C 
ATOM      5  O   UNL A   1      36.042  35.253  32.978  1.00  0.00    -0.244 OA
BRANCH   4   6
ATOM      6  C   UNL A   1      38.138  34.157  33.122  1.00  0.00     0.128 A 
ATOM      7  N   UNL A   1      39.034  33.424  32.365  1.00  0.00    -0.338 N 
ATOM      8  C   UNL A   1      40.325  33.706  32.765  1.00  0.00     0.090 A 
ATOM      9  C   UNL A   1      40.285  34.611  33.803  1.00  0.00    -0.030 A 
ATOM     10  C   UNL A   1      38.910  34.862  34.040  1.00  0.00     0.039 A 
BRANCH   7  11
ATOM     11  C   UNL A   1      38.757  32.548  31.232  1.00  0.00     0.149 C 
BRANCH  11  12
ATOM     12  C   UNL A   1      38.911  33.297  29.935  1.00  0.00    -0.013 C 
ATOM     13  C   UNL A   1      37.985  34.114  29.415  1.00  0.00     0.006 C 
ENDBRANCH  11  12
ENDBRANCH   7  11
BRANCH   9  14
ATOM     14  C   UNL A   1      41.451  35.203  34.524  1.00  0.00     0.034 C 
ATOM     15  C   UNL A   1      42.472  35.817  33.577  1.00  0.00     0.009 C 
ENDBRANCH   9  14
ENDBRANCH   4   6
ENDBRANCH   3   4
ENDBRANCH   2   3
ENDBRANCH   1   2
BRANCH   1  16
ATOM     16  O   UNL A   1      35.714  31.185  30.785  1.00  0.00    -0.458 OA
BRANCH  16  17
ATOM     17  C   UNL A   1      35.772  30.889  29.467  1.00  0.00     0.338 C 
ATOM     18  O   UNL A   1      34.933  31.158  28.619  1.00  0.00    -0.246 OA
BRANCH  17  19
ATOM     19  C   UNL A   1      36.832  29.930  29.178  1.00  0.00     0.060 A 
ATOM     20  C   UNL A   1      37.422  29.318  30.286  1.00  0.00     0.016 A 
ATOM     21  C   UNL A   1      37.470  30.002  27.933  1.00  0.00     0.016 A 
ATOM     22  C   UNL A   1      38.736  28.917  30.190  1.00  0.00     0.010 A 
ATOM     23  C   UNL A   1      38.798  29.631  27.847  1.00  0.00     0.010 A 
ATOM     24  C   UNL A   1      39.431  29.123  28.989  1.00  0.00    -0.014 A 
BRANCH  24  25
ATOM     25  C   UNL A   1      40.758  28.500  28.888  1.00  0.00     0.031 A 
ATOM     26  C   UNL A   1      41.811  29.633  29.070  1.00  0.00     0.074 A 
ATOM     27  C   UNL A   1      40.794  27.160  28.566  1.00  0.00     0.049 A 
ATOM     28  N   UNL A   1      42.963  29.793  28.507  1.00  0.00    -0.248 NA
ATOM     29  C   UNL A   1      41.481  30.848  29.891  1.00  0.00     0.031 C 
ATOM     30  C   UNL A   1      39.617  26.248  28.492  1.00  0.00     0.029 A 
ATOM     31  N   UNL A   1      41.802  26.272  28.240  1.00  0.00    -0.354 N 
ATOM     32  C   UNL A   1      43.596  30.893  29.135  1.00  0.00     0.074 A 
ATOM     33  C   UNL A   1      42.571  31.613  29.809  1.00  0.00     0.031 C 
ATOM     34  C   UNL A   1      39.969  25.003  28.070  1.00  0.00     0.029 A 
ATOM     35  C   UNL A   1      41.403  24.943  27.846  1.00  0.00     0.049 A 
ATOM     36  H   UNL A   1      42.751  26.535  28.276  1.00  0.00     0.167 HD
ATOM     37  C   UNL A   1      44.956  30.992  29.238  1.00  0.00     0.034 A 
ATOM     38  C   UNL A   1      42.192  23.909  27.372  1.00  0.00     0.034 A 
ATOM     39  C   UNL A   1      45.539  29.868  28.583  1.00  0.00     0.049 A 
ATOM     40  C   UNL A   1      43.540  24.424  27.630  1.00  0.00     0.074 A 
ATOM     41  C   UNL A   1      45.540  29.477  27.271  1.00  0.00     0.029 A 
ATOM     42  N   UNL A   1      45.820  28.786  29.391  1.00  0.00    -0.354 N 
ATOM     43  N   UNL A   1      44.072  24.487  28.809  1.00  0.00    -0.248 NA
ATOM     44  C   UNL A   1      44.346  24.918  26.508  1.00  0.00     0.031 C 
ATOM     45  C   UNL A   1      45.237  28.108  27.382  1.00  0.00     0.029 A 
ATOM     46  C   UNL A   1      45.432  27.675  28.702  1.00  0.00     0.049 A 
ATOM     47  H   UNL A   1      46.222  28.811  30.290  1.00  0.00     0.167 HD
ATOM     48  C   UNL A   1      45.107  25.355  28.610  1.00  0.00     0.074 A 
ATOM     49  C   UNL A   1      45.421  25.308  27.191  1.00  0.00     0.031 C 
ATOM     50  C   UNL A   1      45.184  26.447  29.417  1.00  0.00     0.034 A 
BRANCH  37  51
ATOM     51  C   UNL A   1      45.876  31.787  30.128  1.00  0.00     0.023 A 
ATOM     52  C   UNL A   1      45.596  31.698  31.517  1.00  0.00     0.031 A 
ATOM     53  C   UNL A   1      46.702  32.844  29.729  1.00  0.00     0.131 A 
ATOM     54  C   UNL A   1      45.949  32.720  32.402  1.00  0.00     0.055 A 
ATOM     55  C   UNL A   1      47.134  33.822  30.639  1.00  0.00     0.041 A 
ATOM     56  F   UNL A   1      47.047  33.027  28.449  1.00  0.00    -0.206 F 
ATOM     57  C   UNL A   1      46.719  33.792  31.970  1.00  0.00     0.022 A 
BRANCH  54  58
ATOM     58  S   UNL A   1      45.190  32.708  34.052  1.00  0.00     0.124 S 
ATOM     59  O   UNL A   1      45.607  33.999  34.587  1.00  0.00    -0.237 OA
ATOM     60  O   UNL A   1      43.771  32.577  33.733  1.00  0.00    -0.237 OA
ATOM     61  O   UNL A   1      45.794  31.541  34.691  1.00  0.00    -0.744 OA
ENDBRANCH  54  58
ENDBRANCH  37  51
BRANCH  38  62
ATOM     62  C   UNL A   1      42.245  22.501  26.724  1.00  0.00     0.023 A 
ATOM     63  C   UNL A   1      43.317  21.865  26.071  1.00  0.00     0.031 A 
ATOM     64  C   UNL A   1      41.108  21.631  26.930  1.00  0.00     0.131 A 
ATOM     65  C   UNL A   1      43.249  20.457  25.776  1.00  0.00     0.055 A 
ATOM     66  C   UNL A   1      41.098  20.250  26.753  1.00  0.00     0.041 A 
ATOM     67  F   UNL A   1      39.916  22.088  27.339  1.00  0.00    -0.206 F 
ATOM     68  C   UNL A   1      42.185  19.647  26.186  1.00  0.00     0.022 A 
BRANCH  65  69
ATOM     69  S   UNL A   1      44.553  19.584  24.846  1.00  0.00     0.124 S 
ATOM     70  O   UNL A   1      45.764  20.048  25.516  1.00  0.00    -0.237 OA
ATOM     71  O   UNL A   1      44.210  18.180  25.036  1.00  0.00    -0.237 OA
ATOM     72  O   UNL A   1      44.381  20.076  23.477  1.00  0.00    -0.744 OA
ENDBRANCH  65  69
ENDBRANCH  38  62
BRANCH  50  73
ATOM     73  C   UNL A   1      44.580  26.266  30.813  1.00  0.00     0.023 A 
ATOM     74  C   UNL A   1      43.637  27.204  31.293  1.00  0.00     0.031 A 
ATOM     75  C   UNL A   1      44.978  25.284  31.738  1.00  0.00     0.131 A 
ATOM     76  C   UNL A   1      43.175  27.173  32.625  1.00  0.00     0.055 A 
ATOM     77  C   UNL A   1      44.517  25.248  33.067  1.00  0.00     0.041 A 
ATOM     78  F   UNL A   1      45.838  24.325  31.395  1.00  0.00    -0.206 F 
ATOM     79  C   UNL A   1      43.612  26.198  33.518  1.00  0.00     0.022 A 
BRANCH  76  80
ATOM     80  S   UNL A   1      41.969  28.414  33.176  1.00  0.00     0.124 S 
ATOM     81  O   UNL A   1      41.781  28.079  34.583  1.00  0.00    -0.237 OA
ATOM     82  O   UNL A   1      42.659  29.671  32.904  1.00  0.00    -0.237 OA
ATOM     83  O   UNL A   1      40.806  28.162  32.324  1.00  0.00    -0.744 OA
ENDBRANCH  76  80
ENDBRANCH  50  73
ENDBRANCH  24  25
ENDBRANCH  17  19
ENDBRANCH  16  17
ENDBRANCH   1  16
TORSDOF 17
ENDMDL
