MODEL 1
REMARK VINA RESULT:     -14.3      0.000      0.000
REMARK SMILES CCCOC(=O)c1c(NC(=O)[C@@H]2CC=CC[C@H]2C(=O)OCCOC(=O)c2ccc(-c3c4nc(c(-c5cc(S(=O)(=O)[O-])ccc5F)c5ccc([nH]5)c(-c5cc(S(=O)(=O)[O-])ccc5F)c5nc(c(-c6cc(S(=O)(=O)[O-])ccc6F)c6ccc3[nH]6)C=C5)C=C4)cc2)sc2c1CCCC2
REMARK SMILES IDX 20 1 18 2 19 3 17 4 12 5 13 6 14 7 16 8 15 9 10 10 9 11
REMARK SMILES IDX 11 13 8 14 7 15 91 16 89 17 90 18 92 19 95 20 93 21 94 22
REMARK SMILES IDX 5 23 6 24 4 25 3 26 2 27 1 28 21 29 22 30 23 31 24 32 25 33
REMARK SMILES IDX 26 34 27 35 88 36 28 37 87 38 29 39 30 40 31 41 81 42 32 43
REMARK SMILES IDX 86 44 80 45 82 46 33 47 85 48 79 49 78 50 34 52 66 53 46 54
REMARK SMILES IDX 65 55 47 56 50 57 64 58 83 59 48 60 49 61 63 63 84 64 51 65
REMARK SMILES IDX 35 66 36 67 44 68 37 69 43 70 45 71 42 72 38 73 39 74 40 75
REMARK SMILES IDX 41 76 67 77 68 78 76 79 69 80 75 81 77 82 74 83 70 84 71 85
REMARK SMILES IDX 72 86 73 87 52 88 53 89 61 90 54 91 60 92 62 93 59 94 55 95
REMARK SMILES IDX 56 96 57 97 58 98
REMARK H PARENT 9 12 82 51 50 62
REMARK Flexibility Score: inf
ROOT
ATOM      1  O   UNL A   1      35.155  24.170  24.265  1.00  0.00    -0.462 OA
ENDROOT
BRANCH   1   2
ATOM      2  C   UNL A   1      34.247  25.055  23.636  1.00  0.00     0.310 C 
ATOM      3  O   UNL A   1      33.968  24.946  22.429  1.00  0.00    -0.252 OA
BRANCH   2   4
ATOM      4  C   UNL A   1      33.271  26.093  24.280  1.00  0.00     0.116 C 
ATOM      5  C   UNL A   1      33.187  26.682  25.723  1.00  0.00     0.097 C 
ATOM      6  C   UNL A   1      33.072  28.256  25.720  1.00  0.00     0.041 C 
ATOM      7  C   UNL A   1      33.737  28.993  24.603  1.00  0.00    -0.030 C 
ATOM      8  C   UNL A   1      33.092  27.163  23.128  1.00  0.00     0.043 C 
ATOM      9  C   UNL A   1      33.719  28.483  23.374  1.00  0.00    -0.030 C 
BRANCH   5  10
ATOM     10  C   UNL A   1      31.855  26.239  26.445  1.00  0.00     0.229 C 
ATOM     11  N   UNL A   1      31.502  24.973  26.815  1.00  0.00    -0.317 N 
ATOM     12  H   UNL A   1      31.092  24.922  27.709  1.00  0.00     0.170 HD
ATOM     13  O   UNL A   1      31.074  27.117  26.843  1.00  0.00    -0.274 OA
BRANCH  11  14
ATOM     14  C   UNL A   1      31.606  23.758  26.187  1.00  0.00     0.110 A 
ATOM     15  C   UNL A   1      31.183  23.262  24.981  1.00  0.00     0.098 A 
ATOM     16  C   UNL A   1      32.024  22.087  24.649  1.00  0.00    -0.017 A 
ATOM     17  S   UNL A   1      32.406  22.558  27.121  1.00  0.00    -0.122 S 
ATOM     18  C   UNL A   1      32.567  21.514  25.782  1.00  0.00     0.011 A 
ATOM     19  C   UNL A   1      32.376  21.471  23.311  1.00  0.00     0.038 C 
ATOM     20  C   UNL A   1      33.253  20.167  25.836  1.00  0.00     0.047 C 
ATOM     21  C   UNL A   1      32.385  19.941  23.416  1.00  0.00     0.005 C 
ATOM     22  C   UNL A   1      33.441  19.516  24.443  1.00  0.00     0.006 C 
BRANCH  15  23
ATOM     23  C   UNL A   1      30.533  24.102  24.003  1.00  0.00     0.341 C 
ATOM     24  O   UNL A   1      30.394  23.457  22.967  1.00  0.00    -0.246 OA
BRANCH  23  25
ATOM     25  O   UNL A   1      30.003  25.464  24.336  1.00  0.00    -0.462 OA
BRANCH  25  26
ATOM     26  C   UNL A   1      29.005  26.884  23.843  1.00  0.00     0.233 C 
BRANCH  26  27
ATOM     27  C   UNL A   1      29.224  28.392  23.102  1.00  0.00     0.038 C 
ATOM     28  C   UNL A   1      30.023  29.681  23.496  1.00  0.00     0.007 C 
ENDBRANCH  26  27
ENDBRANCH  25  26
ENDBRANCH  23  25
ENDBRANCH  15  23
ENDBRANCH  11  14
ENDBRANCH   5  10
ENDBRANCH   2   4
ENDBRANCH   1   2
BRANCH   1  29
ATOM     29  C   UNL A   1      35.712  22.488  24.230  1.00  0.00     0.274 C 
BRANCH  29  30
ATOM     30  C   UNL A   1      36.838  21.556  25.331  1.00  0.00     0.275 C 
BRANCH  30  31
ATOM     31  O   UNL A   1      38.316  21.240  25.031  1.00  0.00    -0.458 OA
BRANCH  31  32
ATOM     32  C   UNL A   1      39.339  21.029  25.934  1.00  0.00     0.338 C 
ATOM     33  O   UNL A   1      39.795  19.932  26.165  1.00  0.00    -0.246 OA
BRANCH  32  34
ATOM     34  C   UNL A   1      39.890  22.313  26.632  1.00  0.00     0.060 A 
ATOM     35  C   UNL A   1      40.764  22.331  27.729  1.00  0.00     0.016 A 
ATOM     36  C   UNL A   1      39.420  23.578  26.257  1.00  0.00     0.016 A 
ATOM     37  C   UNL A   1      41.252  23.508  28.345  1.00  0.00     0.010 A 
ATOM     38  C   UNL A   1      39.911  24.779  26.862  1.00  0.00     0.010 A 
ATOM     39  C   UNL A   1      40.878  24.764  27.881  1.00  0.00    -0.014 A 
BRANCH  39  40
ATOM     40  C   UNL A   1      41.556  26.018  28.366  1.00  0.00     0.031 A 
ATOM     41  C   UNL A   1      40.807  27.107  29.094  1.00  0.00     0.074 A 
ATOM     42  C   UNL A   1      42.866  26.222  28.095  1.00  0.00     0.049 A 
ATOM     43  N   UNL A   1      41.153  28.353  29.317  1.00  0.00    -0.248 NA
ATOM     44  C   UNL A   1      39.499  26.741  29.649  1.00  0.00     0.031 C 
ATOM     45  C   UNL A   1      43.764  25.235  27.489  1.00  0.00     0.029 A 
ATOM     46  N   UNL A   1      43.667  27.334  28.257  1.00  0.00    -0.354 N 
ATOM     47  C   UNL A   1      40.087  28.940  29.998  1.00  0.00     0.074 A 
ATOM     48  C   UNL A   1      39.087  27.898  30.155  1.00  0.00     0.031 C 
ATOM     49  C   UNL A   1      44.970  25.793  27.299  1.00  0.00     0.029 A 
ATOM     50  C   UNL A   1      44.916  27.198  27.686  1.00  0.00     0.049 A 
ATOM     51  H   UNL A   1      43.376  28.144  28.733  1.00  0.00     0.167 HD
ATOM     52  C   UNL A   1      39.952  30.223  30.431  1.00  0.00     0.034 A 
ATOM     53  C   UNL A   1      45.889  28.101  27.431  1.00  0.00     0.034 A 
ATOM     54  C   UNL A   1      40.965  31.248  30.275  1.00  0.00     0.049 A 
ATOM     55  C   UNL A   1      45.679  29.544  27.814  1.00  0.00     0.074 A 
ATOM     56  C   UNL A   1      40.924  32.574  30.681  1.00  0.00     0.029 A 
ATOM     57  N   UNL A   1      42.198  31.072  29.658  1.00  0.00    -0.354 N 
ATOM     58  N   UNL A   1      44.642  30.101  28.393  1.00  0.00    -0.248 NA
ATOM     59  C   UNL A   1      46.767  30.482  27.502  1.00  0.00     0.031 C 
ATOM     60  C   UNL A   1      42.089  33.213  30.241  1.00  0.00     0.029 A 
ATOM     61  C   UNL A   1      42.902  32.269  29.638  1.00  0.00     0.049 A 
ATOM     62  H   UNL A   1      42.525  30.220  29.289  1.00  0.00     0.167 HD
ATOM     63  C   UNL A   1      44.967  31.447  28.541  1.00  0.00     0.074 A 
ATOM     64  C   UNL A   1      46.297  31.618  27.997  1.00  0.00     0.031 C 
ATOM     65  C   UNL A   1      44.228  32.447  29.088  1.00  0.00     0.034 A 
BRANCH  52  66
ATOM     66  C   UNL A   1      38.623  30.624  31.043  1.00  0.00     0.023 A 
ATOM     67  C   UNL A   1      37.582  31.187  30.285  1.00  0.00     0.031 A 
ATOM     68  C   UNL A   1      38.402  30.445  32.423  1.00  0.00     0.131 A 
ATOM     69  C   UNL A   1      36.406  31.618  30.922  1.00  0.00     0.055 A 
ATOM     70  C   UNL A   1      37.198  30.800  33.036  1.00  0.00     0.041 A 
ATOM     71  F   UNL A   1      39.359  29.922  33.207  1.00  0.00    -0.206 F 
ATOM     72  C   UNL A   1      36.196  31.408  32.286  1.00  0.00     0.022 A 
BRANCH  69  73
ATOM     73  S   UNL A   1      35.209  32.598  29.970  1.00  0.00     0.124 S 
ATOM     74  O   UNL A   1      34.815  31.651  28.929  1.00  0.00    -0.237 OA
ATOM     75  O   UNL A   1      34.194  32.912  30.967  1.00  0.00    -0.237 OA
ATOM     76  O   UNL A   1      35.994  33.737  29.498  1.00  0.00    -0.744 OA
ENDBRANCH  69  73
ENDBRANCH  52  66
BRANCH  53  77
ATOM     77  C   UNL A   1      47.122  27.686  26.691  1.00  0.00     0.023 A 
ATOM     78  C   UNL A   1      47.246  27.885  25.308  1.00  0.00     0.031 A 
ATOM     79  C   UNL A   1      48.186  27.055  27.363  1.00  0.00     0.131 A 
ATOM     80  C   UNL A   1      48.396  27.434  24.637  1.00  0.00     0.055 A 
ATOM     81  C   UNL A   1      49.350  26.661  26.701  1.00  0.00     0.041 A 
ATOM     82  F   UNL A   1      48.117  26.828  28.685  1.00  0.00    -0.206 F 
ATOM     83  C   UNL A   1      49.456  26.841  25.327  1.00  0.00     0.022 A 
BRANCH  80  84
ATOM     84  S   UNL A   1      48.458  27.566  22.828  1.00  0.00     0.124 S 
ATOM     85  O   UNL A   1      49.643  28.392  22.631  1.00  0.00    -0.237 OA
ATOM     86  O   UNL A   1      48.572  26.169  22.425  1.00  0.00    -0.237 OA
ATOM     87  O   UNL A   1      47.188  28.208  22.490  1.00  0.00    -0.744 OA
ENDBRANCH  80  84
ENDBRANCH  53  77
BRANCH  65  88
ATOM     88  C   UNL A   1      44.871  33.810  29.180  1.00  0.00     0.023 A 
ATOM     89  C   UNL A   1      44.500  34.872  28.335  1.00  0.00     0.031 A 
ATOM     90  C   UNL A   1      45.877  34.049  30.135  1.00  0.00     0.131 A 
ATOM     91  C   UNL A   1      45.159  36.108  28.433  1.00  0.00     0.055 A 
ATOM     92  C   UNL A   1      46.490  35.296  30.264  1.00  0.00     0.041 A 
ATOM     93  F   UNL A   1      46.277  33.071  30.964  1.00  0.00    -0.206 F 
ATOM     94  C   UNL A   1      46.139  36.332  29.404  1.00  0.00     0.022 A 
BRANCH  91  95
ATOM     95  S   UNL A   1      44.772  37.407  27.225  1.00  0.00     0.124 S 
ATOM     96  O   UNL A   1      43.546  36.901  26.618  1.00  0.00    -0.237 OA
ATOM     97  O   UNL A   1      44.626  38.588  28.070  1.00  0.00    -0.237 OA
ATOM     98  O   UNL A   1      45.940  37.418  26.346  1.00  0.00    -0.744 OA
ENDBRANCH  91  95
ENDBRANCH  65  88
ENDBRANCH  39  40
ENDBRANCH  32  34
ENDBRANCH  31  32
ENDBRANCH  30  31
ENDBRANCH  29  30
ENDBRANCH   1  29
TORSDOF 20
ENDMDL
MODEL 2
REMARK VINA RESULT:     -13.8      4.877      9.724
REMARK SMILES CCCOC(=O)c1c(NC(=O)[C@@H]2CC=CC[C@H]2C(=O)OCCOC(=O)c2ccc(-c3c4nc(c(-c5cc(S(=O)(=O)[O-])ccc5F)c5ccc([nH]5)c(-c5cc(S(=O)(=O)[O-])ccc5F)c5nc(c(-c6cc(S(=O)(=O)[O-])ccc6F)c6ccc3[nH]6)C=C5)C=C4)cc2)sc2c1CCCC2
REMARK SMILES IDX 20 1 18 2 19 3 17 4 12 5 13 6 14 7 16 8 15 9 10 10 9 11
REMARK SMILES IDX 11 13 8 14 7 15 91 16 89 17 90 18 92 19 95 20 93 21 94 22
REMARK SMILES IDX 5 23 6 24 4 25 3 26 2 27 1 28 21 29 22 30 23 31 24 32 25 33
REMARK SMILES IDX 26 34 27 35 88 36 28 37 87 38 29 39 30 40 31 41 81 42 32 43
REMARK SMILES IDX 86 44 80 45 82 46 33 47 85 48 79 49 78 50 34 52 66 53 46 54
REMARK SMILES IDX 65 55 47 56 50 57 64 58 83 59 48 60 49 61 63 63 84 64 51 65
REMARK SMILES IDX 35 66 36 67 44 68 37 69 43 70 45 71 42 72 38 73 39 74 40 75
REMARK SMILES IDX 41 76 67 77 68 78 76 79 69 80 75 81 77 82 74 83 70 84 71 85
REMARK SMILES IDX 72 86 73 87 52 88 53 89 61 90 54 91 60 92 62 93 59 94 55 95
REMARK SMILES IDX 56 96 57 97 58 98
REMARK H PARENT 9 12 82 51 50 62
REMARK Flexibility Score: inf
ROOT
ATOM      1  O   UNL A   1      33.775  26.205  25.961  1.00  0.00    -0.462 OA
ENDROOT
BRANCH   1   2
ATOM      2  C   UNL A   1      34.272  24.937  25.578  1.00  0.00     0.310 C 
ATOM      3  O   UNL A   1      35.493  24.720  25.487  1.00  0.00    -0.252 OA
BRANCH   2   4
ATOM      4  C   UNL A   1      33.516  23.574  25.459  1.00  0.00     0.116 C 
ATOM      5  C   UNL A   1      33.823  22.285  24.634  1.00  0.00     0.097 C 
ATOM      6  C   UNL A   1      33.733  20.977  25.514  1.00  0.00     0.041 C 
ATOM      7  C   UNL A   1      34.090  21.095  26.960  1.00  0.00    -0.030 C 
ATOM      8  C   UNL A   1      33.054  23.300  26.947  1.00  0.00     0.043 C 
ATOM      9  C   UNL A   1      33.742  22.185  27.639  1.00  0.00    -0.030 C 
BRANCH   5  10
ATOM     10  C   UNL A   1      32.723  22.035  23.531  1.00  0.00     0.229 C 
ATOM     11  N   UNL A   1      32.140  22.969  22.724  1.00  0.00    -0.317 N 
ATOM     12  H   UNL A   1      32.041  22.678  21.788  1.00  0.00     0.170 HD
ATOM     13  O   UNL A   1      32.413  20.866  23.252  1.00  0.00    -0.274 OA
BRANCH  11  14
ATOM     14  C   UNL A   1      31.666  24.236  22.959  1.00  0.00     0.110 A 
ATOM     15  C   UNL A   1      32.070  25.494  22.595  1.00  0.00     0.098 A 
ATOM     16  C   UNL A   1      30.901  26.399  22.702  1.00  0.00    -0.017 A 
ATOM     17  S   UNL A   1      30.280  24.283  23.973  1.00  0.00    -0.122 S 
ATOM     18  C   UNL A   1      29.963  25.915  23.593  1.00  0.00     0.011 A 
ATOM     19  C   UNL A   1      30.590  27.699  21.990  1.00  0.00     0.038 C 
ATOM     20  C   UNL A   1      28.787  26.697  24.133  1.00  0.00     0.047 C 
ATOM     21  C   UNL A   1      29.932  28.691  22.958  1.00  0.00     0.005 C 
ATOM     22  C   UNL A   1      28.619  28.089  23.472  1.00  0.00     0.006 C 
BRANCH  15  23
ATOM     23  C   UNL A   1      33.183  25.702  21.699  1.00  0.00     0.341 C 
ATOM     24  O   UNL A   1      34.225  25.538  22.327  1.00  0.00    -0.246 OA
BRANCH  23  25
ATOM     25  O   UNL A   1      33.002  25.916  20.226  1.00  0.00    -0.462 OA
BRANCH  25  26
ATOM     26  C   UNL A   1      32.532  25.233  18.624  1.00  0.00     0.233 C 
BRANCH  26  27
ATOM     27  C   UNL A   1      31.351  25.483  17.435  1.00  0.00     0.038 C 
ATOM     28  C   UNL A   1      31.415  25.805  15.903  1.00  0.00     0.007 C 
ENDBRANCH  26  27
ENDBRANCH  25  26
ENDBRANCH  23  25
ENDBRANCH  15  23
ENDBRANCH  11  14
ENDBRANCH   5  10
ENDBRANCH   2   4
ENDBRANCH   1   2
BRANCH   1  29
ATOM     29  C   UNL A   1      32.268  27.049  26.358  1.00  0.00     0.274 C 
BRANCH  29  30
ATOM     30  C   UNL A   1      31.747  28.787  26.118  1.00  0.00     0.275 C 
BRANCH  30  31
ATOM     31  O   UNL A   1      32.700  29.987  25.961  1.00  0.00    -0.458 OA
BRANCH  31  32
ATOM     32  C   UNL A   1      33.061  30.916  26.916  1.00  0.00     0.338 C 
ATOM     33  O   UNL A   1      32.307  31.775  27.316  1.00  0.00    -0.246 OA
BRANCH  32  34
ATOM     34  C   UNL A   1      34.514  30.775  27.470  1.00  0.00     0.060 A 
ATOM     35  C   UNL A   1      35.359  31.839  27.819  1.00  0.00     0.016 A 
ATOM     36  C   UNL A   1      35.126  29.516  27.536  1.00  0.00     0.016 A 
ATOM     37  C   UNL A   1      36.673  31.687  28.321  1.00  0.00     0.010 A 
ATOM     38  C   UNL A   1      36.450  29.343  28.052  1.00  0.00     0.010 A 
ATOM     39  C   UNL A   1      37.226  30.424  28.505  1.00  0.00    -0.014 A 
BRANCH  39  40
ATOM     40  C   UNL A   1      38.522  30.231  29.246  1.00  0.00     0.031 A 
ATOM     41  C   UNL A   1      39.611  29.318  28.737  1.00  0.00     0.074 A 
ATOM     42  C   UNL A   1      38.711  30.838  30.441  1.00  0.00     0.049 A 
ATOM     43  N   UNL A   1      40.642  28.813  29.373  1.00  0.00    -0.248 NA
ATOM     44  C   UNL A   1      39.530  28.930  27.325  1.00  0.00     0.031 C 
ATOM     45  C   UNL A   1      37.808  31.827  31.034  1.00  0.00     0.029 A 
ATOM     46  N   UNL A   1      39.700  30.690  31.391  1.00  0.00    -0.354 N 
ATOM     47  C   UNL A   1      41.312  28.006  28.454  1.00  0.00     0.074 A 
ATOM     48  C   UNL A   1      40.564  28.103  27.212  1.00  0.00     0.031 C 
ATOM     49  C   UNL A   1      38.261  32.166  32.251  1.00  0.00     0.029 A 
ATOM     50  C   UNL A   1      39.437  31.363  32.567  1.00  0.00     0.049 A 
ATOM     51  H   UNL A   1      40.514  30.157  31.244  1.00  0.00     0.167 HD
ATOM     52  C   UNL A   1      42.427  27.247  28.635  1.00  0.00     0.034 A 
ATOM     53  C   UNL A   1      40.017  31.299  33.786  1.00  0.00     0.034 A 
ATOM     54  C   UNL A   1      43.167  27.169  29.879  1.00  0.00     0.049 A 
ATOM     55  C   UNL A   1      41.183  30.368  34.004  1.00  0.00     0.074 A 
ATOM     56  C   UNL A   1      44.308  26.433  30.163  1.00  0.00     0.029 A 
ATOM     57  N   UNL A   1      42.840  27.840  31.052  1.00  0.00    -0.354 N 
ATOM     58  N   UNL A   1      41.764  29.560  33.149  1.00  0.00    -0.248 NA
ATOM     59  C   UNL A   1      41.766  30.335  35.353  1.00  0.00     0.031 C 
ATOM     60  C   UNL A   1      44.620  26.595  31.517  1.00  0.00     0.029 A 
ATOM     61  C   UNL A   1      43.730  27.502  32.064  1.00  0.00     0.049 A 
ATOM     62  H   UNL A   1      42.086  28.465  31.151  1.00  0.00     0.167 HD
ATOM     63  C   UNL A   1      42.798  28.946  33.850  1.00  0.00     0.074 A 
ATOM     64  C   UNL A   1      42.767  29.480  35.194  1.00  0.00     0.031 C 
ATOM     65  C   UNL A   1      43.697  28.027  33.411  1.00  0.00     0.034 A 
BRANCH  52  66
ATOM     66  C   UNL A   1      42.875  26.366  27.485  1.00  0.00     0.023 A 
ATOM     67  C   UNL A   1      42.340  25.085  27.263  1.00  0.00     0.031 A 
ATOM     68  C   UNL A   1      43.870  26.820  26.597  1.00  0.00     0.131 A 
ATOM     69  C   UNL A   1      42.855  24.279  26.233  1.00  0.00     0.055 A 
ATOM     70  C   UNL A   1      44.319  26.046  25.524  1.00  0.00     0.041 A 
ATOM     71  F   UNL A   1      44.430  28.030  26.759  1.00  0.00    -0.206 F 
ATOM     72  C   UNL A   1      43.823  24.759  25.348  1.00  0.00     0.022 A 
BRANCH  69  73
ATOM     73  S   UNL A   1      42.351  22.536  26.155  1.00  0.00     0.124 S 
ATOM     74  O   UNL A   1      40.896  22.652  26.119  1.00  0.00    -0.237 OA
ATOM     75  O   UNL A   1      42.989  22.078  24.927  1.00  0.00    -0.237 OA
ATOM     76  O   UNL A   1      42.890  21.967  27.389  1.00  0.00    -0.744 OA
ENDBRANCH  69  73
ENDBRANCH  52  66
BRANCH  53  77
ATOM     77  C   UNL A   1      39.447  32.078  34.929  1.00  0.00     0.023 A 
ATOM     78  C   UNL A   1      39.869  33.387  35.204  1.00  0.00     0.031 A 
ATOM     79  C   UNL A   1      38.486  31.503  35.783  1.00  0.00     0.131 A 
ATOM     80  C   UNL A   1      39.351  34.070  36.319  1.00  0.00     0.055 A 
ATOM     81  C   UNL A   1      37.932  32.206  36.855  1.00  0.00     0.041 A 
ATOM     82  F   UNL A   1      38.053  30.249  35.574  1.00  0.00    -0.206 F 
ATOM     83  C   UNL A   1      38.372  33.495  37.134  1.00  0.00     0.022 A 
BRANCH  80  84
ATOM     84  S   UNL A   1      40.030  35.699  36.737  1.00  0.00     0.124 S 
ATOM     85  O   UNL A   1      39.350  35.992  37.992  1.00  0.00    -0.237 OA
ATOM     86  O   UNL A   1      41.459  35.418  36.829  1.00  0.00    -0.237 OA
ATOM     87  O   UNL A   1      39.634  36.534  35.603  1.00  0.00    -0.744 OA
ENDBRANCH  80  84
ENDBRANCH  53  77
BRANCH  65  88
ATOM     88  C   UNL A   1      44.765  27.585  34.384  1.00  0.00     0.023 A 
ATOM     89  C   UNL A   1      44.523  26.613  35.371  1.00  0.00     0.031 A 
ATOM     90  C   UNL A   1      46.051  28.153  34.321  1.00  0.00     0.131 A 
ATOM     91  C   UNL A   1      45.537  26.268  36.279  1.00  0.00     0.055 A 
ATOM     92  C   UNL A   1      47.072  27.767  35.191  1.00  0.00     0.041 A 
ATOM     93  F   UNL A   1      46.338  29.092  33.404  1.00  0.00    -0.206 F 
ATOM     94  C   UNL A   1      46.815  26.826  36.183  1.00  0.00     0.022 A 
BRANCH  91  95
ATOM     95  S   UNL A   1      45.148  25.130  37.639  1.00  0.00     0.124 S 
ATOM     96  O   UNL A   1      46.322  25.269  38.495  1.00  0.00    -0.237 OA
ATOM     97  O   UNL A   1      43.905  25.684  38.166  1.00  0.00    -0.237 OA
ATOM     98  O   UNL A   1      45.014  23.835  36.976  1.00  0.00    -0.744 OA
ENDBRANCH  91  95
ENDBRANCH  65  88
ENDBRANCH  39  40
ENDBRANCH  32  34
ENDBRANCH  31  32
ENDBRANCH  30  31
ENDBRANCH  29  30
ENDBRANCH   1  29
TORSDOF 20
ENDMDL
MODEL 3
REMARK VINA RESULT:     -13.7      2.260      7.426
REMARK SMILES CCCOC(=O)c1c(NC(=O)[C@@H]2CC=CC[C@H]2C(=O)OCCOC(=O)c2ccc(-c3c4nc(c(-c5cc(S(=O)(=O)[O-])ccc5F)c5ccc([nH]5)c(-c5cc(S(=O)(=O)[O-])ccc5F)c5nc(c(-c6cc(S(=O)(=O)[O-])ccc6F)c6ccc3[nH]6)C=C5)C=C4)cc2)sc2c1CCCC2
REMARK SMILES IDX 20 1 18 2 19 3 17 4 12 5 13 6 14 7 16 8 15 9 10 10 9 11
REMARK SMILES IDX 11 13 8 14 7 15 91 16 89 17 90 18 92 19 95 20 93 21 94 22
REMARK SMILES IDX 5 23 6 24 4 25 3 26 2 27 1 28 21 29 22 30 23 31 24 32 25 33
REMARK SMILES IDX 26 34 27 35 88 36 28 37 87 38 29 39 30 40 31 41 81 42 32 43
REMARK SMILES IDX 86 44 80 45 82 46 33 47 85 48 79 49 78 50 34 52 66 53 46 54
REMARK SMILES IDX 65 55 47 56 50 57 64 58 83 59 48 60 49 61 63 63 84 64 51 65
REMARK SMILES IDX 35 66 36 67 44 68 37 69 43 70 45 71 42 72 38 73 39 74 40 75
REMARK SMILES IDX 41 76 67 77 68 78 76 79 69 80 75 81 77 82 74 83 70 84 71 85
REMARK SMILES IDX 72 86 73 87 52 88 53 89 61 90 54 91 60 92 62 93 59 94 55 95
REMARK SMILES IDX 56 96 57 97 58 98
REMARK H PARENT 9 12 82 51 50 62
REMARK Flexibility Score: inf
ROOT
ATOM      1  O   UNL A   1      35.328  24.189  24.508  1.00  0.00    -0.462 OA
ENDROOT
BRANCH   1   2
ATOM      2  C   UNL A   1      34.428  25.001  23.777  1.00  0.00     0.310 C 
ATOM      3  O   UNL A   1      34.204  24.796  22.572  1.00  0.00    -0.252 OA
BRANCH   2   4
ATOM      4  C   UNL A   1      33.399  26.056  24.302  1.00  0.00     0.116 C 
ATOM      5  C   UNL A   1      33.252  26.764  25.685  1.00  0.00     0.097 C 
ATOM      6  C   UNL A   1      33.085  28.327  25.540  1.00  0.00     0.041 C 
ATOM      7  C   UNL A   1      33.759  28.987  24.381  1.00  0.00    -0.030 C 
ATOM      8  C   UNL A   1      33.219  27.014  23.056  1.00  0.00     0.043 C 
ATOM      9  C   UNL A   1      33.794  28.372  23.201  1.00  0.00    -0.030 C 
BRANCH   5  10
ATOM     10  C   UNL A   1      31.915  26.339  26.407  1.00  0.00     0.229 C 
ATOM     11  N   UNL A   1      31.554  25.080  26.794  1.00  0.00    -0.317 N 
ATOM     12  H   UNL A   1      31.140  25.045  27.687  1.00  0.00     0.170 HD
ATOM     13  O   UNL A   1      31.137  27.226  26.788  1.00  0.00    -0.274 OA
BRANCH  11  14
ATOM     14  C   UNL A   1      31.655  23.855  26.184  1.00  0.00     0.110 A 
ATOM     15  C   UNL A   1      31.234  23.343  24.985  1.00  0.00     0.098 A 
ATOM     16  C   UNL A   1      32.071  22.159  24.673  1.00  0.00    -0.017 A 
ATOM     17  S   UNL A   1      32.447  22.666  27.139  1.00  0.00    -0.122 S 
ATOM     18  C   UNL A   1      32.608  21.601  25.817  1.00  0.00     0.011 A 
ATOM     19  C   UNL A   1      32.425  21.523  23.345  1.00  0.00     0.038 C 
ATOM     20  C   UNL A   1      33.287  20.253  25.893  1.00  0.00     0.047 C 
ATOM     21  C   UNL A   1      32.427  19.994  23.473  1.00  0.00     0.005 C 
ATOM     22  C   UNL A   1      33.477  19.580  24.510  1.00  0.00     0.006 C 
BRANCH  15  23
ATOM     23  C   UNL A   1      30.591  24.171  23.991  1.00  0.00     0.341 C 
ATOM     24  O   UNL A   1      30.718  23.633  22.895  1.00  0.00    -0.246 OA
BRANCH  23  25
ATOM     25  O   UNL A   1      29.785  25.383  24.352  1.00  0.00    -0.462 OA
BRANCH  25  26
ATOM     26  C   UNL A   1      29.110  26.980  23.855  1.00  0.00     0.233 C 
BRANCH  26  27
ATOM     27  C   UNL A   1      29.673  28.531  23.472  1.00  0.00     0.038 C 
ATOM     28  C   UNL A   1      30.343  29.151  22.199  1.00  0.00     0.007 C 
ENDBRANCH  26  27
ENDBRANCH  25  26
ENDBRANCH  23  25
ENDBRANCH  15  23
ENDBRANCH  11  14
ENDBRANCH   5  10
ENDBRANCH   2   4
ENDBRANCH   1   2
BRANCH   1  29
ATOM     29  C   UNL A   1      36.166  22.629  24.442  1.00  0.00     0.274 C 
BRANCH  29  30
ATOM     30  C   UNL A   1      37.219  21.761  25.662  1.00  0.00     0.275 C 
BRANCH  30  31
ATOM     31  O   UNL A   1      38.750  21.617  25.572  1.00  0.00    -0.458 OA
BRANCH  31  32
ATOM     32  C   UNL A   1      39.675  21.739  26.590  1.00  0.00     0.338 C 
ATOM     33  O   UNL A   1      40.219  20.786  27.102  1.00  0.00    -0.246 OA
BRANCH  32  34
ATOM     34  C   UNL A   1      39.994  23.202  27.032  1.00  0.00     0.060 A 
ATOM     35  C   UNL A   1      40.847  23.567  28.083  1.00  0.00     0.016 A 
ATOM     36  C   UNL A   1      39.313  24.280  26.449  1.00  0.00     0.016 A 
ATOM     37  C   UNL A   1      41.122  24.902  28.465  1.00  0.00     0.010 A 
ATOM     38  C   UNL A   1      39.588  25.636  26.815  1.00  0.00     0.010 A 
ATOM     39  C   UNL A   1      40.539  25.972  27.794  1.00  0.00    -0.014 A 
BRANCH  39  40
ATOM     40  C   UNL A   1      40.989  27.389  28.028  1.00  0.00     0.031 A 
ATOM     41  C   UNL A   1      42.445  27.786  27.997  1.00  0.00     0.074 A 
ATOM     42  C   UNL A   1      40.079  28.341  28.341  1.00  0.00     0.049 A 
ATOM     43  N   UNL A   1      43.024  28.870  28.457  1.00  0.00    -0.248 NA
ATOM     44  C   UNL A   1      43.366  26.840  27.359  1.00  0.00     0.031 C 
ATOM     45  C   UNL A   1      38.626  28.155  28.319  1.00  0.00     0.029 A 
ATOM     46  N   UNL A   1      40.234  29.642  28.773  1.00  0.00    -0.354 N 
ATOM     47  C   UNL A   1      44.389  28.721  28.208  1.00  0.00     0.074 A 
ATOM     48  C   UNL A   1      44.539  27.436  27.546  1.00  0.00     0.031 C 
ATOM     49  C   UNL A   1      38.030  29.277  28.751  1.00  0.00     0.029 A 
ATOM     50  C   UNL A   1      39.050  30.235  29.162  1.00  0.00     0.049 A 
ATOM     51  H   UNL A   1      41.104  30.101  28.800  1.00  0.00     0.167 HD
ATOM     52  C   UNL A   1      45.412  29.563  28.518  1.00  0.00     0.034 A 
ATOM     53  C   UNL A   1      38.800  31.380  29.835  1.00  0.00     0.034 A 
ATOM     54  C   UNL A   1      45.243  30.846  29.170  1.00  0.00     0.049 A 
ATOM     55  C   UNL A   1      39.951  32.249  30.273  1.00  0.00     0.074 A 
ATOM     56  C   UNL A   1      46.214  31.772  29.523  1.00  0.00     0.029 A 
ATOM     57  N   UNL A   1      44.029  31.387  29.577  1.00  0.00    -0.354 N 
ATOM     58  N   UNL A   1      41.238  32.065  30.094  1.00  0.00    -0.248 NA
ATOM     59  C   UNL A   1      39.618  33.477  31.011  1.00  0.00     0.031 C 
ATOM     60  C   UNL A   1      45.600  32.825  30.211  1.00  0.00     0.029 A 
ATOM     61  C   UNL A   1      44.233  32.607  30.211  1.00  0.00     0.049 A 
ATOM     62  H   UNL A   1      43.151  30.966  29.437  1.00  0.00     0.167 HD
ATOM     63  C   UNL A   1      41.864  33.168  30.670  1.00  0.00     0.074 A 
ATOM     64  C   UNL A   1      40.815  34.015  31.197  1.00  0.00     0.031 C 
ATOM     65  C   UNL A   1      43.189  33.452  30.746  1.00  0.00     0.034 A 
BRANCH  52  66
ATOM     66  C   UNL A   1      46.825  29.090  28.234  1.00  0.00     0.023 A 
ATOM     67  C   UNL A   1      47.563  28.325  29.153  1.00  0.00     0.031 A 
ATOM     68  C   UNL A   1      47.447  29.424  27.015  1.00  0.00     0.131 A 
ATOM     69  C   UNL A   1      48.899  27.988  28.872  1.00  0.00     0.055 A 
ATOM     70  C   UNL A   1      48.747  29.015  26.707  1.00  0.00     0.041 A 
ATOM     71  F   UNL A   1      46.801  30.162  26.097  1.00  0.00    -0.206 F 
ATOM     72  C   UNL A   1      49.488  28.307  27.647  1.00  0.00     0.022 A 
BRANCH  69  73
ATOM     73  S   UNL A   1      49.909  27.256  30.192  1.00  0.00     0.124 S 
ATOM     74  O   UNL A   1      49.261  27.787  31.388  1.00  0.00    -0.237 OA
ATOM     75  O   UNL A   1      49.747  25.827  29.956  1.00  0.00    -0.237 OA
ATOM     76  O   UNL A   1      51.247  27.784  29.933  1.00  0.00    -0.744 OA
ENDBRANCH  69  73
ENDBRANCH  52  66
BRANCH  53  77
ATOM     77  C   UNL A   1      37.398  31.731  30.222  1.00  0.00     0.023 A 
ATOM     78  C   UNL A   1      36.498  32.274  29.293  1.00  0.00     0.031 A 
ATOM     79  C   UNL A   1      36.950  31.553  31.545  1.00  0.00     0.131 A 
ATOM     80  C   UNL A   1      35.205  32.643  29.704  1.00  0.00     0.055 A 
ATOM     81  C   UNL A   1      35.646  31.867  31.934  1.00  0.00     0.041 A 
ATOM     82  F   UNL A   1      37.771  31.047  32.479  1.00  0.00    -0.206 F 
ATOM     83  C   UNL A   1      34.768  32.425  31.013  1.00  0.00     0.022 A 
BRANCH  80  84
ATOM     84  S   UNL A   1      34.120  33.483  28.518  1.00  0.00     0.124 S 
ATOM     85  O   UNL A   1      35.084  34.171  27.667  1.00  0.00    -0.237 OA
ATOM     86  O   UNL A   1      33.408  32.364  27.911  1.00  0.00    -0.237 OA
ATOM     87  O   UNL A   1      33.301  34.353  29.363  1.00  0.00    -0.744 OA
ENDBRANCH  80  84
ENDBRANCH  53  77
BRANCH  65  88
ATOM     88  C   UNL A   1      43.579  34.770  31.373  1.00  0.00     0.023 A 
ATOM     89  C   UNL A   1      43.628  35.965  30.633  1.00  0.00     0.031 A 
ATOM     90  C   UNL A   1      43.910  34.828  32.740  1.00  0.00     0.131 A 
ATOM     91  C   UNL A   1      44.038  37.157  31.253  1.00  0.00     0.055 A 
ATOM     92  C   UNL A   1      44.264  36.025  33.363  1.00  0.00     0.041 A 
ATOM     93  F   UNL A   1      43.888  33.717  33.494  1.00  0.00    -0.206 F 
ATOM     94  C   UNL A   1      44.339  37.197  32.617  1.00  0.00     0.022 A 
BRANCH  91  95
ATOM     95  S   UNL A   1      44.245  38.648  30.239  1.00  0.00     0.124 S 
ATOM     96  O   UNL A   1      45.666  38.598  29.913  1.00  0.00    -0.237 OA
ATOM     97  O   UNL A   1      43.327  38.404  29.131  1.00  0.00    -0.237 OA
ATOM     98  O   UNL A   1      43.853  39.733  31.137  1.00  0.00    -0.744 OA
ENDBRANCH  91  95
ENDBRANCH  65  88
ENDBRANCH  39  40
ENDBRANCH  32  34
ENDBRANCH  31  32
ENDBRANCH  30  31
ENDBRANCH  29  30
ENDBRANCH   1  29
TORSDOF 20
ENDMDL
