MODEL 1
REMARK VINA RESULT:     -10.2      0.000      0.000
REMARK SMILES CN(C[C@@H]1CCC[N@H+]1C)C(=O)c1csc(/C=C/C(=O)OCCOC(=O)c2ccc(-c3c4nc(c(-c5cc(S(=O)(=O)[O-])ccc5F)c5ccc([nH]5)c(-c5cc(S(=O)(=O)[O-])ccc5F)c5nc(c(-c6cc(S(=O)(=O)[O-])ccc6F)c6ccc3[nH]6)C=C5)C=C4)cc2)c1
REMARK SMILES IDX 21 1 20 2 18 3 19 4 17 5 16 6 15 7 12 8 13 9 89 10 14 11
REMARK SMILES IDX 10 12 11 13 2 14 1 15 3 16 4 17 5 18 8 19 6 20 7 21 9 22
REMARK SMILES IDX 22 24 23 25 24 26 25 27 26 28 27 29 88 30 28 31 87 32 29 33
REMARK SMILES IDX 30 34 31 35 81 36 32 37 86 38 80 39 82 40 33 41 85 42 79 43
REMARK SMILES IDX 78 44 34 46 66 47 46 48 65 49 47 50 50 51 64 52 83 53 48 54
REMARK SMILES IDX 49 55 63 57 84 58 51 59 35 60 36 61 44 62 37 63 43 64 45 65
REMARK SMILES IDX 42 66 38 67 39 68 40 69 41 70 67 71 68 72 76 73 69 74 75 75
REMARK SMILES IDX 77 76 74 77 70 78 71 79 72 80 73 81 52 82 53 83 61 84 54 85
REMARK SMILES IDX 60 86 62 87 59 88 55 89 56 90 57 91 58 92
REMARK H PARENT 8 23 82 45 50 56
REMARK Flexibility Score: inf
ROOT
ATOM      1  C   UNL A   1      31.850  31.855  26.811  1.00  0.00     0.275 C 
ENDROOT
BRANCH   1   2
ATOM      2  O   UNL A   1      32.685  31.068  27.677  1.00  0.00    -0.459 OA
BRANCH   2   3
ATOM      3  C   UNL A   1      33.735  30.469  27.074  1.00  0.00     0.330 C 
ATOM      4  O   UNL A   1      34.918  30.698  27.286  1.00  0.00    -0.247 OA
BRANCH   3   5
ATOM      5  C   UNL A   1      33.323  29.397  26.153  1.00  0.00     0.095 C 
ATOM      6  C   UNL A   1      32.686  28.261  26.483  1.00  0.00     0.026 C 
BRANCH   6   7
ATOM      7  C   UNL A   1      32.458  27.255  25.499  1.00  0.00     0.028 A 
ATOM      8  C   UNL A   1      32.736  25.713  23.704  1.00  0.00     0.051 A 
ATOM      9  C   UNL A   1      31.560  25.308  24.293  1.00  0.00     0.079 A 
ATOM     10  C   UNL A   1      33.251  26.856  24.434  1.00  0.00     0.033 A 
ATOM     11  S   UNL A   1      30.987  26.358  25.495  1.00  0.00    -0.144 S 
BRANCH   8  12
ATOM     12  C   UNL A   1      33.474  25.013  22.643  1.00  0.00     0.254 C 
ATOM     13  O   UNL A   1      33.776  25.640  21.624  1.00  0.00    -0.269 OA
BRANCH  12  14
ATOM     14  N   UNL A   1      33.832  23.662  22.767  1.00  0.00    -0.336 N 
ATOM     15  C   UNL A   1      33.014  22.715  22.021  1.00  0.00     0.147 C 
BRANCH  14  16
ATOM     16  C   UNL A   1      34.785  23.074  23.721  1.00  0.00     0.184 C 
BRANCH  16  17
ATOM     17  C   UNL A   1      34.210  22.670  25.102  1.00  0.00     0.203 C 
ATOM     18  C   UNL A   1      34.616  23.555  26.281  1.00  0.00     0.073 C 
ATOM     19  N   UNL A   1      34.590  21.349  25.647  1.00  0.00    -0.333 N 
ATOM     20  C   UNL A   1      34.135  22.770  27.494  1.00  0.00     0.068 C 
ATOM     21  C   UNL A   1      33.991  21.336  26.995  1.00  0.00     0.262 C 
ATOM     22  C   UNL A   1      34.101  20.228  24.851  1.00  0.00     0.333 C 
ATOM     23  H   UNL A   1      35.604  21.231  25.646  1.00  0.00     0.348 HD
ENDBRANCH  16  17
ENDBRANCH  14  16
ENDBRANCH  12  14
ENDBRANCH   8  12
ENDBRANCH   6   7
ENDBRANCH   3   5
ENDBRANCH   2   3
ENDBRANCH   1   2
BRANCH   1  24
ATOM     24  C   UNL A   1      32.206  33.342  26.913  1.00  0.00     0.275 C 
BRANCH  24  25
ATOM     25  O   UNL A   1      32.293  33.796  28.278  1.00  0.00    -0.458 OA
BRANCH  25  26
ATOM     26  C   UNL A   1      33.348  34.602  28.558  1.00  0.00     0.338 C 
ATOM     27  O   UNL A   1      33.363  35.821  28.509  1.00  0.00    -0.246 OA
BRANCH  26  28
ATOM     28  C   UNL A   1      34.495  33.798  29.028  1.00  0.00     0.060 A 
ATOM     29  C   UNL A   1      34.277  32.864  30.045  1.00  0.00     0.016 A 
ATOM     30  C   UNL A   1      35.785  34.008  28.533  1.00  0.00     0.016 A 
ATOM     31  C   UNL A   1      35.348  32.137  30.570  1.00  0.00     0.010 A 
ATOM     32  C   UNL A   1      36.858  33.278  29.060  1.00  0.00     0.010 A 
ATOM     33  C   UNL A   1      36.650  32.343  30.089  1.00  0.00    -0.014 A 
BRANCH  33  34
ATOM     34  C   UNL A   1      37.796  31.606  30.690  1.00  0.00     0.031 A 
ATOM     35  C   UNL A   1      38.258  31.941  32.082  1.00  0.00     0.074 A 
ATOM     36  C   UNL A   1      38.410  30.629  29.995  1.00  0.00     0.049 A 
ATOM     37  N   UNL A   1      39.270  31.458  32.759  1.00  0.00    -0.248 NA
ATOM     38  C   UNL A   1      37.476  32.951  32.808  1.00  0.00     0.031 C 
ATOM     39  C   UNL A   1      38.032  30.187  28.653  1.00  0.00     0.029 A 
ATOM     40  N   UNL A   1      39.482  29.835  30.319  1.00  0.00    -0.354 N 
ATOM     41  C   UNL A   1      39.243  32.096  33.994  1.00  0.00     0.074 A 
ATOM     42  C   UNL A   1      38.139  33.035  33.953  1.00  0.00     0.031 C 
ATOM     43  C   UNL A   1      38.862  29.203  28.267  1.00  0.00     0.029 A 
ATOM     44  C   UNL A   1      39.857  28.975  29.311  1.00  0.00     0.049 A 
ATOM     45  H   UNL A   1      39.940  29.876  31.190  1.00  0.00     0.167 HD
ATOM     46  C   UNL A   1      40.051  31.908  35.068  1.00  0.00     0.034 A 
ATOM     47  C   UNL A   1      40.900  28.123  29.228  1.00  0.00     0.034 A 
ATOM     48  C   UNL A   1      41.163  30.986  35.092  1.00  0.00     0.049 A 
ATOM     49  C   UNL A   1      41.848  28.005  30.400  1.00  0.00     0.074 A 
ATOM     50  C   UNL A   1      42.059  30.741  36.119  1.00  0.00     0.029 A 
ATOM     51  N   UNL A   1      41.536  30.161  34.039  1.00  0.00    -0.354 N 
ATOM     52  N   UNL A   1      41.812  28.625  31.557  1.00  0.00    -0.248 NA
ATOM     53  C   UNL A   1      42.969  27.067  30.256  1.00  0.00     0.031 C 
ATOM     54  C   UNL A   1      43.004  29.811  35.669  1.00  0.00     0.029 A 
ATOM     55  C   UNL A   1      42.657  29.422  34.386  1.00  0.00     0.049 A 
ATOM     56  H   UNL A   1      41.072  30.108  33.173  1.00  0.00     0.167 HD
ATOM     57  C   UNL A   1      42.887  28.123  32.288  1.00  0.00     0.074 A 
ATOM     58  C   UNL A   1      43.539  27.139  31.449  1.00  0.00     0.031 C 
ATOM     59  C   UNL A   1      43.298  28.443  33.541  1.00  0.00     0.034 A 
BRANCH  46  60
ATOM     60  C   UNL A   1      39.781  32.745  36.294  1.00  0.00     0.023 A 
ATOM     61  C   UNL A   1      38.915  32.301  37.308  1.00  0.00     0.031 A 
ATOM     62  C   UNL A   1      40.386  34.005  36.449  1.00  0.00     0.131 A 
ATOM     63  C   UNL A   1      38.634  33.131  38.403  1.00  0.00     0.055 A 
ATOM     64  C   UNL A   1      40.158  34.797  37.576  1.00  0.00     0.041 A 
ATOM     65  F   UNL A   1      41.206  34.489  35.503  1.00  0.00    -0.206 F 
ATOM     66  C   UNL A   1      39.268  34.366  38.556  1.00  0.00     0.022 A 
BRANCH  63  67
ATOM     67  S   UNL A   1      37.336  32.626  39.566  1.00  0.00     0.124 S 
ATOM     68  O   UNL A   1      36.144  32.684  38.722  1.00  0.00    -0.237 OA
ATOM     69  O   UNL A   1      37.769  31.292  39.964  1.00  0.00    -0.237 OA
ATOM     70  O   UNL A   1      37.399  33.643  40.613  1.00  0.00    -0.744 OA
ENDBRANCH  63  67
ENDBRANCH  46  60
BRANCH  47  71
ATOM     71  C   UNL A   1      41.149  27.343  27.980  1.00  0.00     0.023 A 
ATOM     72  C   UNL A   1      40.848  25.974  27.906  1.00  0.00     0.031 A 
ATOM     73  C   UNL A   1      41.776  27.939  26.871  1.00  0.00     0.131 A 
ATOM     74  C   UNL A   1      41.230  25.232  26.776  1.00  0.00     0.055 A 
ATOM     75  C   UNL A   1      42.095  27.212  25.723  1.00  0.00     0.041 A 
ATOM     76  F   UNL A   1      42.092  29.244  26.889  1.00  0.00    -0.206 F 
ATOM     77  C   UNL A   1      41.840  25.845  25.679  1.00  0.00     0.022 A 
BRANCH  74  78
ATOM     78  S   UNL A   1      41.035  23.430  26.815  1.00  0.00     0.124 S 
ATOM     79  O   UNL A   1      39.605  23.281  26.570  1.00  0.00    -0.237 OA
ATOM     80  O   UNL A   1      41.918  23.008  25.732  1.00  0.00    -0.237 OA
ATOM     81  O   UNL A   1      41.480  23.067  28.158  1.00  0.00    -0.744 OA
ENDBRANCH  74  78
ENDBRANCH  47  71
BRANCH  59  82
ATOM     82  C   UNL A   1      44.474  27.674  34.095  1.00  0.00     0.023 A 
ATOM     83  C   UNL A   1      45.794  28.142  33.969  1.00  0.00     0.031 A 
ATOM     84  C   UNL A   1      44.268  26.444  34.745  1.00  0.00     0.131 A 
ATOM     85  C   UNL A   1      46.861  27.358  34.433  1.00  0.00     0.055 A 
ATOM     86  C   UNL A   1      45.329  25.695  35.257  1.00  0.00     0.041 A 
ATOM     87  F   UNL A   1      43.029  25.949  34.894  1.00  0.00    -0.206 F 
ATOM     88  C   UNL A   1      46.636  26.144  35.090  1.00  0.00     0.022 A 
BRANCH  85  89
ATOM     89  S   UNL A   1      48.558  27.903  34.094  1.00  0.00     0.124 S 
ATOM     90  O   UNL A   1      48.460  29.344  34.290  1.00  0.00    -0.237 OA
ATOM     91  O   UNL A   1      49.327  27.173  35.099  1.00  0.00    -0.237 OA
ATOM     92  O   UNL A   1      48.786  27.477  32.714  1.00  0.00    -0.744 OA
ENDBRANCH  85  89
ENDBRANCH  59  82
ENDBRANCH  33  34
ENDBRANCH  26  28
ENDBRANCH  25  26
ENDBRANCH  24  25
ENDBRANCH   1  24
TORSDOF 19
ENDMDL
MODEL 2
REMARK VINA RESULT:     -10.1      2.663      8.050
REMARK SMILES CN(C[C@@H]1CCC[N@H+]1C)C(=O)c1csc(/C=C/C(=O)OCCOC(=O)c2ccc(-c3c4nc(c(-c5cc(S(=O)(=O)[O-])ccc5F)c5ccc([nH]5)c(-c5cc(S(=O)(=O)[O-])ccc5F)c5nc(c(-c6cc(S(=O)(=O)[O-])ccc6F)c6ccc3[nH]6)C=C5)C=C4)cc2)c1
REMARK SMILES IDX 21 1 20 2 18 3 19 4 17 5 16 6 15 7 12 8 13 9 89 10 14 11
REMARK SMILES IDX 10 12 11 13 2 14 1 15 3 16 4 17 5 18 8 19 6 20 7 21 9 22
REMARK SMILES IDX 22 24 23 25 24 26 25 27 26 28 27 29 88 30 28 31 87 32 29 33
REMARK SMILES IDX 30 34 31 35 81 36 32 37 86 38 80 39 82 40 33 41 85 42 79 43
REMARK SMILES IDX 78 44 34 46 66 47 46 48 65 49 47 50 50 51 64 52 83 53 48 54
REMARK SMILES IDX 49 55 63 57 84 58 51 59 35 60 36 61 44 62 37 63 43 64 45 65
REMARK SMILES IDX 42 66 38 67 39 68 40 69 41 70 67 71 68 72 76 73 69 74 75 75
REMARK SMILES IDX 77 76 74 77 70 78 71 79 72 80 73 81 52 82 53 83 61 84 54 85
REMARK SMILES IDX 60 86 62 87 59 88 55 89 56 90 57 91 58 92
REMARK H PARENT 8 23 82 45 50 56
REMARK Flexibility Score: inf
ROOT
ATOM      1  C   UNL A   1      32.958  31.626  27.418  1.00  0.00     0.275 C 
ENDROOT
BRANCH   1   2
ATOM      2  O   UNL A   1      34.371  31.367  27.376  1.00  0.00    -0.459 OA
BRANCH   2   3
ATOM      3  C   UNL A   1      34.713  30.064  27.273  1.00  0.00     0.330 C 
ATOM      4  O   UNL A   1      35.716  29.540  27.739  1.00  0.00    -0.247 OA
BRANCH   3   5
ATOM      5  C   UNL A   1      33.686  29.260  26.590  1.00  0.00     0.095 C 
ATOM      6  C   UNL A   1      33.573  27.922  26.614  1.00  0.00     0.026 C 
BRANCH   6   7
ATOM      7  C   UNL A   1      32.597  27.269  25.804  1.00  0.00     0.028 A 
ATOM      8  C   UNL A   1      31.283  25.618  24.698  1.00  0.00     0.051 A 
ATOM      9  C   UNL A   1      30.551  26.771  24.533  1.00  0.00     0.079 A 
ATOM     10  C   UNL A   1      32.480  25.933  25.455  1.00  0.00     0.033 A 
ATOM     11  S   UNL A   1      31.346  28.179  25.046  1.00  0.00    -0.144 S 
BRANCH   8  12
ATOM     12  C   UNL A   1      30.861  24.252  24.355  1.00  0.00     0.254 C 
ATOM     13  O   UNL A   1      30.332  24.058  23.257  1.00  0.00    -0.269 OA
BRANCH  12  14
ATOM     14  N   UNL A   1      31.045  23.183  25.244  1.00  0.00    -0.336 N 
ATOM     15  C   UNL A   1      30.419  23.325  26.551  1.00  0.00     0.147 C 
BRANCH  14  16
ATOM     16  C   UNL A   1      31.967  22.045  25.095  1.00  0.00     0.184 C 
BRANCH  16  17
ATOM     17  C   UNL A   1      33.478  22.368  25.212  1.00  0.00     0.203 C 
ATOM     18  C   UNL A   1      34.274  22.328  23.907  1.00  0.00     0.073 C 
ATOM     19  N   UNL A   1      34.313  21.466  26.034  1.00  0.00    -0.333 N 
ATOM     20  C   UNL A   1      35.721  22.414  24.372  1.00  0.00     0.068 C 
ATOM     21  C   UNL A   1      35.684  21.972  25.832  1.00  0.00     0.262 C 
ATOM     22  C   UNL A   1      33.960  21.475  27.450  1.00  0.00     0.333 C 
ATOM     23  H   UNL A   1      34.187  20.494  25.752  1.00  0.00     0.348 HD
ENDBRANCH  16  17
ENDBRANCH  14  16
ENDBRANCH  12  14
ENDBRANCH   8  12
ENDBRANCH   6   7
ENDBRANCH   3   5
ENDBRANCH   2   3
ENDBRANCH   1   2
BRANCH   1  24
ATOM     24  C   UNL A   1      32.673  33.122  27.248  1.00  0.00     0.275 C 
BRANCH  24  25
ATOM     25  O   UNL A   1      32.414  33.781  28.504  1.00  0.00    -0.458 OA
BRANCH  25  26
ATOM     26  C   UNL A   1      33.338  34.701  28.880  1.00  0.00     0.338 C 
ATOM     27  O   UNL A   1      33.221  35.913  28.823  1.00  0.00    -0.246 OA
BRANCH  26  28
ATOM     28  C   UNL A   1      34.516  34.031  29.469  1.00  0.00     0.060 A 
ATOM     29  C   UNL A   1      34.313  33.143  30.529  1.00  0.00     0.016 A 
ATOM     30  C   UNL A   1      35.813  34.324  29.038  1.00  0.00     0.016 A 
ATOM     31  C   UNL A   1      35.405  32.546  31.164  1.00  0.00     0.010 A 
ATOM     32  C   UNL A   1      36.908  33.725  29.675  1.00  0.00     0.010 A 
ATOM     33  C   UNL A   1      36.713  32.837  30.748  1.00  0.00    -0.014 A 
BRANCH  33  34
ATOM     34  C   UNL A   1      37.876  32.242  31.463  1.00  0.00     0.031 A 
ATOM     35  C   UNL A   1      38.645  31.111  30.837  1.00  0.00     0.074 A 
ATOM     36  C   UNL A   1      38.251  32.726  32.664  1.00  0.00     0.049 A 
ATOM     37  N   UNL A   1      39.647  30.420  31.322  1.00  0.00    -0.248 NA
ATOM     38  C   UNL A   1      38.233  30.706  29.486  1.00  0.00     0.031 C 
ATOM     39  C   UNL A   1      37.609  33.842  33.358  1.00  0.00     0.029 A 
ATOM     40  N   UNL A   1      39.257  32.339  33.513  1.00  0.00    -0.354 N 
ATOM     41  C   UNL A   1      39.993  29.505  30.334  1.00  0.00     0.074 A 
ATOM     42  C   UNL A   1      39.062  29.701  29.240  1.00  0.00     0.031 C 
ATOM     43  C   UNL A   1      38.236  34.047  34.528  1.00  0.00     0.029 A 
ATOM     44  C   UNL A   1      39.291  33.051  34.690  1.00  0.00     0.049 A 
ATOM     45  H   UNL A   1      39.894  31.618  33.301  1.00  0.00     0.167 HD
ATOM     46  C   UNL A   1      41.001  28.597  30.330  1.00  0.00     0.034 A 
ATOM     47  C   UNL A   1      40.065  32.900  35.785  1.00  0.00     0.034 A 
ATOM     48  C   UNL A   1      41.911  28.393  31.434  1.00  0.00     0.049 A 
ATOM     49  C   UNL A   1      41.115  31.813  35.797  1.00  0.00     0.074 A 
ATOM     50  C   UNL A   1      42.948  27.481  31.542  1.00  0.00     0.029 A 
ATOM     51  N   UNL A   1      41.890  29.107  32.625  1.00  0.00    -0.354 N 
ATOM     52  N   UNL A   1      41.423  30.949  34.857  1.00  0.00    -0.248 NA
ATOM     53  C   UNL A   1      41.928  31.688  37.015  1.00  0.00     0.031 C 
ATOM     54  C   UNL A   1      43.516  27.606  32.814  1.00  0.00     0.029 A 
ATOM     55  C   UNL A   1      42.882  28.644  33.477  1.00  0.00     0.049 A 
ATOM     56  H   UNL A   1      41.264  29.837  32.834  1.00  0.00     0.167 HD
ATOM     57  C   UNL A   1      42.486  30.204  35.361  1.00  0.00     0.074 A 
ATOM     58  C   UNL A   1      42.778  30.731  36.678  1.00  0.00     0.031 C 
ATOM     59  C   UNL A   1      43.164  29.178  34.787  1.00  0.00     0.034 A 
BRANCH  46  60
ATOM     60  C   UNL A   1      41.148  27.729  29.104  1.00  0.00     0.023 A 
ATOM     61  C   UNL A   1      42.133  27.991  28.135  1.00  0.00     0.031 A 
ATOM     62  C   UNL A   1      40.291  26.635  28.894  1.00  0.00     0.131 A 
ATOM     63  C   UNL A   1      42.201  27.205  26.975  1.00  0.00     0.055 A 
ATOM     64  C   UNL A   1      40.409  25.813  27.771  1.00  0.00     0.041 A 
ATOM     65  F   UNL A   1      39.320  26.350  29.775  1.00  0.00    -0.206 F 
ATOM     66  C   UNL A   1      41.361  26.103  26.798  1.00  0.00     0.022 A 
BRANCH  63  67
ATOM     67  S   UNL A   1      43.324  27.716  25.645  1.00  0.00     0.124 S 
ATOM     68  O   UNL A   1      44.122  26.509  25.452  1.00  0.00    -0.237 OA
ATOM     69  O   UNL A   1      42.403  28.050  24.564  1.00  0.00    -0.237 OA
ATOM     70  O   UNL A   1      44.046  28.847  26.222  1.00  0.00    -0.744 OA
ENDBRANCH  63  67
ENDBRANCH  46  60
BRANCH  47  71
ATOM     71  C   UNL A   1      39.858  33.757  36.990  1.00  0.00     0.023 A 
ATOM     72  C   UNL A   1      40.689  34.859  37.250  1.00  0.00     0.031 A 
ATOM     73  C   UNL A   1      38.878  33.433  37.945  1.00  0.00     0.131 A 
ATOM     74  C   UNL A   1      40.569  35.556  38.463  1.00  0.00     0.055 A 
ATOM     75  C   UNL A   1      38.719  34.169  39.120  1.00  0.00     0.041 A 
ATOM     76  F   UNL A   1      38.060  32.387  37.750  1.00  0.00    -0.206 F 
ATOM     77  C   UNL A   1      39.581  35.227  39.393  1.00  0.00     0.022 A 
BRANCH  74  78
ATOM     78  S   UNL A   1      41.807  36.819  38.864  1.00  0.00     0.124 S 
ATOM     79  O   UNL A   1      42.655  36.111  39.816  1.00  0.00    -0.237 OA
ATOM     80  O   UNL A   1      42.396  37.089  37.557  1.00  0.00    -0.237 OA
ATOM     81  O   UNL A   1      41.012  37.909  39.425  1.00  0.00    -0.744 OA
ENDBRANCH  74  78
ENDBRANCH  47  71
BRANCH  59  82
ATOM     82  C   UNL A   1      44.326  28.603  35.563  1.00  0.00     0.023 A 
ATOM     83  C   UNL A   1      44.155  27.564  36.496  1.00  0.00     0.031 A 
ATOM     84  C   UNL A   1      45.621  29.118  35.377  1.00  0.00     0.131 A 
ATOM     85  C   UNL A   1      45.250  27.112  37.247  1.00  0.00     0.055 A 
ATOM     86  C   UNL A   1      46.718  28.625  36.086  1.00  0.00     0.041 A 
ATOM     87  F   UNL A   1      45.842  30.110  34.500  1.00  0.00    -0.206 F 
ATOM     88  C   UNL A   1      46.534  27.626  37.038  1.00  0.00     0.022 A 
BRANCH  85  89
ATOM     89  S   UNL A   1      44.964  25.900  38.567  1.00  0.00     0.124 S 
ATOM     90  O   UNL A   1      46.325  25.528  38.939  1.00  0.00    -0.237 OA
ATOM     91  O   UNL A   1      44.224  26.681  39.553  1.00  0.00    -0.237 OA
ATOM     92  O   UNL A   1      44.192  24.849  37.906  1.00  0.00    -0.744 OA
ENDBRANCH  85  89
ENDBRANCH  59  82
ENDBRANCH  33  34
ENDBRANCH  26  28
ENDBRANCH  25  26
ENDBRANCH  24  25
ENDBRANCH   1  24
TORSDOF 19
ENDMDL
MODEL 3
REMARK VINA RESULT:     -10.1      2.475      2.858
REMARK SMILES CN(C[C@@H]1CCC[N@H+]1C)C(=O)c1csc(/C=C/C(=O)OCCOC(=O)c2ccc(-c3c4nc(c(-c5cc(S(=O)(=O)[O-])ccc5F)c5ccc([nH]5)c(-c5cc(S(=O)(=O)[O-])ccc5F)c5nc(c(-c6cc(S(=O)(=O)[O-])ccc6F)c6ccc3[nH]6)C=C5)C=C4)cc2)c1
REMARK SMILES IDX 21 1 20 2 18 3 19 4 17 5 16 6 15 7 12 8 13 9 89 10 14 11
REMARK SMILES IDX 10 12 11 13 2 14 1 15 3 16 4 17 5 18 8 19 6 20 7 21 9 22
REMARK SMILES IDX 22 24 23 25 24 26 25 27 26 28 27 29 88 30 28 31 87 32 29 33
REMARK SMILES IDX 30 34 31 35 81 36 32 37 86 38 80 39 82 40 33 41 85 42 79 43
REMARK SMILES IDX 78 44 34 46 66 47 46 48 65 49 47 50 50 51 64 52 83 53 48 54
REMARK SMILES IDX 49 55 63 57 84 58 51 59 35 60 36 61 44 62 37 63 43 64 45 65
REMARK SMILES IDX 42 66 38 67 39 68 40 69 41 70 67 71 68 72 76 73 69 74 75 75
REMARK SMILES IDX 77 76 74 77 70 78 71 79 72 80 73 81 52 82 53 83 61 84 54 85
REMARK SMILES IDX 60 86 62 87 59 88 55 89 56 90 57 91 58 92
REMARK H PARENT 8 23 82 45 50 56
REMARK Flexibility Score: inf
ROOT
ATOM      1  C   UNL A   1      32.522  31.583  27.270  1.00  0.00     0.275 C 
ENDROOT
BRANCH   1   2
ATOM      2  O   UNL A   1      33.943  31.371  27.249  1.00  0.00    -0.459 OA
BRANCH   2   3
ATOM      3  C   UNL A   1      34.330  30.076  27.226  1.00  0.00     0.330 C 
ATOM      4  O   UNL A   1      35.005  29.508  28.074  1.00  0.00    -0.247 OA
BRANCH   3   5
ATOM      5  C   UNL A   1      33.775  29.339  26.080  1.00  0.00     0.095 C 
ATOM      6  C   UNL A   1      33.879  28.018  25.854  1.00  0.00     0.026 C 
BRANCH   6   7
ATOM      7  C   UNL A   1      33.393  27.459  24.635  1.00  0.00     0.028 A 
ATOM      8  C   UNL A   1      32.854  25.951  22.871  1.00  0.00     0.051 A 
ATOM      9  C   UNL A   1      32.089  27.058  22.588  1.00  0.00     0.079 A 
ATOM     10  C   UNL A   1      33.609  26.205  24.084  1.00  0.00     0.033 A 
ATOM     11  S   UNL A   1      32.418  28.401  23.573  1.00  0.00    -0.144 S 
BRANCH   8  12
ATOM     12  C   UNL A   1      32.794  24.645  22.198  1.00  0.00     0.254 C 
ATOM     13  O   UNL A   1      33.251  24.550  21.056  1.00  0.00    -0.269 OA
BRANCH  12  14
ATOM     14  N   UNL A   1      32.229  23.523  22.823  1.00  0.00    -0.336 N 
ATOM     15  C   UNL A   1      30.958  23.741  23.498  1.00  0.00     0.147 C 
BRANCH  14  16
ATOM     16  C   UNL A   1      32.867  22.218  23.063  1.00  0.00     0.184 C 
BRANCH  16  17
ATOM     17  C   UNL A   1      33.944  22.177  24.176  1.00  0.00     0.203 C 
ATOM     18  C   UNL A   1      35.277  22.847  23.843  1.00  0.00     0.073 C 
ATOM     19  N   UNL A   1      34.439  20.852  24.608  1.00  0.00    -0.333 N 
ATOM     20  C   UNL A   1      36.186  22.416  24.986  1.00  0.00     0.068 C 
ATOM     21  C   UNL A   1      35.519  21.171  25.561  1.00  0.00     0.262 C 
ATOM     22  C   UNL A   1      33.415  20.026  25.240  1.00  0.00     0.333 C 
ATOM     23  H   UNL A   1      34.746  20.299  23.807  1.00  0.00     0.348 HD
ENDBRANCH  16  17
ENDBRANCH  14  16
ENDBRANCH  12  14
ENDBRANCH   8  12
ENDBRANCH   6   7
ENDBRANCH   3   5
ENDBRANCH   2   3
ENDBRANCH   1   2
BRANCH   1  24
ATOM     24  C   UNL A   1      32.195  33.080  27.304  1.00  0.00     0.275 C 
BRANCH  24  25
ATOM     25  O   UNL A   1      33.359  33.893  27.550  1.00  0.00    -0.458 OA
BRANCH  25  26
ATOM     26  C   UNL A   1      33.447  34.423  28.796  1.00  0.00     0.338 C 
ATOM     27  O   UNL A   1      32.702  35.256  29.285  1.00  0.00    -0.246 OA
BRANCH  26  28
ATOM     28  C   UNL A   1      34.546  33.783  29.548  1.00  0.00     0.060 A 
ATOM     29  C   UNL A   1      35.858  34.170  29.261  1.00  0.00     0.016 A 
ATOM     30  C   UNL A   1      34.301  32.760  30.468  1.00  0.00     0.016 A 
ATOM     31  C   UNL A   1      36.930  33.536  29.894  1.00  0.00     0.010 A 
ATOM     32  C   UNL A   1      35.377  32.125  31.103  1.00  0.00     0.010 A 
ATOM     33  C   UNL A   1      36.700  32.502  30.815  1.00  0.00    -0.014 A 
BRANCH  33  34
ATOM     34  C   UNL A   1      37.847  31.792  31.445  1.00  0.00     0.031 A 
ATOM     35  C   UNL A   1      38.313  32.188  32.820  1.00  0.00     0.074 A 
ATOM     36  C   UNL A   1      38.459  30.784  30.793  1.00  0.00     0.049 A 
ATOM     37  N   UNL A   1      39.326  31.734  33.515  1.00  0.00    -0.248 NA
ATOM     38  C   UNL A   1      37.533  33.230  33.502  1.00  0.00     0.031 C 
ATOM     39  C   UNL A   1      38.077  30.284  29.473  1.00  0.00     0.029 A 
ATOM     40  N   UNL A   1      39.531  30.004  31.149  1.00  0.00    -0.354 N 
ATOM     41  C   UNL A   1      39.303  32.427  34.721  1.00  0.00     0.074 A 
ATOM     42  C   UNL A   1      38.199  33.364  34.640  1.00  0.00     0.031 C 
ATOM     43  C   UNL A   1      38.905  29.282  29.129  1.00  0.00     0.029 A 
ATOM     44  C   UNL A   1      39.902  29.100  30.180  1.00  0.00     0.049 A 
ATOM     45  H   UNL A   1      39.991  30.084  32.016  1.00  0.00     0.167 HD
ATOM     46  C   UNL A   1      40.114  32.286  35.799  1.00  0.00     0.034 A 
ATOM     47  C   UNL A   1      40.945  28.245  30.131  1.00  0.00     0.034 A 
ATOM     48  C   UNL A   1      41.225  31.365  35.862  1.00  0.00     0.049 A 
ATOM     49  C   UNL A   1      41.895  28.178  31.305  1.00  0.00     0.074 A 
ATOM     50  C   UNL A   1      42.124  31.164  36.896  1.00  0.00     0.029 A 
ATOM     51  N   UNL A   1      41.595  30.494  34.845  1.00  0.00    -0.354 N 
ATOM     52  N   UNL A   1      41.863  28.849  32.433  1.00  0.00    -0.248 NA
ATOM     53  C   UNL A   1      43.016  27.233  31.200  1.00  0.00     0.031 C 
ATOM     54  C   UNL A   1      43.066  30.215  36.486  1.00  0.00     0.029 A 
ATOM     55  C   UNL A   1      42.716  29.770  35.222  1.00  0.00     0.049 A 
ATOM     56  H   UNL A   1      41.128  30.402  33.984  1.00  0.00     0.167 HD
ATOM     57  C   UNL A   1      42.939  28.378  33.183  1.00  0.00     0.074 A 
ATOM     58  C   UNL A   1      43.588  27.358  32.387  1.00  0.00     0.031 C 
ATOM     59  C   UNL A   1      43.354  28.754  34.420  1.00  0.00     0.034 A 
BRANCH  46  60
ATOM     60  C   UNL A   1      39.847  33.177  36.988  1.00  0.00     0.023 A 
ATOM     61  C   UNL A   1      40.598  34.344  37.212  1.00  0.00     0.031 A 
ATOM     62  C   UNL A   1      38.839  32.854  37.913  1.00  0.00     0.131 A 
ATOM     63  C   UNL A   1      40.368  35.115  38.362  1.00  0.00     0.055 A 
ATOM     64  C   UNL A   1      38.567  33.664  39.018  1.00  0.00     0.041 A 
ATOM     65  F   UNL A   1      38.104  31.741  37.761  1.00  0.00    -0.206 F 
ATOM     66  C   UNL A   1      39.342  34.796  39.254  1.00  0.00     0.022 A 
BRANCH  63  67
ATOM     67  S   UNL A   1      41.509  36.475  38.738  1.00  0.00     0.124 S 
ATOM     68  O   UNL A   1      42.202  35.962  39.917  1.00  0.00    -0.237 OA
ATOM     69  O   UNL A   1      42.306  36.566  37.520  1.00  0.00    -0.237 OA
ATOM     70  O   UNL A   1      40.620  37.607  38.989  1.00  0.00    -0.744 OA
ENDBRANCH  63  67
ENDBRANCH  46  60
BRANCH  47  71
ATOM     71  C   UNL A   1      41.190  27.410  28.918  1.00  0.00     0.023 A 
ATOM     72  C   UNL A   1      42.188  27.750  27.991  1.00  0.00     0.031 A 
ATOM     73  C   UNL A   1      40.368  26.307  28.624  1.00  0.00     0.131 A 
ATOM     74  C   UNL A   1      42.298  27.037  26.787  1.00  0.00     0.055 A 
ATOM     75  C   UNL A   1      40.523  25.561  27.456  1.00  0.00     0.041 A 
ATOM     76  F   UNL A   1      39.394  25.941  29.472  1.00  0.00    -0.206 F 
ATOM     77  C   UNL A   1      41.481  25.936  26.519  1.00  0.00     0.022 A 
BRANCH  74  78
ATOM     78  S   UNL A   1      43.440  27.649  25.517  1.00  0.00     0.124 S 
ATOM     79  O   UNL A   1      44.313  26.496  25.324  1.00  0.00    -0.237 OA
ATOM     80  O   UNL A   1      42.532  27.957  24.418  1.00  0.00    -0.237 OA
ATOM     81  O   UNL A   1      44.066  28.807  26.151  1.00  0.00    -0.744 OA
ENDBRANCH  74  78
ENDBRANCH  47  71
BRANCH  59  82
ATOM     82  C   UNL A   1      44.531  28.009  35.005  1.00  0.00     0.023 A 
ATOM     83  C   UNL A   1      44.374  26.785  35.679  1.00  0.00     0.031 A 
ATOM     84  C   UNL A   1      45.827  28.545  34.899  1.00  0.00     0.131 A 
ATOM     85  C   UNL A   1      45.486  26.166  36.271  1.00  0.00     0.055 A 
ATOM     86  C   UNL A   1      46.938  27.896  35.441  1.00  0.00     0.041 A 
ATOM     87  F   UNL A   1      46.034  29.711  34.266  1.00  0.00    -0.206 F 
ATOM     88  C   UNL A   1      46.769  26.706  36.144  1.00  0.00     0.022 A 
BRANCH  85  89
ATOM     89  S   UNL A   1      45.223  24.685  37.287  1.00  0.00     0.124 S 
ATOM     90  O   UNL A   1      44.580  23.779  36.343  1.00  0.00    -0.237 OA
ATOM     91  O   UNL A   1      46.584  24.334  37.683  1.00  0.00    -0.237 OA
ATOM     92  O   UNL A   1      44.368  25.161  38.373  1.00  0.00    -0.744 OA
ENDBRANCH  85  89
ENDBRANCH  59  82
ENDBRANCH  33  34
ENDBRANCH  26  28
ENDBRANCH  25  26
ENDBRANCH  24  25
ENDBRANCH   1  24
TORSDOF 19
ENDMDL
