MODEL 1
REMARK VINA RESULT:     -12.9      0.000      0.000
REMARK SMILES C[C@H]1CC([N@H+]2[C@@H](C(=O)OCCOC(=O)c3ccc(-c4c5nc(c(-c6cc(S(=O)(=O)[O-])ccc6F)c6ccc([nH]6)c(-c6cc(S(=O)(=O)[O-])ccc6F)c6nc(c(-c7cc(S(=O)(=O)[O-])ccc7F)c7ccc4[nH]7)C=C6)C=C5)cc3)CC[C@@H]3CCCC[C@@H]32)C[C@H](C)C1
REMARK SMILES IDX 11 1 10 2 9 3 7 4 8 5 6 6 5 7 85 8 78 10 80 11 84 12 79 13
REMARK SMILES IDX 81 14 83 15 82 16 4 17 1 18 2 19 3 20 89 21 87 22 86 23
REMARK SMILES IDX 88 24 12 25 13 26 14 27 15 28 16 29 77 30 17 31 76 32 18 33
REMARK SMILES IDX 19 34 20 35 70 36 21 37 75 38 69 39 71 40 22 41 74 42 68 43
REMARK SMILES IDX 67 44 23 46 55 47 35 48 54 49 36 50 39 51 53 52 72 53 37 54
REMARK SMILES IDX 38 55 52 57 73 58 40 59 24 60 25 61 33 62 26 63 32 64 34 65
REMARK SMILES IDX 31 66 27 67 28 68 29 69 30 70 56 71 57 72 65 73 58 74 64 75
REMARK SMILES IDX 66 76 63 77 59 78 60 79 61 80 62 81 41 82 42 83 50 84 43 85
REMARK SMILES IDX 49 86 51 87 48 88 44 89 45 90 46 91 47 92
REMARK H PARENT 5 9 71 45 39 56
REMARK Flexibility Score: inf
ROOT
ATOM      1  C   UNL A   1      35.915  20.720  24.965  1.00  0.00     0.275 C 
ENDROOT
BRANCH   1   2
ATOM      2  C   UNL A   1      34.513  21.317  25.105  1.00  0.00     0.274 C 
BRANCH   2   3
ATOM      3  O   UNL A   1      34.086  22.026  23.915  1.00  0.00    -0.458 OA
BRANCH   3   4
ATOM      4  C   UNL A   1      32.756  21.931  23.630  1.00  0.00     0.365 C 
ATOM      5  O   UNL A   1      32.268  20.976  23.025  1.00  0.00    -0.245 OA
BRANCH   4   6
ATOM      6  C   UNL A   1      31.886  23.147  24.012  1.00  0.00     0.295 C 
ATOM      7  N   UNL A   1      32.537  24.488  24.034  1.00  0.00    -0.318 N 
ATOM      8  C   UNL A   1      33.285  24.787  25.263  1.00  0.00     0.188 C 
ATOM      9  H   UNL A   1      32.215  25.411  24.327  1.00  0.00     0.349 HD
ATOM     10  C   UNL A   1      31.006  22.936  25.242  1.00  0.00     0.078 C 
ATOM     11  C   UNL A   1      32.401  24.619  26.534  1.00  0.00     0.048 C 
ATOM     12  C   UNL A   1      34.071  26.081  25.511  1.00  0.00     0.065 C 
ATOM     13  C   UNL A   1      31.709  23.264  26.548  1.00  0.00     0.016 C 
ATOM     14  C   UNL A   1      31.386  25.743  26.766  1.00  0.00     0.010 C 
ATOM     15  C   UNL A   1      33.357  27.302  26.095  1.00  0.00     0.006 C 
ATOM     16  C   UNL A   1      31.948  27.152  26.652  1.00  0.00     0.001 C 
BRANCH   7  17
ATOM     17  C   UNL A   1      32.583  25.079  22.687  1.00  0.00     0.185 C 
ATOM     18  C   UNL A   1      29.421  27.116  23.413  1.00  0.00     0.008 C 
ATOM     19  C   UNL A   1      30.905  26.813  23.257  1.00  0.00    -0.008 C 
ATOM     20  C   UNL A   1      31.162  25.606  22.373  1.00  0.00     0.068 C 
ATOM     21  C   UNL A   1      31.743  27.996  22.792  1.00  0.00     0.007 C 
ATOM     22  C   UNL A   1      33.152  27.640  22.258  1.00  0.00    -0.008 C 
ATOM     23  C   UNL A   1      33.595  26.152  22.255  1.00  0.00     0.068 C 
ATOM     24  C   UNL A   1      34.253  28.564  22.798  1.00  0.00     0.008 C 
ENDBRANCH   7  17
ENDBRANCH   4   6
ENDBRANCH   3   4
ENDBRANCH   2   3
ENDBRANCH   1   2
BRANCH   1  25
ATOM     25  O   UNL A   1      36.894  21.741  25.193  1.00  0.00    -0.458 OA
BRANCH  25  26
ATOM     26  C   UNL A   1      38.127  21.322  25.571  1.00  0.00     0.338 C 
ATOM     27  O   UNL A   1      38.636  20.243  25.326  1.00  0.00    -0.246 OA
BRANCH  26  28
ATOM     28  C   UNL A   1      38.819  22.420  26.288  1.00  0.00     0.060 A 
ATOM     29  C   UNL A   1      38.393  23.731  26.116  1.00  0.00     0.016 A 
ATOM     30  C   UNL A   1      39.976  22.178  27.026  1.00  0.00     0.016 A 
ATOM     31  C   UNL A   1      39.178  24.796  26.541  1.00  0.00     0.010 A 
ATOM     32  C   UNL A   1      40.689  23.255  27.579  1.00  0.00     0.010 A 
ATOM     33  C   UNL A   1      40.326  24.588  27.307  1.00  0.00    -0.014 A 
BRANCH  33  34
ATOM     34  C   UNL A   1      41.152  25.753  27.758  1.00  0.00     0.031 A 
ATOM     35  C   UNL A   1      40.543  26.812  28.645  1.00  0.00     0.074 A 
ATOM     36  C   UNL A   1      42.456  25.863  27.419  1.00  0.00     0.049 A 
ATOM     37  N   UNL A   1      40.970  28.020  28.907  1.00  0.00    -0.248 NA
ATOM     38  C   UNL A   1      39.273  26.470  29.307  1.00  0.00     0.031 C 
ATOM     39  C   UNL A   1      43.226  24.883  26.646  1.00  0.00     0.029 A 
ATOM     40  N   UNL A   1      43.378  26.848  27.692  1.00  0.00    -0.354 N 
ATOM     41  C   UNL A   1      39.981  28.615  29.686  1.00  0.00     0.074 A 
ATOM     42  C   UNL A   1      38.939  27.626  29.864  1.00  0.00     0.031 C 
ATOM     43  C   UNL A   1      44.504  25.281  26.564  1.00  0.00     0.029 A 
ATOM     44  C   UNL A   1      44.617  26.615  27.136  1.00  0.00     0.049 A 
ATOM     45  H   UNL A   1      43.171  27.644  28.233  1.00  0.00     0.167 HD
ATOM     46  C   UNL A   1      39.946  29.875  30.187  1.00  0.00     0.034 A 
ATOM     47  C   UNL A   1      45.702  27.406  27.017  1.00  0.00     0.034 A 
ATOM     48  C   UNL A   1      41.032  30.818  30.064  1.00  0.00     0.049 A 
ATOM     49  C   UNL A   1      45.623  28.817  27.535  1.00  0.00     0.074 A 
ATOM     50  C   UNL A   1      41.106  32.116  30.539  1.00  0.00     0.029 A 
ATOM     51  N   UNL A   1      42.244  30.556  29.438  1.00  0.00    -0.354 N 
ATOM     52  N   UNL A   1      44.631  29.415  28.152  1.00  0.00    -0.248 NA
ATOM     53  C   UNL A   1      46.798  29.668  27.312  1.00  0.00     0.031 C 
ATOM     54  C   UNL A   1      42.339  32.656  30.155  1.00  0.00     0.029 A 
ATOM     55  C   UNL A   1      43.063  31.674  29.498  1.00  0.00     0.049 A 
ATOM     56  H   UNL A   1      42.488  29.701  29.014  1.00  0.00     0.167 HD
ATOM     57  C   UNL A   1      45.066  30.714  28.391  1.00  0.00     0.074 A 
ATOM     58  C   UNL A   1      46.419  30.801  27.883  1.00  0.00     0.031 C 
ATOM     59  C   UNL A   1      44.403  31.748  28.968  1.00  0.00     0.034 A 
BRANCH  46  60
ATOM     60  C   UNL A   1      38.664  30.334  30.841  1.00  0.00     0.023 A 
ATOM     61  C   UNL A   1      37.636  30.975  30.131  1.00  0.00     0.031 A 
ATOM     62  C   UNL A   1      38.481  30.129  32.222  1.00  0.00     0.131 A 
ATOM     63  C   UNL A   1      36.499  31.438  30.813  1.00  0.00     0.055 A 
ATOM     64  C   UNL A   1      37.317  30.526  32.881  1.00  0.00     0.041 A 
ATOM     65  F   UNL A   1      39.438  29.540  32.957  1.00  0.00    -0.206 F 
ATOM     66  C   UNL A   1      36.321  31.195  32.178  1.00  0.00     0.022 A 
BRANCH  63  67
ATOM     67  S   UNL A   1      35.302  32.466  29.917  1.00  0.00     0.124 S 
ATOM     68  O   UNL A   1      36.135  33.593  29.502  1.00  0.00    -0.237 OA
ATOM     69  O   UNL A   1      34.856  31.575  28.852  1.00  0.00    -0.237 OA
ATOM     70  O   UNL A   1      34.296  32.782  30.928  1.00  0.00    -0.744 OA
ENDBRANCH  63  67
ENDBRANCH  46  60
BRANCH  47  71
ATOM     71  C   UNL A   1      46.907  26.934  26.270  1.00  0.00     0.023 A 
ATOM     72  C   UNL A   1      47.974  26.307  26.931  1.00  0.00     0.031 A 
ATOM     73  C   UNL A   1      47.029  27.149  24.884  1.00  0.00     0.131 A 
ATOM     74  C   UNL A   1      49.128  25.951  26.214  1.00  0.00     0.055 A 
ATOM     75  C   UNL A   1      48.148  26.733  24.164  1.00  0.00     0.041 A 
ATOM     76  F   UNL A   1      46.045  27.756  24.200  1.00  0.00    -0.206 F 
ATOM     77  C   UNL A   1      49.214  26.141  24.832  1.00  0.00     0.022 A 
BRANCH  74  78
ATOM     78  S   UNL A   1      50.562  25.322  27.129  1.00  0.00     0.124 S 
ATOM     79  O   UNL A   1      50.956  26.492  27.906  1.00  0.00    -0.237 OA
ATOM     80  O   UNL A   1      49.980  24.218  27.883  1.00  0.00    -0.237 OA
ATOM     81  O   UNL A   1      51.495  24.931  26.074  1.00  0.00    -0.744 OA
ENDBRANCH  74  78
ENDBRANCH  47  71
BRANCH  59  82
ATOM     82  C   UNL A   1      45.161  33.043  29.104  1.00  0.00     0.023 A 
ATOM     83  C   UNL A   1      45.177  33.995  28.071  1.00  0.00     0.031 A 
ATOM     84  C   UNL A   1      45.904  33.310  30.267  1.00  0.00     0.131 A 
ATOM     85  C   UNL A   1      45.968  35.146  28.196  1.00  0.00     0.055 A 
ATOM     86  C   UNL A   1      46.644  34.483  30.409  1.00  0.00     0.041 A 
ATOM     87  F   UNL A   1      45.924  32.432  31.282  1.00  0.00    -0.206 F 
ATOM     88  C   UNL A   1      46.690  35.404  29.365  1.00  0.00     0.022 A 
BRANCH  85  89
ATOM     89  S   UNL A   1      46.114  36.262  26.773  1.00  0.00     0.124 S 
ATOM     90  O   UNL A   1      47.460  36.800  26.947  1.00  0.00    -0.237 OA
ATOM     91  O   UNL A   1      45.931  35.356  25.645  1.00  0.00    -0.237 OA
ATOM     92  O   UNL A   1      45.032  37.223  26.978  1.00  0.00    -0.744 OA
ENDBRANCH  85  89
ENDBRANCH  59  82
ENDBRANCH  33  34
ENDBRANCH  26  28
ENDBRANCH  25  26
ENDBRANCH   1  25
TORSDOF 15
ENDMDL
MODEL 2
REMARK VINA RESULT:     -12.9      0.785      1.781
REMARK SMILES C[C@H]1CC([N@H+]2[C@@H](C(=O)OCCOC(=O)c3ccc(-c4c5nc(c(-c6cc(S(=O)(=O)[O-])ccc6F)c6ccc([nH]6)c(-c6cc(S(=O)(=O)[O-])ccc6F)c6nc(c(-c7cc(S(=O)(=O)[O-])ccc7F)c7ccc4[nH]7)C=C6)C=C5)cc3)CC[C@@H]3CCCC[C@@H]32)C[C@H](C)C1
REMARK SMILES IDX 11 1 10 2 9 3 7 4 8 5 6 6 5 7 85 8 78 10 80 11 84 12 79 13
REMARK SMILES IDX 81 14 83 15 82 16 4 17 1 18 2 19 3 20 89 21 87 22 86 23
REMARK SMILES IDX 88 24 12 25 13 26 14 27 15 28 16 29 77 30 17 31 76 32 18 33
REMARK SMILES IDX 19 34 20 35 70 36 21 37 75 38 69 39 71 40 22 41 74 42 68 43
REMARK SMILES IDX 67 44 23 46 55 47 35 48 54 49 36 50 39 51 53 52 72 53 37 54
REMARK SMILES IDX 38 55 52 57 73 58 40 59 24 60 25 61 33 62 26 63 32 64 34 65
REMARK SMILES IDX 31 66 27 67 28 68 29 69 30 70 56 71 57 72 65 73 58 74 64 75
REMARK SMILES IDX 66 76 63 77 59 78 60 79 61 80 62 81 41 82 42 83 50 84 43 85
REMARK SMILES IDX 49 86 51 87 48 88 44 89 45 90 46 91 47 92
REMARK H PARENT 5 9 71 45 39 56
REMARK Flexibility Score: inf
ROOT
ATOM      1  C   UNL A   1      35.997  20.676  24.987  1.00  0.00     0.275 C 
ENDROOT
BRANCH   1   2
ATOM      2  C   UNL A   1      34.687  21.375  24.620  1.00  0.00     0.274 C 
BRANCH   2   3
ATOM      3  O   UNL A   1      34.756  22.814  24.784  1.00  0.00    -0.458 OA
BRANCH   3   4
ATOM      4  C   UNL A   1      34.951  23.518  23.632  1.00  0.00     0.365 C 
ATOM      5  O   UNL A   1      35.983  23.438  22.965  1.00  0.00    -0.245 OA
BRANCH   4   6
ATOM      6  C   UNL A   1      33.843  24.522  23.250  1.00  0.00     0.295 C 
ATOM      7  N   UNL A   1      33.139  25.235  24.353  1.00  0.00    -0.318 N 
ATOM      8  C   UNL A   1      32.059  24.467  24.989  1.00  0.00     0.188 C 
ATOM      9  H   UNL A   1      32.336  25.864  24.372  1.00  0.00     0.349 HD
ATOM     10  C   UNL A   1      32.858  24.011  22.201  1.00  0.00     0.078 C 
ATOM     11  C   UNL A   1      31.016  23.965  23.948  1.00  0.00     0.048 C 
ATOM     12  C   UNL A   1      31.214  24.965  26.169  1.00  0.00     0.065 C 
ATOM     13  C   UNL A   1      31.693  23.237  22.796  1.00  0.00     0.016 C 
ATOM     14  C   UNL A   1      30.065  25.042  23.417  1.00  0.00     0.010 C 
ATOM     15  C   UNL A   1      29.958  25.798  25.904  1.00  0.00     0.006 C 
ATOM     16  C   UNL A   1      29.422  25.916  24.483  1.00  0.00     0.001 C 
BRANCH   7  17
ATOM     17  C   UNL A   1      33.902  26.411  24.799  1.00  0.00     0.185 C 
ATOM     18  C   UNL A   1      31.803  28.695  22.551  1.00  0.00     0.008 C 
ATOM     19  C   UNL A   1      32.265  27.997  23.823  1.00  0.00    -0.008 C 
ATOM     20  C   UNL A   1      33.702  27.514  23.733  1.00  0.00     0.068 C 
ATOM     21  C   UNL A   1      32.059  28.808  25.095  1.00  0.00     0.007 C 
ATOM     22  C   UNL A   1      32.851  28.313  26.331  1.00  0.00    -0.008 C 
ATOM     23  C   UNL A   1      33.751  27.057  26.186  1.00  0.00     0.068 C 
ATOM     24  C   UNL A   1      32.004  28.266  27.611  1.00  0.00     0.008 C 
ENDBRANCH   7  17
ENDBRANCH   4   6
ENDBRANCH   3   4
ENDBRANCH   2   3
ENDBRANCH   1   2
BRANCH   1  25
ATOM     25  O   UNL A   1      36.816  21.566  25.754  1.00  0.00    -0.458 OA
BRANCH  25  26
ATOM     26  C   UNL A   1      38.153  21.341  25.716  1.00  0.00     0.338 C 
ATOM     27  O   UNL A   1      38.720  20.420  25.158  1.00  0.00    -0.246 OA
BRANCH  26  28
ATOM     28  C   UNL A   1      38.855  22.445  26.414  1.00  0.00     0.060 A 
ATOM     29  C   UNL A   1      38.400  23.750  26.271  1.00  0.00     0.016 A 
ATOM     30  C   UNL A   1      40.046  22.217  27.100  1.00  0.00     0.016 A 
ATOM     31  C   UNL A   1      39.185  24.825  26.673  1.00  0.00     0.010 A 
ATOM     32  C   UNL A   1      40.764  23.302  27.633  1.00  0.00     0.010 A 
ATOM     33  C   UNL A   1      40.367  24.631  27.388  1.00  0.00    -0.014 A 
BRANCH  33  34
ATOM     34  C   UNL A   1      41.191  25.806  27.814  1.00  0.00     0.031 A 
ATOM     35  C   UNL A   1      40.582  26.879  28.684  1.00  0.00     0.074 A 
ATOM     36  C   UNL A   1      42.493  25.914  27.467  1.00  0.00     0.049 A 
ATOM     37  N   UNL A   1      41.007  28.093  28.923  1.00  0.00    -0.248 NA
ATOM     38  C   UNL A   1      39.317  26.545  29.358  1.00  0.00     0.031 C 
ATOM     39  C   UNL A   1      43.263  24.923  26.709  1.00  0.00     0.029 A 
ATOM     40  N   UNL A   1      43.413  26.907  27.718  1.00  0.00    -0.354 N 
ATOM     41  C   UNL A   1      40.019  28.699  29.695  1.00  0.00     0.074 A 
ATOM     42  C   UNL A   1      38.981  27.710  29.896  1.00  0.00     0.031 C 
ATOM     43  C   UNL A   1      44.539  25.323  26.614  1.00  0.00     0.029 A 
ATOM     44  C   UNL A   1      44.651  26.667  27.161  1.00  0.00     0.049 A 
ATOM     45  H   UNL A   1      43.206  27.711  28.246  1.00  0.00     0.167 HD
ATOM     46  C   UNL A   1      39.982  29.968  30.173  1.00  0.00     0.034 A 
ATOM     47  C   UNL A   1      45.732  27.460  27.023  1.00  0.00     0.034 A 
ATOM     48  C   UNL A   1      41.064  30.911  30.029  1.00  0.00     0.049 A 
ATOM     49  C   UNL A   1      45.651  28.879  27.516  1.00  0.00     0.074 A 
ATOM     50  C   UNL A   1      41.137  32.218  30.480  1.00  0.00     0.029 A 
ATOM     51  N   UNL A   1      42.275  30.642  29.402  1.00  0.00    -0.354 N 
ATOM     52  N   UNL A   1      44.660  29.486  28.126  1.00  0.00    -0.248 NA
ATOM     53  C   UNL A   1      46.822  29.730  27.272  1.00  0.00     0.031 C 
ATOM     54  C   UNL A   1      42.367  32.755  30.081  1.00  0.00     0.029 A 
ATOM     55  C   UNL A   1      43.091  31.763  29.438  1.00  0.00     0.049 A 
ATOM     56  H   UNL A   1      42.519  29.781  28.993  1.00  0.00     0.167 HD
ATOM     57  C   UNL A   1      45.091  30.790  28.340  1.00  0.00     0.074 A 
ATOM     58  C   UNL A   1      46.442  30.872  27.824  1.00  0.00     0.031 C 
ATOM     59  C   UNL A   1      44.428  31.832  28.902  1.00  0.00     0.034 A 
BRANCH  46  60
ATOM     60  C   UNL A   1      38.702  30.435  30.825  1.00  0.00     0.023 A 
ATOM     61  C   UNL A   1      37.660  31.039  30.104  1.00  0.00     0.031 A 
ATOM     62  C   UNL A   1      38.535  30.274  32.214  1.00  0.00     0.131 A 
ATOM     63  C   UNL A   1      36.524  31.512  30.782  1.00  0.00     0.055 A 
ATOM     64  C   UNL A   1      37.373  30.681  32.871  1.00  0.00     0.041 A 
ATOM     65  F   UNL A   1      39.507  29.723  32.958  1.00  0.00    -0.206 F 
ATOM     66  C   UNL A   1      36.363  31.314  32.156  1.00  0.00     0.022 A 
BRANCH  63  67
ATOM     67  S   UNL A   1      35.306  32.495  29.864  1.00  0.00     0.124 S 
ATOM     68  O   UNL A   1      34.352  32.841  30.916  1.00  0.00    -0.237 OA
ATOM     69  O   UNL A   1      36.114  33.594  29.347  1.00  0.00    -0.237 OA
ATOM     70  O   UNL A   1      34.802  31.564  28.857  1.00  0.00    -0.744 OA
ENDBRANCH  63  67
ENDBRANCH  46  60
BRANCH  47  71
ATOM     71  C   UNL A   1      46.936  26.978  26.279  1.00  0.00     0.023 A 
ATOM     72  C   UNL A   1      48.002  26.355  26.945  1.00  0.00     0.031 A 
ATOM     73  C   UNL A   1      47.057  27.181  24.891  1.00  0.00     0.131 A 
ATOM     74  C   UNL A   1      49.154  25.989  26.230  1.00  0.00     0.055 A 
ATOM     75  C   UNL A   1      48.175  26.755  24.174  1.00  0.00     0.041 A 
ATOM     76  F   UNL A   1      46.073  27.784  24.202  1.00  0.00    -0.206 F 
ATOM     77  C   UNL A   1      49.239  26.167  24.847  1.00  0.00     0.022 A 
BRANCH  74  78
ATOM     78  S   UNL A   1      50.588  25.365  27.150  1.00  0.00     0.124 S 
ATOM     79  O   UNL A   1      51.491  24.983  26.070  1.00  0.00    -0.237 OA
ATOM     80  O   UNL A   1      50.979  26.535  27.929  1.00  0.00    -0.237 OA
ATOM     81  O   UNL A   1      50.038  24.256  27.926  1.00  0.00    -0.744 OA
ENDBRANCH  74  78
ENDBRANCH  47  71
BRANCH  59  82
ATOM     82  C   UNL A   1      45.183  33.132  29.011  1.00  0.00     0.023 A 
ATOM     83  C   UNL A   1      45.242  34.037  27.937  1.00  0.00     0.031 A 
ATOM     84  C   UNL A   1      45.877  33.450  30.190  1.00  0.00     0.131 A 
ATOM     85  C   UNL A   1      46.030  35.192  28.043  1.00  0.00     0.055 A 
ATOM     86  C   UNL A   1      46.613  34.629  30.310  1.00  0.00     0.041 A 
ATOM     87  F   UNL A   1      45.854  32.618  31.243  1.00  0.00    -0.206 F 
ATOM     88  C   UNL A   1      46.705  35.501  29.228  1.00  0.00     0.022 A 
BRANCH  85  89
ATOM     89  S   UNL A   1      46.237  36.244  26.580  1.00  0.00     0.124 S 
ATOM     90  O   UNL A   1      45.862  35.337  25.499  1.00  0.00    -0.237 OA
ATOM     91  O   UNL A   1      45.309  37.336  26.846  1.00  0.00    -0.237 OA
ATOM     92  O   UNL A   1      47.652  36.610  26.618  1.00  0.00    -0.744 OA
ENDBRANCH  85  89
ENDBRANCH  59  82
ENDBRANCH  33  34
ENDBRANCH  26  28
ENDBRANCH  25  26
ENDBRANCH   1  25
TORSDOF 15
ENDMDL
MODEL 3
REMARK VINA RESULT:     -12.8      4.673      9.759
REMARK SMILES C[C@H]1CC([N@H+]2[C@@H](C(=O)OCCOC(=O)c3ccc(-c4c5nc(c(-c6cc(S(=O)(=O)[O-])ccc6F)c6ccc([nH]6)c(-c6cc(S(=O)(=O)[O-])ccc6F)c6nc(c(-c7cc(S(=O)(=O)[O-])ccc7F)c7ccc4[nH]7)C=C6)C=C5)cc3)CC[C@@H]3CCCC[C@@H]32)C[C@H](C)C1
REMARK SMILES IDX 11 1 10 2 9 3 7 4 8 5 6 6 5 7 85 8 78 10 80 11 84 12 79 13
REMARK SMILES IDX 81 14 83 15 82 16 4 17 1 18 2 19 3 20 89 21 87 22 86 23
REMARK SMILES IDX 88 24 12 25 13 26 14 27 15 28 16 29 77 30 17 31 76 32 18 33
REMARK SMILES IDX 19 34 20 35 70 36 21 37 75 38 69 39 71 40 22 41 74 42 68 43
REMARK SMILES IDX 67 44 23 46 55 47 35 48 54 49 36 50 39 51 53 52 72 53 37 54
REMARK SMILES IDX 38 55 52 57 73 58 40 59 24 60 25 61 33 62 26 63 32 64 34 65
REMARK SMILES IDX 31 66 27 67 28 68 29 69 30 70 56 71 57 72 65 73 58 74 64 75
REMARK SMILES IDX 66 76 63 77 59 78 60 79 61 80 62 81 41 82 42 83 50 84 43 85
REMARK SMILES IDX 49 86 51 87 48 88 44 89 45 90 46 91 47 92
REMARK H PARENT 5 9 71 45 39 56
REMARK Flexibility Score: inf
ROOT
ATOM      1  C   UNL A   1      31.708  30.051  25.422  1.00  0.00     0.275 C 
ENDROOT
BRANCH   1   2
ATOM      2  C   UNL A   1      31.522  28.598  24.983  1.00  0.00     0.274 C 
BRANCH   2   3
ATOM      3  O   UNL A   1      32.453  27.694  25.631  1.00  0.00    -0.458 OA
BRANCH   3   4
ATOM      4  C   UNL A   1      31.900  26.864  26.560  1.00  0.00     0.365 C 
ATOM      5  O   UNL A   1      31.528  27.253  27.668  1.00  0.00    -0.245 OA
BRANCH   4   6
ATOM      6  C   UNL A   1      31.861  25.364  26.200  1.00  0.00     0.295 C 
ATOM      7  N   UNL A   1      32.898  24.847  25.262  1.00  0.00    -0.318 N 
ATOM      8  C   UNL A   1      32.607  25.075  23.840  1.00  0.00     0.188 C 
ATOM      9  H   UNL A   1      33.035  23.942  24.812  1.00  0.00     0.349 HD
ATOM     10  C   UNL A   1      30.474  24.834  25.843  1.00  0.00     0.078 C 
ATOM     11  C   UNL A   1      31.214  24.509  23.436  1.00  0.00     0.048 C 
ATOM     12  C   UNL A   1      33.534  24.671  22.686  1.00  0.00     0.065 C 
ATOM     13  C   UNL A   1      30.124  25.006  24.374  1.00  0.00     0.016 C 
ATOM     14  C   UNL A   1      31.152  22.984  23.301  1.00  0.00     0.010 C 
ATOM     15  C   UNL A   1      33.439  23.263  22.094  1.00  0.00     0.006 C 
ATOM     16  C   UNL A   1      32.272  22.364  22.480  1.00  0.00     0.001 C 
BRANCH   7  17
ATOM     17  C   UNL A   1      34.147  24.533  25.972  1.00  0.00     0.185 C 
ATOM     18  C   UNL A   1      33.118  20.856  26.276  1.00  0.00     0.008 C 
ATOM     19  C   UNL A   1      33.821  22.088  25.722  1.00  0.00    -0.008 C 
ATOM     20  C   UNL A   1      33.915  23.210  26.741  1.00  0.00     0.068 C 
ATOM     21  C   UNL A   1      35.187  21.811  25.113  1.00  0.00     0.007 C 
ATOM     22  C   UNL A   1      36.081  23.058  24.898  1.00  0.00    -0.008 C 
ATOM     23  C   UNL A   1      35.524  24.452  25.292  1.00  0.00     0.068 C 
ATOM     24  C   UNL A   1      36.763  23.081  23.523  1.00  0.00     0.008 C 
ENDBRANCH   7  17
ENDBRANCH   4   6
ENDBRANCH   3   4
ENDBRANCH   2   3
ENDBRANCH   1   2
BRANCH   1  25
ATOM     25  O   UNL A   1      32.386  30.087  26.684  1.00  0.00    -0.458 OA
BRANCH  25  26
ATOM     26  C   UNL A   1      32.915  31.280  27.052  1.00  0.00     0.338 C 
ATOM     27  O   UNL A   1      32.349  32.359  27.050  1.00  0.00    -0.246 OA
BRANCH  26  28
ATOM     28  C   UNL A   1      34.299  31.073  27.539  1.00  0.00     0.060 A 
ATOM     29  C   UNL A   1      34.729  29.793  27.869  1.00  0.00     0.016 A 
ATOM     30  C   UNL A   1      35.137  32.155  27.804  1.00  0.00     0.016 A 
ATOM     31  C   UNL A   1      35.907  29.600  28.583  1.00  0.00     0.010 A 
ATOM     32  C   UNL A   1      36.393  31.937  28.396  1.00  0.00     0.010 A 
ATOM     33  C   UNL A   1      36.780  30.657  28.837  1.00  0.00    -0.014 A 
BRANCH  33  34
ATOM     34  C   UNL A   1      38.045  30.422  29.604  1.00  0.00     0.031 A 
ATOM     35  C   UNL A   1      39.144  29.578  29.005  1.00  0.00     0.074 A 
ATOM     36  C   UNL A   1      38.246  30.983  30.817  1.00  0.00     0.049 A 
ATOM     37  N   UNL A   1      40.170  29.015  29.591  1.00  0.00    -0.248 NA
ATOM     38  C   UNL A   1      39.064  29.316  27.559  1.00  0.00     0.031 C 
ATOM     39  C   UNL A   1      37.328  31.900  31.500  1.00  0.00     0.029 A 
ATOM     40  N   UNL A   1      39.301  30.878  31.695  1.00  0.00    -0.354 N 
ATOM     41  C   UNL A   1      40.804  28.260  28.608  1.00  0.00     0.074 A 
ATOM     42  C   UNL A   1      40.053  28.450  27.385  1.00  0.00     0.031 C 
ATOM     43  C   UNL A   1      37.882  32.318  32.647  1.00  0.00     0.029 A 
ATOM     44  C   UNL A   1      39.120  31.584  32.864  1.00  0.00     0.049 A 
ATOM     45  H   UNL A   1      40.108  30.347  31.505  1.00  0.00     0.167 HD
ATOM     46  C   UNL A   1      41.901  27.471  28.728  1.00  0.00     0.034 A 
ATOM     47  C   UNL A   1      39.815  31.585  34.019  1.00  0.00     0.034 A 
ATOM     48  C   UNL A   1      42.681  27.359  29.937  1.00  0.00     0.049 A 
ATOM     49  C   UNL A   1      40.999  30.665  34.147  1.00  0.00     0.074 A 
ATOM     50  C   UNL A   1      43.813  26.597  30.167  1.00  0.00     0.029 A 
ATOM     51  N   UNL A   1      42.423  28.048  31.116  1.00  0.00    -0.354 N 
ATOM     52  N   UNL A   1      41.511  29.850  33.255  1.00  0.00    -0.248 NA
ATOM     53  C   UNL A   1      41.677  30.639  35.449  1.00  0.00     0.031 C 
ATOM     54  C   UNL A   1      44.208  26.782  31.497  1.00  0.00     0.029 A 
ATOM     55  C   UNL A   1      43.362  27.713  32.080  1.00  0.00     0.049 A 
ATOM     56  H   UNL A   1      41.681  28.683  31.247  1.00  0.00     0.167 HD
ATOM     57  C   UNL A   1      42.574  29.217  33.889  1.00  0.00     0.074 A 
ATOM     58  C   UNL A   1      42.649  29.768  35.226  1.00  0.00     0.031 C 
ATOM     59  C   UNL A   1      43.408  28.258  33.415  1.00  0.00     0.034 A 
BRANCH  46  60
ATOM     60  C   UNL A   1      42.274  26.605  27.548  1.00  0.00     0.023 A 
ATOM     61  C   UNL A   1      41.859  25.269  27.425  1.00  0.00     0.031 A 
ATOM     62  C   UNL A   1      43.081  27.141  26.525  1.00  0.00     0.131 A 
ATOM     63  C   UNL A   1      42.297  24.499  26.335  1.00  0.00     0.055 A 
ATOM     64  C   UNL A   1      43.453  26.391  25.408  1.00  0.00     0.041 A 
ATOM     65  F   UNL A   1      43.525  28.405  26.599  1.00  0.00    -0.206 F 
ATOM     66  C   UNL A   1      43.070  25.058  25.314  1.00  0.00     0.022 A 
BRANCH  63  67
ATOM     67  S   UNL A   1      41.941  22.720  26.325  1.00  0.00     0.124 S 
ATOM     68  O   UNL A   1      42.629  22.275  27.536  1.00  0.00    -0.237 OA
ATOM     69  O   UNL A   1      40.484  22.689  26.371  1.00  0.00    -0.237 OA
ATOM     70  O   UNL A   1      42.536  22.257  25.074  1.00  0.00    -0.744 OA
ENDBRANCH  63  67
ENDBRANCH  46  60
BRANCH  47  71
ATOM     71  C   UNL A   1      39.342  32.386  35.189  1.00  0.00     0.023 A 
ATOM     72  C   UNL A   1      39.771  33.706  35.390  1.00  0.00     0.031 A 
ATOM     73  C   UNL A   1      38.486  31.819  36.154  1.00  0.00     0.131 A 
ATOM     74  C   UNL A   1      39.373  34.403  36.543  1.00  0.00     0.055 A 
ATOM     75  C   UNL A   1      38.040  32.538  37.263  1.00  0.00     0.041 A 
ATOM     76  F   UNL A   1      38.052  30.555  36.021  1.00  0.00    -0.206 F 
ATOM     77  C   UNL A   1      38.496  33.834  37.469  1.00  0.00     0.022 A 
BRANCH  74  78
ATOM     78  S   UNL A   1      40.100  36.032  36.869  1.00  0.00     0.124 S 
ATOM     79  O   UNL A   1      39.844  36.730  35.614  1.00  0.00    -0.237 OA
ATOM     80  O   UNL A   1      39.327  36.483  38.021  1.00  0.00    -0.237 OA
ATOM     81  O   UNL A   1      41.503  35.732  37.141  1.00  0.00    -0.744 OA
ENDBRANCH  74  78
ENDBRANCH  47  71
BRANCH  59  82
ATOM     82  C   UNL A   1      44.489  27.781  34.350  1.00  0.00     0.023 A 
ATOM     83  C   UNL A   1      44.290  26.677  35.198  1.00  0.00     0.031 A 
ATOM     84  C   UNL A   1      45.717  28.460  34.419  1.00  0.00     0.131 A 
ATOM     85  C   UNL A   1      45.283  26.320  36.121  1.00  0.00     0.055 A 
ATOM     86  C   UNL A   1      46.724  28.065  35.299  1.00  0.00     0.041 A 
ATOM     87  F   UNL A   1      45.956  29.522  33.633  1.00  0.00    -0.206 F 
ATOM     88  C   UNL A   1      46.505  26.998  36.166  1.00  0.00     0.022 A 
BRANCH  85  89
ATOM     89  S   UNL A   1      44.924  25.012  37.326  1.00  0.00     0.124 S 
ATOM     90  O   UNL A   1      43.677  25.483  37.921  1.00  0.00    -0.237 OA
ATOM     91  O   UNL A   1      44.820  23.828  36.480  1.00  0.00    -0.237 OA
ATOM     92  O   UNL A   1      46.083  25.037  38.215  1.00  0.00    -0.744 OA
ENDBRANCH  85  89
ENDBRANCH  59  82
ENDBRANCH  33  34
ENDBRANCH  26  28
ENDBRANCH  25  26
ENDBRANCH   1  25
TORSDOF 15
ENDMDL
