MODEL 1
REMARK VINA RESULT:     -13.9      0.000      0.000
REMARK SMILES Cc1ccccc1C(=O)Nc1ccc(N2CCCCC2)cc1C(=O)OCCOC(=O)c1ccc(-c2c3nc(c(-c4cc(S(=O)(=O)[O-])ccc4F)c4ccc([nH]4)c(-c4cc(S(=O)(=O)[O-])ccc4F)c4nc(c(-c5cc(S(=O)(=O)[O-])ccc5F)c5ccc2[nH]5)C=C4)C=C3)cc1
REMARK SMILES IDX 27 1 26 2 25 3 23 4 24 5 22 6 11 7 12 8 13 9 21 10 14 11
REMARK SMILES IDX 10 12 8 13 9 14 7 16 1 17 2 18 3 19 4 20 6 21 5 22 15 23
REMARK SMILES IDX 16 24 20 25 17 26 19 27 18 28 28 29 29 30 30 31 31 32 32 33
REMARK SMILES IDX 93 34 33 35 92 36 34 37 35 38 36 39 86 40 37 41 91 42 85 43
REMARK SMILES IDX 87 44 38 45 90 46 84 47 83 48 39 50 71 51 51 52 70 53 52 54
REMARK SMILES IDX 55 55 69 56 88 57 53 58 54 59 68 61 89 62 56 63 40 64 41 65
REMARK SMILES IDX 49 66 42 67 48 68 50 69 47 70 43 71 44 72 45 73 46 74 72 75
REMARK SMILES IDX 73 76 81 77 74 78 80 79 82 80 79 81 75 82 76 83 77 84 78 85
REMARK SMILES IDX 57 86 58 87 66 88 59 89 65 90 67 91 64 92 60 93 61 94 62 95
REMARK SMILES IDX 63 96
REMARK H PARENT 10 15 87 49 55 60
REMARK Flexibility Score: inf
ROOT
ATOM      1  C   UNL A   1      34.835  31.026  27.742  1.00  0.00     0.275 C 
ENDROOT
BRANCH   1   2
ATOM      2  C   UNL A   1      33.455  30.510  27.191  1.00  0.00     0.275 C 
BRANCH   2   3
ATOM      3  O   UNL A   1      33.292  29.440  26.209  1.00  0.00    -0.458 OA
BRANCH   3   4
ATOM      4  C   UNL A   1      32.486  28.398  26.509  1.00  0.00     0.340 C 
ATOM      5  O   UNL A   1      32.624  27.767  27.525  1.00  0.00    -0.246 OA
BRANCH   4   6
ATOM      6  C   UNL A   1      31.429  28.069  25.518  1.00  0.00     0.085 A 
ATOM      7  C   UNL A   1      30.777  26.812  25.437  1.00  0.00     0.056 A 
ATOM      8  C   UNL A   1      29.868  26.602  24.383  1.00  0.00     0.029 A 
ATOM      9  C   UNL A   1      29.457  27.645  23.569  1.00  0.00     0.028 A 
ATOM     10  C   UNL A   1      31.040  29.100  24.636  1.00  0.00     0.043 A 
ATOM     11  C   UNL A   1      30.001  28.914  23.720  1.00  0.00     0.038 A 
BRANCH   7  12
ATOM     12  N   UNL A   1      30.822  25.668  26.267  1.00  0.00    -0.321 N 
ATOM     13  C   UNL A   1      31.467  24.450  26.278  1.00  0.00     0.255 C 
ATOM     14  O   UNL A   1      31.407  23.812  27.336  1.00  0.00    -0.269 OA
ATOM     15  H   UNL A   1      30.233  25.768  27.049  1.00  0.00     0.170 HD
BRANCH  13  16
ATOM     16  C   UNL A   1      32.260  23.867  25.176  1.00  0.00     0.043 A 
ATOM     17  C   UNL A   1      34.346  25.327  25.458  1.00  0.00     0.045 C 
ATOM     18  C   UNL A   1      33.504  24.338  24.716  1.00  0.00    -0.038 A 
ATOM     19  C   UNL A   1      33.939  23.915  23.443  1.00  0.00     0.004 A 
ATOM     20  C   UNL A   1      33.201  22.993  22.693  1.00  0.00     0.000 A 
ATOM     21  C   UNL A   1      31.596  22.844  24.475  1.00  0.00     0.014 A 
ATOM     22  C   UNL A   1      32.048  22.427  23.225  1.00  0.00     0.001 A 
ENDBRANCH  13  16
ENDBRANCH   7  12
BRANCH  11  23
ATOM     23  N   UNL A   1      29.406  29.953  23.035  1.00  0.00    -0.372 N 
ATOM     24  C   UNL A   1      29.170  31.175  23.796  1.00  0.00     0.116 C 
ATOM     25  C   UNL A   1      29.601  30.077  21.599  1.00  0.00     0.116 C 
ATOM     26  C   UNL A   1      27.934  31.875  23.239  1.00  0.00     0.021 C 
ATOM     27  C   UNL A   1      28.353  30.742  21.014  1.00  0.00     0.021 C 
ATOM     28  C   UNL A   1      28.030  32.061  21.725  1.00  0.00     0.004 C 
ENDBRANCH  11  23
ENDBRANCH   4   6
ENDBRANCH   3   4
ENDBRANCH   2   3
ENDBRANCH   1   2
BRANCH   1  29
ATOM     29  O   UNL A   1      36.075  30.263  27.879  1.00  0.00    -0.458 OA
BRANCH  29  30
ATOM     30  C   UNL A   1      37.243  30.764  28.365  1.00  0.00     0.338 C 
ATOM     31  O   UNL A   1      37.497  31.944  28.522  1.00  0.00    -0.246 OA
BRANCH  30  32
ATOM     32  C   UNL A   1      38.201  29.698  28.641  1.00  0.00     0.060 A 
ATOM     33  C   UNL A   1      37.889  28.631  29.504  1.00  0.00     0.016 A 
ATOM     34  C   UNL A   1      39.344  29.710  27.854  1.00  0.00     0.016 A 
ATOM     35  C   UNL A   1      38.730  27.536  29.547  1.00  0.00     0.010 A 
ATOM     36  C   UNL A   1      40.033  28.553  27.707  1.00  0.00     0.010 A 
ATOM     37  C   UNL A   1      39.804  27.549  28.658  1.00  0.00    -0.014 A 
BRANCH  37  38
ATOM     38  C   UNL A   1      41.086  26.968  28.990  1.00  0.00     0.031 A 
ATOM     39  C   UNL A   1      41.385  25.660  28.403  1.00  0.00     0.074 A 
ATOM     40  C   UNL A   1      41.866  27.965  29.488  1.00  0.00     0.049 A 
ATOM     41  N   UNL A   1      42.062  24.725  28.968  1.00  0.00    -0.248 NA
ATOM     42  C   UNL A   1      40.804  25.224  27.120  1.00  0.00     0.031 C 
ATOM     43  C   UNL A   1      43.290  28.225  29.504  1.00  0.00     0.029 A 
ATOM     44  N   UNL A   1      41.369  29.092  30.149  1.00  0.00    -0.354 N 
ATOM     45  C   UNL A   1      42.449  23.907  27.924  1.00  0.00     0.074 A 
ATOM     46  C   UNL A   1      41.433  24.062  26.915  1.00  0.00     0.031 C 
ATOM     47  C   UNL A   1      43.541  29.213  30.397  1.00  0.00     0.029 A 
ATOM     48  C   UNL A   1      42.286  29.592  31.045  1.00  0.00     0.049 A 
ATOM     49  H   UNL A   1      40.477  29.480  29.993  1.00  0.00     0.167 HD
ATOM     50  C   UNL A   1      43.767  23.571  27.802  1.00  0.00     0.034 A 
ATOM     51  C   UNL A   1      41.941  29.414  32.357  1.00  0.00     0.034 A 
ATOM     52  C   UNL A   1      44.550  24.328  28.786  1.00  0.00     0.049 A 
ATOM     53  C   UNL A   1      42.660  28.184  32.874  1.00  0.00     0.074 A 
ATOM     54  C   UNL A   1      45.356  25.450  28.669  1.00  0.00     0.029 A 
ATOM     55  N   UNL A   1      44.261  24.199  30.136  1.00  0.00    -0.354 N 
ATOM     56  N   UNL A   1      43.083  27.204  32.117  1.00  0.00    -0.248 NA
ATOM     57  C   UNL A   1      43.073  28.041  34.261  1.00  0.00     0.031 C 
ATOM     58  C   UNL A   1      45.501  26.018  29.967  1.00  0.00     0.029 A 
ATOM     59  C   UNL A   1      44.749  25.269  30.858  1.00  0.00     0.049 A 
ATOM     60  H   UNL A   1      43.770  23.442  30.530  1.00  0.00     0.167 HD
ATOM     61  C   UNL A   1      43.890  26.376  32.841  1.00  0.00     0.074 A 
ATOM     62  C   UNL A   1      43.843  26.942  34.185  1.00  0.00     0.031 C 
ATOM     63  C   UNL A   1      44.553  25.306  32.299  1.00  0.00     0.034 A 
BRANCH  50  64
ATOM     64  C   UNL A   1      44.402  22.884  26.616  1.00  0.00     0.023 A 
ATOM     65  C   UNL A   1      44.042  21.550  26.332  1.00  0.00     0.031 A 
ATOM     66  C   UNL A   1      45.286  23.480  25.694  1.00  0.00     0.131 A 
ATOM     67  C   UNL A   1      44.574  20.855  25.234  1.00  0.00     0.055 A 
ATOM     68  C   UNL A   1      45.848  22.776  24.616  1.00  0.00     0.041 A 
ATOM     69  F   UNL A   1      45.604  24.781  25.761  1.00  0.00    -0.206 F 
ATOM     70  C   UNL A   1      45.491  21.455  24.380  1.00  0.00     0.022 A 
BRANCH  67  71
ATOM     71  S   UNL A   1      43.997  19.166  24.916  1.00  0.00     0.124 S 
ATOM     72  O   UNL A   1      44.428  18.954  23.537  1.00  0.00    -0.237 OA
ATOM     73  O   UNL A   1      44.699  18.399  25.938  1.00  0.00    -0.237 OA
ATOM     74  O   UNL A   1      42.550  19.263  25.103  1.00  0.00    -0.744 OA
ENDBRANCH  67  71
ENDBRANCH  50  64
BRANCH  51  75
ATOM     75  C   UNL A   1      40.516  29.828  32.660  1.00  0.00     0.023 A 
ATOM     76  C   UNL A   1      40.181  31.192  32.464  1.00  0.00     0.031 A 
ATOM     77  C   UNL A   1      39.440  28.946  32.843  1.00  0.00     0.131 A 
ATOM     78  C   UNL A   1      38.844  31.617  32.331  1.00  0.00     0.055 A 
ATOM     79  C   UNL A   1      38.100  29.381  32.754  1.00  0.00     0.041 A 
ATOM     80  F   UNL A   1      39.653  27.634  33.020  1.00  0.00    -0.206 F 
ATOM     81  C   UNL A   1      37.794  30.714  32.462  1.00  0.00     0.022 A 
BRANCH  78  82
ATOM     82  S   UNL A   1      38.550  33.341  31.824  1.00  0.00     0.124 S 
ATOM     83  O   UNL A   1      38.941  34.077  33.024  1.00  0.00    -0.237 OA
ATOM     84  O   UNL A   1      39.458  33.474  30.684  1.00  0.00    -0.237 OA
ATOM     85  O   UNL A   1      37.125  33.393  31.521  1.00  0.00    -0.744 OA
ENDBRANCH  78  82
ENDBRANCH  51  75
BRANCH  63  86
ATOM     86  C   UNL A   1      45.147  24.190  33.113  1.00  0.00     0.023 A 
ATOM     87  C   UNL A   1      46.420  24.293  33.671  1.00  0.00     0.031 A 
ATOM     88  C   UNL A   1      44.421  23.019  33.442  1.00  0.00     0.131 A 
ATOM     89  C   UNL A   1      46.995  23.219  34.352  1.00  0.00     0.055 A 
ATOM     90  C   UNL A   1      44.938  22.015  34.260  1.00  0.00     0.041 A 
ATOM     91  F   UNL A   1      43.176  22.798  32.994  1.00  0.00    -0.206 F 
ATOM     92  C   UNL A   1      46.253  22.092  34.690  1.00  0.00     0.022 A 
BRANCH  89  93
ATOM     93  S   UNL A   1      48.777  23.290  34.622  1.00  0.00     0.124 S 
ATOM     94  O   UNL A   1      49.157  21.891  34.435  1.00  0.00    -0.237 OA
ATOM     95  O   UNL A   1      49.218  24.207  33.577  1.00  0.00    -0.237 OA
ATOM     96  O   UNL A   1      48.895  23.790  35.989  1.00  0.00    -0.744 OA
ENDBRANCH  89  93
ENDBRANCH  63  86
ENDBRANCH  37  38
ENDBRANCH  30  32
ENDBRANCH  29  30
ENDBRANCH   1  29
TORSDOF 17
ENDMDL
MODEL 2
REMARK VINA RESULT:     -13.4      4.420     10.961
REMARK SMILES Cc1ccccc1C(=O)Nc1ccc(N2CCCCC2)cc1C(=O)OCCOC(=O)c1ccc(-c2c3nc(c(-c4cc(S(=O)(=O)[O-])ccc4F)c4ccc([nH]4)c(-c4cc(S(=O)(=O)[O-])ccc4F)c4nc(c(-c5cc(S(=O)(=O)[O-])ccc5F)c5ccc2[nH]5)C=C4)C=C3)cc1
REMARK SMILES IDX 27 1 26 2 25 3 23 4 24 5 22 6 11 7 12 8 13 9 21 10 14 11
REMARK SMILES IDX 10 12 8 13 9 14 7 16 1 17 2 18 3 19 4 20 6 21 5 22 15 23
REMARK SMILES IDX 16 24 20 25 17 26 19 27 18 28 28 29 29 30 30 31 31 32 32 33
REMARK SMILES IDX 93 34 33 35 92 36 34 37 35 38 36 39 86 40 37 41 91 42 85 43
REMARK SMILES IDX 87 44 38 45 90 46 84 47 83 48 39 50 71 51 51 52 70 53 52 54
REMARK SMILES IDX 55 55 69 56 88 57 53 58 54 59 68 61 89 62 56 63 40 64 41 65
REMARK SMILES IDX 49 66 42 67 48 68 50 69 47 70 43 71 44 72 45 73 46 74 72 75
REMARK SMILES IDX 73 76 81 77 74 78 80 79 82 80 79 81 75 82 76 83 77 84 78 85
REMARK SMILES IDX 57 86 58 87 66 88 59 89 65 90 67 91 64 92 60 93 61 94 62 95
REMARK SMILES IDX 63 96
REMARK H PARENT 10 15 87 49 55 60
REMARK Flexibility Score: inf
ROOT
ATOM      1  C   UNL A   1      39.329  22.547  26.130  1.00  0.00     0.275 C 
ENDROOT
BRANCH   1   2
ATOM      2  C   UNL A   1      38.007  21.806  25.707  1.00  0.00     0.275 C 
BRANCH   2   3
ATOM      3  O   UNL A   1      37.186  22.154  24.549  1.00  0.00    -0.458 OA
BRANCH   3   4
ATOM      4  C   UNL A   1      36.011  22.789  24.750  1.00  0.00     0.340 C 
ATOM      5  O   UNL A   1      35.964  23.883  25.250  1.00  0.00    -0.246 OA
BRANCH   4   6
ATOM      6  C   UNL A   1      34.783  22.065  24.328  1.00  0.00     0.085 A 
ATOM      7  C   UNL A   1      33.812  22.596  23.441  1.00  0.00     0.056 A 
ATOM      8  C   UNL A   1      32.645  21.844  23.208  1.00  0.00     0.029 A 
ATOM      9  C   UNL A   1      32.528  20.538  23.657  1.00  0.00     0.028 A 
ATOM     10  C   UNL A   1      34.613  20.756  24.827  1.00  0.00     0.043 A 
ATOM     11  C   UNL A   1      33.532  19.966  24.427  1.00  0.00     0.038 A 
BRANCH   7  12
ATOM     12  N   UNL A   1      33.787  23.775  22.661  1.00  0.00    -0.321 N 
ATOM     13  C   UNL A   1      33.461  25.102  22.845  1.00  0.00     0.255 C 
ATOM     14  O   UNL A   1      33.811  25.876  21.946  1.00  0.00    -0.269 OA
ATOM     15  H   UNL A   1      34.081  23.603  21.738  1.00  0.00     0.170 HD
BRANCH  13  16
ATOM     16  C   UNL A   1      32.792  25.686  24.025  1.00  0.00     0.043 A 
ATOM     17  C   UNL A   1      30.420  24.870  23.501  1.00  0.00     0.045 C 
ATOM     18  C   UNL A   1      31.405  25.698  24.265  1.00  0.00    -0.038 A 
ATOM     19  C   UNL A   1      30.910  26.604  25.226  1.00  0.00     0.004 A 
ATOM     20  C   UNL A   1      31.773  27.409  25.977  1.00  0.00     0.000 A 
ATOM     21  C   UNL A   1      33.656  26.401  24.875  1.00  0.00     0.014 A 
ATOM     22  C   UNL A   1      33.149  27.280  25.829  1.00  0.00     0.001 A 
ENDBRANCH  13  16
ENDBRANCH   7  12
BRANCH  11  23
ATOM     23  N   UNL A   1      33.464  18.608  24.664  1.00  0.00    -0.372 N 
ATOM     24  C   UNL A   1      34.621  17.823  24.250  1.00  0.00     0.116 C 
ATOM     25  C   UNL A   1      32.668  18.107  25.773  1.00  0.00     0.116 C 
ATOM     26  C   UNL A   1      34.159  16.421  23.867  1.00  0.00     0.021 C 
ATOM     27  C   UNL A   1      32.160  16.715  25.392  1.00  0.00     0.021 C 
ATOM     28  C   UNL A   1      33.307  15.791  24.968  1.00  0.00     0.004 C 
ENDBRANCH  11  23
ENDBRANCH   4   6
ENDBRANCH   3   4
ENDBRANCH   2   3
ENDBRANCH   1   2
BRANCH   1  29
ATOM     29  O   UNL A   1      39.453  23.908  26.650  1.00  0.00    -0.458 OA
BRANCH  29  30
ATOM     30  C   UNL A   1      40.306  24.283  27.641  1.00  0.00     0.338 C 
ATOM     31  O   UNL A   1      41.033  23.537  28.272  1.00  0.00    -0.246 OA
BRANCH  30  32
ATOM     32  C   UNL A   1      40.215  25.716  27.903  1.00  0.00     0.060 A 
ATOM     33  C   UNL A   1      40.309  26.662  26.866  1.00  0.00     0.016 A 
ATOM     34  C   UNL A   1      39.841  26.060  29.194  1.00  0.00     0.016 A 
ATOM     35  C   UNL A   1      39.982  27.979  27.129  1.00  0.00     0.010 A 
ATOM     36  C   UNL A   1      39.290  27.281  29.398  1.00  0.00     0.010 A 
ATOM     37  C   UNL A   1      39.507  28.252  28.410  1.00  0.00    -0.014 A 
BRANCH  37  38
ATOM     38  C   UNL A   1      39.787  29.500  29.087  1.00  0.00     0.031 A 
ATOM     39  C   UNL A   1      38.661  30.421  29.256  1.00  0.00     0.074 A 
ATOM     40  C   UNL A   1      40.975  29.352  29.734  1.00  0.00     0.049 A 
ATOM     41  N   UNL A   1      38.733  31.703  29.223  1.00  0.00    -0.248 NA
ATOM     42  C   UNL A   1      37.267  29.948  29.347  1.00  0.00     0.031 C 
ATOM     43  C   UNL A   1      41.550  29.920  30.935  1.00  0.00     0.029 A 
ATOM     44  N   UNL A   1      41.993  28.492  29.315  1.00  0.00    -0.354 N 
ATOM     45  C   UNL A   1      37.575  32.125  29.847  1.00  0.00     0.074 A 
ATOM     46  C   UNL A   1      36.610  31.081  29.618  1.00  0.00     0.031 C 
ATOM     47  C   UNL A   1      42.878  29.651  30.949  1.00  0.00     0.029 A 
ATOM     48  C   UNL A   1      43.229  28.946  29.716  1.00  0.00     0.049 A 
ATOM     49  H   UNL A   1      41.846  27.665  28.801  1.00  0.00     0.167 HD
ATOM     50  C   UNL A   1      37.666  33.033  30.863  1.00  0.00     0.034 A 
ATOM     51  C   UNL A   1      44.016  29.402  28.694  1.00  0.00     0.034 A 
ATOM     52  C   UNL A   1      39.080  33.255  31.186  1.00  0.00     0.049 A 
ATOM     53  C   UNL A   1      43.891  30.911  28.634  1.00  0.00     0.074 A 
ATOM     54  C   UNL A   1      39.884  32.792  32.215  1.00  0.00     0.029 A 
ATOM     55  N   UNL A   1      39.941  33.718  30.201  1.00  0.00    -0.354 N 
ATOM     56  N   UNL A   1      42.865  31.584  29.088  1.00  0.00    -0.248 NA
ATOM     57  C   UNL A   1      44.974  31.771  28.186  1.00  0.00     0.031 C 
ATOM     58  C   UNL A   1      41.241  32.939  31.808  1.00  0.00     0.029 A 
ATOM     59  C   UNL A   1      41.257  33.447  30.519  1.00  0.00     0.049 A 
ATOM     60  H   UNL A   1      39.652  34.180  29.382  1.00  0.00     0.167 HD
ATOM     61  C   UNL A   1      43.158  32.916  29.105  1.00  0.00     0.074 A 
ATOM     62  C   UNL A   1      44.492  32.980  28.519  1.00  0.00     0.031 C 
ATOM     63  C   UNL A   1      42.311  33.868  29.609  1.00  0.00     0.034 A 
BRANCH  50  64
ATOM     64  C   UNL A   1      36.548  33.433  31.798  1.00  0.00     0.023 A 
ATOM     65  C   UNL A   1      35.537  34.290  31.318  1.00  0.00     0.031 A 
ATOM     66  C   UNL A   1      36.369  32.965  33.115  1.00  0.00     0.131 A 
ATOM     67  C   UNL A   1      34.456  34.688  32.122  1.00  0.00     0.055 A 
ATOM     68  C   UNL A   1      35.309  33.389  33.934  1.00  0.00     0.041 A 
ATOM     69  F   UNL A   1      37.175  32.038  33.652  1.00  0.00    -0.206 F 
ATOM     70  C   UNL A   1      34.343  34.255  33.437  1.00  0.00     0.022 A 
BRANCH  67  71
ATOM     71  S   UNL A   1      33.172  35.738  31.391  1.00  0.00     0.124 S 
ATOM     72  O   UNL A   1      33.234  35.357  29.983  1.00  0.00    -0.237 OA
ATOM     73  O   UNL A   1      31.980  35.327  32.121  1.00  0.00    -0.237 OA
ATOM     74  O   UNL A   1      33.638  37.093  31.684  1.00  0.00    -0.744 OA
ENDBRANCH  67  71
ENDBRANCH  50  64
BRANCH  51  75
ATOM     75  C   UNL A   1      44.077  28.447  27.519  1.00  0.00     0.023 A 
ATOM     76  C   UNL A   1      44.705  27.194  27.733  1.00  0.00     0.031 A 
ATOM     77  C   UNL A   1      43.332  28.573  26.337  1.00  0.00     0.131 A 
ATOM     78  C   UNL A   1      44.488  26.098  26.874  1.00  0.00     0.055 A 
ATOM     79  C   UNL A   1      43.151  27.487  25.454  1.00  0.00     0.041 A 
ATOM     80  F   UNL A   1      42.687  29.714  26.052  1.00  0.00    -0.206 F 
ATOM     81  C   UNL A   1      43.700  26.232  25.736  1.00  0.00     0.022 A 
BRANCH  78  82
ATOM     82  S   UNL A   1      45.135  24.476  27.391  1.00  0.00     0.124 S 
ATOM     83  O   UNL A   1      46.356  24.374  26.596  1.00  0.00    -0.237 OA
ATOM     84  O   UNL A   1      45.337  24.681  28.825  1.00  0.00    -0.237 OA
ATOM     85  O   UNL A   1      44.089  23.532  27.018  1.00  0.00    -0.744 OA
ENDBRANCH  78  82
ENDBRANCH  51  75
BRANCH  63  86
ATOM     86  C   UNL A   1      42.441  35.340  29.326  1.00  0.00     0.023 A 
ATOM     87  C   UNL A   1      43.349  36.137  30.019  1.00  0.00     0.031 A 
ATOM     88  C   UNL A   1      41.729  35.979  28.282  1.00  0.00     0.131 A 
ATOM     89  C   UNL A   1      43.402  37.516  29.808  1.00  0.00     0.055 A 
ATOM     90  C   UNL A   1      41.903  37.325  27.964  1.00  0.00     0.041 A 
ATOM     91  F   UNL A   1      40.840  35.328  27.517  1.00  0.00    -0.206 F 
ATOM     92  C   UNL A   1      42.717  38.116  28.758  1.00  0.00     0.022 A 
BRANCH  89  93
ATOM     93  S   UNL A   1      44.260  38.496  31.057  1.00  0.00     0.124 S 
ATOM     94  O   UNL A   1      45.645  38.402  30.601  1.00  0.00    -0.237 OA
ATOM     95  O   UNL A   1      43.637  39.806  30.912  1.00  0.00    -0.237 OA
ATOM     96  O   UNL A   1      43.966  37.793  32.303  1.00  0.00    -0.744 OA
ENDBRANCH  89  93
ENDBRANCH  63  86
ENDBRANCH  37  38
ENDBRANCH  30  32
ENDBRANCH  29  30
ENDBRANCH   1  29
TORSDOF 17
ENDMDL
MODEL 3
REMARK VINA RESULT:     -13.2      1.665      2.086
REMARK SMILES Cc1ccccc1C(=O)Nc1ccc(N2CCCCC2)cc1C(=O)OCCOC(=O)c1ccc(-c2c3nc(c(-c4cc(S(=O)(=O)[O-])ccc4F)c4ccc([nH]4)c(-c4cc(S(=O)(=O)[O-])ccc4F)c4nc(c(-c5cc(S(=O)(=O)[O-])ccc5F)c5ccc2[nH]5)C=C4)C=C3)cc1
REMARK SMILES IDX 27 1 26 2 25 3 23 4 24 5 22 6 11 7 12 8 13 9 21 10 14 11
REMARK SMILES IDX 10 12 8 13 9 14 7 16 1 17 2 18 3 19 4 20 6 21 5 22 15 23
REMARK SMILES IDX 16 24 20 25 17 26 19 27 18 28 28 29 29 30 30 31 31 32 32 33
REMARK SMILES IDX 93 34 33 35 92 36 34 37 35 38 36 39 86 40 37 41 91 42 85 43
REMARK SMILES IDX 87 44 38 45 90 46 84 47 83 48 39 50 71 51 51 52 70 53 52 54
REMARK SMILES IDX 55 55 69 56 88 57 53 58 54 59 68 61 89 62 56 63 40 64 41 65
REMARK SMILES IDX 49 66 42 67 48 68 50 69 47 70 43 71 44 72 45 73 46 74 72 75
REMARK SMILES IDX 73 76 81 77 74 78 80 79 82 80 79 81 75 82 76 83 77 84 78 85
REMARK SMILES IDX 57 86 58 87 66 88 59 89 65 90 67 91 64 92 60 93 61 94 62 95
REMARK SMILES IDX 63 96
REMARK H PARENT 10 15 87 49 55 60
REMARK Flexibility Score: inf
ROOT
ATOM      1  C   UNL A   1      34.519  30.147  26.926  1.00  0.00     0.275 C 
ENDROOT
BRANCH   1   2
ATOM      2  C   UNL A   1      33.023  29.804  27.270  1.00  0.00     0.275 C 
BRANCH   2   3
ATOM      3  O   UNL A   1      32.434  28.468  27.208  1.00  0.00    -0.458 OA
BRANCH   3   4
ATOM      4  C   UNL A   1      32.558  27.754  26.068  1.00  0.00     0.340 C 
ATOM      5  O   UNL A   1      33.609  27.266  25.742  1.00  0.00    -0.246 OA
BRANCH   4   6
ATOM      6  C   UNL A   1      31.334  27.608  25.238  1.00  0.00     0.085 A 
ATOM      7  C   UNL A   1      30.477  26.478  25.275  1.00  0.00     0.056 A 
ATOM      8  C   UNL A   1      29.409  26.426  24.359  1.00  0.00     0.029 A 
ATOM      9  C   UNL A   1      29.069  27.524  23.586  1.00  0.00     0.028 A 
ATOM     10  C   UNL A   1      31.005  28.690  24.395  1.00  0.00     0.043 A 
ATOM     11  C   UNL A   1      29.833  28.683  23.633  1.00  0.00     0.038 A 
BRANCH   7  12
ATOM     12  N   UNL A   1      30.445  25.343  26.117  1.00  0.00    -0.321 N 
ATOM     13  C   UNL A   1      31.240  24.245  26.366  1.00  0.00     0.255 C 
ATOM     14  O   UNL A   1      30.958  23.588  27.376  1.00  0.00    -0.269 OA
ATOM     15  H   UNL A   1      29.635  25.333  26.676  1.00  0.00     0.170 HD
BRANCH  13  16
ATOM     16  C   UNL A   1      32.417  23.818  25.582  1.00  0.00     0.043 A 
ATOM     17  C   UNL A   1      31.187  23.280  23.400  1.00  0.00     0.045 C 
ATOM     18  C   UNL A   1      32.390  23.262  24.290  1.00  0.00    -0.038 A 
ATOM     19  C   UNL A   1      33.537  22.575  23.843  1.00  0.00     0.004 A 
ATOM     20  C   UNL A   1      34.697  22.516  24.623  1.00  0.00     0.000 A 
ATOM     21  C   UNL A   1      33.628  23.866  26.298  1.00  0.00     0.014 A 
ATOM     22  C   UNL A   1      34.756  23.195  25.835  1.00  0.00     0.001 A 
ENDBRANCH  13  16
ENDBRANCH   7  12
BRANCH  11  23
ATOM     23  N   UNL A   1      29.330  29.808  23.013  1.00  0.00    -0.372 N 
ATOM     24  C   UNL A   1      29.186  30.994  23.849  1.00  0.00     0.116 C 
ATOM     25  C   UNL A   1      29.550  30.006  21.589  1.00  0.00     0.116 C 
ATOM     26  C   UNL A   1      28.016  31.826  23.331  1.00  0.00     0.021 C 
ATOM     27  C   UNL A   1      28.365  30.806  21.041  1.00  0.00     0.021 C 
ATOM     28  C   UNL A   1      28.142  32.099  21.832  1.00  0.00     0.004 C 
ENDBRANCH  11  23
ENDBRANCH   4   6
ENDBRANCH   3   4
ENDBRANCH   2   3
ENDBRANCH   1   2
BRANCH   1  29
ATOM     29  O   UNL A   1      35.368  31.149  27.570  1.00  0.00    -0.458 OA
BRANCH  29  30
ATOM     30  C   UNL A   1      35.722  31.135  28.884  1.00  0.00     0.338 C 
ATOM     31  O   UNL A   1      35.230  31.826  29.758  1.00  0.00    -0.246 OA
BRANCH  30  32
ATOM     32  C   UNL A   1      36.820  30.206  29.126  1.00  0.00     0.060 A 
ATOM     33  C   UNL A   1      36.840  29.365  30.255  1.00  0.00     0.016 A 
ATOM     34  C   UNL A   1      37.727  30.074  28.083  1.00  0.00     0.016 A 
ATOM     35  C   UNL A   1      37.772  28.346  30.315  1.00  0.00     0.010 A 
ATOM     36  C   UNL A   1      38.471  28.944  28.020  1.00  0.00     0.010 A 
ATOM     37  C   UNL A   1      38.586  28.189  29.195  1.00  0.00    -0.014 A 
BRANCH  37  38
ATOM     38  C   UNL A   1      39.962  27.756  29.297  1.00  0.00     0.031 A 
ATOM     39  C   UNL A   1      40.261  26.402  28.827  1.00  0.00     0.074 A 
ATOM     40  C   UNL A   1      40.724  28.869  29.476  1.00  0.00     0.049 A 
ATOM     41  N   UNL A   1      41.135  25.610  29.336  1.00  0.00    -0.248 NA
ATOM     42  C   UNL A   1      39.465  25.743  27.774  1.00  0.00     0.031 C 
ATOM     43  C   UNL A   1      42.084  29.230  29.135  1.00  0.00     0.029 A 
ATOM     44  N   UNL A   1      40.268  30.041  30.086  1.00  0.00    -0.354 N 
ATOM     45  C   UNL A   1      41.370  24.679  28.342  1.00  0.00     0.074 A 
ATOM     46  C   UNL A   1      40.150  24.612  27.579  1.00  0.00     0.031 C 
ATOM     47  C   UNL A   1      42.419  30.353  29.816  1.00  0.00     0.029 A 
ATOM     48  C   UNL A   1      41.300  30.730  30.680  1.00  0.00     0.049 A 
ATOM     49  H   UNL A   1      39.329  30.337  30.088  1.00  0.00     0.167 HD
ATOM     50  C   UNL A   1      42.658  24.425  27.968  1.00  0.00     0.034 A 
ATOM     51  C   UNL A   1      41.266  30.720  32.047  1.00  0.00     0.034 A 
ATOM     52  C   UNL A   1      43.553  25.371  28.645  1.00  0.00     0.049 A 
ATOM     53  C   UNL A   1      42.202  29.633  32.538  1.00  0.00     0.074 A 
ATOM     54  C   UNL A   1      44.195  26.519  28.208  1.00  0.00     0.029 A 
ATOM     55  N   UNL A   1      43.576  25.418  30.031  1.00  0.00    -0.354 N 
ATOM     56  N   UNL A   1      42.550  28.587  31.834  1.00  0.00    -0.248 NA
ATOM     57  C   UNL A   1      42.916  29.724  33.801  1.00  0.00     0.031 C 
ATOM     58  C   UNL A   1      44.557  27.279  29.358  1.00  0.00     0.029 A 
ATOM     59  C   UNL A   1      44.095  26.615  30.483  1.00  0.00     0.049 A 
ATOM     60  H   UNL A   1      43.261  24.693  30.617  1.00  0.00     0.167 HD
ATOM     61  C   UNL A   1      43.574  27.933  32.454  1.00  0.00     0.074 A 
ATOM     62  C   UNL A   1      43.759  28.683  33.691  1.00  0.00     0.031 C 
ATOM     63  C   UNL A   1      44.211  26.846  31.914  1.00  0.00     0.034 A 
BRANCH  50  64
ATOM     64  C   UNL A   1      43.091  23.620  26.764  1.00  0.00     0.023 A 
ATOM     65  C   UNL A   1      42.975  22.215  26.811  1.00  0.00     0.031 A 
ATOM     66  C   UNL A   1      43.539  24.149  25.537  1.00  0.00     0.131 A 
ATOM     67  C   UNL A   1      43.337  21.404  25.723  1.00  0.00     0.055 A 
ATOM     68  C   UNL A   1      43.936  23.339  24.460  1.00  0.00     0.041 A 
ATOM     69  F   UNL A   1      43.564  25.469  25.304  1.00  0.00    -0.206 F 
ATOM     70  C   UNL A   1      43.834  21.957  24.549  1.00  0.00     0.022 A 
BRANCH  67  71
ATOM     71  S   UNL A   1      43.089  19.613  25.857  1.00  0.00     0.124 S 
ATOM     72  O   UNL A   1      44.370  19.094  25.388  1.00  0.00    -0.237 OA
ATOM     73  O   UNL A   1      42.803  19.444  27.277  1.00  0.00    -0.237 OA
ATOM     74  O   UNL A   1      41.957  19.362  24.967  1.00  0.00    -0.744 OA
ENDBRANCH  67  71
ENDBRANCH  50  64
BRANCH  51  75
ATOM     75  C   UNL A   1      39.905  31.070  32.612  1.00  0.00     0.023 A 
ATOM     76  C   UNL A   1      39.438  32.394  32.406  1.00  0.00     0.031 A 
ATOM     77  C   UNL A   1      38.956  30.142  33.066  1.00  0.00     0.131 A 
ATOM     78  C   UNL A   1      38.074  32.727  32.526  1.00  0.00     0.055 A 
ATOM     79  C   UNL A   1      37.597  30.489  33.229  1.00  0.00     0.041 A 
ATOM     80  F   UNL A   1      39.295  28.861  33.274  1.00  0.00    -0.206 F 
ATOM     81  C   UNL A   1      37.141  31.776  32.925  1.00  0.00     0.022 A 
BRANCH  78  82
ATOM     82  S   UNL A   1      37.558  34.388  31.987  1.00  0.00     0.124 S 
ATOM     83  O   UNL A   1      36.470  34.079  31.064  1.00  0.00    -0.237 OA
ATOM     84  O   UNL A   1      37.152  34.998  33.253  1.00  0.00    -0.237 OA
ATOM     85  O   UNL A   1      38.746  34.951  31.355  1.00  0.00    -0.744 OA
ENDBRANCH  78  82
ENDBRANCH  51  75
BRANCH  63  86
ATOM     86  C   UNL A   1      45.078  25.906  32.706  1.00  0.00     0.023 A 
ATOM     87  C   UNL A   1      44.536  24.822  33.393  1.00  0.00     0.031 A 
ATOM     88  C   UNL A   1      46.490  26.004  32.720  1.00  0.00     0.131 A 
ATOM     89  C   UNL A   1      45.337  24.006  34.194  1.00  0.00     0.055 A 
ATOM     90  C   UNL A   1      47.303  25.089  33.389  1.00  0.00     0.041 A 
ATOM     91  F   UNL A   1      47.148  26.983  32.082  1.00  0.00    -0.206 F 
ATOM     92  C   UNL A   1      46.724  24.101  34.169  1.00  0.00     0.022 A 
BRANCH  89  93
ATOM     93  S   UNL A   1      44.487  22.945  35.379  1.00  0.00     0.124 S 
ATOM     94  O   UNL A   1      43.087  23.245  35.088  1.00  0.00    -0.237 OA
ATOM     95  O   UNL A   1      44.939  21.613  34.992  1.00  0.00    -0.237 OA
ATOM     96  O   UNL A   1      44.970  23.422  36.672  1.00  0.00    -0.744 OA
ENDBRANCH  89  93
ENDBRANCH  63  86
ENDBRANCH  37  38
ENDBRANCH  30  32
ENDBRANCH  29  30
ENDBRANCH   1  29
TORSDOF 17
ENDMDL
