MODEL 1
REMARK VINA RESULT:     -11.0      0.000      0.000
REMARK SMILES O=C(OCCOC(=O)c1ccccc1Nc1cccc(C(F)(F)F)c1)c1ccc(-c2c3nc(c(-c4cc(S(=O)(=O)[O-])ccc4F)c4ccc([nH]4)c(-c4cc(S(=O)(=O)[O-])ccc4F)c4nc(c(-c5cc(S(=O)(=O)[O-])ccc5F)c5ccc2[nH]5)C=C4)C=C3)cc1
REMARK SMILES IDX 4 1 3 2 2 3 1 4 26 5 27 6 88 7 28 8 87 9 29 10 30 11 31 12
REMARK SMILES IDX 81 13 32 14 86 15 80 16 82 17 33 18 85 19 79 20 78 21 34 23
REMARK SMILES IDX 66 24 46 25 65 26 47 27 50 28 64 29 83 30 48 31 49 32 63 34
REMARK SMILES IDX 84 35 51 36 35 37 36 38 44 39 37 40 43 41 45 42 42 43 38 44
REMARK SMILES IDX 39 45 40 46 41 47 67 48 68 49 76 50 69 51 75 52 77 53 74 54
REMARK SMILES IDX 70 55 71 56 72 57 73 58 52 59 53 60 61 61 54 62 60 63 62 64
REMARK SMILES IDX 59 65 55 66 56 67 57 68 58 69 5 70 6 71 7 72 8 73 9 74 10 75
REMARK SMILES IDX 14 76 11 77 13 78 12 79 15 80 16 82 17 83 25 84 18 85 20 86
REMARK SMILES IDX 19 87 21 88 22 89 23 90 24 91
REMARK H PARENT 82 22 50 33 15 81
REMARK Flexibility Score: inf
ROOT
ATOM      1  C   UNL A   1      32.896  32.796  27.558  1.00  0.00     0.275 C 
ENDROOT
BRANCH   1   2
ATOM      2  O   UNL A   1      33.673  31.737  28.145  1.00  0.00    -0.458 OA
BRANCH   2   3
ATOM      3  C   UNL A   1      34.438  30.779  27.572  1.00  0.00     0.338 C 
ATOM      4  O   UNL A   1      34.039  30.289  26.515  1.00  0.00    -0.246 OA
BRANCH   3   5
ATOM      5  C   UNL A   1      35.672  30.180  28.189  1.00  0.00     0.060 A 
ATOM      6  C   UNL A   1      35.803  29.681  29.488  1.00  0.00     0.016 A 
ATOM      7  C   UNL A   1      36.807  30.102  27.352  1.00  0.00     0.016 A 
ATOM      8  C   UNL A   1      36.997  29.100  29.929  1.00  0.00     0.010 A 
ATOM      9  C   UNL A   1      38.004  29.519  27.783  1.00  0.00     0.010 A 
ATOM     10  C   UNL A   1      38.104  29.019  29.082  1.00  0.00    -0.014 A 
BRANCH  10  11
ATOM     11  C   UNL A   1      39.394  28.537  29.629  1.00  0.00     0.031 A 
ATOM     12  C   UNL A   1      39.818  29.045  30.959  1.00  0.00     0.074 A 
ATOM     13  C   UNL A   1      40.134  27.633  28.965  1.00  0.00     0.049 A 
ATOM     14  N   UNL A   1      40.834  28.687  31.688  1.00  0.00    -0.248 NA
ATOM     15  C   UNL A   1      38.988  30.113  31.533  1.00  0.00     0.031 C 
ATOM     16  C   UNL A   1      39.754  27.118  27.669  1.00  0.00     0.029 A 
ATOM     17  N   UNL A   1      41.290  26.959  29.254  1.00  0.00    -0.354 N 
ATOM     18  C   UNL A   1      40.797  29.513  32.799  1.00  0.00     0.074 A 
ATOM     19  C   UNL A   1      39.655  30.388  32.642  1.00  0.00     0.031 C 
ATOM     20  C   UNL A   1      40.606  26.158  27.287  1.00  0.00     0.029 A 
ATOM     21  C   UNL A   1      41.624  26.004  28.311  1.00  0.00     0.049 A 
ATOM     22  H   UNL A   1      41.833  27.137  30.057  1.00  0.00     0.167 HD
ATOM     23  C   UNL A   1      41.671  29.546  33.831  1.00  0.00     0.034 A 
ATOM     24  C   UNL A   1      42.610  25.082  28.303  1.00  0.00     0.034 A 
ATOM     25  C   UNL A   1      42.828  28.688  33.895  1.00  0.00     0.049 A 
ATOM     26  C   UNL A   1      43.521  25.081  29.505  1.00  0.00     0.074 A 
ATOM     27  C   UNL A   1      43.843  28.667  34.832  1.00  0.00     0.029 A 
ATOM     28  N   UNL A   1      43.135  27.703  32.955  1.00  0.00    -0.354 N 
ATOM     29  N   UNL A   1      43.464  25.850  30.571  1.00  0.00    -0.248 NA
ATOM     30  C   UNL A   1      44.621  24.112  29.516  1.00  0.00     0.031 C 
ATOM     31  C   UNL A   1      44.794  27.727  34.420  1.00  0.00     0.029 A 
ATOM     32  C   UNL A   1      44.338  27.094  33.271  1.00  0.00     0.049 A 
ATOM     33  H   UNL A   1      42.575  27.473  32.178  1.00  0.00     0.167 HD
ATOM     34  C   UNL A   1      44.526  25.467  31.376  1.00  0.00     0.074 A 
ATOM     35  C   UNL A   1      45.170  24.355  30.698  1.00  0.00     0.031 C 
ATOM     36  C   UNL A   1      44.955  26.001  32.550  1.00  0.00     0.034 A 
BRANCH  23  37
ATOM     37  C   UNL A   1      41.451  30.641  34.844  1.00  0.00     0.023 A 
ATOM     38  C   UNL A   1      40.342  30.635  35.712  1.00  0.00     0.031 A 
ATOM     39  C   UNL A   1      42.256  31.793  34.814  1.00  0.00     0.131 A 
ATOM     40  C   UNL A   1      39.994  31.804  36.405  1.00  0.00     0.055 A 
ATOM     41  C   UNL A   1      41.963  32.916  35.590  1.00  0.00     0.041 A 
ATOM     42  F   UNL A   1      43.305  31.873  33.980  1.00  0.00    -0.206 F 
ATOM     43  C   UNL A   1      40.811  32.936  36.371  1.00  0.00     0.022 A 
BRANCH  40  44
ATOM     44  S   UNL A   1      38.345  31.902  37.159  1.00  0.00     0.124 S 
ATOM     45  O   UNL A   1      37.706  32.925  36.335  1.00  0.00    -0.237 OA
ATOM     46  O   UNL A   1      37.840  30.544  36.995  1.00  0.00    -0.237 OA
ATOM     47  O   UNL A   1      38.620  32.303  38.537  1.00  0.00    -0.744 OA
ENDBRANCH  40  44
ENDBRANCH  23  37
BRANCH  24  48
ATOM     48  C   UNL A   1      42.734  24.080  27.192  1.00  0.00     0.023 A 
ATOM     49  C   UNL A   1      42.091  22.830  27.259  1.00  0.00     0.031 A 
ATOM     50  C   UNL A   1      43.462  24.358  26.017  1.00  0.00     0.131 A 
ATOM     51  C   UNL A   1      42.186  21.918  26.191  1.00  0.00     0.055 A 
ATOM     52  C   UNL A   1      43.513  23.470  24.938  1.00  0.00     0.041 A 
ATOM     53  F   UNL A   1      44.111  25.526  25.880  1.00  0.00    -0.206 F 
ATOM     54  C   UNL A   1      42.879  22.237  25.024  1.00  0.00     0.022 A 
BRANCH  51  55
ATOM     55  S   UNL A   1      41.416  20.283  26.359  1.00  0.00     0.124 S 
ATOM     56  O   UNL A   1      41.689  19.957  27.753  1.00  0.00    -0.237 OA
ATOM     57  O   UNL A   1      40.025  20.579  26.024  1.00  0.00    -0.237 OA
ATOM     58  O   UNL A   1      42.129  19.469  25.377  1.00  0.00    -0.744 OA
ENDBRANCH  51  55
ENDBRANCH  24  48
BRANCH  36  59
ATOM     59  C   UNL A   1      46.198  25.394  33.145  1.00  0.00     0.023 A 
ATOM     60  C   UNL A   1      47.471  25.720  32.649  1.00  0.00     0.031 A 
ATOM     61  C   UNL A   1      46.111  24.510  34.233  1.00  0.00     0.131 A 
ATOM     62  C   UNL A   1      48.610  25.125  33.208  1.00  0.00     0.055 A 
ATOM     63  C   UNL A   1      47.251  23.971  34.827  1.00  0.00     0.041 A 
ATOM     64  F   UNL A   1      44.917  24.169  34.744  1.00  0.00    -0.206 F 
ATOM     65  C   UNL A   1      48.509  24.269  34.307  1.00  0.00     0.022 A 
BRANCH  62  66
ATOM     66  S   UNL A   1      50.217  25.428  32.427  1.00  0.00     0.124 S 
ATOM     67  O   UNL A   1      51.028  25.854  33.562  1.00  0.00    -0.237 OA
ATOM     68  O   UNL A   1      50.544  24.121  31.864  1.00  0.00    -0.237 OA
ATOM     69  O   UNL A   1      49.928  26.470  31.445  1.00  0.00    -0.744 OA
ENDBRANCH  62  66
ENDBRANCH  36  59
ENDBRANCH  10  11
ENDBRANCH   3   5
ENDBRANCH   2   3
ENDBRANCH   1   2
BRANCH   1  70
ATOM     70  C   UNL A   1      33.336  34.194  28.007  1.00  0.00     0.275 C 
BRANCH  70  71
ATOM     71  O   UNL A   1      32.793  34.567  29.283  1.00  0.00    -0.458 OA
BRANCH  71  72
ATOM     72  C   UNL A   1      33.104  35.836  29.672  1.00  0.00     0.340 C 
ATOM     73  O   UNL A   1      33.010  36.838  28.993  1.00  0.00    -0.246 OA
BRANCH  72  74
ATOM     74  C   UNL A   1      33.464  35.878  31.107  1.00  0.00     0.083 A 
ATOM     75  C   UNL A   1      32.762  36.830  31.872  1.00  0.00     0.018 A 
ATOM     76  C   UNL A   1      34.454  35.065  31.690  1.00  0.00     0.053 A 
ATOM     77  C   UNL A   1      33.057  37.008  33.219  1.00  0.00     0.001 A 
ATOM     78  C   UNL A   1      34.853  35.401  32.994  1.00  0.00     0.027 A 
ATOM     79  C   UNL A   1      34.131  36.321  33.768  1.00  0.00     0.002 A 
BRANCH  76  80
ATOM     80  N   UNL A   1      35.023  33.959  31.005  1.00  0.00    -0.355 N 
ATOM     81  H   UNL A   1      34.395  33.248  30.742  1.00  0.00     0.167 HD
BRANCH  80  82
ATOM     82  C   UNL A   1      36.374  33.748  30.653  1.00  0.00     0.039 A 
ATOM     83  C   UNL A   1      36.736  33.519  29.324  1.00  0.00     0.026 A 
ATOM     84  C   UNL A   1      37.390  33.814  31.621  1.00  0.00     0.039 A 
ATOM     85  C   UNL A   1      38.077  33.344  28.969  1.00  0.00     0.003 A 
ATOM     86  C   UNL A   1      38.751  33.690  31.271  1.00  0.00     0.058 A 
ATOM     87  C   UNL A   1      39.080  33.431  29.934  1.00  0.00     0.013 A 
BRANCH  86  88
ATOM     88  C   UNL A   1      39.847  33.833  32.305  1.00  0.00     0.416 C 
ATOM     89  F   UNL A   1      39.438  33.425  33.540  1.00  0.00    -0.166 F 
ATOM     90  F   UNL A   1      40.963  33.112  32.020  1.00  0.00    -0.166 F 
ATOM     91  F   UNL A   1      40.259  35.122  32.471  1.00  0.00    -0.166 F 
ENDBRANCH  86  88
ENDBRANCH  80  82
ENDBRANCH  76  80
ENDBRANCH  72  74
ENDBRANCH  71  72
ENDBRANCH  70  71
ENDBRANCH   1  70
TORSDOF 17
ENDMDL
MODEL 2
REMARK VINA RESULT:     -10.9      6.476     12.181
REMARK SMILES O=C(OCCOC(=O)c1ccccc1Nc1cccc(C(F)(F)F)c1)c1ccc(-c2c3nc(c(-c4cc(S(=O)(=O)[O-])ccc4F)c4ccc([nH]4)c(-c4cc(S(=O)(=O)[O-])ccc4F)c4nc(c(-c5cc(S(=O)(=O)[O-])ccc5F)c5ccc2[nH]5)C=C4)C=C3)cc1
REMARK SMILES IDX 4 1 3 2 2 3 1 4 26 5 27 6 88 7 28 8 87 9 29 10 30 11 31 12
REMARK SMILES IDX 81 13 32 14 86 15 80 16 82 17 33 18 85 19 79 20 78 21 34 23
REMARK SMILES IDX 66 24 46 25 65 26 47 27 50 28 64 29 83 30 48 31 49 32 63 34
REMARK SMILES IDX 84 35 51 36 35 37 36 38 44 39 37 40 43 41 45 42 42 43 38 44
REMARK SMILES IDX 39 45 40 46 41 47 67 48 68 49 76 50 69 51 75 52 77 53 74 54
REMARK SMILES IDX 70 55 71 56 72 57 73 58 52 59 53 60 61 61 54 62 60 63 62 64
REMARK SMILES IDX 59 65 55 66 56 67 57 68 58 69 5 70 6 71 7 72 8 73 9 74 10 75
REMARK SMILES IDX 14 76 11 77 13 78 12 79 15 80 16 82 17 83 25 84 18 85 20 86
REMARK SMILES IDX 19 87 21 88 22 89 23 90 24 91
REMARK H PARENT 82 22 50 33 15 81
REMARK Flexibility Score: inf
ROOT
ATOM      1  C   UNL A   1      36.623  21.245  24.629  1.00  0.00     0.275 C 
ENDROOT
BRANCH   1   2
ATOM      2  O   UNL A   1      37.403  21.250  25.837  1.00  0.00    -0.458 OA
BRANCH   2   3
ATOM      3  C   UNL A   1      38.728  21.449  26.034  1.00  0.00     0.338 C 
ATOM      4  O   UNL A   1      39.466  20.465  25.981  1.00  0.00    -0.246 OA
BRANCH   3   5
ATOM      5  C   UNL A   1      39.350  22.759  26.435  1.00  0.00     0.060 A 
ATOM      6  C   UNL A   1      38.924  24.038  26.069  1.00  0.00     0.016 A 
ATOM      7  C   UNL A   1      40.472  22.673  27.289  1.00  0.00     0.016 A 
ATOM      8  C   UNL A   1      39.562  25.185  26.552  1.00  0.00     0.010 A 
ATOM      9  C   UNL A   1      41.114  23.816  27.780  1.00  0.00     0.010 A 
ATOM     10  C   UNL A   1      40.661  25.082  27.407  1.00  0.00    -0.014 A 
BRANCH  10  11
ATOM     11  C   UNL A   1      41.403  26.310  27.776  1.00  0.00     0.031 A 
ATOM     12  C   UNL A   1      42.749  26.514  27.181  1.00  0.00     0.074 A 
ATOM     13  C   UNL A   1      40.856  27.233  28.586  1.00  0.00     0.049 A 
ATOM     14  N   UNL A   1      43.531  27.551  27.260  1.00  0.00    -0.248 NA
ATOM     15  C   UNL A   1      43.287  25.388  26.407  1.00  0.00     0.031 C 
ATOM     16  C   UNL A   1      39.551  27.067  29.184  1.00  0.00     0.029 A 
ATOM     17  N   UNL A   1      41.256  28.468  29.020  1.00  0.00    -0.354 N 
ATOM     18  C   UNL A   1      44.682  27.194  26.576  1.00  0.00     0.074 A 
ATOM     19  C   UNL A   1      44.488  25.844  26.091  1.00  0.00     0.031 C 
ATOM     20  C   UNL A   1      39.206  28.175  29.853  1.00  0.00     0.029 A 
ATOM     21  C   UNL A   1      40.291  29.135  29.754  1.00  0.00     0.049 A 
ATOM     22  H   UNL A   1      42.145  28.847  28.828  1.00  0.00     0.167 HD
ATOM     23  C   UNL A   1      45.804  27.930  26.410  1.00  0.00     0.034 A 
ATOM     24  C   UNL A   1      40.273  30.392  30.246  1.00  0.00     0.034 A 
ATOM     25  C   UNL A   1      45.957  29.248  26.975  1.00  0.00     0.049 A 
ATOM     26  C   UNL A   1      41.501  31.224  29.975  1.00  0.00     0.074 A 
ATOM     27  C   UNL A   1      47.064  30.075  26.962  1.00  0.00     0.029 A 
ATOM     28  N   UNL A   1      44.963  29.925  27.683  1.00  0.00    -0.354 N 
ATOM     29  N   UNL A   1      42.580  30.888  29.302  1.00  0.00    -0.248 NA
ATOM     30  C   UNL A   1      41.527  32.584  30.521  1.00  0.00     0.031 C 
ATOM     31  C   UNL A   1      46.764  31.212  27.721  1.00  0.00     0.029 A 
ATOM     32  C   UNL A   1      45.442  31.141  28.141  1.00  0.00     0.049 A 
ATOM     33  H   UNL A   1      44.051  29.586  27.836  1.00  0.00     0.167 HD
ATOM     34  C   UNL A   1      43.420  31.991  29.350  1.00  0.00     0.074 A 
ATOM     35  C   UNL A   1      42.693  33.024  30.069  1.00  0.00     0.031 C 
ATOM     36  C   UNL A   1      44.686  32.132  28.876  1.00  0.00     0.034 A 
BRANCH  23  37
ATOM     37  C   UNL A   1      46.952  27.233  25.725  1.00  0.00     0.023 A 
ATOM     38  C   UNL A   1      47.903  26.487  26.448  1.00  0.00     0.031 A 
ATOM     39  C   UNL A   1      47.200  27.470  24.362  1.00  0.00     0.131 A 
ATOM     40  C   UNL A   1      49.114  26.127  25.839  1.00  0.00     0.055 A 
ATOM     41  C   UNL A   1      48.361  27.014  23.736  1.00  0.00     0.041 A 
ATOM     42  F   UNL A   1      46.350  28.205  23.630  1.00  0.00    -0.206 F 
ATOM     43  C   UNL A   1      49.340  26.362  24.481  1.00  0.00     0.022 A 
BRANCH  40  44
ATOM     44  S   UNL A   1      50.478  25.563  26.898  1.00  0.00     0.124 S 
ATOM     45  O   UNL A   1      50.759  26.765  27.680  1.00  0.00    -0.237 OA
ATOM     46  O   UNL A   1      49.876  24.453  27.626  1.00  0.00    -0.237 OA
ATOM     47  O   UNL A   1      51.522  25.191  25.944  1.00  0.00    -0.744 OA
ENDBRANCH  40  44
ENDBRANCH  23  37
BRANCH  24  48
ATOM     48  C   UNL A   1      39.066  30.936  30.956  1.00  0.00     0.023 A 
ATOM     49  C   UNL A   1      37.968  31.448  30.242  1.00  0.00     0.031 A 
ATOM     50  C   UNL A   1      38.961  30.920  32.362  1.00  0.00     0.131 A 
ATOM     51  C   UNL A   1      36.828  31.918  30.922  1.00  0.00     0.055 A 
ATOM     52  C   UNL A   1      37.808  31.342  33.032  1.00  0.00     0.041 A 
ATOM     53  F   UNL A   1      39.971  30.455  33.114  1.00  0.00    -0.206 F 
ATOM     54  C   UNL A   1      36.735  31.851  32.312  1.00  0.00     0.022 A 
BRANCH  51  55
ATOM     55  S   UNL A   1      35.472  32.652  29.965  1.00  0.00     0.124 S 
ATOM     56  O   UNL A   1      35.304  31.689  28.884  1.00  0.00    -0.237 OA
ATOM     57  O   UNL A   1      34.404  32.701  30.960  1.00  0.00    -0.237 OA
ATOM     58  O   UNL A   1      36.005  33.953  29.564  1.00  0.00    -0.744 OA
ENDBRANCH  51  55
ENDBRANCH  24  48
BRANCH  36  59
ATOM     59  C   UNL A   1      45.361  33.449  29.157  1.00  0.00     0.023 A 
ATOM     60  C   UNL A   1      45.330  34.493  28.217  1.00  0.00     0.031 A 
ATOM     61  C   UNL A   1      46.011  33.672  30.382  1.00  0.00     0.131 A 
ATOM     62  C   UNL A   1      45.984  35.700  28.495  1.00  0.00     0.055 A 
ATOM     63  C   UNL A   1      46.605  34.897  30.679  1.00  0.00     0.041 A 
ATOM     64  F   UNL A   1      46.066  32.706  31.313  1.00  0.00    -0.206 F 
ATOM     65  C   UNL A   1      46.603  35.917  29.729  1.00  0.00     0.022 A 
BRANCH  62  66
ATOM     66  S   UNL A   1      46.078  36.954  27.190  1.00  0.00     0.124 S 
ATOM     67  O   UNL A   1      47.171  37.798  27.661  1.00  0.00    -0.237 OA
ATOM     68  O   UNL A   1      46.357  36.153  26.003  1.00  0.00    -0.237 OA
ATOM     69  O   UNL A   1      44.757  37.578  27.220  1.00  0.00    -0.744 OA
ENDBRANCH  62  66
ENDBRANCH  36  59
ENDBRANCH  10  11
ENDBRANCH   3   5
ENDBRANCH   2   3
ENDBRANCH   1   2
BRANCH   1  70
ATOM     70  C   UNL A   1      36.492  22.629  23.984  1.00  0.00     0.275 C 
BRANCH  70  71
ATOM     71  O   UNL A   1      35.422  23.407  24.542  1.00  0.00    -0.458 OA
BRANCH  71  72
ATOM     72  C   UNL A   1      34.379  23.614  23.690  1.00  0.00     0.340 C 
ATOM     73  O   UNL A   1      34.425  23.576  22.477  1.00  0.00    -0.246 OA
BRANCH  72  74
ATOM     74  C   UNL A   1      33.109  23.771  24.433  1.00  0.00     0.083 A 
ATOM     75  C   UNL A   1      32.463  25.011  24.260  1.00  0.00     0.018 A 
ATOM     76  C   UNL A   1      32.573  22.787  25.285  1.00  0.00     0.053 A 
ATOM     77  C   UNL A   1      31.295  25.301  24.956  1.00  0.00     0.001 A 
ATOM     78  C   UNL A   1      31.506  23.183  26.107  1.00  0.00     0.027 A 
ATOM     79  C   UNL A   1      30.840  24.401  25.910  1.00  0.00     0.002 A 
BRANCH  76  80
ATOM     80  N   UNL A   1      33.077  21.460  25.316  1.00  0.00    -0.355 N 
ATOM     81  H   UNL A   1      33.650  21.236  26.085  1.00  0.00     0.167 HD
BRANCH  80  82
ATOM     82  C   UNL A   1      32.863  20.419  24.385  1.00  0.00     0.039 A 
ATOM     83  C   UNL A   1      32.181  20.662  23.191  1.00  0.00     0.026 A 
ATOM     84  C   UNL A   1      33.374  19.131  24.614  1.00  0.00     0.039 A 
ATOM     85  C   UNL A   1      31.999  19.641  22.252  1.00  0.00     0.003 A 
ATOM     86  C   UNL A   1      33.243  18.104  23.654  1.00  0.00     0.058 A 
ATOM     87  C   UNL A   1      32.528  18.371  22.480  1.00  0.00     0.013 A 
BRANCH  86  88
ATOM     88  C   UNL A   1      33.856  16.738  23.872  1.00  0.00     0.416 C 
ATOM     89  F   UNL A   1      32.938  15.833  24.316  1.00  0.00    -0.166 F 
ATOM     90  F   UNL A   1      34.404  16.201  22.752  1.00  0.00    -0.166 F 
ATOM     91  F   UNL A   1      34.841  16.740  24.815  1.00  0.00    -0.166 F 
ENDBRANCH  86  88
ENDBRANCH  80  82
ENDBRANCH  76  80
ENDBRANCH  72  74
ENDBRANCH  71  72
ENDBRANCH  70  71
ENDBRANCH   1  70
TORSDOF 17
ENDMDL
MODEL 3
REMARK VINA RESULT:     -10.8      4.577      6.578
REMARK SMILES O=C(OCCOC(=O)c1ccccc1Nc1cccc(C(F)(F)F)c1)c1ccc(-c2c3nc(c(-c4cc(S(=O)(=O)[O-])ccc4F)c4ccc([nH]4)c(-c4cc(S(=O)(=O)[O-])ccc4F)c4nc(c(-c5cc(S(=O)(=O)[O-])ccc5F)c5ccc2[nH]5)C=C4)C=C3)cc1
REMARK SMILES IDX 4 1 3 2 2 3 1 4 26 5 27 6 88 7 28 8 87 9 29 10 30 11 31 12
REMARK SMILES IDX 81 13 32 14 86 15 80 16 82 17 33 18 85 19 79 20 78 21 34 23
REMARK SMILES IDX 66 24 46 25 65 26 47 27 50 28 64 29 83 30 48 31 49 32 63 34
REMARK SMILES IDX 84 35 51 36 35 37 36 38 44 39 37 40 43 41 45 42 42 43 38 44
REMARK SMILES IDX 39 45 40 46 41 47 67 48 68 49 76 50 69 51 75 52 77 53 74 54
REMARK SMILES IDX 70 55 71 56 72 57 73 58 52 59 53 60 61 61 54 62 60 63 62 64
REMARK SMILES IDX 59 65 55 66 56 67 57 68 58 69 5 70 6 71 7 72 8 73 9 74 10 75
REMARK SMILES IDX 14 76 11 77 13 78 12 79 15 80 16 82 17 83 25 84 18 85 20 86
REMARK SMILES IDX 19 87 21 88 22 89 23 90 24 91
REMARK H PARENT 82 22 50 33 15 81
REMARK Flexibility Score: inf
ROOT
ATOM      1  C   UNL A   1      32.061  30.303  26.523  1.00  0.00     0.275 C 
ENDROOT
BRANCH   1   2
ATOM      2  O   UNL A   1      33.407  30.810  26.516  1.00  0.00    -0.458 OA
BRANCH   2   3
ATOM      3  C   UNL A   1      34.157  31.344  27.509  1.00  0.00     0.338 C 
ATOM      4  O   UNL A   1      33.837  32.457  27.928  1.00  0.00    -0.246 OA
BRANCH   3   5
ATOM      5  C   UNL A   1      35.422  30.738  28.052  1.00  0.00     0.060 A 
ATOM      6  C   UNL A   1      35.623  29.406  28.423  1.00  0.00     0.016 A 
ATOM      7  C   UNL A   1      36.522  31.615  28.177  1.00  0.00     0.016 A 
ATOM      8  C   UNL A   1      36.870  28.954  28.869  1.00  0.00     0.010 A 
ATOM      9  C   UNL A   1      37.774  31.170  28.619  1.00  0.00     0.010 A 
ATOM     10  C   UNL A   1      37.950  29.832  28.974  1.00  0.00    -0.014 A 
BRANCH  10  11
ATOM     11  C   UNL A   1      39.208  29.353  29.592  1.00  0.00     0.031 A 
ATOM     12  C   UNL A   1      39.531  29.823  30.964  1.00  0.00     0.074 A 
ATOM     13  C   UNL A   1      40.009  28.485  28.951  1.00  0.00     0.049 A 
ATOM     14  N   UNL A   1      40.502  29.458  31.748  1.00  0.00    -0.248 NA
ATOM     15  C   UNL A   1      38.644  30.858  31.514  1.00  0.00     0.031 C 
ATOM     16  C   UNL A   1      39.728  28.008  27.616  1.00  0.00     0.029 A 
ATOM     17  N   UNL A   1      41.155  27.821  29.297  1.00  0.00    -0.354 N 
ATOM     18  C   UNL A   1      40.374  30.245  32.881  1.00  0.00     0.074 A 
ATOM     19  C   UNL A   1      39.228  31.105  32.675  1.00  0.00     0.031 C 
ATOM     20  C   UNL A   1      40.622  27.076  27.262  1.00  0.00     0.029 A 
ATOM     21  C   UNL A   1      41.570  26.904  28.348  1.00  0.00     0.049 A 
ATOM     22  H   UNL A   1      41.639  27.981  30.140  1.00  0.00     0.167 HD
ATOM     23  C   UNL A   1      41.175  30.258  33.971  1.00  0.00     0.034 A 
ATOM     24  C   UNL A   1      42.572  25.999  28.378  1.00  0.00     0.034 A 
ATOM     25  C   UNL A   1      42.341  29.417  34.086  1.00  0.00     0.049 A 
ATOM     26  C   UNL A   1      43.399  25.973  29.639  1.00  0.00     0.074 A 
ATOM     27  C   UNL A   1      43.290  29.382  35.089  1.00  0.00     0.029 A 
ATOM     28  N   UNL A   1      42.729  28.470  33.138  1.00  0.00    -0.354 N 
ATOM     29  N   UNL A   1      43.255  26.705  30.723  1.00  0.00    -0.248 NA
ATOM     30  C   UNL A   1      44.514  25.023  29.693  1.00  0.00     0.031 C 
ATOM     31  C   UNL A   1      44.285  28.472  34.713  1.00  0.00     0.029 A 
ATOM     32  C   UNL A   1      43.920  27.871  33.516  1.00  0.00     0.049 A 
ATOM     33  H   UNL A   1      42.228  28.257  32.317  1.00  0.00     0.167 HD
ATOM     34  C   UNL A   1      44.267  26.312  31.586  1.00  0.00     0.074 A 
ATOM     35  C   UNL A   1      44.977  25.234  30.918  1.00  0.00     0.031 C 
ATOM     36  C   UNL A   1      44.605  26.813  32.803  1.00  0.00     0.034 A 
BRANCH  23  37
ATOM     37  C   UNL A   1      40.866  31.314  35.001  1.00  0.00     0.023 A 
ATOM     38  C   UNL A   1      39.834  31.148  35.945  1.00  0.00     0.031 A 
ATOM     39  C   UNL A   1      41.485  32.573  34.919  1.00  0.00     0.131 A 
ATOM     40  C   UNL A   1      39.365  32.257  36.667  1.00  0.00     0.055 A 
ATOM     41  C   UNL A   1      41.084  33.644  35.718  1.00  0.00     0.041 A 
ATOM     42  F   UNL A   1      42.449  32.803  34.014  1.00  0.00    -0.206 F 
ATOM     43  C   UNL A   1      39.999  33.498  36.579  1.00  0.00     0.022 A 
BRANCH  40  44
ATOM     44  S   UNL A   1      37.777  32.112  37.536  1.00  0.00     0.124 S 
ATOM     45  O   UNL A   1      36.937  33.027  36.766  1.00  0.00    -0.237 OA
ATOM     46  O   UNL A   1      37.468  30.694  37.398  1.00  0.00    -0.237 OA
ATOM     47  O   UNL A   1      38.087  32.554  38.894  1.00  0.00    -0.744 OA
ENDBRANCH  40  44
ENDBRANCH  23  37
BRANCH  24  48
ATOM     48  C   UNL A   1      42.790  25.037  27.245  1.00  0.00     0.023 A 
ATOM     49  C   UNL A   1      42.229  23.747  27.264  1.00  0.00     0.031 A 
ATOM     50  C   UNL A   1      43.529  25.394  26.099  1.00  0.00     0.131 A 
ATOM     51  C   UNL A   1      42.411  22.872  26.176  1.00  0.00     0.055 A 
ATOM     52  C   UNL A   1      43.666  24.540  25.000  1.00  0.00     0.041 A 
ATOM     53  F   UNL A   1      44.104  26.604  26.010  1.00  0.00    -0.206 F 
ATOM     54  C   UNL A   1      43.112  23.267  25.037  1.00  0.00     0.022 A 
BRANCH  51  55
ATOM     55  S   UNL A   1      41.745  21.187  26.281  1.00  0.00     0.124 S 
ATOM     56  O   UNL A   1      42.622  20.454  25.376  1.00  0.00    -0.237 OA
ATOM     57  O   UNL A   1      41.899  20.900  27.705  1.00  0.00    -0.237 OA
ATOM     58  O   UNL A   1      40.364  21.338  25.826  1.00  0.00    -0.744 OA
ENDBRANCH  51  55
ENDBRANCH  24  48
BRANCH  36  59
ATOM     59  C   UNL A   1      45.815  26.207  33.462  1.00  0.00     0.023 A 
ATOM     60  C   UNL A   1      45.700  25.078  34.291  1.00  0.00     0.031 A 
ATOM     61  C   UNL A   1      47.095  26.742  33.237  1.00  0.00     0.131 A 
ATOM     62  C   UNL A   1      46.840  24.548  34.908  1.00  0.00     0.055 A 
ATOM     63  C   UNL A   1      48.233  26.171  33.803  1.00  0.00     0.041 A 
ATOM     64  F   UNL A   1      47.257  27.820  32.452  1.00  0.00    -0.206 F 
ATOM     65  C   UNL A   1      48.108  25.074  34.652  1.00  0.00     0.022 A 
BRANCH  62  66
ATOM     66  S   UNL A   1      46.629  23.208  36.110  1.00  0.00     0.124 S 
ATOM     67  O   UNL A   1      47.307  22.099  35.447  1.00  0.00    -0.237 OA
ATOM     68  O   UNL A   1      47.291  23.742  37.296  1.00  0.00    -0.237 OA
ATOM     69  O   UNL A   1      45.179  23.071  36.219  1.00  0.00    -0.744 OA
ENDBRANCH  62  66
ENDBRANCH  36  59
ENDBRANCH  10  11
ENDBRANCH   3   5
ENDBRANCH   2   3
ENDBRANCH   1   2
BRANCH   1  70
ATOM     70  C   UNL A   1      31.920  28.964  27.254  1.00  0.00     0.275 C 
BRANCH  70  71
ATOM     71  O   UNL A   1      32.705  27.918  26.660  1.00  0.00    -0.458 OA
BRANCH  71  72
ATOM     72  C   UNL A   1      32.023  26.756  26.456  1.00  0.00     0.340 C 
ATOM     73  O   UNL A   1      30.917  26.488  26.880  1.00  0.00    -0.246 OA
BRANCH  72  74
ATOM     74  C   UNL A   1      32.751  25.870  25.519  1.00  0.00     0.083 A 
ATOM     75  C   UNL A   1      33.897  25.248  26.051  1.00  0.00     0.018 A 
ATOM     76  C   UNL A   1      32.372  25.669  24.179  1.00  0.00     0.053 A 
ATOM     77  C   UNL A   1      34.698  24.444  25.250  1.00  0.00     0.001 A 
ATOM     78  C   UNL A   1      33.300  25.009  23.357  1.00  0.00     0.027 A 
ATOM     79  C   UNL A   1      34.421  24.358  23.892  1.00  0.00     0.002 A 
BRANCH  76  80
ATOM     80  N   UNL A   1      31.117  26.103  23.675  1.00  0.00    -0.355 N 
ATOM     81  H   UNL A   1      30.401  25.426  23.665  1.00  0.00     0.167 HD
BRANCH  80  82
ATOM     82  C   UNL A   1      30.764  27.380  23.185  1.00  0.00     0.039 A 
ATOM     83  C   UNL A   1      31.702  28.170  22.518  1.00  0.00     0.026 A 
ATOM     84  C   UNL A   1      29.451  27.862  23.312  1.00  0.00     0.039 A 
ATOM     85  C   UNL A   1      31.344  29.419  22.002  1.00  0.00     0.003 A 
ATOM     86  C   UNL A   1      29.062  29.097  22.751  1.00  0.00     0.058 A 
ATOM     87  C   UNL A   1      30.033  29.881  22.115  1.00  0.00     0.013 A 
BRANCH  86  88
ATOM     88  C   UNL A   1      27.630  29.582  22.827  1.00  0.00     0.416 C 
ATOM     89  F   UNL A   1      27.276  30.299  21.722  1.00  0.00    -0.166 F 
ATOM     90  F   UNL A   1      26.720  28.579  22.933  1.00  0.00    -0.166 F 
ATOM     91  F   UNL A   1      27.404  30.415  23.882  1.00  0.00    -0.166 F 
ENDBRANCH  86  88
ENDBRANCH  80  82
ENDBRANCH  76  80
ENDBRANCH  72  74
ENDBRANCH  71  72
ENDBRANCH  70  71
ENDBRANCH   1  70
TORSDOF 17
ENDMDL
