MODEL 1
REMARK VINA RESULT:     -13.5      0.000      0.000
REMARK SMILES Cc1cnn(C2(C(=O)OCCOC(=O)c3ccc(-c4c5nc(c(-c6cc(S(=O)(=O)[O-])ccc6F)c6ccc([nH]6)c(-c6cc(S(=O)(=O)[O-])ccc6F)c6nc(c(-c7cc(S(=O)(=O)[O-])ccc7F)c7ccc4[nH]7)C=C6)C=C5)cc3)CCN(C(=O)c3cc4ccccc4[nH]3)CC2)c1
REMARK SMILES IDX 11 1 10 2 9 3 7 4 8 5 6 6 78 7 93 8 79 9 92 10 80 11 81 12
REMARK SMILES IDX 82 13 5 14 1 15 2 16 3 17 94 18 4 19 83 20 84 21 91 22 85 23
REMARK SMILES IDX 90 24 86 26 89 27 87 28 88 29 12 30 13 31 14 32 15 33 16 34
REMARK SMILES IDX 77 35 17 36 76 37 18 38 19 39 20 40 70 41 21 42 75 43 69 44
REMARK SMILES IDX 71 45 22 46 74 47 68 48 67 49 23 51 55 52 35 53 54 54 36 55
REMARK SMILES IDX 39 56 53 57 72 58 37 59 38 60 52 62 73 63 40 64 24 65 25 66
REMARK SMILES IDX 33 67 26 68 32 69 34 70 31 71 27 72 28 73 29 74 30 75 56 76
REMARK SMILES IDX 57 77 65 78 58 79 64 80 66 81 63 82 59 83 60 84 61 85 62 86
REMARK SMILES IDX 41 87 42 88 50 89 43 90 49 91 51 92 48 93 44 94 45 95 46 96
REMARK SMILES IDX 47 97
REMARK H PARENT 91 25 71 50 39 61
REMARK Flexibility Score: inf
ROOT
ATOM      1  C   UNL A   1      38.836  22.775  26.169  1.00  0.00     0.275 C 
ENDROOT
BRANCH   1   2
ATOM      2  C   UNL A   1      37.584  23.609  25.909  1.00  0.00     0.274 C 
BRANCH   2   3
ATOM      3  O   UNL A   1      36.409  22.780  25.805  1.00  0.00    -0.460 OA
BRANCH   3   4
ATOM      4  C   UNL A   1      35.668  22.881  24.651  1.00  0.00     0.334 C 
ATOM      5  O   UNL A   1      36.187  23.197  23.586  1.00  0.00    -0.249 OA
BRANCH   4   6
ATOM      6  C   UNL A   1      34.139  22.818  24.948  1.00  0.00     0.163 C 
ATOM      7  C   UNL A   1      33.787  23.283  26.388  1.00  0.00     0.064 C 
ATOM      8  C   UNL A   1      33.613  23.805  23.885  1.00  0.00     0.064 C 
ATOM      9  C   UNL A   1      32.404  23.899  26.566  1.00  0.00     0.123 C 
ATOM     10  C   UNL A   1      32.219  24.330  24.130  1.00  0.00     0.123 C 
ATOM     11  N   UNL A   1      32.051  24.819  25.494  1.00  0.00    -0.337 N 
ATOM     12  C   UNL A   1      31.517  26.068  25.813  1.00  0.00     0.270 C 
ATOM     13  O   UNL A   1      31.592  26.556  26.948  1.00  0.00    -0.267 OA
BRANCH   6  14
ATOM     14  N   UNL A   1      33.574  21.463  24.713  1.00  0.00    -0.255 N 
ATOM     15  C   UNL A   1      32.643  18.014  25.538  1.00  0.00     0.048 C 
ATOM     16  C   UNL A   1      32.900  19.361  24.982  1.00  0.00    -0.013 A 
ATOM     17  C   UNL A   1      32.436  19.924  23.782  1.00  0.00     0.138 A 
ATOM     18  C   UNL A   1      33.672  20.360  25.531  1.00  0.00     0.113 A 
ATOM     19  N   UNL A   1      32.872  21.171  23.600  1.00  0.00    -0.180 NA
ENDBRANCH   6  14
BRANCH  12  20
ATOM     20  C   UNL A   1      30.917  26.812  24.734  1.00  0.00     0.105 A 
ATOM     21  C   UNL A   1      31.486  27.686  23.823  1.00  0.00     0.042 A 
ATOM     22  N   UNL A   1      29.574  26.764  24.448  1.00  0.00    -0.351 N 
ATOM     23  C   UNL A   1      30.432  28.370  23.166  1.00  0.00     0.000 A 
ATOM     24  C   UNL A   1      29.239  27.779  23.584  1.00  0.00     0.046 A 
ATOM     25  H   UNL A   1      28.944  26.098  24.809  1.00  0.00     0.167 HD
ATOM     26  C   UNL A   1      30.383  29.465  22.286  1.00  0.00     0.010 A 
ATOM     27  C   UNL A   1      27.987  28.228  23.153  1.00  0.00     0.026 A 
ATOM     28  C   UNL A   1      29.138  29.943  21.865  1.00  0.00     0.001 A 
ATOM     29  C   UNL A   1      27.960  29.329  22.291  1.00  0.00     0.002 A 
ENDBRANCH  12  20
ENDBRANCH   4   6
ENDBRANCH   3   4
ENDBRANCH   2   3
ENDBRANCH   1   2
BRANCH   1  30
ATOM     30  O   UNL A   1      39.631  23.328  27.219  1.00  0.00    -0.458 OA
BRANCH  30  31
ATOM     31  C   UNL A   1      40.321  24.426  26.848  1.00  0.00     0.338 C 
ATOM     32  O   UNL A   1      41.393  24.434  26.234  1.00  0.00    -0.246 OA
BRANCH  31  33
ATOM     33  C   UNL A   1      39.749  25.649  27.393  1.00  0.00     0.060 A 
ATOM     34  C   UNL A   1      40.192  26.852  26.837  1.00  0.00     0.016 A 
ATOM     35  C   UNL A   1      39.080  25.598  28.617  1.00  0.00     0.016 A 
ATOM     36  C   UNL A   1      40.147  27.996  27.604  1.00  0.00     0.010 A 
ATOM     37  C   UNL A   1      39.023  26.745  29.381  1.00  0.00     0.010 A 
ATOM     38  C   UNL A   1      39.645  27.904  28.905  1.00  0.00    -0.014 A 
BRANCH  38  39
ATOM     39  C   UNL A   1      39.828  29.050  29.779  1.00  0.00     0.031 A 
ATOM     40  C   UNL A   1      38.669  29.965  29.907  1.00  0.00     0.074 A 
ATOM     41  C   UNL A   1      40.932  29.169  30.543  1.00  0.00     0.049 A 
ATOM     42  N   UNL A   1      38.645  31.255  29.829  1.00  0.00    -0.248 NA
ATOM     43  C   UNL A   1      37.346  29.348  30.090  1.00  0.00     0.031 C 
ATOM     44  C   UNL A   1      42.010  28.184  30.699  1.00  0.00     0.029 A 
ATOM     45  N   UNL A   1      41.243  30.125  31.463  1.00  0.00    -0.354 N 
ATOM     46  C   UNL A   1      37.344  31.628  30.147  1.00  0.00     0.074 A 
ATOM     47  C   UNL A   1      36.563  30.421  30.170  1.00  0.00     0.031 C 
ATOM     48  C   UNL A   1      42.695  28.460  31.827  1.00  0.00     0.029 A 
ATOM     49  C   UNL A   1      42.187  29.701  32.388  1.00  0.00     0.049 A 
ATOM     50  H   UNL A   1      40.840  31.022  31.472  1.00  0.00     0.167 HD
ATOM     51  C   UNL A   1      37.038  32.884  30.569  1.00  0.00     0.034 A 
ATOM     52  C   UNL A   1      42.454  30.256  33.595  1.00  0.00     0.034 A 
ATOM     53  C   UNL A   1      38.016  33.850  30.141  1.00  0.00     0.049 A 
ATOM     54  C   UNL A   1      41.975  31.656  33.565  1.00  0.00     0.074 A 
ATOM     55  C   UNL A   1      38.505  34.244  28.908  1.00  0.00     0.029 A 
ATOM     56  N   UNL A   1      38.900  34.359  31.063  1.00  0.00    -0.354 N 
ATOM     57  N   UNL A   1      42.476  32.576  32.785  1.00  0.00    -0.248 NA
ATOM     58  C   UNL A   1      40.657  31.960  34.103  1.00  0.00     0.031 C 
ATOM     59  C   UNL A   1      39.883  34.529  29.127  1.00  0.00     0.029 A 
ATOM     60  C   UNL A   1      40.146  34.320  30.482  1.00  0.00     0.049 A 
ATOM     61  H   UNL A   1      38.683  34.686  31.965  1.00  0.00     0.167 HD
ATOM     62  C   UNL A   1      41.393  33.348  32.398  1.00  0.00     0.074 A 
ATOM     63  C   UNL A   1      40.333  33.010  33.342  1.00  0.00     0.031 C 
ATOM     64  C   UNL A   1      41.366  33.972  31.183  1.00  0.00     0.034 A 
BRANCH  51  65
ATOM     65  C   UNL A   1      35.994  33.175  31.618  1.00  0.00     0.023 A 
ATOM     66  C   UNL A   1      34.904  33.991  31.262  1.00  0.00     0.031 A 
ATOM     67  C   UNL A   1      36.151  32.923  33.002  1.00  0.00     0.131 A 
ATOM     68  C   UNL A   1      34.074  34.553  32.248  1.00  0.00     0.055 A 
ATOM     69  C   UNL A   1      35.278  33.422  33.971  1.00  0.00     0.041 A 
ATOM     70  F   UNL A   1      37.208  32.268  33.500  1.00  0.00    -0.206 F 
ATOM     71  C   UNL A   1      34.246  34.265  33.600  1.00  0.00     0.022 A 
BRANCH  68  72
ATOM     72  S   UNL A   1      32.887  35.830  31.753  1.00  0.00     0.124 S 
ATOM     73  O   UNL A   1      33.528  37.045  32.245  1.00  0.00    -0.237 OA
ATOM     74  O   UNL A   1      32.853  35.659  30.304  1.00  0.00    -0.237 OA
ATOM     75  O   UNL A   1      31.666  35.445  32.456  1.00  0.00    -0.744 OA
ENDBRANCH  68  72
ENDBRANCH  51  65
BRANCH  52  76
ATOM     76  C   UNL A   1      42.765  29.492  34.829  1.00  0.00     0.023 A 
ATOM     77  C   UNL A   1      42.053  28.345  35.214  1.00  0.00     0.031 A 
ATOM     78  C   UNL A   1      43.929  29.804  35.575  1.00  0.00     0.131 A 
ATOM     79  C   UNL A   1      42.491  27.583  36.321  1.00  0.00     0.055 A 
ATOM     80  C   UNL A   1      44.342  29.063  36.681  1.00  0.00     0.041 A 
ATOM     81  F   UNL A   1      44.745  30.803  35.205  1.00  0.00    -0.206 F 
ATOM     82  C   UNL A   1      43.621  27.943  37.059  1.00  0.00     0.022 A 
BRANCH  79  83
ATOM     83  S   UNL A   1      41.628  26.042  36.760  1.00  0.00     0.124 S 
ATOM     84  O   UNL A   1      41.024  25.652  35.492  1.00  0.00    -0.237 OA
ATOM     85  O   UNL A   1      42.720  25.203  37.244  1.00  0.00    -0.237 OA
ATOM     86  O   UNL A   1      40.679  26.464  37.790  1.00  0.00    -0.744 OA
ENDBRANCH  79  83
ENDBRANCH  52  76
BRANCH  64  87
ATOM     87  C   UNL A   1      42.652  34.045  30.386  1.00  0.00     0.023 A 
ATOM     88  C   UNL A   1      43.046  33.073  29.439  1.00  0.00     0.031 A 
ATOM     89  C   UNL A   1      43.427  35.213  30.483  1.00  0.00     0.131 A 
ATOM     90  C   UNL A   1      44.186  33.283  28.641  1.00  0.00     0.055 A 
ATOM     91  C   UNL A   1      44.549  35.426  29.680  1.00  0.00     0.041 A 
ATOM     92  F   UNL A   1      43.078  36.193  31.334  1.00  0.00    -0.206 F 
ATOM     93  C   UNL A   1      44.935  34.458  28.757  1.00  0.00     0.022 A 
BRANCH  90  94
ATOM     94  S   UNL A   1      44.699  32.030  27.423  1.00  0.00     0.124 S 
ATOM     95  O   UNL A   1      44.143  30.792  27.955  1.00  0.00    -0.237 OA
ATOM     96  O   UNL A   1      44.100  32.527  26.186  1.00  0.00    -0.237 OA
ATOM     97  O   UNL A   1      46.162  32.103  27.457  1.00  0.00    -0.744 OA
ENDBRANCH  90  94
ENDBRANCH  64  87
ENDBRANCH  38  39
ENDBRANCH  31  33
ENDBRANCH  30  31
ENDBRANCH   1  30
TORSDOF 16
ENDMDL
MODEL 2
REMARK VINA RESULT:     -13.5      4.039     10.340
REMARK SMILES Cc1cnn(C2(C(=O)OCCOC(=O)c3ccc(-c4c5nc(c(-c6cc(S(=O)(=O)[O-])ccc6F)c6ccc([nH]6)c(-c6cc(S(=O)(=O)[O-])ccc6F)c6nc(c(-c7cc(S(=O)(=O)[O-])ccc7F)c7ccc4[nH]7)C=C6)C=C5)cc3)CCN(C(=O)c3cc4ccccc4[nH]3)CC2)c1
REMARK SMILES IDX 11 1 10 2 9 3 7 4 8 5 6 6 78 7 93 8 79 9 92 10 80 11 81 12
REMARK SMILES IDX 82 13 5 14 1 15 2 16 3 17 94 18 4 19 83 20 84 21 91 22 85 23
REMARK SMILES IDX 90 24 86 26 89 27 87 28 88 29 12 30 13 31 14 32 15 33 16 34
REMARK SMILES IDX 77 35 17 36 76 37 18 38 19 39 20 40 70 41 21 42 75 43 69 44
REMARK SMILES IDX 71 45 22 46 74 47 68 48 67 49 23 51 55 52 35 53 54 54 36 55
REMARK SMILES IDX 39 56 53 57 72 58 37 59 38 60 52 62 73 63 40 64 24 65 25 66
REMARK SMILES IDX 33 67 26 68 32 69 34 70 31 71 27 72 28 73 29 74 30 75 56 76
REMARK SMILES IDX 57 77 65 78 58 79 64 80 66 81 63 82 59 83 60 84 61 85 62 86
REMARK SMILES IDX 41 87 42 88 50 89 43 90 49 91 51 92 48 93 44 94 45 95 46 96
REMARK SMILES IDX 47 97
REMARK H PARENT 91 25 71 50 39 61
REMARK Flexibility Score: inf
ROOT
ATOM      1  C   UNL A   1      34.739  29.649  27.644  1.00  0.00     0.275 C 
ENDROOT
BRANCH   1   2
ATOM      2  C   UNL A   1      33.493  30.089  26.881  1.00  0.00     0.274 C 
BRANCH   2   3
ATOM      3  O   UNL A   1      33.208  29.204  25.780  1.00  0.00    -0.460 OA
BRANCH   3   4
ATOM      4  C   UNL A   1      32.124  28.367  25.910  1.00  0.00     0.334 C 
ATOM      5  O   UNL A   1      31.606  28.160  27.002  1.00  0.00    -0.249 OA
BRANCH   4   6
ATOM      6  C   UNL A   1      31.863  27.564  24.599  1.00  0.00     0.163 C 
ATOM      7  C   UNL A   1      33.094  27.544  23.652  1.00  0.00     0.064 C 
ATOM      8  C   UNL A   1      31.571  26.168  25.187  1.00  0.00     0.064 C 
ATOM      9  C   UNL A   1      33.218  26.319  22.753  1.00  0.00     0.123 C 
ATOM     10  C   UNL A   1      31.682  25.023  24.208  1.00  0.00     0.123 C 
ATOM     11  N   UNL A   1      32.927  25.073  23.449  1.00  0.00    -0.337 N 
ATOM     12  C   UNL A   1      33.793  23.990  23.304  1.00  0.00     0.270 C 
ATOM     13  O   UNL A   1      34.941  24.109  22.856  1.00  0.00    -0.267 OA
BRANCH   6  14
ATOM     14  N   UNL A   1      30.676  28.067  23.857  1.00  0.00    -0.255 N 
ATOM     15  C   UNL A   1      28.810  30.225  21.554  1.00  0.00     0.048 C 
ATOM     16  C   UNL A   1      29.343  29.224  22.504  1.00  0.00    -0.013 A 
ATOM     17  C   UNL A   1      28.723  28.070  23.012  1.00  0.00     0.138 A 
ATOM     18  C   UNL A   1      30.580  29.218  23.109  1.00  0.00     0.113 A 
ATOM     19  N   UNL A   1      29.506  27.397  23.855  1.00  0.00    -0.180 NA
ENDBRANCH   6  14
BRANCH  12  20
ATOM     20  C   UNL A   1      33.316  22.710  23.762  1.00  0.00     0.105 A 
ATOM     21  C   UNL A   1      33.399  22.118  25.011  1.00  0.00     0.042 A 
ATOM     22  N   UNL A   1      32.668  21.816  22.945  1.00  0.00    -0.351 N 
ATOM     23  C   UNL A   1      33.043  20.753  24.865  1.00  0.00     0.000 A 
ATOM     24  C   UNL A   1      32.596  20.585  23.554  1.00  0.00     0.046 A 
ATOM     25  H   UNL A   1      32.307  22.026  22.053  1.00  0.00     0.167 HD
ATOM     26  C   UNL A   1      33.098  19.636  25.718  1.00  0.00     0.010 A 
ATOM     27  C   UNL A   1      32.189  19.345  23.051  1.00  0.00     0.026 A 
ATOM     28  C   UNL A   1      32.719  18.385  25.224  1.00  0.00     0.001 A 
ATOM     29  C   UNL A   1      32.269  18.246  23.911  1.00  0.00     0.002 A 
ENDBRANCH  12  20
ENDBRANCH   4   6
ENDBRANCH   3   4
ENDBRANCH   2   3
ENDBRANCH   1   2
BRANCH   1  30
ATOM     30  O   UNL A   1      35.614  30.746  27.909  1.00  0.00    -0.458 OA
BRANCH  30  31
ATOM     31  C   UNL A   1      36.517  30.492  28.878  1.00  0.00     0.338 C 
ATOM     32  O   UNL A   1      36.646  31.126  29.931  1.00  0.00    -0.246 OA
BRANCH  31  33
ATOM     33  C   UNL A   1      37.468  29.460  28.491  1.00  0.00     0.060 A 
ATOM     34  C   UNL A   1      37.804  28.517  29.468  1.00  0.00     0.016 A 
ATOM     35  C   UNL A   1      38.233  29.640  27.338  1.00  0.00     0.016 A 
ATOM     36  C   UNL A   1      39.028  27.889  29.391  1.00  0.00     0.010 A 
ATOM     37  C   UNL A   1      39.452  29.001  27.254  1.00  0.00     0.010 A 
ATOM     38  C   UNL A   1      39.876  28.211  28.328  1.00  0.00    -0.014 A 
BRANCH  38  39
ATOM     39  C   UNL A   1      41.246  27.732  28.391  1.00  0.00     0.031 A 
ATOM     40  C   UNL A   1      41.503  26.406  27.783  1.00  0.00     0.074 A 
ATOM     41  C   UNL A   1      42.238  28.530  28.835  1.00  0.00     0.049 A 
ATOM     42  N   UNL A   1      42.155  25.404  28.273  1.00  0.00    -0.248 NA
ATOM     43  C   UNL A   1      40.895  26.143  26.469  1.00  0.00     0.031 C 
ATOM     44  C   UNL A   1      42.137  29.948  29.199  1.00  0.00     0.029 A 
ATOM     45  N   UNL A   1      43.577  28.283  28.900  1.00  0.00    -0.354 N 
ATOM     46  C   UNL A   1      42.213  24.457  27.257  1.00  0.00     0.074 A 
ATOM     47  C   UNL A   1      41.318  24.905  26.225  1.00  0.00     0.031 C 
ATOM     48  C   UNL A   1      43.371  30.494  29.184  1.00  0.00     0.029 A 
ATOM     49  C   UNL A   1      44.342  29.440  28.938  1.00  0.00     0.049 A 
ATOM     50  H   UNL A   1      43.962  27.378  28.916  1.00  0.00     0.167 HD
ATOM     51  C   UNL A   1      43.146  23.469  27.247  1.00  0.00     0.034 A 
ATOM     52  C   UNL A   1      45.664  29.555  28.666  1.00  0.00     0.034 A 
ATOM     53  C   UNL A   1      43.654  23.192  28.565  1.00  0.00     0.049 A 
ATOM     54  C   UNL A   1      46.277  28.217  28.829  1.00  0.00     0.074 A 
ATOM     55  C   UNL A   1      43.073  22.806  29.760  1.00  0.00     0.029 A 
ATOM     56  N   UNL A   1      44.919  23.616  28.896  1.00  0.00    -0.354 N 
ATOM     57  N   UNL A   1      46.342  27.586  29.970  1.00  0.00    -0.248 NA
ATOM     58  C   UNL A   1      46.459  27.380  27.653  1.00  0.00     0.031 C 
ATOM     59  C   UNL A   1      43.821  23.472  30.771  1.00  0.00     0.029 A 
ATOM     60  C   UNL A   1      44.830  24.200  30.137  1.00  0.00     0.049 A 
ATOM     61  H   UNL A   1      45.732  23.521  28.349  1.00  0.00     0.167 HD
ATOM     62  C   UNL A   1      46.145  26.251  29.654  1.00  0.00     0.074 A 
ATOM     63  C   UNL A   1      46.361  26.170  28.212  1.00  0.00     0.031 C 
ATOM     64  C   UNL A   1      45.548  25.394  30.535  1.00  0.00     0.034 A 
BRANCH  51  65
ATOM     65  C   UNL A   1      43.800  22.959  25.985  1.00  0.00     0.023 A 
ATOM     66  C   UNL A   1      43.727  21.581  25.710  1.00  0.00     0.031 A 
ATOM     67  C   UNL A   1      44.710  23.700  25.194  1.00  0.00     0.131 A 
ATOM     68  C   UNL A   1      44.561  20.996  24.741  1.00  0.00     0.055 A 
ATOM     69  C   UNL A   1      45.481  23.126  24.181  1.00  0.00     0.041 A 
ATOM     70  F   UNL A   1      44.976  24.993  25.423  1.00  0.00    -0.206 F 
ATOM     71  C   UNL A   1      45.429  21.761  23.966  1.00  0.00     0.022 A 
BRANCH  68  72
ATOM     72  S   UNL A   1      44.639  19.188  24.646  1.00  0.00     0.124 S 
ATOM     73  O   UNL A   1      44.976  18.974  23.242  1.00  0.00    -0.237 OA
ATOM     74  O   UNL A   1      45.688  18.884  25.614  1.00  0.00    -0.237 OA
ATOM     75  O   UNL A   1      43.293  18.772  25.031  1.00  0.00    -0.744 OA
ENDBRANCH  68  72
ENDBRANCH  51  65
BRANCH  52  76
ATOM     76  C   UNL A   1      46.284  30.689  27.936  1.00  0.00     0.023 A 
ATOM     77  C   UNL A   1      45.551  31.548  27.101  1.00  0.00     0.031 A 
ATOM     78  C   UNL A   1      47.626  31.050  28.207  1.00  0.00     0.131 A 
ATOM     79  C   UNL A   1      46.172  32.693  26.550  1.00  0.00     0.055 A 
ATOM     80  C   UNL A   1      48.241  32.166  27.641  1.00  0.00     0.041 A 
ATOM     81  F   UNL A   1      48.366  30.365  29.093  1.00  0.00    -0.206 F 
ATOM     82  C   UNL A   1      47.511  32.996  26.807  1.00  0.00     0.022 A 
BRANCH  79  83
ATOM     83  S   UNL A   1      45.198  33.860  25.550  1.00  0.00     0.124 S 
ATOM     84  O   UNL A   1      44.399  34.543  26.560  1.00  0.00    -0.237 OA
ATOM     85  O   UNL A   1      46.237  34.652  24.899  1.00  0.00    -0.237 OA
ATOM     86  O   UNL A   1      44.440  32.989  24.651  1.00  0.00    -0.744 OA
ENDBRANCH  79  83
ENDBRANCH  52  76
BRANCH  64  87
ATOM     87  C   UNL A   1      45.366  25.853  31.967  1.00  0.00     0.023 A 
ATOM     88  C   UNL A   1      44.151  26.358  32.483  1.00  0.00     0.031 A 
ATOM     89  C   UNL A   1      46.416  25.628  32.874  1.00  0.00     0.131 A 
ATOM     90  C   UNL A   1      44.025  26.632  33.857  1.00  0.00     0.055 A 
ATOM     91  C   UNL A   1      46.284  25.887  34.238  1.00  0.00     0.041 A 
ATOM     92  F   UNL A   1      47.581  25.109  32.451  1.00  0.00    -0.206 F 
ATOM     93  C   UNL A   1      45.087  26.395  34.736  1.00  0.00     0.022 A 
BRANCH  90  94
ATOM     94  S   UNL A   1      42.463  27.288  34.524  1.00  0.00     0.124 S 
ATOM     95  O   UNL A   1      41.814  26.110  35.089  1.00  0.00    -0.237 OA
ATOM     96  O   UNL A   1      42.923  28.291  35.481  1.00  0.00    -0.237 OA
ATOM     97  O   UNL A   1      41.794  27.841  33.344  1.00  0.00    -0.744 OA
ENDBRANCH  90  94
ENDBRANCH  64  87
ENDBRANCH  38  39
ENDBRANCH  31  33
ENDBRANCH  30  31
ENDBRANCH   1  30
TORSDOF 16
ENDMDL
MODEL 3
REMARK VINA RESULT:     -13.0      2.180      6.590
REMARK SMILES Cc1cnn(C2(C(=O)OCCOC(=O)c3ccc(-c4c5nc(c(-c6cc(S(=O)(=O)[O-])ccc6F)c6ccc([nH]6)c(-c6cc(S(=O)(=O)[O-])ccc6F)c6nc(c(-c7cc(S(=O)(=O)[O-])ccc7F)c7ccc4[nH]7)C=C6)C=C5)cc3)CCN(C(=O)c3cc4ccccc4[nH]3)CC2)c1
REMARK SMILES IDX 11 1 10 2 9 3 7 4 8 5 6 6 78 7 93 8 79 9 92 10 80 11 81 12
REMARK SMILES IDX 82 13 5 14 1 15 2 16 3 17 94 18 4 19 83 20 84 21 91 22 85 23
REMARK SMILES IDX 90 24 86 26 89 27 87 28 88 29 12 30 13 31 14 32 15 33 16 34
REMARK SMILES IDX 77 35 17 36 76 37 18 38 19 39 20 40 70 41 21 42 75 43 69 44
REMARK SMILES IDX 71 45 22 46 74 47 68 48 67 49 23 51 55 52 35 53 54 54 36 55
REMARK SMILES IDX 39 56 53 57 72 58 37 59 38 60 52 62 73 63 40 64 24 65 25 66
REMARK SMILES IDX 33 67 26 68 32 69 34 70 31 71 27 72 28 73 29 74 30 75 56 76
REMARK SMILES IDX 57 77 65 78 58 79 64 80 66 81 63 82 59 83 60 84 61 85 62 86
REMARK SMILES IDX 41 87 42 88 50 89 43 90 49 91 51 92 48 93 44 94 45 95 46 96
REMARK SMILES IDX 47 97
REMARK H PARENT 91 25 71 50 39 61
REMARK Flexibility Score: inf
ROOT
ATOM      1  C   UNL A   1      38.813  21.826  26.080  1.00  0.00     0.275 C 
ENDROOT
BRANCH   1   2
ATOM      2  C   UNL A   1      37.740  21.763  24.996  1.00  0.00     0.274 C 
BRANCH   2   3
ATOM      3  O   UNL A   1      36.732  22.775  25.191  1.00  0.00    -0.460 OA
BRANCH   3   4
ATOM      4  C   UNL A   1      35.851  22.992  24.159  1.00  0.00     0.334 C 
ATOM      5  O   UNL A   1      36.241  23.324  23.045  1.00  0.00    -0.249 OA
BRANCH   4   6
ATOM      6  C   UNL A   1      34.376  23.029  24.666  1.00  0.00     0.163 C 
ATOM      7  C   UNL A   1      34.247  23.632  26.092  1.00  0.00     0.064 C 
ATOM      8  C   UNL A   1      33.742  23.945  23.598  1.00  0.00     0.064 C 
ATOM      9  C   UNL A   1      32.925  24.327  26.399  1.00  0.00     0.123 C 
ATOM     10  C   UNL A   1      32.415  24.555  23.982  1.00  0.00     0.123 C 
ATOM     11  N   UNL A   1      32.458  25.167  25.305  1.00  0.00    -0.337 N 
ATOM     12  C   UNL A   1      32.019  26.463  25.577  1.00  0.00     0.270 C 
ATOM     13  O   UNL A   1      32.269  27.043  26.642  1.00  0.00    -0.267 OA
BRANCH   6  14
ATOM     14  N   UNL A   1      33.737  21.687  24.636  1.00  0.00    -0.255 N 
ATOM     15  C   UNL A   1      32.150  18.745  23.130  1.00  0.00     0.048 C 
ATOM     16  C   UNL A   1      32.778  19.798  23.956  1.00  0.00    -0.013 A 
ATOM     17  C   UNL A   1      33.164  19.750  25.307  1.00  0.00     0.138 A 
ATOM     18  C   UNL A   1      33.115  21.077  23.571  1.00  0.00     0.113 A 
ATOM     19  N   UNL A   1      33.702  20.895  25.727  1.00  0.00    -0.180 NA
ENDBRANCH   6  14
BRANCH  12  20
ATOM     20  C   UNL A   1      31.300  27.139  24.527  1.00  0.00     0.105 A 
ATOM     21  C   UNL A   1      31.749  28.024  23.561  1.00  0.00     0.042 A 
ATOM     22  N   UNL A   1      29.948  26.998  24.334  1.00  0.00    -0.351 N 
ATOM     23  C   UNL A   1      30.610  28.622  22.963  1.00  0.00     0.000 A 
ATOM     24  C   UNL A   1      29.489  27.968  23.473  1.00  0.00     0.046 A 
ATOM     25  H   UNL A   1      29.388  26.302  24.751  1.00  0.00     0.167 HD
ATOM     26  C   UNL A   1      30.430  29.690  22.066  1.00  0.00     0.010 A 
ATOM     27  C   UNL A   1      28.184  28.324  23.120  1.00  0.00     0.026 A 
ATOM     28  C   UNL A   1      29.132  30.075  21.720  1.00  0.00     0.001 A 
ATOM     29  C   UNL A   1      28.028  29.399  22.239  1.00  0.00     0.002 A 
ENDBRANCH  12  20
ENDBRANCH   4   6
ENDBRANCH   3   4
ENDBRANCH   2   3
ENDBRANCH   1   2
BRANCH   1  30
ATOM     30  O   UNL A   1      39.028  23.162  26.535  1.00  0.00    -0.458 OA
BRANCH  30  31
ATOM     31  C   UNL A   1      40.125  23.296  27.309  1.00  0.00     0.338 C 
ATOM     32  O   UNL A   1      40.591  22.432  28.060  1.00  0.00    -0.246 OA
BRANCH  31  33
ATOM     33  C   UNL A   1      40.646  24.656  27.301  1.00  0.00     0.060 A 
ATOM     34  C   UNL A   1      41.832  24.879  28.007  1.00  0.00     0.016 A 
ATOM     35  C   UNL A   1      39.808  25.700  26.906  1.00  0.00     0.016 A 
ATOM     36  C   UNL A   1      42.083  26.140  28.501  1.00  0.00     0.010 A 
ATOM     37  C   UNL A   1      40.067  26.966  27.389  1.00  0.00     0.010 A 
ATOM     38  C   UNL A   1      41.146  27.148  28.261  1.00  0.00    -0.014 A 
BRANCH  38  39
ATOM     39  C   UNL A   1      41.300  28.397  28.986  1.00  0.00     0.031 A 
ATOM     40  C   UNL A   1      42.386  29.292  28.522  1.00  0.00     0.074 A 
ATOM     41  C   UNL A   1      40.400  28.773  29.916  1.00  0.00     0.049 A 
ATOM     42  N   UNL A   1      43.287  29.900  29.220  1.00  0.00    -0.248 NA
ATOM     43  C   UNL A   1      42.517  29.488  27.069  1.00  0.00     0.031 C 
ATOM     44  C   UNL A   1      39.143  28.095  30.255  1.00  0.00     0.029 A 
ATOM     45  N   UNL A   1      40.340  29.927  30.640  1.00  0.00    -0.354 N 
ATOM     46  C   UNL A   1      43.977  30.710  28.325  1.00  0.00     0.074 A 
ATOM     47  C   UNL A   1      43.552  30.322  27.007  1.00  0.00     0.031 C 
ATOM     48  C   UNL A   1      38.336  28.963  30.900  1.00  0.00     0.029 A 
ATOM     49  C   UNL A   1      39.069  30.199  31.125  1.00  0.00     0.049 A 
ATOM     50  H   UNL A   1      41.118  30.508  30.801  1.00  0.00     0.167 HD
ATOM     51  C   UNL A   1      44.702  31.783  28.737  1.00  0.00     0.034 A 
ATOM     52  C   UNL A   1      38.602  31.390  31.571  1.00  0.00     0.034 A 
ATOM     53  C   UNL A   1      45.109  31.664  30.113  1.00  0.00     0.049 A 
ATOM     54  C   UNL A   1      39.768  32.219  31.950  1.00  0.00     0.074 A 
ATOM     55  C   UNL A   1      45.846  30.732  30.822  1.00  0.00     0.029 A 
ATOM     56  N   UNL A   1      44.479  32.430  31.064  1.00  0.00    -0.354 N 
ATOM     57  N   UNL A   1      40.580  31.922  32.928  1.00  0.00    -0.248 NA
ATOM     58  C   UNL A   1      40.293  33.176  30.986  1.00  0.00     0.031 C 
ATOM     59  C   UNL A   1      45.238  30.676  32.108  1.00  0.00     0.029 A 
ATOM     60  C   UNL A   1      44.187  31.596  32.117  1.00  0.00     0.049 A 
ATOM     61  H   UNL A   1      44.275  33.391  31.003  1.00  0.00     0.167 HD
ATOM     62  C   UNL A   1      41.835  32.305  32.483  1.00  0.00     0.074 A 
ATOM     63  C   UNL A   1      41.579  33.189  31.351  1.00  0.00     0.031 C 
ATOM     64  C   UNL A   1      42.962  31.648  32.889  1.00  0.00     0.034 A 
BRANCH  51  65
ATOM     65  C   UNL A   1      44.789  33.073  27.958  1.00  0.00     0.023 A 
ATOM     66  C   UNL A   1      43.961  34.141  28.349  1.00  0.00     0.031 A 
ATOM     67  C   UNL A   1      45.432  33.216  26.706  1.00  0.00     0.131 A 
ATOM     68  C   UNL A   1      43.759  35.243  27.499  1.00  0.00     0.055 A 
ATOM     69  C   UNL A   1      45.289  34.347  25.900  1.00  0.00     0.041 A 
ATOM     70  F   UNL A   1      46.151  32.232  26.149  1.00  0.00    -0.206 F 
ATOM     71  C   UNL A   1      44.427  35.359  26.282  1.00  0.00     0.022 A 
BRANCH  68  72
ATOM     72  S   UNL A   1      42.456  36.430  27.917  1.00  0.00     0.124 S 
ATOM     73  O   UNL A   1      42.240  37.103  26.639  1.00  0.00    -0.237 OA
ATOM     74  O   UNL A   1      41.385  35.549  28.370  1.00  0.00    -0.237 OA
ATOM     75  O   UNL A   1      43.070  37.254  28.955  1.00  0.00    -0.744 OA
ENDBRANCH  68  72
ENDBRANCH  51  65
BRANCH  52  76
ATOM     76  C   UNL A   1      37.235  31.911  31.321  1.00  0.00     0.023 A 
ATOM     77  C   UNL A   1      36.722  32.115  30.030  1.00  0.00     0.031 A 
ATOM     78  C   UNL A   1      36.328  32.052  32.401  1.00  0.00     0.131 A 
ATOM     79  C   UNL A   1      35.366  32.477  29.861  1.00  0.00     0.055 A 
ATOM     80  C   UNL A   1      34.999  32.434  32.230  1.00  0.00     0.041 A 
ATOM     81  F   UNL A   1      36.692  31.753  33.658  1.00  0.00    -0.206 F 
ATOM     82  C   UNL A   1      34.510  32.647  30.952  1.00  0.00     0.022 A 
BRANCH  79  83
ATOM     83  S   UNL A   1      34.674  32.644  28.186  1.00  0.00     0.124 S 
ATOM     84  O   UNL A   1      34.329  31.267  27.854  1.00  0.00    -0.237 OA
ATOM     85  O   UNL A   1      33.558  33.558  28.402  1.00  0.00    -0.237 OA
ATOM     86  O   UNL A   1      35.783  33.205  27.413  1.00  0.00    -0.744 OA
ENDBRANCH  79  83
ENDBRANCH  52  76
BRANCH  64  87
ATOM     87  C   UNL A   1      42.849  30.684  34.052  1.00  0.00     0.023 A 
ATOM     88  C   UNL A   1      42.263  29.402  33.956  1.00  0.00     0.031 A 
ATOM     89  C   UNL A   1      43.492  31.019  35.256  1.00  0.00     0.131 A 
ATOM     90  C   UNL A   1      42.321  28.513  35.046  1.00  0.00     0.055 A 
ATOM     91  C   UNL A   1      43.561  30.131  36.330  1.00  0.00     0.041 A 
ATOM     92  F   UNL A   1      44.105  32.206  35.393  1.00  0.00    -0.206 F 
ATOM     93  C   UNL A   1      42.971  28.874  36.230  1.00  0.00     0.022 A 
BRANCH  90  94
ATOM     94  S   UNL A   1      41.563  26.862  34.927  1.00  0.00     0.124 S 
ATOM     95  O   UNL A   1      41.163  26.573  36.299  1.00  0.00    -0.237 OA
ATOM     96  O   UNL A   1      40.478  27.079  33.972  1.00  0.00    -0.237 OA
ATOM     97  O   UNL A   1      42.652  26.023  34.423  1.00  0.00    -0.744 OA
ENDBRANCH  90  94
ENDBRANCH  64  87
ENDBRANCH  38  39
ENDBRANCH  31  33
ENDBRANCH  30  31
ENDBRANCH   1  30
TORSDOF 16
ENDMDL
