MODEL 1
REMARK VINA RESULT:     -12.2      0.000      0.000
REMARK SMILES O=C(OCCOC(=O)[C@H]1[NH2+]CC[C@H]1c1cccc(Oc2ccccc2)c1)c1ccc(-c2c3nc(c(-c4cc(S(=O)(=O)[O-])ccc4F)c4ccc([nH]4)c(-c4cc(S(=O)(=O)[O-])ccc4F)c4nc(c(-c5cc(S(=O)(=O)[O-])ccc5F)c5ccc2[nH]5)C=C4)C=C3)cc1
REMARK SMILES IDX 4 1 3 2 2 3 1 4 27 5 28 6 89 7 29 8 88 9 30 10 31 11 32 12
REMARK SMILES IDX 82 13 33 14 87 15 81 16 83 17 34 18 86 19 80 20 79 21 35 23
REMARK SMILES IDX 67 24 47 25 66 26 48 27 51 28 65 29 84 30 49 31 50 32 64 34
REMARK SMILES IDX 85 35 52 36 36 37 37 38 45 39 38 40 44 41 46 42 43 43 39 44
REMARK SMILES IDX 40 45 41 46 42 47 68 48 69 49 77 50 70 51 76 52 78 53 75 54
REMARK SMILES IDX 71 55 72 56 73 57 74 58 53 59 54 60 62 61 55 62 61 63 63 64
REMARK SMILES IDX 60 65 56 66 57 67 58 68 59 69 5 70 6 71 7 72 8 73 9 74 10 75
REMARK SMILES IDX 13 76 11 77 12 80 14 81 15 82 26 83 16 84 18 85 17 86 19 87
REMARK SMILES IDX 20 88 21 89 25 90 22 91 24 92 23 93
REMARK H PARENT 83 22 51 33 10 78 10 79
REMARK Flexibility Score: inf
ROOT
ATOM      1  C   UNL A   1      31.923  30.880  26.663  1.00  0.00     0.275 C 
ENDROOT
BRANCH   1   2
ATOM      2  O   UNL A   1      33.344  31.079  26.758  1.00  0.00    -0.458 OA
BRANCH   2   3
ATOM      3  C   UNL A   1      34.109  31.589  27.755  1.00  0.00     0.338 C 
ATOM      4  O   UNL A   1      33.690  32.604  28.316  1.00  0.00    -0.246 OA
BRANCH   3   5
ATOM      5  C   UNL A   1      35.438  31.040  28.219  1.00  0.00     0.060 A 
ATOM      6  C   UNL A   1      35.737  29.710  28.506  1.00  0.00     0.016 A 
ATOM      7  C   UNL A   1      36.495  31.968  28.365  1.00  0.00     0.016 A 
ATOM      8  C   UNL A   1      37.045  29.316  28.849  1.00  0.00     0.010 A 
ATOM      9  C   UNL A   1      37.811  31.574  28.694  1.00  0.00     0.010 A 
ATOM     10  C   UNL A   1      38.110  30.229  28.912  1.00  0.00    -0.014 A 
BRANCH  10  11
ATOM     11  C   UNL A   1      39.423  29.744  29.455  1.00  0.00     0.031 A 
ATOM     12  C   UNL A   1      39.745  30.141  30.848  1.00  0.00     0.074 A 
ATOM     13  C   UNL A   1      40.252  28.888  28.818  1.00  0.00     0.049 A 
ATOM     14  N   UNL A   1      40.723  29.730  31.599  1.00  0.00    -0.248 NA
ATOM     15  C   UNL A   1      38.893  31.181  31.439  1.00  0.00     0.031 C 
ATOM     16  C   UNL A   1      40.147  28.588  27.417  1.00  0.00     0.029 A 
ATOM     17  N   UNL A   1      41.275  28.058  29.215  1.00  0.00    -0.354 N 
ATOM     18  C   UNL A   1      40.627  30.482  32.754  1.00  0.00     0.074 A 
ATOM     19  C   UNL A   1      39.505  31.383  32.592  1.00  0.00     0.031 C 
ATOM     20  C   UNL A   1      40.832  27.481  27.109  1.00  0.00     0.029 A 
ATOM     21  C   UNL A   1      41.626  27.105  28.260  1.00  0.00     0.049 A 
ATOM     22  H   UNL A   1      41.718  28.128  30.092  1.00  0.00     0.167 HD
ATOM     23  C   UNL A   1      41.432  30.429  33.836  1.00  0.00     0.034 A 
ATOM     24  C   UNL A   1      42.496  26.069  28.293  1.00  0.00     0.034 A 
ATOM     25  C   UNL A   1      42.591  29.580  33.910  1.00  0.00     0.049 A 
ATOM     26  C   UNL A   1      43.346  26.004  29.535  1.00  0.00     0.074 A 
ATOM     27  C   UNL A   1      43.563  29.528  34.887  1.00  0.00     0.029 A 
ATOM     28  N   UNL A   1      42.941  28.635  32.947  1.00  0.00    -0.354 N 
ATOM     29  N   UNL A   1      43.256  26.745  30.618  1.00  0.00    -0.248 NA
ATOM     30  C   UNL A   1      44.445  25.037  29.550  1.00  0.00     0.031 C 
ATOM     31  C   UNL A   1      44.522  28.586  34.497  1.00  0.00     0.029 A 
ATOM     32  C   UNL A   1      44.112  27.991  33.312  1.00  0.00     0.049 A 
ATOM     33  H   UNL A   1      42.430  28.452  32.126  1.00  0.00     0.167 HD
ATOM     34  C   UNL A   1      44.315  26.363  31.425  1.00  0.00     0.074 A 
ATOM     35  C   UNL A   1      44.971  25.262  30.745  1.00  0.00     0.031 C 
ATOM     36  C   UNL A   1      44.739  26.903  32.595  1.00  0.00     0.034 A 
BRANCH  23  37
ATOM     37  C   UNL A   1      41.099  31.406  34.926  1.00  0.00     0.023 A 
ATOM     38  C   UNL A   1      40.016  31.171  35.791  1.00  0.00     0.031 A 
ATOM     39  C   UNL A   1      41.729  32.659  34.970  1.00  0.00     0.131 A 
ATOM     40  C   UNL A   1      39.522  32.215  36.581  1.00  0.00     0.055 A 
ATOM     41  C   UNL A   1      41.295  33.662  35.837  1.00  0.00     0.041 A 
ATOM     42  F   UNL A   1      42.733  32.951  34.129  1.00  0.00    -0.206 F 
ATOM     43  C   UNL A   1      40.171  33.452  36.633  1.00  0.00     0.022 A 
BRANCH  40  44
ATOM     44  S   UNL A   1      37.904  32.002  37.374  1.00  0.00     0.124 S 
ATOM     45  O   UNL A   1      37.058  32.853  36.539  1.00  0.00    -0.237 OA
ATOM     46  O   UNL A   1      37.677  30.566  37.255  1.00  0.00    -0.237 OA
ATOM     47  O   UNL A   1      38.124  32.490  38.733  1.00  0.00    -0.744 OA
ENDBRANCH  40  44
ENDBRANCH  23  37
BRANCH  24  48
ATOM     48  C   UNL A   1      42.711  25.105  27.146  1.00  0.00     0.023 A 
ATOM     49  C   UNL A   1      42.129  23.818  27.139  1.00  0.00     0.031 A 
ATOM     50  C   UNL A   1      43.569  25.407  26.069  1.00  0.00     0.131 A 
ATOM     51  C   UNL A   1      42.444  22.891  26.121  1.00  0.00     0.055 A 
ATOM     52  C   UNL A   1      43.805  24.518  25.014  1.00  0.00     0.041 A 
ATOM     53  F   UNL A   1      44.217  26.582  26.019  1.00  0.00    -0.206 F 
ATOM     54  C   UNL A   1      43.256  23.244  25.045  1.00  0.00     0.022 A 
BRANCH  51  55
ATOM     55  S   UNL A   1      41.908  21.159  26.293  1.00  0.00     0.124 S 
ATOM     56  O   UNL A   1      40.497  21.247  25.936  1.00  0.00    -0.237 OA
ATOM     57  O   UNL A   1      42.771  20.477  25.335  1.00  0.00    -0.237 OA
ATOM     58  O   UNL A   1      42.176  20.855  27.697  1.00  0.00    -0.744 OA
ENDBRANCH  51  55
ENDBRANCH  24  48
BRANCH  36  59
ATOM     59  C   UNL A   1      45.961  26.271  33.199  1.00  0.00     0.023 A 
ATOM     60  C   UNL A   1      45.861  25.178  34.077  1.00  0.00     0.031 A 
ATOM     61  C   UNL A   1      47.232  26.802  32.930  1.00  0.00     0.131 A 
ATOM     62  C   UNL A   1      47.009  24.703  34.721  1.00  0.00     0.055 A 
ATOM     63  C   UNL A   1      48.380  26.272  33.513  1.00  0.00     0.041 A 
ATOM     64  F   UNL A   1      47.373  27.851  32.104  1.00  0.00    -0.206 F 
ATOM     65  C   UNL A   1      48.271  25.228  34.429  1.00  0.00     0.022 A 
BRANCH  62  66
ATOM     66  S   UNL A   1      46.812  23.482  36.046  1.00  0.00     0.124 S 
ATOM     67  O   UNL A   1      47.849  23.889  36.988  1.00  0.00    -0.237 OA
ATOM     68  O   UNL A   1      45.436  23.707  36.476  1.00  0.00    -0.237 OA
ATOM     69  O   UNL A   1      47.051  22.206  35.373  1.00  0.00    -0.744 OA
ENDBRANCH  62  66
ENDBRANCH  36  59
ENDBRANCH  10  11
ENDBRANCH   3   5
ENDBRANCH   2   3
ENDBRANCH   1   2
BRANCH   1  70
ATOM     70  C   UNL A   1      31.500  30.029  25.474  1.00  0.00     0.274 C 
BRANCH  70  71
ATOM     71  O   UNL A   1      32.620  29.513  24.759  1.00  0.00    -0.458 OA
BRANCH  71  72
ATOM     72  C   UNL A   1      32.888  28.196  24.970  1.00  0.00     0.365 C 
ATOM     73  O   UNL A   1      32.913  27.638  26.067  1.00  0.00    -0.245 OA
BRANCH  72  74
ATOM     74  C   UNL A   1      33.268  27.487  23.688  1.00  0.00     0.301 C 
ATOM     75  N   UNL A   1      33.767  26.110  23.910  1.00  0.00    -0.334 N 
ATOM     76  C   UNL A   1      32.148  27.346  22.648  1.00  0.00     0.095 C 
ATOM     77  C   UNL A   1      33.809  25.517  22.576  1.00  0.00     0.262 C 
ATOM     78  H   UNL A   1      33.133  25.591  24.517  1.00  0.00     0.347 HD
ATOM     79  H   UNL A   1      34.678  26.098  24.369  1.00  0.00     0.347 HD
ATOM     80  C   UNL A   1      32.799  26.299  21.728  1.00  0.00     0.076 C 
BRANCH  76  81
ATOM     81  C   UNL A   1      30.719  27.163  23.179  1.00  0.00    -0.034 A 
ATOM     82  C   UNL A   1      30.278  26.234  24.108  1.00  0.00     0.004 A 
ATOM     83  C   UNL A   1      29.720  28.005  22.678  1.00  0.00     0.051 A 
ATOM     84  C   UNL A   1      28.930  26.087  24.483  1.00  0.00     0.004 A 
ATOM     85  C   UNL A   1      28.368  27.933  23.080  1.00  0.00     0.127 A 
ATOM     86  C   UNL A   1      27.969  26.942  23.967  1.00  0.00     0.047 A 
BRANCH  85  87
ATOM     87  O   UNL A   1      27.372  28.783  22.631  1.00  0.00    -0.457 OA
BRANCH  87  88
ATOM     88  C   UNL A   1      27.731  30.101  22.483  1.00  0.00     0.127 A 
ATOM     89  C   UNL A   1      27.932  30.883  23.619  1.00  0.00     0.047 A 
ATOM     90  C   UNL A   1      27.943  30.628  21.209  1.00  0.00     0.047 A 
ATOM     91  C   UNL A   1      28.476  32.160  23.479  1.00  0.00     0.004 A 
ATOM     92  C   UNL A   1      28.539  31.876  21.075  1.00  0.00     0.004 A 
ATOM     93  C   UNL A   1      28.816  32.637  22.210  1.00  0.00     0.000 A 
ENDBRANCH  87  88
ENDBRANCH  85  87
ENDBRANCH  76  81
ENDBRANCH  72  74
ENDBRANCH  71  72
ENDBRANCH  70  71
ENDBRANCH   1  70
TORSDOF 17
ENDMDL
MODEL 2
REMARK VINA RESULT:     -12.2      5.356     10.605
REMARK SMILES O=C(OCCOC(=O)[C@H]1[NH2+]CC[C@H]1c1cccc(Oc2ccccc2)c1)c1ccc(-c2c3nc(c(-c4cc(S(=O)(=O)[O-])ccc4F)c4ccc([nH]4)c(-c4cc(S(=O)(=O)[O-])ccc4F)c4nc(c(-c5cc(S(=O)(=O)[O-])ccc5F)c5ccc2[nH]5)C=C4)C=C3)cc1
REMARK SMILES IDX 4 1 3 2 2 3 1 4 27 5 28 6 89 7 29 8 88 9 30 10 31 11 32 12
REMARK SMILES IDX 82 13 33 14 87 15 81 16 83 17 34 18 86 19 80 20 79 21 35 23
REMARK SMILES IDX 67 24 47 25 66 26 48 27 51 28 65 29 84 30 49 31 50 32 64 34
REMARK SMILES IDX 85 35 52 36 36 37 37 38 45 39 38 40 44 41 46 42 43 43 39 44
REMARK SMILES IDX 40 45 41 46 42 47 68 48 69 49 77 50 70 51 76 52 78 53 75 54
REMARK SMILES IDX 71 55 72 56 73 57 74 58 53 59 54 60 62 61 55 62 61 63 63 64
REMARK SMILES IDX 60 65 56 66 57 67 58 68 59 69 5 70 6 71 7 72 8 73 9 74 10 75
REMARK SMILES IDX 13 76 11 77 12 80 14 81 15 82 26 83 16 84 18 85 17 86 19 87
REMARK SMILES IDX 20 88 21 89 25 90 22 91 24 92 23 93
REMARK H PARENT 83 22 51 33 10 78 10 79
REMARK Flexibility Score: inf
ROOT
ATOM      1  C   UNL A   1      37.350  21.610  24.448  1.00  0.00     0.275 C 
ENDROOT
BRANCH   1   2
ATOM      2  O   UNL A   1      37.863  21.757  25.784  1.00  0.00    -0.458 OA
BRANCH   2   3
ATOM      3  C   UNL A   1      39.099  22.086  26.233  1.00  0.00     0.338 C 
ATOM      4  O   UNL A   1      39.959  21.203  26.199  1.00  0.00    -0.246 OA
BRANCH   3   5
ATOM      5  C   UNL A   1      39.507  23.428  26.795  1.00  0.00     0.060 A 
ATOM      6  C   UNL A   1      38.912  24.660  26.531  1.00  0.00     0.016 A 
ATOM      7  C   UNL A   1      40.597  23.437  27.696  1.00  0.00     0.016 A 
ATOM      8  C   UNL A   1      39.337  25.829  27.190  1.00  0.00     0.010 A 
ATOM      9  C   UNL A   1      41.016  24.606  28.370  1.00  0.00     0.010 A 
ATOM     10  C   UNL A   1      40.365  25.819  28.146  1.00  0.00    -0.014 A 
BRANCH  10  11
ATOM     11  C   UNL A   1      40.862  27.140  28.660  1.00  0.00     0.031 A 
ATOM     12  C   UNL A   1      42.244  27.517  28.275  1.00  0.00     0.074 A 
ATOM     13  C   UNL A   1      40.108  28.038  29.330  1.00  0.00     0.049 A 
ATOM     14  N   UNL A   1      42.848  28.656  28.449  1.00  0.00    -0.248 NA
ATOM     15  C   UNL A   1      43.064  26.456  27.677  1.00  0.00     0.031 C 
ATOM     16  C   UNL A   1      38.838  27.716  29.918  1.00  0.00     0.029 A 
ATOM     17  N   UNL A   1      40.210  29.387  29.585  1.00  0.00    -0.354 N 
ATOM     18  C   UNL A   1      44.140  28.445  28.007  1.00  0.00     0.074 A 
ATOM     19  C   UNL A   1      44.230  27.066  27.574  1.00  0.00     0.031 C 
ATOM     20  C   UNL A   1      38.147  28.824  30.210  1.00  0.00     0.029 A 
ATOM     21  C   UNL A   1      39.024  29.963  30.037  1.00  0.00     0.049 A 
ATOM     22  H   UNL A   1      41.042  29.899  29.459  1.00  0.00     0.167 HD
ATOM     23  C   UNL A   1      45.157  29.332  27.996  1.00  0.00     0.034 A 
ATOM     24  C   UNL A   1      38.686  31.246  30.303  1.00  0.00     0.034 A 
ATOM     25  C   UNL A   1      45.041  30.665  28.524  1.00  0.00     0.049 A 
ATOM     26  C   UNL A   1      39.830  32.223  30.233  1.00  0.00     0.074 A 
ATOM     27  C   UNL A   1      46.026  31.615  28.698  1.00  0.00     0.029 A 
ATOM     28  N   UNL A   1      43.852  31.233  28.982  1.00  0.00    -0.354 N 
ATOM     29  N   UNL A   1      41.063  32.000  29.831  1.00  0.00    -0.248 NA
ATOM     30  C   UNL A   1      39.582  33.586  30.707  1.00  0.00     0.031 C 
ATOM     31  C   UNL A   1      45.445  32.738  29.298  1.00  0.00     0.029 A 
ATOM     32  C   UNL A   1      44.081  32.522  29.432  1.00  0.00     0.049 A 
ATOM     33  H   UNL A   1      42.978  30.781  28.986  1.00  0.00     0.167 HD
ATOM     34  C   UNL A   1      41.749  33.184  30.046  1.00  0.00     0.074 A 
ATOM     35  C   UNL A   1      40.770  34.144  30.523  1.00  0.00     0.031 C 
ATOM     36  C   UNL A   1      43.074  33.442  29.912  1.00  0.00     0.034 A 
BRANCH  23  37
ATOM     37  C   UNL A   1      46.465  28.795  27.492  1.00  0.00     0.023 A 
ATOM     38  C   UNL A   1      46.708  28.683  26.111  1.00  0.00     0.031 A 
ATOM     39  C   UNL A   1      47.380  28.210  28.381  1.00  0.00     0.131 A 
ATOM     40  C   UNL A   1      47.776  27.900  25.658  1.00  0.00     0.055 A 
ATOM     41  C   UNL A   1      48.501  27.518  27.921  1.00  0.00     0.041 A 
ATOM     42  F   UNL A   1      47.166  28.243  29.705  1.00  0.00    -0.206 F 
ATOM     43  C   UNL A   1      48.692  27.340  26.552  1.00  0.00     0.022 A 
BRANCH  40  44
ATOM     44  S   UNL A   1      47.828  27.451  23.901  1.00  0.00     0.124 S 
ATOM     45  O   UNL A   1      49.198  27.818  23.548  1.00  0.00    -0.237 OA
ATOM     46  O   UNL A   1      47.538  26.022  23.929  1.00  0.00    -0.237 OA
ATOM     47  O   UNL A   1      46.790  28.288  23.305  1.00  0.00    -0.744 OA
ENDBRANCH  40  44
ENDBRANCH  23  37
BRANCH  24  48
ATOM     48  C   UNL A   1      37.309  31.684  30.755  1.00  0.00     0.023 A 
ATOM     49  C   UNL A   1      36.405  32.316  29.873  1.00  0.00     0.031 A 
ATOM     50  C   UNL A   1      36.890  31.562  32.095  1.00  0.00     0.131 A 
ATOM     51  C   UNL A   1      35.177  32.828  30.346  1.00  0.00     0.055 A 
ATOM     52  C   UNL A   1      35.633  31.988  32.539  1.00  0.00     0.041 A 
ATOM     53  F   UNL A   1      37.704  31.032  33.021  1.00  0.00    -0.206 F 
ATOM     54  C   UNL A   1      34.774  32.642  31.667  1.00  0.00     0.022 A 
BRANCH  51  55
ATOM     55  S   UNL A   1      34.167  33.881  29.255  1.00  0.00     0.124 S 
ATOM     56  O   UNL A   1      33.226  34.472  30.200  1.00  0.00    -0.237 OA
ATOM     57  O   UNL A   1      35.166  34.783  28.693  1.00  0.00    -0.237 OA
ATOM     58  O   UNL A   1      33.583  32.933  28.308  1.00  0.00    -0.744 OA
ENDBRANCH  51  55
ENDBRANCH  24  48
BRANCH  36  59
ATOM     59  C   UNL A   1      43.505  34.837  30.272  1.00  0.00     0.023 A 
ATOM     60  C   UNL A   1      43.509  35.870  29.320  1.00  0.00     0.031 A 
ATOM     61  C   UNL A   1      43.964  35.116  31.569  1.00  0.00     0.131 A 
ATOM     62  C   UNL A   1      44.041  37.119  29.659  1.00  0.00     0.055 A 
ATOM     63  C   UNL A   1      44.417  36.385  31.921  1.00  0.00     0.041 A 
ATOM     64  F   UNL A   1      43.985  34.157  32.508  1.00  0.00    -0.206 F 
ATOM     65  C   UNL A   1      44.476  37.390  30.959  1.00  0.00     0.022 A 
BRANCH  62  66
ATOM     66  S   UNL A   1      44.284  38.340  28.341  1.00  0.00     0.124 S 
ATOM     67  O   UNL A   1      45.695  38.161  28.020  1.00  0.00    -0.237 OA
ATOM     68  O   UNL A   1      43.337  37.895  27.324  1.00  0.00    -0.237 OA
ATOM     69  O   UNL A   1      43.950  39.609  28.986  1.00  0.00    -0.744 OA
ENDBRANCH  62  66
ENDBRANCH  36  59
ENDBRANCH  10  11
ENDBRANCH   3   5
ENDBRANCH   2   3
ENDBRANCH   1   2
BRANCH   1  70
ATOM     70  C   UNL A   1      35.946  22.170  24.264  1.00  0.00     0.274 C 
BRANCH  70  71
ATOM     71  O   UNL A   1      35.860  23.538  24.653  1.00  0.00    -0.458 OA
BRANCH  71  72
ATOM     72  C   UNL A   1      35.052  23.792  25.717  1.00  0.00     0.365 C 
ATOM     73  O   UNL A   1      35.067  23.182  26.787  1.00  0.00    -0.245 OA
BRANCH  72  74
ATOM     74  C   UNL A   1      34.031  24.863  25.406  1.00  0.00     0.301 C 
ATOM     75  N   UNL A   1      34.403  25.704  24.244  1.00  0.00    -0.334 N 
ATOM     76  C   UNL A   1      32.612  24.361  25.099  1.00  0.00     0.095 C 
ATOM     77  C   UNL A   1      33.195  26.466  23.941  1.00  0.00     0.262 C 
ATOM     78  H   UNL A   1      34.673  25.123  23.451  1.00  0.00     0.347 HD
ATOM     79  H   UNL A   1      35.202  26.306  24.443  1.00  0.00     0.347 HD
ATOM     80  C   UNL A   1      32.022  25.648  24.496  1.00  0.00     0.076 C 
BRANCH  76  81
ATOM     81  C   UNL A   1      32.488  23.012  24.379  1.00  0.00    -0.034 A 
ATOM     82  C   UNL A   1      32.504  22.783  23.012  1.00  0.00     0.004 A 
ATOM     83  C   UNL A   1      32.321  21.863  25.160  1.00  0.00     0.051 A 
ATOM     84  C   UNL A   1      32.307  21.516  22.432  1.00  0.00     0.004 A 
ATOM     85  C   UNL A   1      32.188  20.566  24.618  1.00  0.00     0.127 A 
ATOM     86  C   UNL A   1      32.149  20.400  23.240  1.00  0.00     0.047 A 
BRANCH  85  87
ATOM     87  O   UNL A   1      32.066  19.411  25.371  1.00  0.00    -0.457 OA
BRANCH  87  88
ATOM     88  C   UNL A   1      32.965  18.412  25.085  1.00  0.00     0.127 A 
ATOM     89  C   UNL A   1      32.525  17.090  25.055  1.00  0.00     0.047 A 
ATOM     90  C   UNL A   1      34.288  18.731  24.776  1.00  0.00     0.047 A 
ATOM     91  C   UNL A   1      33.385  16.098  24.582  1.00  0.00     0.004 A 
ATOM     92  C   UNL A   1      35.122  17.752  24.250  1.00  0.00     0.004 A 
ATOM     93  C   UNL A   1      34.667  16.438  24.143  1.00  0.00     0.000 A 
ENDBRANCH  87  88
ENDBRANCH  85  87
ENDBRANCH  76  81
ENDBRANCH  72  74
ENDBRANCH  71  72
ENDBRANCH  70  71
ENDBRANCH   1  70
TORSDOF 17
ENDMDL
MODEL 3
REMARK VINA RESULT:     -12.1      1.404      3.514
REMARK SMILES O=C(OCCOC(=O)[C@H]1[NH2+]CC[C@H]1c1cccc(Oc2ccccc2)c1)c1ccc(-c2c3nc(c(-c4cc(S(=O)(=O)[O-])ccc4F)c4ccc([nH]4)c(-c4cc(S(=O)(=O)[O-])ccc4F)c4nc(c(-c5cc(S(=O)(=O)[O-])ccc5F)c5ccc2[nH]5)C=C4)C=C3)cc1
REMARK SMILES IDX 4 1 3 2 2 3 1 4 27 5 28 6 89 7 29 8 88 9 30 10 31 11 32 12
REMARK SMILES IDX 82 13 33 14 87 15 81 16 83 17 34 18 86 19 80 20 79 21 35 23
REMARK SMILES IDX 67 24 47 25 66 26 48 27 51 28 65 29 84 30 49 31 50 32 64 34
REMARK SMILES IDX 85 35 52 36 36 37 37 38 45 39 38 40 44 41 46 42 43 43 39 44
REMARK SMILES IDX 40 45 41 46 42 47 68 48 69 49 77 50 70 51 76 52 78 53 75 54
REMARK SMILES IDX 71 55 72 56 73 57 74 58 53 59 54 60 62 61 55 62 61 63 63 64
REMARK SMILES IDX 60 65 56 66 57 67 58 68 59 69 5 70 6 71 7 72 8 73 9 74 10 75
REMARK SMILES IDX 13 76 11 77 12 80 14 81 15 82 26 83 16 84 18 85 17 86 19 87
REMARK SMILES IDX 20 88 21 89 25 90 22 91 24 92 23 93
REMARK H PARENT 83 22 51 33 10 78 10 79
REMARK Flexibility Score: inf
ROOT
ATOM      1  C   UNL A   1      32.447  30.106  27.248  1.00  0.00     0.275 C 
ENDROOT
BRANCH   1   2
ATOM      2  O   UNL A   1      33.407  31.148  27.003  1.00  0.00    -0.458 OA
BRANCH   2   3
ATOM      3  C   UNL A   1      34.319  31.731  27.820  1.00  0.00     0.338 C 
ATOM      4  O   UNL A   1      34.072  32.876  28.204  1.00  0.00    -0.246 OA
BRANCH   3   5
ATOM      5  C   UNL A   1      35.619  31.112  28.277  1.00  0.00     0.060 A 
ATOM      6  C   UNL A   1      35.849  29.768  28.561  1.00  0.00     0.016 A 
ATOM      7  C   UNL A   1      36.725  31.983  28.418  1.00  0.00     0.016 A 
ATOM      8  C   UNL A   1      37.136  29.305  28.897  1.00  0.00     0.010 A 
ATOM      9  C   UNL A   1      38.020  31.519  28.740  1.00  0.00     0.010 A 
ATOM     10  C   UNL A   1      38.248  30.160  28.955  1.00  0.00    -0.014 A 
BRANCH  10  11
ATOM     11  C   UNL A   1      39.536  29.605  29.492  1.00  0.00     0.031 A 
ATOM     12  C   UNL A   1      39.881  29.976  30.886  1.00  0.00     0.074 A 
ATOM     13  C   UNL A   1      40.319  28.713  28.847  1.00  0.00     0.049 A 
ATOM     14  N   UNL A   1      40.839  29.510  31.632  1.00  0.00    -0.248 NA
ATOM     15  C   UNL A   1      39.084  31.053  31.488  1.00  0.00     0.031 C 
ATOM     16  C   UNL A   1      40.195  28.429  27.444  1.00  0.00     0.029 A 
ATOM     17  N   UNL A   1      41.300  27.829  29.235  1.00  0.00    -0.354 N 
ATOM     18  C   UNL A   1      40.784  30.258  32.792  1.00  0.00     0.074 A 
ATOM     19  C   UNL A   1      39.708  31.215  32.639  1.00  0.00     0.031 C 
ATOM     20  C   UNL A   1      40.824  27.291  27.126  1.00  0.00     0.029 A 
ATOM     21  C   UNL A   1      41.600  26.867  28.272  1.00  0.00     0.049 A 
ATOM     22  H   UNL A   1      41.748  27.871  30.111  1.00  0.00     0.167 HD
ATOM     23  C   UNL A   1      41.588  30.157  33.872  1.00  0.00     0.034 A 
ATOM     24  C   UNL A   1      42.417  25.788  28.296  1.00  0.00     0.034 A 
ATOM     25  C   UNL A   1      42.702  29.250  33.936  1.00  0.00     0.049 A 
ATOM     26  C   UNL A   1      43.265  25.672  29.535  1.00  0.00     0.074 A 
ATOM     27  C   UNL A   1      43.673  29.142  34.911  1.00  0.00     0.029 A 
ATOM     28  N   UNL A   1      43.002  28.295  32.966  1.00  0.00    -0.354 N 
ATOM     29  N   UNL A   1      43.215  26.409  30.623  1.00  0.00    -0.248 NA
ATOM     30  C   UNL A   1      44.314  24.650  29.540  1.00  0.00     0.031 C 
ATOM     31  C   UNL A   1      44.582  28.155  34.511  1.00  0.00     0.029 A 
ATOM     32  C   UNL A   1      44.139  27.591  33.323  1.00  0.00     0.049 A 
ATOM     33  H   UNL A   1      42.480  28.144  32.145  1.00  0.00     0.167 HD
ATOM     34  C   UNL A   1      44.255  25.968  31.425  1.00  0.00     0.074 A 
ATOM     35  C   UNL A   1      44.854  24.839  30.735  1.00  0.00     0.031 C 
ATOM     36  C   UNL A   1      44.709  26.478  32.597  1.00  0.00     0.034 A 
BRANCH  23  37
ATOM     37  C   UNL A   1      41.307  31.142  34.969  1.00  0.00     0.023 A 
ATOM     38  C   UNL A   1      40.207  30.963  35.827  1.00  0.00     0.031 A 
ATOM     39  C   UNL A   1      42.010  32.355  35.029  1.00  0.00     0.131 A 
ATOM     40  C   UNL A   1      39.771  32.028  36.624  1.00  0.00     0.055 A 
ATOM     41  C   UNL A   1      41.631  33.373  35.903  1.00  0.00     0.041 A 
ATOM     42  F   UNL A   1      43.035  32.594  34.196  1.00  0.00    -0.206 F 
ATOM     43  C   UNL A   1      40.492  33.223  36.691  1.00  0.00     0.022 A 
BRANCH  40  44
ATOM     44  S   UNL A   1      38.138  31.904  37.406  1.00  0.00     0.124 S 
ATOM     45  O   UNL A   1      38.446  32.288  38.782  1.00  0.00    -0.237 OA
ATOM     46  O   UNL A   1      37.345  32.858  36.641  1.00  0.00    -0.237 OA
ATOM     47  O   UNL A   1      37.778  30.500  37.221  1.00  0.00    -0.744 OA
ENDBRANCH  40  44
ENDBRANCH  23  37
BRANCH  24  48
ATOM     48  C   UNL A   1      42.580  24.823  27.142  1.00  0.00     0.023 A 
ATOM     49  C   UNL A   1      41.963  23.553  27.143  1.00  0.00     0.031 A 
ATOM     50  C   UNL A   1      43.423  25.105  26.047  1.00  0.00     0.131 A 
ATOM     51  C   UNL A   1      42.230  22.621  26.116  1.00  0.00     0.055 A 
ATOM     52  C   UNL A   1      43.611  24.213  24.985  1.00  0.00     0.041 A 
ATOM     53  F   UNL A   1      44.102  26.261  25.986  1.00  0.00    -0.206 F 
ATOM     54  C   UNL A   1      43.027  22.955  25.023  1.00  0.00     0.022 A 
BRANCH  51  55
ATOM     55  S   UNL A   1      41.650  20.903  26.294  1.00  0.00     0.124 S 
ATOM     56  O   UNL A   1      40.253  21.017  25.891  1.00  0.00    -0.237 OA
ATOM     57  O   UNL A   1      42.528  20.188  25.374  1.00  0.00    -0.237 OA
ATOM     58  O   UNL A   1      41.865  20.615  27.710  1.00  0.00    -0.744 OA
ENDBRANCH  51  55
ENDBRANCH  24  48
BRANCH  36  59
ATOM     59  C   UNL A   1      45.899  25.780  33.194  1.00  0.00     0.023 A 
ATOM     60  C   UNL A   1      45.747  24.677  34.050  1.00  0.00     0.031 A 
ATOM     61  C   UNL A   1      47.194  26.259  32.939  1.00  0.00     0.131 A 
ATOM     62  C   UNL A   1      46.870  24.138  34.689  1.00  0.00     0.055 A 
ATOM     63  C   UNL A   1      48.315  25.667  33.516  1.00  0.00     0.041 A 
ATOM     64  F   UNL A   1      47.385  27.316  32.134  1.00  0.00    -0.206 F 
ATOM     65  C   UNL A   1      48.155  24.612  34.412  1.00  0.00     0.022 A 
BRANCH  62  66
ATOM     66  S   UNL A   1      46.613  22.902  35.990  1.00  0.00     0.124 S 
ATOM     67  O   UNL A   1      46.859  21.655  35.274  1.00  0.00    -0.237 OA
ATOM     68  O   UNL A   1      47.617  23.277  36.980  1.00  0.00    -0.237 OA
ATOM     69  O   UNL A   1      45.226  23.120  36.399  1.00  0.00    -0.744 OA
ENDBRANCH  62  66
ENDBRANCH  36  59
ENDBRANCH  10  11
ENDBRANCH   3   5
ENDBRANCH   2   3
ENDBRANCH   1   2
BRANCH   1  70
ATOM     70  C   UNL A   1      31.990  29.382  25.989  1.00  0.00     0.274 C 
BRANCH  70  71
ATOM     71  O   UNL A   1      33.089  28.984  25.172  1.00  0.00    -0.458 OA
BRANCH  71  72
ATOM     72  C   UNL A   1      32.841  28.955  23.835  1.00  0.00     0.365 C 
ATOM     73  O   UNL A   1      33.695  28.972  22.949  1.00  0.00    -0.245 OA
BRANCH  72  74
ATOM     74  C   UNL A   1      31.359  29.007  23.537  1.00  0.00     0.301 C 
ATOM     75  N   UNL A   1      31.041  29.738  22.288  1.00  0.00    -0.334 N 
ATOM     76  C   UNL A   1      30.660  27.647  23.394  1.00  0.00     0.095 C 
ATOM     77  C   UNL A   1      29.633  29.440  22.037  1.00  0.00     0.262 C 
ATOM     78  H   UNL A   1      31.624  29.407  21.519  1.00  0.00     0.347 HD
ATOM     79  H   UNL A   1      31.217  30.739  22.371  1.00  0.00     0.347 HD
ATOM     80  C   UNL A   1      29.343  28.115  22.752  1.00  0.00     0.076 C 
BRANCH  76  81
ATOM     81  C   UNL A   1      31.480  26.499  22.788  1.00  0.00    -0.034 A 
ATOM     82  C   UNL A   1      31.834  26.327  21.460  1.00  0.00     0.004 A 
ATOM     83  C   UNL A   1      31.923  25.485  23.645  1.00  0.00     0.051 A 
ATOM     84  C   UNL A   1      32.527  25.201  20.978  1.00  0.00     0.004 A 
ATOM     85  C   UNL A   1      32.677  24.374  23.211  1.00  0.00     0.127 A 
ATOM     86  C   UNL A   1      32.952  24.219  21.858  1.00  0.00     0.047 A 
BRANCH  85  87
ATOM     87  O   UNL A   1      33.163  23.383  24.046  1.00  0.00    -0.457 OA
BRANCH  87  88
ATOM     88  C   UNL A   1      34.504  23.453  24.342  1.00  0.00     0.127 A 
ATOM     89  C   UNL A   1      34.908  24.084  25.517  1.00  0.00     0.047 A 
ATOM     90  C   UNL A   1      35.436  22.849  23.499  1.00  0.00     0.047 A 
ATOM     91  C   UNL A   1      36.243  23.993  25.913  1.00  0.00     0.004 A 
ATOM     92  C   UNL A   1      36.752  22.708  23.925  1.00  0.00     0.004 A 
ATOM     93  C   UNL A   1      37.153  23.270  25.137  1.00  0.00     0.000 A 
ENDBRANCH  87  88
ENDBRANCH  85  87
ENDBRANCH  76  81
ENDBRANCH  72  74
ENDBRANCH  71  72
ENDBRANCH  70  71
ENDBRANCH   1  70
TORSDOF 17
ENDMDL
