MODEL 1
REMARK VINA RESULT:     -12.6      0.000      0.000
REMARK SMILES CC(C)(C)c1cc2c(cc1Cl)C=C(C(=O)OCCOC(=O)c1ccc(-c3c4nc(c(-c5cc(S(=O)(=O)[O-])ccc5F)c5ccc([nH]5)c(-c5cc(S(=O)(=O)[O-])ccc5F)c5nc(c(-c6cc(S(=O)(=O)[O-])ccc6F)c6ccc3[nH]6)C=C5)C=C4)cc1)[C@@H](C(F)(F)F)O2
REMARK SMILES IDX 18 1 17 2 16 3 14 4 15 5 13 6 5 7 6 8 10 9 7 10 9 11 11 12
REMARK SMILES IDX 8 13 90 14 12 15 85 16 2 17 1 18 3 19 4 20 86 21 87 22 88 23
REMARK SMILES IDX 89 24 19 25 20 26 21 27 22 28 23 29 84 30 24 31 83 32 25 33
REMARK SMILES IDX 26 34 27 35 77 36 28 37 82 38 76 39 78 40 29 41 81 42 75 43
REMARK SMILES IDX 74 44 30 46 62 47 42 48 61 49 43 50 46 51 60 52 79 53 44 54
REMARK SMILES IDX 45 55 59 57 80 58 47 59 31 60 32 61 40 62 33 63 39 64 41 65
REMARK SMILES IDX 38 66 34 67 35 68 36 69 37 70 63 71 64 72 72 73 65 74 71 75
REMARK SMILES IDX 73 76 70 77 66 78 67 79 68 80 69 81 48 82 49 83 57 84 50 85
REMARK SMILES IDX 56 86 58 87 55 88 51 89 52 90 53 91 54 92
REMARK H PARENT 78 45 46 56
REMARK Flexibility Score: inf
ROOT
ATOM      1  C   UNL A   1      37.463  20.328  24.779  1.00  0.00     0.275 C 
ENDROOT
BRANCH   1   2
ATOM      2  C   UNL A   1      35.959  20.314  25.059  1.00  0.00     0.275 C 
BRANCH   2   3
ATOM      3  O   UNL A   1      35.273  21.370  24.350  1.00  0.00    -0.459 OA
BRANCH   3   4
ATOM      4  C   UNL A   1      33.922  21.313  24.397  1.00  0.00     0.338 C 
ATOM      5  O   UNL A   1      33.228  20.340  24.142  1.00  0.00    -0.246 OA
BRANCH   4   6
ATOM      6  C   UNL A   1      33.354  22.600  24.838  1.00  0.00     0.087 C 
ATOM      7  C   UNL A   1      32.699  27.568  25.576  1.00  0.00    -0.020 A 
ATOM      8  C   UNL A   1      32.326  26.384  26.269  1.00  0.00     0.053 A 
ATOM      9  C   UNL A   1      33.302  27.389  24.310  1.00  0.00     0.045 A 
ATOM     10  C   UNL A   1      32.600  25.104  25.776  1.00  0.00     0.128 A 
ATOM     11  C   UNL A   1      33.585  26.108  23.825  1.00  0.00     0.032 A 
ATOM     12  Cl  UNL A   1      33.726  28.666  23.226  1.00  0.00    -0.084 Cl
ATOM     13  C   UNL A   1      33.255  24.976  24.568  1.00  0.00     0.019 A 
ATOM     14  O   UNL A   1      32.200  24.038  26.534  1.00  0.00    -0.475 OA
ATOM     15  C   UNL A   1      33.644  23.671  24.094  1.00  0.00     0.027 C 
ATOM     16  C   UNL A   1      32.614  22.691  26.140  1.00  0.00     0.316 C 
BRANCH   7  17
ATOM     17  C   UNL A   1      32.422  28.955  26.207  1.00  0.00    -0.012 C 
ATOM     18  C   UNL A   1      31.725  28.860  27.591  1.00  0.00     0.016 C 
ATOM     19  C   UNL A   1      31.481  29.754  25.284  1.00  0.00     0.016 C 
ATOM     20  C   UNL A   1      33.719  29.759  26.472  1.00  0.00     0.016 C 
ENDBRANCH   7  17
BRANCH  16  21
ATOM     21  C   UNL A   1      33.420  22.080  27.298  1.00  0.00     0.430 C 
ATOM     22  F   UNL A   1      34.710  22.500  27.271  1.00  0.00    -0.167 F 
ATOM     23  F   UNL A   1      32.927  22.450  28.505  1.00  0.00    -0.167 F 
ATOM     24  F   UNL A   1      33.434  20.730  27.261  1.00  0.00    -0.167 F 
ENDBRANCH  16  21
ENDBRANCH   4   6
ENDBRANCH   3   4
ENDBRANCH   2   3
ENDBRANCH   1   2
BRANCH   1  25
ATOM     25  O   UNL A   1      38.085  21.469  25.394  1.00  0.00    -0.458 OA
BRANCH  25  26
ATOM     26  C   UNL A   1      39.242  21.211  26.045  1.00  0.00     0.338 C 
ATOM     27  O   UNL A   1      39.879  20.171  26.034  1.00  0.00    -0.246 OA
BRANCH  26  28
ATOM     28  C   UNL A   1      39.714  22.428  26.720  1.00  0.00     0.060 A 
ATOM     29  C   UNL A   1      40.764  22.398  27.628  1.00  0.00     0.016 A 
ATOM     30  C   UNL A   1      39.202  23.647  26.295  1.00  0.00     0.016 A 
ATOM     31  C   UNL A   1      41.282  23.609  28.110  1.00  0.00     0.010 A 
ATOM     32  C   UNL A   1      39.843  24.836  26.623  1.00  0.00     0.010 A 
ATOM     33  C   UNL A   1      40.862  24.849  27.578  1.00  0.00    -0.014 A 
BRANCH  33  34
ATOM     34  C   UNL A   1      41.468  26.143  28.025  1.00  0.00     0.031 A 
ATOM     35  C   UNL A   1      42.876  26.531  27.621  1.00  0.00     0.074 A 
ATOM     36  C   UNL A   1      40.764  26.967  28.830  1.00  0.00     0.049 A 
ATOM     37  N   UNL A   1      43.534  27.633  27.888  1.00  0.00    -0.248 NA
ATOM     38  C   UNL A   1      43.669  25.549  26.863  1.00  0.00     0.031 C 
ATOM     39  C   UNL A   1      39.451  26.662  29.403  1.00  0.00     0.029 A 
ATOM     40  N   UNL A   1      41.035  28.232  29.294  1.00  0.00    -0.354 N 
ATOM     41  C   UNL A   1      44.810  27.456  27.358  1.00  0.00     0.074 A 
ATOM     42  C   UNL A   1      44.867  26.111  26.841  1.00  0.00     0.031 C 
ATOM     43  C   UNL A   1      38.993  27.738  30.057  1.00  0.00     0.029 A 
ATOM     44  C   UNL A   1      39.996  28.797  30.002  1.00  0.00     0.049 A 
ATOM     45  H   UNL A   1      41.891  28.693  29.134  1.00  0.00     0.167 HD
ATOM     46  C   UNL A   1      45.824  28.349  27.253  1.00  0.00     0.034 A 
ATOM     47  C   UNL A   1      39.852  30.033  30.528  1.00  0.00     0.034 A 
ATOM     48  C   UNL A   1      45.730  29.711  27.703  1.00  0.00     0.049 A 
ATOM     49  C   UNL A   1      40.956  31.041  30.328  1.00  0.00     0.074 A 
ATOM     50  C   UNL A   1      46.659  30.724  27.556  1.00  0.00     0.029 A 
ATOM     51  N   UNL A   1      44.641  30.258  28.366  1.00  0.00    -0.354 N 
ATOM     52  N   UNL A   1      42.104  30.892  29.708  1.00  0.00    -0.248 NA
ATOM     53  C   UNL A   1      40.748  32.387  30.880  1.00  0.00     0.031 C 
ATOM     54  C   UNL A   1      46.158  31.867  28.179  1.00  0.00     0.029 A 
ATOM     55  C   UNL A   1      44.883  31.591  28.649  1.00  0.00     0.049 A 
ATOM     56  H   UNL A   1      43.818  29.771  28.600  1.00  0.00     0.167 HD
ATOM     57  C   UNL A   1      42.741  32.128  29.776  1.00  0.00     0.074 A 
ATOM     58  C   UNL A   1      41.839  33.022  30.471  1.00  0.00     0.031 C 
ATOM     59  C   UNL A   1      43.967  32.484  29.316  1.00  0.00     0.034 A 
BRANCH  46  60
ATOM     60  C   UNL A   1      47.104  27.924  26.566  1.00  0.00     0.023 A 
ATOM     61  C   UNL A   1      47.239  28.059  25.170  1.00  0.00     0.031 A 
ATOM     62  C   UNL A   1      48.128  27.261  27.268  1.00  0.00     0.131 A 
ATOM     63  C   UNL A   1      48.355  27.512  24.523  1.00  0.00     0.055 A 
ATOM     64  C   UNL A   1      49.263  26.766  26.625  1.00  0.00     0.041 A 
ATOM     65  F   UNL A   1      48.045  27.093  28.598  1.00  0.00    -0.206 F 
ATOM     66  C   UNL A   1      49.373  26.877  25.243  1.00  0.00     0.022 A 
BRANCH  63  67
ATOM     67  S   UNL A   1      48.498  27.531  22.715  1.00  0.00     0.124 S 
ATOM     68  O   UNL A   1      49.777  28.211  22.521  1.00  0.00    -0.237 OA
ATOM     69  O   UNL A   1      48.497  26.106  22.394  1.00  0.00    -0.237 OA
ATOM     70  O   UNL A   1      47.325  28.279  22.276  1.00  0.00    -0.744 OA
ENDBRANCH  63  67
ENDBRANCH  46  60
BRANCH  47  71
ATOM     71  C   UNL A   1      38.560  30.397  31.187  1.00  0.00     0.023 A 
ATOM     72  C   UNL A   1      37.540  31.057  30.477  1.00  0.00     0.031 A 
ATOM     73  C   UNL A   1      38.379  30.199  32.567  1.00  0.00     0.131 A 
ATOM     74  C   UNL A   1      36.425  31.560  31.164  1.00  0.00     0.055 A 
ATOM     75  C   UNL A   1      37.231  30.634  33.233  1.00  0.00     0.041 A 
ATOM     76  F   UNL A   1      39.329  29.590  33.293  1.00  0.00    -0.206 F 
ATOM     77  C   UNL A   1      36.256  31.336  32.533  1.00  0.00     0.022 A 
BRANCH  74  78
ATOM     78  S   UNL A   1      35.235  32.651  30.334  1.00  0.00     0.124 S 
ATOM     79  O   UNL A   1      36.041  33.840  30.075  1.00  0.00    -0.237 OA
ATOM     80  O   UNL A   1      34.879  31.861  29.157  1.00  0.00    -0.237 OA
ATOM     81  O   UNL A   1      34.171  32.810  31.318  1.00  0.00    -0.744 OA
ENDBRANCH  74  78
ENDBRANCH  47  71
BRANCH  59  82
ATOM     82  C   UNL A   1      44.441  33.903  29.520  1.00  0.00     0.023 A 
ATOM     83  C   UNL A   1      44.114  34.893  28.572  1.00  0.00     0.031 A 
ATOM     84  C   UNL A   1      45.356  34.229  30.535  1.00  0.00     0.131 A 
ATOM     85  C   UNL A   1      44.740  36.144  28.628  1.00  0.00     0.055 A 
ATOM     86  C   UNL A   1      45.936  35.495  30.617  1.00  0.00     0.041 A 
ATOM     87  F   UNL A   1      45.709  33.315  31.452  1.00  0.00    -0.206 F 
ATOM     88  C   UNL A   1      45.642  36.453  29.651  1.00  0.00     0.022 A 
BRANCH  85  89
ATOM     89  S   UNL A   1      44.491  37.375  27.318  1.00  0.00     0.124 S 
ATOM     90  O   UNL A   1      45.741  37.275  26.568  1.00  0.00    -0.237 OA
ATOM     91  O   UNL A   1      43.310  36.859  26.632  1.00  0.00    -0.237 OA
ATOM     92  O   UNL A   1      44.299  38.627  28.042  1.00  0.00    -0.744 OA
ENDBRANCH  85  89
ENDBRANCH  59  82
ENDBRANCH  33  34
ENDBRANCH  26  28
ENDBRANCH  25  26
ENDBRANCH   1  25
TORSDOF 16
ENDMDL
MODEL 2
REMARK VINA RESULT:     -12.6      5.043     10.292
REMARK SMILES CC(C)(C)c1cc2c(cc1Cl)C=C(C(=O)OCCOC(=O)c1ccc(-c3c4nc(c(-c5cc(S(=O)(=O)[O-])ccc5F)c5ccc([nH]5)c(-c5cc(S(=O)(=O)[O-])ccc5F)c5nc(c(-c6cc(S(=O)(=O)[O-])ccc6F)c6ccc3[nH]6)C=C5)C=C4)cc1)[C@@H](C(F)(F)F)O2
REMARK SMILES IDX 18 1 17 2 16 3 14 4 15 5 13 6 5 7 6 8 10 9 7 10 9 11 11 12
REMARK SMILES IDX 8 13 90 14 12 15 85 16 2 17 1 18 3 19 4 20 86 21 87 22 88 23
REMARK SMILES IDX 89 24 19 25 20 26 21 27 22 28 23 29 84 30 24 31 83 32 25 33
REMARK SMILES IDX 26 34 27 35 77 36 28 37 82 38 76 39 78 40 29 41 81 42 75 43
REMARK SMILES IDX 74 44 30 46 62 47 42 48 61 49 43 50 46 51 60 52 79 53 44 54
REMARK SMILES IDX 45 55 59 57 80 58 47 59 31 60 32 61 40 62 33 63 39 64 41 65
REMARK SMILES IDX 38 66 34 67 35 68 36 69 37 70 63 71 64 72 72 73 65 74 71 75
REMARK SMILES IDX 73 76 70 77 66 78 67 79 68 80 69 81 48 82 49 83 57 84 50 85
REMARK SMILES IDX 56 86 58 87 55 88 51 89 52 90 53 91 54 92
REMARK H PARENT 78 45 46 56
REMARK Flexibility Score: inf
ROOT
ATOM      1  C   UNL A   1      31.584  31.193  26.641  1.00  0.00     0.275 C 
ENDROOT
BRANCH   1   2
ATOM      2  C   UNL A   1      31.191  30.455  25.360  1.00  0.00     0.275 C 
BRANCH   2   3
ATOM      3  O   UNL A   1      31.404  29.030  25.476  1.00  0.00    -0.459 OA
BRANCH   3   4
ATOM      4  C   UNL A   1      30.947  28.292  24.439  1.00  0.00     0.338 C 
ATOM      5  O   UNL A   1      29.956  28.526  23.763  1.00  0.00    -0.246 OA
BRANCH   4   6
ATOM      6  C   UNL A   1      31.831  27.141  24.179  1.00  0.00     0.087 C 
ATOM      7  C   UNL A   1      35.034  23.281  24.887  1.00  0.00    -0.020 A 
ATOM      8  C   UNL A   1      34.742  24.172  23.817  1.00  0.00     0.053 A 
ATOM      9  C   UNL A   1      34.185  23.359  26.014  1.00  0.00     0.045 A 
ATOM     10  C   UNL A   1      33.727  25.131  23.890  1.00  0.00     0.128 A 
ATOM     11  C   UNL A   1      33.178  24.326  26.090  1.00  0.00     0.032 A 
ATOM     12  Cl  UNL A   1      34.256  22.302  27.380  1.00  0.00    -0.084 Cl
ATOM     13  C   UNL A   1      32.969  25.220  25.041  1.00  0.00     0.019 A 
ATOM     14  O   UNL A   1      33.543  25.939  22.802  1.00  0.00    -0.475 OA
ATOM     15  C   UNL A   1      31.991  26.270  25.179  1.00  0.00     0.027 C 
ATOM     16  C   UNL A   1      32.610  27.061  22.899  1.00  0.00     0.316 C 
BRANCH   7  17
ATOM     17  C   UNL A   1      36.213  22.285  24.765  1.00  0.00    -0.012 C 
ATOM     18  C   UNL A   1      37.305  22.506  25.847  1.00  0.00     0.016 C 
ATOM     19  C   UNL A   1      36.894  22.469  23.395  1.00  0.00     0.016 C 
ATOM     20  C   UNL A   1      35.770  20.812  24.947  1.00  0.00     0.016 C 
ENDBRANCH   7  17
BRANCH  16  21
ATOM     21  C   UNL A   1      33.388  28.357  22.623  1.00  0.00     0.430 C 
ATOM     22  F   UNL A   1      34.050  28.776  23.730  1.00  0.00    -0.167 F 
ATOM     23  F   UNL A   1      34.328  28.185  21.662  1.00  0.00    -0.167 F 
ATOM     24  F   UNL A   1      32.583  29.368  22.228  1.00  0.00    -0.167 F 
ENDBRANCH  16  21
ENDBRANCH   4   6
ENDBRANCH   3   4
ENDBRANCH   2   3
ENDBRANCH   1   2
BRANCH   1  25
ATOM     25  O   UNL A   1      32.958  30.932  26.978  1.00  0.00    -0.458 OA
BRANCH  25  26
ATOM     26  C   UNL A   1      33.641  31.992  27.468  1.00  0.00     0.338 C 
ATOM     27  O   UNL A   1      33.217  33.120  27.655  1.00  0.00    -0.246 OA
BRANCH  26  28
ATOM     28  C   UNL A   1      34.994  31.573  27.858  1.00  0.00     0.060 A 
ATOM     29  C   UNL A   1      35.994  32.498  28.127  1.00  0.00     0.016 A 
ATOM     30  C   UNL A   1      35.205  30.227  28.128  1.00  0.00     0.016 A 
ATOM     31  C   UNL A   1      37.211  32.048  28.659  1.00  0.00     0.010 A 
ATOM     32  C   UNL A   1      36.331  29.816  28.831  1.00  0.00     0.010 A 
ATOM     33  C   UNL A   1      37.382  30.706  29.065  1.00  0.00    -0.014 A 
BRANCH  33  34
ATOM     34  C   UNL A   1      38.647  30.233  29.711  1.00  0.00     0.031 A 
ATOM     35  C   UNL A   1      39.023  30.669  31.113  1.00  0.00     0.074 A 
ATOM     36  C   UNL A   1      39.489  29.431  29.025  1.00  0.00     0.049 A 
ATOM     37  N   UNL A   1      40.061  30.320  31.833  1.00  0.00    -0.248 NA
ATOM     38  C   UNL A   1      38.158  31.657  31.781  1.00  0.00     0.031 C 
ATOM     39  C   UNL A   1      39.319  29.039  27.624  1.00  0.00     0.029 A 
ATOM     40  N   UNL A   1      40.640  28.784  29.407  1.00  0.00    -0.354 N 
ATOM     41  C   UNL A   1      39.980  31.062  33.009  1.00  0.00     0.074 A 
ATOM     42  C   UNL A   1      38.852  31.949  32.869  1.00  0.00     0.031 C 
ATOM     43  C   UNL A   1      40.268  28.152  27.295  1.00  0.00     0.029 A 
ATOM     44  C   UNL A   1      41.152  27.947  28.439  1.00  0.00     0.049 A 
ATOM     45  H   UNL A   1      41.060  28.907  30.289  1.00  0.00     0.167 HD
ATOM     46  C   UNL A   1      40.736  30.973  34.130  1.00  0.00     0.034 A 
ATOM     47  C   UNL A   1      42.197  27.091  28.471  1.00  0.00     0.034 A 
ATOM     48  C   UNL A   1      41.811  30.031  34.288  1.00  0.00     0.049 A 
ATOM     49  C   UNL A   1      42.975  26.943  29.755  1.00  0.00     0.074 A 
ATOM     50  C   UNL A   1      42.575  29.790  35.416  1.00  0.00     0.029 A 
ATOM     51  N   UNL A   1      42.262  29.164  33.304  1.00  0.00    -0.354 N 
ATOM     52  N   UNL A   1      42.799  27.561  30.900  1.00  0.00    -0.248 NA
ATOM     53  C   UNL A   1      44.081  25.975  29.764  1.00  0.00     0.031 C 
ATOM     54  C   UNL A   1      43.523  28.819  35.097  1.00  0.00     0.029 A 
ATOM     55  C   UNL A   1      43.305  28.397  33.795  1.00  0.00     0.049 A 
ATOM     56  H   UNL A   1      41.895  29.102  32.393  1.00  0.00     0.167 HD
ATOM     57  C   UNL A   1      43.755  27.041  31.769  1.00  0.00     0.074 A 
ATOM     58  C   UNL A   1      44.486  26.036  31.026  1.00  0.00     0.031 C 
ATOM     59  C   UNL A   1      44.010  27.376  33.058  1.00  0.00     0.034 A 
BRANCH  46  60
ATOM     60  C   UNL A   1      40.398  31.857  35.311  1.00  0.00     0.023 A 
ATOM     61  C   UNL A   1      39.384  31.481  36.213  1.00  0.00     0.031 A 
ATOM     62  C   UNL A   1      40.980  33.129  35.465  1.00  0.00     0.131 A 
ATOM     63  C   UNL A   1      38.964  32.379  37.203  1.00  0.00     0.055 A 
ATOM     64  C   UNL A   1      40.595  33.998  36.487  1.00  0.00     0.041 A 
ATOM     65  F   UNL A   1      41.943  33.545  34.627  1.00  0.00    -0.206 F 
ATOM     66  C   UNL A   1      39.572  33.630  37.353  1.00  0.00     0.022 A 
BRANCH  63  67
ATOM     67  S   UNL A   1      37.561  31.996  38.288  1.00  0.00     0.124 S 
ATOM     68  O   UNL A   1      37.262  30.614  37.918  1.00  0.00    -0.237 OA
ATOM     69  O   UNL A   1      38.146  32.171  39.616  1.00  0.00    -0.237 OA
ATOM     70  O   UNL A   1      36.546  32.973  37.910  1.00  0.00    -0.744 OA
ENDBRANCH  63  67
ENDBRANCH  46  60
BRANCH  47  71
ATOM     71  C   UNL A   1      42.475  26.238  27.276  1.00  0.00     0.023 A 
ATOM     72  C   UNL A   1      42.049  24.897  27.222  1.00  0.00     0.031 A 
ATOM     73  C   UNL A   1      43.278  26.716  26.225  1.00  0.00     0.131 A 
ATOM     74  C   UNL A   1      42.492  24.066  26.182  1.00  0.00     0.055 A 
ATOM     75  C   UNL A   1      43.651  25.905  25.151  1.00  0.00     0.041 A 
ATOM     76  F   UNL A   1      43.724  27.981  26.237  1.00  0.00    -0.206 F 
ATOM     77  C   UNL A   1      43.274  24.567  25.137  1.00  0.00     0.022 A 
BRANCH  74  78
ATOM     78  S   UNL A   1      42.193  22.276  26.230  1.00  0.00     0.124 S 
ATOM     79  O   UNL A   1      42.966  21.808  25.084  1.00  0.00    -0.237 OA
ATOM     80  O   UNL A   1      42.730  21.921  27.541  1.00  0.00    -0.237 OA
ATOM     81  O   UNL A   1      40.745  22.166  26.104  1.00  0.00    -0.744 OA
ENDBRANCH  74  78
ENDBRANCH  47  71
BRANCH  59  82
ATOM     82  C   UNL A   1      45.117  26.661  33.795  1.00  0.00     0.023 A 
ATOM     83  C   UNL A   1      44.824  25.511  34.554  1.00  0.00     0.031 A 
ATOM     84  C   UNL A   1      46.404  27.215  33.895  1.00  0.00     0.131 A 
ATOM     85  C   UNL A   1      45.788  24.985  35.421  1.00  0.00     0.055 A 
ATOM     86  C   UNL A   1      47.379  26.654  34.721  1.00  0.00     0.041 A 
ATOM     87  F   UNL A   1      46.726  28.319  33.203  1.00  0.00    -0.206 F 
ATOM     88  C   UNL A   1      47.067  25.545  35.502  1.00  0.00     0.022 A 
BRANCH  85  89
ATOM     89  S   UNL A   1      45.387  23.625  36.553  1.00  0.00     0.124 S 
ATOM     90  O   UNL A   1      46.709  23.077  36.847  1.00  0.00    -0.237 OA
ATOM     91  O   UNL A   1      44.743  24.326  37.660  1.00  0.00    -0.237 OA
ATOM     92  O   UNL A   1      44.516  22.757  35.768  1.00  0.00    -0.744 OA
ENDBRANCH  85  89
ENDBRANCH  59  82
ENDBRANCH  33  34
ENDBRANCH  26  28
ENDBRANCH  25  26
ENDBRANCH   1  25
TORSDOF 16
ENDMDL
MODEL 3
REMARK VINA RESULT:     -12.2      5.052     10.071
REMARK SMILES CC(C)(C)c1cc2c(cc1Cl)C=C(C(=O)OCCOC(=O)c1ccc(-c3c4nc(c(-c5cc(S(=O)(=O)[O-])ccc5F)c5ccc([nH]5)c(-c5cc(S(=O)(=O)[O-])ccc5F)c5nc(c(-c6cc(S(=O)(=O)[O-])ccc6F)c6ccc3[nH]6)C=C5)C=C4)cc1)[C@@H](C(F)(F)F)O2
REMARK SMILES IDX 18 1 17 2 16 3 14 4 15 5 13 6 5 7 6 8 10 9 7 10 9 11 11 12
REMARK SMILES IDX 8 13 90 14 12 15 85 16 2 17 1 18 3 19 4 20 86 21 87 22 88 23
REMARK SMILES IDX 89 24 19 25 20 26 21 27 22 28 23 29 84 30 24 31 83 32 25 33
REMARK SMILES IDX 26 34 27 35 77 36 28 37 82 38 76 39 78 40 29 41 81 42 75 43
REMARK SMILES IDX 74 44 30 46 62 47 42 48 61 49 43 50 46 51 60 52 79 53 44 54
REMARK SMILES IDX 45 55 59 57 80 58 47 59 31 60 32 61 40 62 33 63 39 64 41 65
REMARK SMILES IDX 38 66 34 67 35 68 36 69 37 70 63 71 64 72 72 73 65 74 71 75
REMARK SMILES IDX 73 76 70 77 66 78 67 79 68 80 69 81 48 82 49 83 57 84 50 85
REMARK SMILES IDX 56 86 58 87 55 88 51 89 52 90 53 91 54 92
REMARK H PARENT 78 45 46 56
REMARK Flexibility Score: inf
ROOT
ATOM      1  C   UNL A   1      31.924  30.772  26.683  1.00  0.00     0.275 C 
ENDROOT
BRANCH   1   2
ATOM      2  C   UNL A   1      31.420  30.180  25.365  1.00  0.00     0.275 C 
BRANCH   2   3
ATOM      3  O   UNL A   1      31.041  28.793  25.511  1.00  0.00    -0.459 OA
BRANCH   3   4
ATOM      4  C   UNL A   1      30.792  28.139  24.353  1.00  0.00     0.338 C 
ATOM      5  O   UNL A   1      29.907  28.396  23.551  1.00  0.00    -0.246 OA
BRANCH   4   6
ATOM      6  C   UNL A   1      31.766  27.054  24.139  1.00  0.00     0.087 C 
ATOM      7  C   UNL A   1      35.199  23.431  25.007  1.00  0.00    -0.020 A 
ATOM      8  C   UNL A   1      34.895  24.300  23.922  1.00  0.00     0.053 A 
ATOM      9  C   UNL A   1      34.296  23.449  26.094  1.00  0.00     0.045 A 
ATOM     10  C   UNL A   1      33.812  25.184  23.945  1.00  0.00     0.128 A 
ATOM     11  C   UNL A   1      33.220  24.342  26.119  1.00  0.00     0.032 A 
ATOM     12  Cl  UNL A   1      34.378  22.400  27.464  1.00  0.00    -0.084 Cl
ATOM     13  C   UNL A   1      32.997  25.218  25.059  1.00  0.00     0.019 A 
ATOM     14  O   UNL A   1      33.622  25.976  22.846  1.00  0.00    -0.475 OA
ATOM     15  C   UNL A   1      31.941  26.196  25.148  1.00  0.00     0.027 C 
ATOM     16  C   UNL A   1      32.607  27.029  22.896  1.00  0.00     0.316 C 
BRANCH   7  17
ATOM     17  C   UNL A   1      36.451  22.522  24.944  1.00  0.00    -0.012 C 
ATOM     18  C   UNL A   1      36.158  21.060  25.377  1.00  0.00     0.016 C 
ATOM     19  C   UNL A   1      37.525  23.068  25.905  1.00  0.00     0.016 C 
ATOM     20  C   UNL A   1      37.028  22.402  23.512  1.00  0.00     0.016 C 
ENDBRANCH   7  17
BRANCH  16  21
ATOM     21  C   UNL A   1      33.304  28.378  22.652  1.00  0.00     0.430 C 
ATOM     22  F   UNL A   1      33.922  28.819  23.775  1.00  0.00    -0.167 F 
ATOM     23  F   UNL A   1      34.266  28.282  21.702  1.00  0.00    -0.167 F 
ATOM     24  F   UNL A   1      32.440  29.341  22.261  1.00  0.00    -0.167 F 
ENDBRANCH  16  21
ENDBRANCH   4   6
ENDBRANCH   3   4
ENDBRANCH   2   3
ENDBRANCH   1   2
BRANCH   1  25
ATOM     25  O   UNL A   1      33.350  30.627  26.794  1.00  0.00    -0.458 OA
BRANCH  25  26
ATOM     26  C   UNL A   1      33.969  31.583  27.523  1.00  0.00     0.338 C 
ATOM     27  O   UNL A   1      33.495  32.637  27.913  1.00  0.00    -0.246 OA
BRANCH  26  28
ATOM     28  C   UNL A   1      35.319  31.131  27.890  1.00  0.00     0.060 A 
ATOM     29  C   UNL A   1      36.339  32.032  28.165  1.00  0.00     0.016 A 
ATOM     30  C   UNL A   1      35.507  29.777  28.133  1.00  0.00     0.016 A 
ATOM     31  C   UNL A   1      37.553  31.548  28.675  1.00  0.00     0.010 A 
ATOM     32  C   UNL A   1      36.632  29.331  28.815  1.00  0.00     0.010 A 
ATOM     33  C   UNL A   1      37.703  30.196  29.054  1.00  0.00    -0.014 A 
BRANCH  33  34
ATOM     34  C   UNL A   1      38.966  29.687  29.676  1.00  0.00     0.031 A 
ATOM     35  C   UNL A   1      39.390  30.129  31.063  1.00  0.00     0.074 A 
ATOM     36  C   UNL A   1      39.761  28.846  28.982  1.00  0.00     0.049 A 
ATOM     37  N   UNL A   1      40.432  29.752  31.763  1.00  0.00    -0.248 NA
ATOM     38  C   UNL A   1      38.577  31.156  31.736  1.00  0.00     0.031 C 
ATOM     39  C   UNL A   1      39.544  28.441  27.592  1.00  0.00     0.029 A 
ATOM     40  N   UNL A   1      40.897  28.164  29.346  1.00  0.00    -0.354 N 
ATOM     41  C   UNL A   1      40.406  30.513  32.930  1.00  0.00     0.074 A 
ATOM     42  C   UNL A   1      39.307  31.438  32.803  1.00  0.00     0.031 C 
ATOM     43  C   UNL A   1      40.453  27.517  27.254  1.00  0.00     0.029 A 
ATOM     44  C   UNL A   1      41.356  27.295  28.379  1.00  0.00     0.049 A 
ATOM     45  H   UNL A   1      41.343  28.284  30.217  1.00  0.00     0.167 HD
ATOM     46  C   UNL A   1      41.185  30.412  34.034  1.00  0.00     0.034 A 
ATOM     47  C   UNL A   1      42.370  26.404  28.399  1.00  0.00     0.034 A 
ATOM     48  C   UNL A   1      42.230  29.435  34.180  1.00  0.00     0.049 A 
ATOM     49  C   UNL A   1      43.174  26.245  29.666  1.00  0.00     0.074 A 
ATOM     50  C   UNL A   1      43.011  29.181  35.293  1.00  0.00     0.029 A 
ATOM     51  N   UNL A   1      42.625  28.538  33.199  1.00  0.00    -0.354 N 
ATOM     52  N   UNL A   1      43.048  26.885  30.806  1.00  0.00    -0.248 NA
ATOM     53  C   UNL A   1      44.244  25.238  29.663  1.00  0.00     0.031 C 
ATOM     54  C   UNL A   1      43.917  28.173  34.966  1.00  0.00     0.029 A 
ATOM     55  C   UNL A   1      43.652  27.742  33.675  1.00  0.00     0.049 A 
ATOM     56  H   UNL A   1      42.235  28.478  32.297  1.00  0.00     0.167 HD
ATOM     57  C   UNL A   1      44.005  26.343  31.659  1.00  0.00     0.074 A 
ATOM     58  C   UNL A   1      44.682  25.302  30.914  1.00  0.00     0.031 C 
ATOM     59  C   UNL A   1      44.303  26.686  32.937  1.00  0.00     0.034 A 
BRANCH  46  60
ATOM     60  C   UNL A   1      40.907  31.324  35.210  1.00  0.00     0.023 A 
ATOM     61  C   UNL A   1      39.706  31.201  35.936  1.00  0.00     0.031 A 
ATOM     62  C   UNL A   1      41.763  32.397  35.523  1.00  0.00     0.131 A 
ATOM     63  C   UNL A   1      39.383  32.152  36.912  1.00  0.00     0.055 A 
ATOM     64  C   UNL A   1      41.460  33.310  36.535  1.00  0.00     0.041 A 
ATOM     65  F   UNL A   1      42.915  32.569  34.855  1.00  0.00    -0.206 F 
ATOM     66  C   UNL A   1      40.258  33.199  37.224  1.00  0.00     0.022 A 
BRANCH  63  67
ATOM     67  S   UNL A   1      37.782  32.120  37.765  1.00  0.00     0.124 S 
ATOM     68  O   UNL A   1      37.405  30.712  37.643  1.00  0.00    -0.237 OA
ATOM     69  O   UNL A   1      38.145  32.552  39.112  1.00  0.00    -0.237 OA
ATOM     70  O   UNL A   1      36.958  33.051  37.002  1.00  0.00    -0.744 OA
ENDBRANCH  63  67
ENDBRANCH  46  60
BRANCH  47  71
ATOM     71  C   UNL A   1      42.589  25.524  27.209  1.00  0.00     0.023 A 
ATOM     72  C   UNL A   1      42.084  24.211  27.171  1.00  0.00     0.031 A 
ATOM     73  C   UNL A   1      43.412  25.944  26.150  1.00  0.00     0.131 A 
ATOM     74  C   UNL A   1      42.469  23.346  26.136  1.00  0.00     0.055 A 
ATOM     75  C   UNL A   1      43.730  25.103  25.082  1.00  0.00     0.041 A 
ATOM     76  F   UNL A   1      43.934  27.181  26.148  1.00  0.00    -0.206 F 
ATOM     77  C   UNL A   1      43.272  23.790  25.081  1.00  0.00     0.022 A 
BRANCH  74  78
ATOM     78  S   UNL A   1      42.063  21.578  26.202  1.00  0.00     0.124 S 
ATOM     79  O   UNL A   1      42.290  21.266  27.609  1.00  0.00    -0.237 OA
ATOM     80  O   UNL A   1      40.667  21.577  25.772  1.00  0.00    -0.237 OA
ATOM     81  O   UNL A   1      43.001  20.975  25.261  1.00  0.00    -0.744 OA
ENDBRANCH  74  78
ENDBRANCH  47  71
BRANCH  59  82
ATOM     82  C   UNL A   1      45.401  25.941  33.657  1.00  0.00     0.023 A 
ATOM     83  C   UNL A   1      46.749  26.242  33.379  1.00  0.00     0.031 A 
ATOM     84  C   UNL A   1      45.120  24.826  34.464  1.00  0.00     0.131 A 
ATOM     85  C   UNL A   1      47.762  25.405  33.860  1.00  0.00     0.055 A 
ATOM     86  C   UNL A   1      46.138  24.026  34.985  1.00  0.00     0.041 A 
ATOM     87  F   UNL A   1      43.851  24.491  34.744  1.00  0.00    -0.206 F 
ATOM     88  C   UNL A   1      47.465  24.304  34.669  1.00  0.00     0.022 A 
BRANCH  85  89
ATOM     89  S   UNL A   1      49.492  25.649  33.366  1.00  0.00     0.124 S 
ATOM     90  O   UNL A   1      49.407  25.550  31.910  1.00  0.00    -0.237 OA
ATOM     91  O   UNL A   1      49.774  26.985  33.884  1.00  0.00    -0.237 OA
ATOM     92  O   UNL A   1      50.204  24.558  34.022  1.00  0.00    -0.744 OA
ENDBRANCH  85  89
ENDBRANCH  59  82
ENDBRANCH  33  34
ENDBRANCH  26  28
ENDBRANCH  25  26
ENDBRANCH   1  25
TORSDOF 16
ENDMDL
