MODEL 1
REMARK VINA RESULT:     -11.3      0.000      0.000
REMARK SMILES O=C(OCCOC(=O)c1cncc(OCCCc2ccccc2)n1)c1ccc(-c2c3nc(c(-c4cc(S(=O)(=O)[O-])ccc4F)c4ccc([nH]4)c(-c4cc(S(=O)(=O)[O-])ccc4F)c4nc(c(-c5cc(S(=O)(=O)[O-])ccc5F)c5ccc2[nH]5)C=C4)C=C3)cc1
REMARK SMILES IDX 5 1 4 2 3 3 2 4 1 5 25 6 26 7 87 8 27 9 86 10 28 11 29 12
REMARK SMILES IDX 30 13 80 14 31 15 85 16 79 17 81 18 32 19 84 20 78 21 77 22
REMARK SMILES IDX 33 24 65 25 45 26 64 27 46 28 49 29 63 30 82 31 47 32 48 33
REMARK SMILES IDX 62 35 83 36 50 37 34 38 35 39 43 40 36 41 42 42 44 43 41 44
REMARK SMILES IDX 37 45 38 46 39 47 40 48 66 49 67 50 75 51 68 52 74 53 76 54
REMARK SMILES IDX 73 55 69 56 70 57 71 58 72 59 51 60 52 61 60 62 53 63 59 64
REMARK SMILES IDX 61 65 58 66 54 67 55 68 56 69 57 70 6 71 7 72 8 73 9 74
REMARK SMILES IDX 10 75 24 76 11 77 13 78 12 79 14 80 15 81 16 82 17 83 18 84
REMARK SMILES IDX 19 85 23 86 20 87 22 88 21 89
REMARK H PARENT 81 23 49 34
REMARK Flexibility Score: inf
ROOT
ATOM      1  C   UNL A   1      41.043  19.795  26.572  1.00  0.00     0.275 C 
ENDROOT
BRANCH   1   2
ATOM      2  C   UNL A   1      39.836  20.668  26.187  1.00  0.00     0.275 C 
BRANCH   2   3
ATOM      3  O   UNL A   1      39.523  21.817  26.999  1.00  0.00    -0.458 OA
BRANCH   3   4
ATOM      4  C   UNL A   1      38.839  22.816  26.400  1.00  0.00     0.338 C 
ATOM      5  O   UNL A   1      38.066  22.641  25.477  1.00  0.00    -0.246 OA
BRANCH   4   6
ATOM      6  C   UNL A   1      39.244  24.151  26.922  1.00  0.00     0.060 A 
ATOM      7  C   UNL A   1      39.160  24.474  28.281  1.00  0.00     0.016 A 
ATOM      8  C   UNL A   1      39.843  25.051  26.036  1.00  0.00     0.016 A 
ATOM      9  C   UNL A   1      39.693  25.669  28.750  1.00  0.00     0.010 A 
ATOM     10  C   UNL A   1      40.377  26.252  26.500  1.00  0.00     0.010 A 
ATOM     11  C   UNL A   1      40.298  26.563  27.862  1.00  0.00    -0.014 A 
BRANCH  11  12
ATOM     12  C   UNL A   1      40.736  27.877  28.367  1.00  0.00     0.031 A 
ATOM     13  C   UNL A   1      42.196  28.201  28.305  1.00  0.00     0.074 A 
ATOM     14  C   UNL A   1      39.829  28.759  28.820  1.00  0.00     0.049 A 
ATOM     15  N   UNL A   1      42.801  29.339  28.508  1.00  0.00    -0.248 NA
ATOM     16  C   UNL A   1      43.096  27.088  27.963  1.00  0.00     0.031 C 
ATOM     17  C   UNL A   1      38.395  28.500  28.927  1.00  0.00     0.029 A 
ATOM     18  N   UNL A   1      39.969  30.042  29.271  1.00  0.00    -0.354 N 
ATOM     19  C   UNL A   1      44.148  29.091  28.276  1.00  0.00     0.074 A 
ATOM     20  C   UNL A   1      44.279  27.677  28.001  1.00  0.00     0.031 C 
ATOM     21  C   UNL A   1      37.784  29.584  29.431  1.00  0.00     0.029 A 
ATOM     22  C   UNL A   1      38.782  30.623  29.654  1.00  0.00     0.049 A 
ATOM     23  H   UNL A   1      40.836  30.507  29.316  1.00  0.00     0.167 HD
ATOM     24  C   UNL A   1      45.171  29.980  28.265  1.00  0.00     0.034 A 
ATOM     25  C   UNL A   1      38.535  31.868  30.104  1.00  0.00     0.034 A 
ATOM     26  C   UNL A   1      44.989  31.372  28.602  1.00  0.00     0.049 A 
ATOM     27  C   UNL A   1      39.686  32.840  30.108  1.00  0.00     0.074 A 
ATOM     28  C   UNL A   1      45.924  32.390  28.648  1.00  0.00     0.029 A 
ATOM     29  N   UNL A   1      43.770  31.935  28.973  1.00  0.00    -0.354 N 
ATOM     30  N   UNL A   1      40.947  32.623  29.800  1.00  0.00    -0.248 NA
ATOM     31  C   UNL A   1      39.376  34.228  30.459  1.00  0.00     0.031 C 
ATOM     32  C   UNL A   1      45.281  33.551  29.097  1.00  0.00     0.029 A 
ATOM     33  C   UNL A   1      43.931  33.277  29.268  1.00  0.00     0.049 A 
ATOM     34  H   UNL A   1      42.917  31.447  29.019  1.00  0.00     0.167 HD
ATOM     35  C   UNL A   1      41.575  33.861  29.876  1.00  0.00     0.074 A 
ATOM     36  C   UNL A   1      40.546  34.816  30.251  1.00  0.00     0.031 C 
ATOM     37  C   UNL A   1      42.873  34.188  29.647  1.00  0.00     0.034 A 
BRANCH  24  38
ATOM     38  C   UNL A   1      46.540  29.439  27.925  1.00  0.00     0.023 A 
ATOM     39  C   UNL A   1      46.876  29.074  26.606  1.00  0.00     0.031 A 
ATOM     40  C   UNL A   1      47.487  29.189  28.932  1.00  0.00     0.131 A 
ATOM     41  C   UNL A   1      48.075  28.389  26.348  1.00  0.00     0.055 A 
ATOM     42  C   UNL A   1      48.716  28.585  28.655  1.00  0.00     0.041 A 
ATOM     43  F   UNL A   1      47.218  29.490  30.213  1.00  0.00    -0.206 F 
ATOM     44  C   UNL A   1      49.007  28.162  27.361  1.00  0.00     0.022 A 
BRANCH  41  45
ATOM     45  S   UNL A   1      48.315  27.647  24.709  1.00  0.00     0.124 S 
ATOM     46  O   UNL A   1      49.643  28.142  24.353  1.00  0.00    -0.237 OA
ATOM     47  O   UNL A   1      48.221  26.219  24.990  1.00  0.00    -0.237 OA
ATOM     48  O   UNL A   1      47.219  28.201  23.917  1.00  0.00    -0.744 OA
ENDBRANCH  41  45
ENDBRANCH  24  38
BRANCH  25  49
ATOM     49  C   UNL A   1      37.156  32.267  30.505  1.00  0.00     0.023 A 
ATOM     50  C   UNL A   1      36.265  32.853  29.591  1.00  0.00     0.031 A 
ATOM     51  C   UNL A   1      36.699  32.049  31.818  1.00  0.00     0.131 A 
ATOM     52  C   UNL A   1      34.975  33.225  30.005  1.00  0.00     0.055 A 
ATOM     53  C   UNL A   1      35.404  32.388  32.217  1.00  0.00     0.041 A 
ATOM     54  F   UNL A   1      37.503  31.480  32.730  1.00  0.00    -0.206 F 
ATOM     55  C   UNL A   1      34.536  32.989  31.310  1.00  0.00     0.022 A 
BRANCH  52  56
ATOM     56  S   UNL A   1      33.887  34.068  28.823  1.00  0.00     0.124 S 
ATOM     57  O   UNL A   1      33.417  32.959  28.001  1.00  0.00    -0.237 OA
ATOM     58  O   UNL A   1      32.898  34.678  29.706  1.00  0.00    -0.237 OA
ATOM     59  O   UNL A   1      34.781  35.009  28.149  1.00  0.00    -0.744 OA
ENDBRANCH  52  56
ENDBRANCH  25  49
BRANCH  37  60
ATOM     60  C   UNL A   1      43.217  35.650  29.761  1.00  0.00     0.023 A 
ATOM     61  C   UNL A   1      43.031  36.532  28.685  1.00  0.00     0.031 A 
ATOM     62  C   UNL A   1      43.773  36.152  30.951  1.00  0.00     0.131 A 
ATOM     63  C   UNL A   1      43.470  37.858  28.793  1.00  0.00     0.055 A 
ATOM     64  C   UNL A   1      44.147  37.489  31.073  1.00  0.00     0.041 A 
ATOM     65  F   UNL A   1      43.971  35.347  32.007  1.00  0.00    -0.206 F 
ATOM     66  C   UNL A   1      44.012  38.347  29.985  1.00  0.00     0.022 A 
BRANCH  63  67
ATOM     67  S   UNL A   1      43.428  38.901  27.311  1.00  0.00     0.124 S 
ATOM     68  O   UNL A   1      42.238  38.404  26.625  1.00  0.00    -0.237 OA
ATOM     69  O   UNL A   1      43.324  40.242  27.876  1.00  0.00    -0.237 OA
ATOM     70  O   UNL A   1      44.696  38.604  26.648  1.00  0.00    -0.744 OA
ENDBRANCH  63  67
ENDBRANCH  37  60
ENDBRANCH  11  12
ENDBRANCH   4   6
ENDBRANCH   3   4
ENDBRANCH   2   3
ENDBRANCH   1   2
BRANCH   1  71
ATOM     71  O   UNL A   1      41.849  19.433  25.433  1.00  0.00    -0.457 OA
BRANCH  71  72
ATOM     72  C   UNL A   1      42.932  18.659  25.743  1.00  0.00     0.358 C 
ATOM     73  O   UNL A   1      42.896  17.557  26.269  1.00  0.00    -0.244 OA
BRANCH  72  74
ATOM     74  C   UNL A   1      44.186  19.328  25.322  1.00  0.00     0.170 A 
ATOM     75  C   UNL A   1      45.392  18.649  25.388  1.00  0.00     0.147 A 
ATOM     76  N   UNL A   1      44.083  20.586  24.806  1.00  0.00    -0.203 NA
ATOM     77  N   UNL A   1      46.550  19.192  24.935  1.00  0.00    -0.257 NA
ATOM     78  C   UNL A   1      45.243  21.137  24.393  1.00  0.00     0.233 A 
ATOM     79  C   UNL A   1      46.449  20.450  24.433  1.00  0.00     0.179 A 
BRANCH  78  80
ATOM     80  O   UNL A   1      45.176  22.368  23.793  1.00  0.00    -0.477 OA
BRANCH  80  81
ATOM     81  C   UNL A   1      46.114  23.291  24.361  1.00  0.00     0.232 C 
BRANCH  81  82
ATOM     82  C   UNL A   1      45.395  24.480  25.009  1.00  0.00     0.046 C 
BRANCH  82  83
ATOM     83  C   UNL A   1      43.972  24.185  25.502  1.00  0.00     0.039 C 
BRANCH  83  84
ATOM     84  C   UNL A   1      43.785  23.663  26.915  1.00  0.00    -0.048 A 
ATOM     85  C   UNL A   1      44.873  23.780  27.799  1.00  0.00     0.004 A 
ATOM     86  C   UNL A   1      42.582  23.156  27.419  1.00  0.00     0.004 A 
ATOM     87  C   UNL A   1      44.753  23.437  29.148  1.00  0.00     0.000 A 
ATOM     88  C   UNL A   1      42.455  22.829  28.775  1.00  0.00     0.000 A 
ATOM     89  C   UNL A   1      43.536  22.976  29.639  1.00  0.00     0.000 A 
ENDBRANCH  83  84
ENDBRANCH  82  83
ENDBRANCH  81  82
ENDBRANCH  80  81
ENDBRANCH  78  80
ENDBRANCH  72  74
ENDBRANCH  71  72
ENDBRANCH   1  71
TORSDOF 19
ENDMDL
MODEL 2
REMARK VINA RESULT:     -10.5      1.559      2.227
REMARK SMILES O=C(OCCOC(=O)c1cncc(OCCCc2ccccc2)n1)c1ccc(-c2c3nc(c(-c4cc(S(=O)(=O)[O-])ccc4F)c4ccc([nH]4)c(-c4cc(S(=O)(=O)[O-])ccc4F)c4nc(c(-c5cc(S(=O)(=O)[O-])ccc5F)c5ccc2[nH]5)C=C4)C=C3)cc1
REMARK SMILES IDX 5 1 4 2 3 3 2 4 1 5 25 6 26 7 87 8 27 9 86 10 28 11 29 12
REMARK SMILES IDX 30 13 80 14 31 15 85 16 79 17 81 18 32 19 84 20 78 21 77 22
REMARK SMILES IDX 33 24 65 25 45 26 64 27 46 28 49 29 63 30 82 31 47 32 48 33
REMARK SMILES IDX 62 35 83 36 50 37 34 38 35 39 43 40 36 41 42 42 44 43 41 44
REMARK SMILES IDX 37 45 38 46 39 47 40 48 66 49 67 50 75 51 68 52 74 53 76 54
REMARK SMILES IDX 73 55 69 56 70 57 71 58 72 59 51 60 52 61 60 62 53 63 59 64
REMARK SMILES IDX 61 65 58 66 54 67 55 68 56 69 57 70 6 71 7 72 8 73 9 74
REMARK SMILES IDX 10 75 24 76 11 77 13 78 12 79 14 80 15 81 16 82 17 83 18 84
REMARK SMILES IDX 19 85 23 86 20 87 22 88 21 89
REMARK H PARENT 81 23 49 34
REMARK Flexibility Score: inf
ROOT
ATOM      1  C   UNL A   1      41.076  19.766  26.419  1.00  0.00     0.275 C 
ENDROOT
BRANCH   1   2
ATOM      2  C   UNL A   1      40.097  20.867  25.976  1.00  0.00     0.275 C 
BRANCH   2   3
ATOM      3  O   UNL A   1      39.717  21.883  26.926  1.00  0.00    -0.458 OA
BRANCH   3   4
ATOM      4  C   UNL A   1      38.990  22.918  26.452  1.00  0.00     0.338 C 
ATOM      5  O   UNL A   1      38.106  22.794  25.627  1.00  0.00    -0.246 OA
BRANCH   4   6
ATOM      6  C   UNL A   1      39.489  24.223  26.967  1.00  0.00     0.060 A 
ATOM      7  C   UNL A   1      40.089  25.171  26.130  1.00  0.00     0.016 A 
ATOM      8  C   UNL A   1      39.228  24.549  28.301  1.00  0.00     0.016 A 
ATOM      9  C   UNL A   1      40.396  26.437  26.615  1.00  0.00     0.010 A 
ATOM     10  C   UNL A   1      39.537  25.816  28.794  1.00  0.00     0.010 A 
ATOM     11  C   UNL A   1      40.126  26.762  27.948  1.00  0.00    -0.014 A 
BRANCH  11  12
ATOM     12  C   UNL A   1      40.583  28.064  28.467  1.00  0.00     0.031 A 
ATOM     13  C   UNL A   1      42.051  28.354  28.440  1.00  0.00     0.074 A 
ATOM     14  C   UNL A   1      39.687  28.966  28.901  1.00  0.00     0.049 A 
ATOM     15  N   UNL A   1      42.677  29.477  28.660  1.00  0.00    -0.248 NA
ATOM     16  C   UNL A   1      42.932  27.221  28.116  1.00  0.00     0.031 C 
ATOM     17  C   UNL A   1      38.244  28.740  28.974  1.00  0.00     0.029 A 
ATOM     18  N   UNL A   1      39.845  30.244  29.359  1.00  0.00    -0.354 N 
ATOM     19  C   UNL A   1      44.023  29.198  28.460  1.00  0.00     0.074 A 
ATOM     20  C   UNL A   1      44.128  27.782  28.184  1.00  0.00     0.031 C 
ATOM     21  C   UNL A   1      37.647  29.838  29.466  1.00  0.00     0.029 A 
ATOM     22  C   UNL A   1      38.663  30.852  29.716  1.00  0.00     0.049 A 
ATOM     23  H   UNL A   1      40.721  30.689  29.426  1.00  0.00     0.167 HD
ATOM     24  C   UNL A   1      45.066  30.063  28.474  1.00  0.00     0.034 A 
ATOM     25  C   UNL A   1      38.435  32.102  30.163  1.00  0.00     0.034 A 
ATOM     26  C   UNL A   1      44.910  31.458  28.811  1.00  0.00     0.049 A 
ATOM     27  C   UNL A   1      39.608  33.046  30.197  1.00  0.00     0.074 A 
ATOM     28  C   UNL A   1      45.866  32.453  28.882  1.00  0.00     0.029 A 
ATOM     29  N   UNL A   1      43.696  32.049  29.155  1.00  0.00    -0.354 N 
ATOM     30  N   UNL A   1      40.871  32.801  29.919  1.00  0.00    -0.248 NA
ATOM     31  C   UNL A   1      39.323  34.440  30.545  1.00  0.00     0.031 C 
ATOM     32  C   UNL A   1      45.241  33.628  29.319  1.00  0.00     0.029 A 
ATOM     33  C   UNL A   1      43.880  33.386  29.458  1.00  0.00     0.049 A 
ATOM     34  H   UNL A   1      42.830  31.581  29.180  1.00  0.00     0.167 HD
ATOM     35  C   UNL A   1      41.525  34.023  30.012  1.00  0.00     0.074 A 
ATOM     36  C   UNL A   1      40.510  35.001  30.366  1.00  0.00     0.031 C 
ATOM     37  C   UNL A   1      42.836  34.320  29.815  1.00  0.00     0.034 A 
BRANCH  24  38
ATOM     38  C   UNL A   1      46.430  29.491  28.166  1.00  0.00     0.023 A 
ATOM     39  C   UNL A   1      47.240  28.941  29.180  1.00  0.00     0.031 A 
ATOM     40  C   UNL A   1      46.973  29.579  26.873  1.00  0.00     0.131 A 
ATOM     41  C   UNL A   1      48.576  28.602  28.909  1.00  0.00     0.055 A 
ATOM     42  C   UNL A   1      48.276  29.158  26.591  1.00  0.00     0.041 A 
ATOM     43  F   UNL A   1      46.263  30.115  25.868  1.00  0.00    -0.206 F 
ATOM     44  C   UNL A   1      49.092  28.685  27.615  1.00  0.00     0.022 A 
BRANCH  41  45
ATOM     45  S   UNL A   1      49.674  28.218  30.303  1.00  0.00     0.124 S 
ATOM     46  O   UNL A   1      48.723  28.125  31.409  1.00  0.00    -0.237 OA
ATOM     47  O   UNL A   1      50.290  26.964  29.885  1.00  0.00    -0.237 OA
ATOM     48  O   UNL A   1      50.573  29.368  30.359  1.00  0.00    -0.744 OA
ENDBRANCH  41  45
ENDBRANCH  24  38
BRANCH  25  49
ATOM     49  C   UNL A   1      37.057  32.532  30.533  1.00  0.00     0.023 A 
ATOM     50  C   UNL A   1      36.178  33.078  29.584  1.00  0.00     0.031 A 
ATOM     51  C   UNL A   1      36.588  32.384  31.852  1.00  0.00     0.131 A 
ATOM     52  C   UNL A   1      34.888  33.482  29.970  1.00  0.00     0.055 A 
ATOM     53  C   UNL A   1      35.293  32.754  32.224  1.00  0.00     0.041 A 
ATOM     54  F   UNL A   1      37.381  31.855  32.798  1.00  0.00    -0.206 F 
ATOM     55  C   UNL A   1      34.438  33.315  31.281  1.00  0.00     0.022 A 
BRANCH  52  56
ATOM     56  S   UNL A   1      33.816  34.274  28.738  1.00  0.00     0.124 S 
ATOM     57  O   UNL A   1      34.702  35.285  28.173  1.00  0.00    -0.237 OA
ATOM     58  O   UNL A   1      33.482  33.153  27.865  1.00  0.00    -0.237 OA
ATOM     59  O   UNL A   1      32.706  34.792  29.535  1.00  0.00    -0.744 OA
ENDBRANCH  52  56
ENDBRANCH  25  49
BRANCH  37  60
ATOM     60  C   UNL A   1      43.211  35.773  29.941  1.00  0.00     0.023 A 
ATOM     61  C   UNL A   1      43.098  36.656  28.855  1.00  0.00     0.031 A 
ATOM     62  C   UNL A   1      43.723  36.266  31.155  1.00  0.00     0.131 A 
ATOM     63  C   UNL A   1      43.566  37.970  28.980  1.00  0.00     0.055 A 
ATOM     64  C   UNL A   1      44.124  37.594  31.290  1.00  0.00     0.041 A 
ATOM     65  F   UNL A   1      43.849  35.461  32.221  1.00  0.00    -0.206 F 
ATOM     66  C   UNL A   1      44.063  38.451  30.195  1.00  0.00     0.022 A 
BRANCH  63  67
ATOM     67  S   UNL A   1      43.620  39.008  27.495  1.00  0.00     0.124 S 
ATOM     68  O   UNL A   1      44.991  38.806  27.034  1.00  0.00    -0.237 OA
ATOM     69  O   UNL A   1      42.575  38.420  26.664  1.00  0.00    -0.237 OA
ATOM     70  O   UNL A   1      43.328  40.347  28.003  1.00  0.00    -0.744 OA
ENDBRANCH  63  67
ENDBRANCH  37  60
ENDBRANCH  11  12
ENDBRANCH   4   6
ENDBRANCH   3   4
ENDBRANCH   2   3
ENDBRANCH   1   2
BRANCH   1  71
ATOM     71  O   UNL A   1      41.926  19.319  25.344  1.00  0.00    -0.457 OA
BRANCH  71  72
ATOM     72  C   UNL A   1      43.023  18.617  25.760  1.00  0.00     0.358 C 
ATOM     73  O   UNL A   1      43.007  17.542  26.340  1.00  0.00    -0.244 OA
BRANCH  72  74
ATOM     74  C   UNL A   1      44.267  19.327  25.381  1.00  0.00     0.170 A 
ATOM     75  C   UNL A   1      45.468  18.640  25.315  1.00  0.00     0.147 A 
ATOM     76  N   UNL A   1      44.159  20.642  25.033  1.00  0.00    -0.203 NA
ATOM     77  N   UNL A   1      46.614  19.230  24.892  1.00  0.00    -0.257 NA
ATOM     78  C   UNL A   1      45.309  21.234  24.651  1.00  0.00     0.233 A 
ATOM     79  C   UNL A   1      46.509  20.542  24.558  1.00  0.00     0.179 A 
BRANCH  78  80
ATOM     80  O   UNL A   1      45.233  22.532  24.215  1.00  0.00    -0.477 OA
BRANCH  80  81
ATOM     81  C   UNL A   1      43.890  23.032  24.253  1.00  0.00     0.232 C 
BRANCH  81  82
ATOM     82  C   UNL A   1      43.696  24.007  25.419  1.00  0.00     0.046 C 
BRANCH  82  83
ATOM     83  C   UNL A   1      44.472  25.325  25.295  1.00  0.00     0.039 C 
BRANCH  83  84
ATOM     84  C   UNL A   1      45.893  25.385  25.823  1.00  0.00    -0.048 A 
ATOM     85  C   UNL A   1      46.107  24.995  27.158  1.00  0.00     0.004 A 
ATOM     86  C   UNL A   1      47.012  25.718  25.050  1.00  0.00     0.004 A 
ATOM     87  C   UNL A   1      47.395  24.904  27.691  1.00  0.00     0.000 A 
ATOM     88  C   UNL A   1      48.305  25.609  25.578  1.00  0.00     0.000 A 
ATOM     89  C   UNL A   1      48.496  25.196  26.894  1.00  0.00     0.000 A 
ENDBRANCH  83  84
ENDBRANCH  82  83
ENDBRANCH  81  82
ENDBRANCH  80  81
ENDBRANCH  78  80
ENDBRANCH  72  74
ENDBRANCH  71  72
ENDBRANCH   1  71
TORSDOF 19
ENDMDL
MODEL 3
REMARK VINA RESULT:     -10.1      4.823      7.838
REMARK SMILES O=C(OCCOC(=O)c1cncc(OCCCc2ccccc2)n1)c1ccc(-c2c3nc(c(-c4cc(S(=O)(=O)[O-])ccc4F)c4ccc([nH]4)c(-c4cc(S(=O)(=O)[O-])ccc4F)c4nc(c(-c5cc(S(=O)(=O)[O-])ccc5F)c5ccc2[nH]5)C=C4)C=C3)cc1
REMARK SMILES IDX 5 1 4 2 3 3 2 4 1 5 25 6 26 7 87 8 27 9 86 10 28 11 29 12
REMARK SMILES IDX 30 13 80 14 31 15 85 16 79 17 81 18 32 19 84 20 78 21 77 22
REMARK SMILES IDX 33 24 65 25 45 26 64 27 46 28 49 29 63 30 82 31 47 32 48 33
REMARK SMILES IDX 62 35 83 36 50 37 34 38 35 39 43 40 36 41 42 42 44 43 41 44
REMARK SMILES IDX 37 45 38 46 39 47 40 48 66 49 67 50 75 51 68 52 74 53 76 54
REMARK SMILES IDX 73 55 69 56 70 57 71 58 72 59 51 60 52 61 60 62 53 63 59 64
REMARK SMILES IDX 61 65 58 66 54 67 55 68 56 69 57 70 6 71 7 72 8 73 9 74
REMARK SMILES IDX 10 75 24 76 11 77 13 78 12 79 14 80 15 81 16 82 17 83 18 84
REMARK SMILES IDX 19 85 23 86 20 87 22 88 21 89
REMARK H PARENT 81 23 49 34
REMARK Flexibility Score: inf
ROOT
ATOM      1  C   UNL A   1      34.770  20.682  25.207  1.00  0.00     0.275 C 
ENDROOT
BRANCH   1   2
ATOM      2  C   UNL A   1      36.227  21.072  24.902  1.00  0.00     0.275 C 
BRANCH   2   3
ATOM      3  O   UNL A   1      37.023  21.662  25.949  1.00  0.00    -0.458 OA
BRANCH   3   4
ATOM      4  C   UNL A   1      38.358  21.477  25.876  1.00  0.00     0.338 C 
ATOM      5  O   UNL A   1      38.873  20.419  25.566  1.00  0.00    -0.246 OA
BRANCH   4   6
ATOM      6  C   UNL A   1      39.107  22.678  26.339  1.00  0.00     0.060 A 
ATOM      7  C   UNL A   1      38.716  23.976  25.994  1.00  0.00     0.016 A 
ATOM      8  C   UNL A   1      40.152  22.492  27.248  1.00  0.00     0.016 A 
ATOM      9  C   UNL A   1      39.343  25.073  26.574  1.00  0.00     0.010 A 
ATOM     10  C   UNL A   1      40.788  23.588  27.830  1.00  0.00     0.010 A 
ATOM     11  C   UNL A   1      40.383  24.883  27.489  1.00  0.00    -0.014 A 
BRANCH  11  12
ATOM     12  C   UNL A   1      41.116  26.063  27.985  1.00  0.00     0.031 A 
ATOM     13  C   UNL A   1      42.547  26.222  27.578  1.00  0.00     0.074 A 
ATOM     14  C   UNL A   1      40.483  26.978  28.738  1.00  0.00     0.049 A 
ATOM     15  N   UNL A   1      43.340  27.247  27.724  1.00  0.00    -0.248 NA
ATOM     16  C   UNL A   1      43.166  25.065  26.912  1.00  0.00     0.031 C 
ATOM     17  C   UNL A   1      39.096  26.874  29.188  1.00  0.00     0.029 A 
ATOM     18  N   UNL A   1      40.911  28.168  29.256  1.00  0.00    -0.354 N 
ATOM     19  C   UNL A   1      44.540  26.877  27.130  1.00  0.00     0.074 A 
ATOM     20  C   UNL A   1      44.396  25.504  26.699  1.00  0.00     0.031 C 
ATOM     21  C   UNL A   1      38.789  27.949  29.932  1.00  0.00     0.029 A 
ATOM     22  C   UNL A   1      39.949  28.829  29.987  1.00  0.00     0.049 A 
ATOM     23  H   UNL A   1      41.820  28.521  29.120  1.00  0.00     0.167 HD
ATOM     24  C   UNL A   1      45.646  27.637  26.939  1.00  0.00     0.034 A 
ATOM     25  C   UNL A   1      40.001  30.026  30.600  1.00  0.00     0.034 A 
ATOM     26  C   UNL A   1      45.754  28.985  27.441  1.00  0.00     0.049 A 
ATOM     27  C   UNL A   1      41.246  30.851  30.398  1.00  0.00     0.074 A 
ATOM     28  C   UNL A   1      46.808  29.874  27.340  1.00  0.00     0.029 A 
ATOM     29  N   UNL A   1      44.757  29.634  28.166  1.00  0.00    -0.354 N 
ATOM     30  N   UNL A   1      42.350  30.531  29.756  1.00  0.00    -0.248 NA
ATOM     31  C   UNL A   1      41.234  32.208  30.947  1.00  0.00     0.031 C 
ATOM     32  C   UNL A   1      46.468  31.035  28.047  1.00  0.00     0.029 A 
ATOM     33  C   UNL A   1      45.175  30.899  28.535  1.00  0.00     0.049 A 
ATOM     34  H   UNL A   1      43.879  29.245  28.385  1.00  0.00     0.167 HD
ATOM     35  C   UNL A   1      43.147  31.668  29.783  1.00  0.00     0.074 A 
ATOM     36  C   UNL A   1      42.390  32.680  30.500  1.00  0.00     0.031 C 
ATOM     37  C   UNL A   1      44.385  31.870  29.258  1.00  0.00     0.034 A 
BRANCH  24  38
ATOM     38  C   UNL A   1      46.798  26.989  26.207  1.00  0.00     0.023 A 
ATOM     39  C   UNL A   1      47.818  26.309  26.904  1.00  0.00     0.031 A 
ATOM     40  C   UNL A   1      46.941  27.130  24.817  1.00  0.00     0.131 A 
ATOM     41  C   UNL A   1      48.976  25.892  26.228  1.00  0.00     0.055 A 
ATOM     42  C   UNL A   1      48.057  26.635  24.137  1.00  0.00     0.041 A 
ATOM     43  F   UNL A   1      46.018  27.788  24.099  1.00  0.00    -0.206 F 
ATOM     44  C   UNL A   1      49.092  26.031  24.845  1.00  0.00     0.022 A 
BRANCH  41  45
ATOM     45  S   UNL A   1      50.397  25.329  27.207  1.00  0.00     0.124 S 
ATOM     46  O   UNL A   1      50.707  26.523  27.990  1.00  0.00    -0.237 OA
ATOM     47  O   UNL A   1      49.843  24.204  27.952  1.00  0.00    -0.237 OA
ATOM     48  O   UNL A   1      51.394  24.980  26.198  1.00  0.00    -0.744 OA
ENDBRANCH  41  45
ENDBRANCH  24  38
BRANCH  25  49
ATOM     49  C   UNL A   1      38.833  30.527  31.380  1.00  0.00     0.023 A 
ATOM     50  C   UNL A   1      37.768  31.198  30.758  1.00  0.00     0.031 A 
ATOM     51  C   UNL A   1      38.758  30.322  32.770  1.00  0.00     0.131 A 
ATOM     52  C   UNL A   1      36.688  31.665  31.526  1.00  0.00     0.055 A 
ATOM     53  C   UNL A   1      37.665  30.757  33.524  1.00  0.00     0.041 A 
ATOM     54  F   UNL A   1      39.742  29.675  33.415  1.00  0.00    -0.206 F 
ATOM     55  C   UNL A   1      36.625  31.442  32.903  1.00  0.00     0.022 A 
BRANCH  52  56
ATOM     56  S   UNL A   1      35.378  32.614  30.703  1.00  0.00     0.124 S 
ATOM     57  O   UNL A   1      34.320  32.602  31.707  1.00  0.00    -0.237 OA
ATOM     58  O   UNL A   1      36.034  33.898  30.477  1.00  0.00    -0.237 OA
ATOM     59  O   UNL A   1      35.102  31.838  29.496  1.00  0.00    -0.744 OA
ENDBRANCH  52  56
ENDBRANCH  25  49
BRANCH  37  60
ATOM     60  C   UNL A   1      44.952  33.256  29.417  1.00  0.00     0.023 A 
ATOM     61  C   UNL A   1      44.850  34.210  28.393  1.00  0.00     0.031 A 
ATOM     62  C   UNL A   1      45.636  33.606  30.595  1.00  0.00     0.131 A 
ATOM     63  C   UNL A   1      45.491  35.448  28.533  1.00  0.00     0.055 A 
ATOM     64  C   UNL A   1      46.214  34.865  30.754  1.00  0.00     0.041 A 
ATOM     65  F   UNL A   1      45.760  32.728  31.601  1.00  0.00    -0.206 F 
ATOM     66  C   UNL A   1      46.159  35.788  29.713  1.00  0.00     0.022 A 
BRANCH  63  67
ATOM     67  S   UNL A   1      45.535  36.561  27.104  1.00  0.00     0.124 S 
ATOM     68  O   UNL A   1      45.816  35.637  26.009  1.00  0.00    -0.237 OA
ATOM     69  O   UNL A   1      44.198  37.143  27.120  1.00  0.00    -0.237 OA
ATOM     70  O   UNL A   1      46.618  37.488  27.426  1.00  0.00    -0.744 OA
ENDBRANCH  63  67
ENDBRANCH  37  60
ENDBRANCH  11  12
ENDBRANCH   4   6
ENDBRANCH   3   4
ENDBRANCH   2   3
ENDBRANCH   1   2
BRANCH   1  71
ATOM     71  O   UNL A   1      33.819  21.541  24.547  1.00  0.00    -0.457 OA
BRANCH  71  72
ATOM     72  C   UNL A   1      32.521  21.313  24.910  1.00  0.00     0.358 C 
ATOM     73  O   UNL A   1      31.970  20.224  24.948  1.00  0.00    -0.244 OA
BRANCH  72  74
ATOM     74  C   UNL A   1      31.858  22.583  25.291  1.00  0.00     0.170 A 
ATOM     75  C   UNL A   1      31.575  22.848  26.621  1.00  0.00     0.147 A 
ATOM     76  N   UNL A   1      31.618  23.488  24.299  1.00  0.00    -0.203 NA
ATOM     77  N   UNL A   1      31.047  24.031  27.024  1.00  0.00    -0.257 NA
ATOM     78  C   UNL A   1      31.056  24.647  24.700  1.00  0.00     0.233 A 
ATOM     79  C   UNL A   1      30.796  24.926  26.035  1.00  0.00     0.179 A 
BRANCH  78  80
ATOM     80  O   UNL A   1      30.871  25.617  23.749  1.00  0.00    -0.477 OA
BRANCH  80  81
ATOM     81  C   UNL A   1      29.786  26.492  24.082  1.00  0.00     0.232 C 
BRANCH  81  82
ATOM     82  C   UNL A   1      29.715  27.678  23.114  1.00  0.00     0.046 C 
BRANCH  82  83
ATOM     83  C   UNL A   1      28.409  28.484  23.173  1.00  0.00     0.039 C 
BRANCH  83  84
ATOM     84  C   UNL A   1      28.425  29.930  22.714  1.00  0.00    -0.048 A 
ATOM     85  C   UNL A   1      28.214  30.179  21.346  1.00  0.00     0.004 A 
ATOM     86  C   UNL A   1      28.549  31.031  23.570  1.00  0.00     0.004 A 
ATOM     87  C   UNL A   1      28.093  31.482  20.855  1.00  0.00     0.000 A 
ATOM     88  C   UNL A   1      28.409  32.337  23.082  1.00  0.00     0.000 A 
ATOM     89  C   UNL A   1      28.175  32.561  21.728  1.00  0.00     0.000 A 
ENDBRANCH  83  84
ENDBRANCH  82  83
ENDBRANCH  81  82
ENDBRANCH  80  81
ENDBRANCH  78  80
ENDBRANCH  72  74
ENDBRANCH  71  72
ENDBRANCH   1  71
TORSDOF 19
ENDMDL
