MODEL 1
REMARK VINA RESULT:     -10.6      0.000      0.000
REMARK SMILES CC(=O)C1=C(c2ccccc2)NC(=S)N[C@@H]1c1cc(Cl)ccc1OCC(=O)OCCOC(=O)c1ccc(-c2c3nc(c(-c4cc(S(=O)(=O)[O-])ccc4F)c4ccc([nH]4)c(-c4cc(S(=O)(=O)[O-])ccc4F)c4nc(c(-c5cc(S(=O)(=O)[O-])ccc5F)c5ccc2[nH]5)C=C4)C=C3)cc1
REMARK SMILES IDX 29 1 28 2 26 3 27 4 25 5 24 6 23 7 17 8 18 9 19 10 22 11
REMARK SMILES IDX 20 12 21 13 16 14 4 15 5 16 12 17 15 18 13 19 14 22 2 23
REMARK SMILES IDX 1 24 3 25 6 26 7 27 11 28 8 29 10 30 9 31 30 32 31 33 32 34
REMARK SMILES IDX 33 35 34 36 35 37 96 38 36 39 95 40 37 41 38 42 39 43 89 44
REMARK SMILES IDX 40 45 94 46 88 47 90 48 41 49 93 50 87 51 86 52 42 54 74 55
REMARK SMILES IDX 54 56 73 57 55 58 58 59 72 60 91 61 56 62 57 63 71 65 92 66
REMARK SMILES IDX 59 67 43 68 44 69 52 70 45 71 51 72 53 73 50 74 46 75 47 76
REMARK SMILES IDX 48 77 49 78 75 79 76 80 84 81 77 82 83 83 85 84 82 85 78 86
REMARK SMILES IDX 79 87 80 88 81 89 60 90 61 91 69 92 62 93 68 94 70 95 67 96
REMARK SMILES IDX 63 97 64 98 65 99 66 100
REMARK H PARENT 12 20 15 21 90 53 58 64
REMARK Flexibility Score: inf
ROOT
ATOM      1  C   UNL A   1      41.501  25.581  25.665  1.00  0.00     0.274 C 
ENDROOT
BRANCH   1   2
ATOM      2  O   UNL A   1      42.279  26.653  26.251  1.00  0.00    -0.460 OA
BRANCH   2   3
ATOM      3  C   UNL A   1      42.102  27.881  25.696  1.00  0.00     0.344 C 
ATOM      4  O   UNL A   1      42.338  28.159  24.524  1.00  0.00    -0.248 OA
BRANCH   3   5
ATOM      5  C   UNL A   1      41.424  28.898  26.629  1.00  0.00     0.351 C 
BRANCH   5   6
ATOM      6  O   UNL A   1      40.049  28.990  26.809  1.00  0.00    -0.482 OA
BRANCH   6   7
ATOM      7  C   UNL A   1      39.363  28.881  27.971  1.00  0.00     0.125 A 
ATOM      8  C   UNL A   1      38.056  29.184  28.389  1.00  0.00     0.023 A 
ATOM      9  C   UNL A   1      37.708  28.662  29.674  1.00  0.00     0.030 A 
ATOM     10  C   UNL A   1      38.623  28.127  30.581  1.00  0.00     0.041 A 
ATOM     11  C   UNL A   1      40.273  28.299  28.901  1.00  0.00     0.048 A 
ATOM     12  Cl  UNL A   1      38.122  27.744  32.179  1.00  0.00    -0.084 Cl
ATOM     13  C   UNL A   1      39.933  27.976  30.207  1.00  0.00     0.024 A 
BRANCH   8  14
ATOM     14  C   UNL A   1      37.027  30.266  27.857  1.00  0.00     0.152 C 
ATOM     15  C   UNL A   1      36.639  31.752  29.127  1.00  0.00     0.046 C 
ATOM     16  C   UNL A   1      35.094  32.219  29.484  1.00  0.00     0.057 C 
ATOM     17  N   UNL A   1      33.777  31.648  28.471  1.00  0.00    -0.332 N 
ATOM     18  N   UNL A   1      35.410  29.646  27.021  1.00  0.00    -0.351 N 
ATOM     19  C   UNL A   1      33.799  30.454  27.138  1.00  0.00     0.171 C 
ATOM     20  H   UNL A   1      32.898  32.043  28.666  1.00  0.00     0.169 HD
ATOM     21  H   UNL A   1      35.464  28.821  26.485  1.00  0.00     0.163 HD
ATOM     22  S   UNL A   1      32.476  30.070  26.200  1.00  0.00    -0.041 S 
BRANCH  15  23
ATOM     23  C   UNL A   1      37.868  32.634  29.303  1.00  0.00     0.160 C 
ATOM     24  C   UNL A   1      38.984  32.141  30.233  1.00  0.00     0.093 C 
ATOM     25  O   UNL A   1      37.997  33.648  28.626  1.00  0.00    -0.295 OA
ENDBRANCH  15  23
BRANCH  16  26
ATOM     26  C   UNL A   1      34.559  33.468  30.183  1.00  0.00    -0.002 A 
ATOM     27  C   UNL A   1      33.920  34.519  29.546  1.00  0.00     0.010 A 
ATOM     28  C   UNL A   1      34.724  33.576  31.599  1.00  0.00     0.010 A 
ATOM     29  C   UNL A   1      33.360  35.559  30.314  1.00  0.00     0.001 A 
ATOM     30  C   UNL A   1      34.073  34.534  32.366  1.00  0.00     0.001 A 
ATOM     31  C   UNL A   1      33.380  35.533  31.715  1.00  0.00     0.000 A 
ENDBRANCH  16  26
ENDBRANCH   8  14
ENDBRANCH   6   7
ENDBRANCH   5   6
ENDBRANCH   3   5
ENDBRANCH   2   3
ENDBRANCH   1   2
BRANCH   1  32
ATOM     32  C   UNL A   1      41.180  24.510  26.706  1.00  0.00     0.275 C 
BRANCH  32  33
ATOM     33  O   UNL A   1      41.697  23.239  26.230  1.00  0.00    -0.458 OA
BRANCH  33  34
ATOM     34  C   UNL A   1      43.143  22.982  26.277  1.00  0.00     0.338 C 
ATOM     35  O   UNL A   1      43.186  21.723  26.216  1.00  0.00    -0.246 OA
BRANCH  34  36
ATOM     36  C   UNL A   1      44.700  24.432  26.359  1.00  0.00     0.060 A 
ATOM     37  C   UNL A   1      45.405  25.100  27.519  1.00  0.00     0.016 A 
ATOM     38  C   UNL A   1      45.298  25.246  25.265  1.00  0.00     0.016 A 
ATOM     39  C   UNL A   1      46.081  26.367  27.531  1.00  0.00     0.010 A 
ATOM     40  C   UNL A   1      46.122  26.343  25.204  1.00  0.00     0.010 A 
ATOM     41  C   UNL A   1      46.373  27.019  26.345  1.00  0.00    -0.014 A 
BRANCH  41  42
ATOM     42  C   UNL A   1      47.240  28.161  26.092  1.00  0.00     0.031 A 
ATOM     43  C   UNL A   1      48.749  28.041  26.164  1.00  0.00     0.074 A 
ATOM     44  C   UNL A   1      46.590  29.314  26.310  1.00  0.00     0.049 A 
ATOM     45  N   UNL A   1      49.659  28.954  25.976  1.00  0.00    -0.248 NA
ATOM     46  C   UNL A   1      49.323  26.737  26.550  1.00  0.00     0.031 C 
ATOM     47  C   UNL A   1      45.149  29.418  26.611  1.00  0.00     0.029 A 
ATOM     48  N   UNL A   1      47.036  30.586  26.405  1.00  0.00    -0.354 N 
ATOM     49  C   UNL A   1      50.891  28.318  26.152  1.00  0.00     0.074 A 
ATOM     50  C   UNL A   1      50.628  26.953  26.518  1.00  0.00     0.031 C 
ATOM     51  C   UNL A   1      44.820  30.698  26.770  1.00  0.00     0.029 A 
ATOM     52  C   UNL A   1      46.027  31.484  26.635  1.00  0.00     0.049 A 
ATOM     53  H   UNL A   1      47.983  30.841  26.317  1.00  0.00     0.167 HD
ATOM     54  C   UNL A   1      52.127  28.860  26.057  1.00  0.00     0.034 A 
ATOM     55  C   UNL A   1      46.088  32.817  26.701  1.00  0.00     0.034 A 
ATOM     56  C   UNL A   1      52.286  30.285  25.929  1.00  0.00     0.049 A 
ATOM     57  C   UNL A   1      47.442  33.404  26.480  1.00  0.00     0.074 A 
ATOM     58  C   UNL A   1      53.433  31.031  25.759  1.00  0.00     0.029 A 
ATOM     59  N   UNL A   1      51.227  31.188  26.038  1.00  0.00    -0.354 N 
ATOM     60  N   UNL A   1      48.597  32.781  26.366  1.00  0.00    -0.248 NA
ATOM     61  C   UNL A   1      47.501  34.854  26.359  1.00  0.00     0.031 C 
ATOM     62  C   UNL A   1      53.076  32.382  25.859  1.00  0.00     0.029 A 
ATOM     63  C   UNL A   1      51.695  32.483  25.983  1.00  0.00     0.049 A 
ATOM     64  H   UNL A   1      50.281  30.935  26.139  1.00  0.00     0.167 HD
ATOM     65  C   UNL A   1      49.536  33.772  26.147  1.00  0.00     0.074 A 
ATOM     66  C   UNL A   1      48.789  35.023  26.101  1.00  0.00     0.031 C 
ATOM     67  C   UNL A   1      50.885  33.680  26.006  1.00  0.00     0.034 A 
BRANCH  54  68
ATOM     68  C   UNL A   1      53.331  27.943  26.149  1.00  0.00     0.023 A 
ATOM     69  C   UNL A   1      53.916  27.625  27.393  1.00  0.00     0.031 A 
ATOM     70  C   UNL A   1      53.918  27.379  25.001  1.00  0.00     0.131 A 
ATOM     71  C   UNL A   1      55.066  26.818  27.456  1.00  0.00     0.055 A 
ATOM     72  C   UNL A   1      55.021  26.520  25.075  1.00  0.00     0.041 A 
ATOM     73  F   UNL A   1      53.443  27.666  23.779  1.00  0.00    -0.206 F 
ATOM     74  C   UNL A   1      55.608  26.241  26.307  1.00  0.00     0.022 A 
BRANCH  71  75
ATOM     75  S   UNL A   1      55.919  26.635  29.050  1.00  0.00     0.124 S 
ATOM     76  O   UNL A   1      54.880  26.020  29.873  1.00  0.00    -0.237 OA
ATOM     77  O   UNL A   1      57.048  25.779  28.707  1.00  0.00    -0.237 OA
ATOM     78  O   UNL A   1      56.266  28.007  29.415  1.00  0.00    -0.744 OA
ENDBRANCH  71  75
ENDBRANCH  54  68
BRANCH  55  79
ATOM     79  C   UNL A   1      44.830  33.588  26.817  1.00  0.00     0.023 A 
ATOM     80  C   UNL A   1      44.302  33.868  28.082  1.00  0.00     0.031 A 
ATOM     81  C   UNL A   1      44.207  34.163  25.693  1.00  0.00     0.131 A 
ATOM     82  C   UNL A   1      43.151  34.655  28.196  1.00  0.00     0.055 A 
ATOM     83  C   UNL A   1      43.104  35.007  25.817  1.00  0.00     0.041 A 
ATOM     84  F   UNL A   1      44.713  33.971  24.464  1.00  0.00    -0.206 F 
ATOM     85  C   UNL A   1      42.558  35.243  27.075  1.00  0.00     0.022 A 
BRANCH  82  86
ATOM     86  S   UNL A   1      42.385  34.812  29.828  1.00  0.00     0.124 S 
ATOM     87  O   UNL A   1      43.133  35.925  30.400  1.00  0.00    -0.237 OA
ATOM     88  O   UNL A   1      40.993  35.084  29.485  1.00  0.00    -0.237 OA
ATOM     89  O   UNL A   1      42.634  33.511  30.444  1.00  0.00    -0.744 OA
ENDBRANCH  82  86
ENDBRANCH  55  79
BRANCH  67  90
ATOM     90  C   UNL A   1      51.592  34.986  25.818  1.00  0.00     0.023 A 
ATOM     91  C   UNL A   1      51.877  35.809  26.917  1.00  0.00     0.031 A 
ATOM     92  C   UNL A   1      51.922  35.435  24.530  1.00  0.00     0.131 A 
ATOM     93  C   UNL A   1      52.367  37.097  26.697  1.00  0.00     0.055 A 
ATOM     94  C   UNL A   1      52.515  36.676  24.329  1.00  0.00     0.041 A 
ATOM     95  F   UNL A   1      51.660  34.678  23.452  1.00  0.00    -0.206 F 
ATOM     96  C   UNL A   1      52.716  37.526  25.413  1.00  0.00     0.022 A 
BRANCH  93  97
ATOM     97  S   UNL A   1      52.352  38.255  28.087  1.00  0.00     0.124 S 
ATOM     98  O   UNL A   1      53.773  38.350  28.410  1.00  0.00    -0.237 OA
ATOM     99  O   UNL A   1      51.753  39.447  27.496  1.00  0.00    -0.237 OA
ATOM    100  O   UNL A   1      51.530  37.575  29.086  1.00  0.00    -0.744 OA
ENDBRANCH  93  97
ENDBRANCH  67  90
ENDBRANCH  41  42
ENDBRANCH  34  36
ENDBRANCH  33  34
ENDBRANCH  32  33
ENDBRANCH   1  32
TORSDOF 19
ENDMDL
MODEL 2
REMARK VINA RESULT:     -10.2      4.946      7.597
REMARK SMILES CC(=O)C1=C(c2ccccc2)NC(=S)N[C@@H]1c1cc(Cl)ccc1OCC(=O)OCCOC(=O)c1ccc(-c2c3nc(c(-c4cc(S(=O)(=O)[O-])ccc4F)c4ccc([nH]4)c(-c4cc(S(=O)(=O)[O-])ccc4F)c4nc(c(-c5cc(S(=O)(=O)[O-])ccc5F)c5ccc2[nH]5)C=C4)C=C3)cc1
REMARK SMILES IDX 29 1 28 2 26 3 27 4 25 5 24 6 23 7 17 8 18 9 19 10 22 11
REMARK SMILES IDX 20 12 21 13 16 14 4 15 5 16 12 17 15 18 13 19 14 22 2 23
REMARK SMILES IDX 1 24 3 25 6 26 7 27 11 28 8 29 10 30 9 31 30 32 31 33 32 34
REMARK SMILES IDX 33 35 34 36 35 37 96 38 36 39 95 40 37 41 38 42 39 43 89 44
REMARK SMILES IDX 40 45 94 46 88 47 90 48 41 49 93 50 87 51 86 52 42 54 74 55
REMARK SMILES IDX 54 56 73 57 55 58 58 59 72 60 91 61 56 62 57 63 71 65 92 66
REMARK SMILES IDX 59 67 43 68 44 69 52 70 45 71 51 72 53 73 50 74 46 75 47 76
REMARK SMILES IDX 48 77 49 78 75 79 76 80 84 81 77 82 83 83 85 84 82 85 78 86
REMARK SMILES IDX 79 87 80 88 81 89 60 90 61 91 69 92 62 93 68 94 70 95 67 96
REMARK SMILES IDX 63 97 64 98 65 99 66 100
REMARK H PARENT 12 20 15 21 90 53 58 64
REMARK Flexibility Score: inf
ROOT
ATOM      1  C   UNL A   1      36.900  21.558  24.979  1.00  0.00     0.274 C 
ENDROOT
BRANCH   1   2
ATOM      2  O   UNL A   1      35.696  21.965  24.283  1.00  0.00    -0.460 OA
BRANCH   2   3
ATOM      3  C   UNL A   1      35.852  22.951  23.362  1.00  0.00     0.344 C 
ATOM      4  O   UNL A   1      36.695  22.947  22.469  1.00  0.00    -0.248 OA
BRANCH   3   5
ATOM      5  C   UNL A   1      34.771  24.043  23.424  1.00  0.00     0.351 C 
BRANCH   5   6
ATOM      6  O   UNL A   1      33.422  23.814  23.186  1.00  0.00    -0.482 OA
BRANCH   6   7
ATOM      7  C   UNL A   1      32.382  24.086  24.009  1.00  0.00     0.125 A 
ATOM      8  C   UNL A   1      31.408  25.095  24.084  1.00  0.00     0.023 A 
ATOM      9  C   UNL A   1      30.347  24.827  25.006  1.00  0.00     0.030 A 
ATOM     10  C   UNL A   1      30.368  23.807  25.956  1.00  0.00     0.041 A 
ATOM     11  C   UNL A   1      32.365  23.030  24.966  1.00  0.00     0.048 A 
ATOM     12  Cl  UNL A   1      29.141  23.728  27.156  1.00  0.00    -0.084 Cl
ATOM     13  C   UNL A   1      31.408  22.915  25.965  1.00  0.00     0.024 A 
BRANCH   8  14
ATOM     14  C   UNL A   1      31.443  26.602  23.595  1.00  0.00     0.152 C 
ATOM     15  C   UNL A   1      32.208  27.893  24.906  1.00  0.00     0.046 C 
ATOM     16  C   UNL A   1      31.441  29.302  25.300  1.00  0.00     0.057 C 
ATOM     17  N   UNL A   1      30.109  29.854  24.296  1.00  0.00    -0.332 N 
ATOM     18  N   UNL A   1      29.862  27.326  22.772  1.00  0.00    -0.351 N 
ATOM     19  C   UNL A   1      29.288  29.031  22.935  1.00  0.00     0.171 C 
ATOM     20  H   UNL A   1      29.762  30.749  24.515  1.00  0.00     0.169 HD
ATOM     21  H   UNL A   1      29.321  26.719  22.217  1.00  0.00     0.163 HD
ATOM     22  S   UNL A   1      28.083  29.718  22.011  1.00  0.00    -0.041 S 
BRANCH  15  23
ATOM     23  C   UNL A   1      33.702  27.648  25.082  1.00  0.00     0.160 C 
ATOM     24  C   UNL A   1      34.144  26.589  26.101  1.00  0.00     0.093 C 
ATOM     25  O   UNL A   1      34.506  28.203  24.343  1.00  0.00    -0.295 OA
ENDBRANCH  15  23
BRANCH  16  26
ATOM     26  C   UNL A   1      31.939  30.545  26.037  1.00  0.00    -0.002 A 
ATOM     27  C   UNL A   1      31.247  31.742  26.128  1.00  0.00     0.010 A 
ATOM     28  C   UNL A   1      33.211  30.485  26.686  1.00  0.00     0.010 A 
ATOM     29  C   UNL A   1      31.752  32.777  26.939  1.00  0.00     0.001 A 
ATOM     30  C   UNL A   1      33.653  31.453  27.578  1.00  0.00     0.001 A 
ATOM     31  C   UNL A   1      32.911  32.609  27.709  1.00  0.00     0.000 A 
ENDBRANCH  16  26
ENDBRANCH   8  14
ENDBRANCH   6   7
ENDBRANCH   5   6
ENDBRANCH   3   5
ENDBRANCH   2   3
ENDBRANCH   1   2
BRANCH   1  32
ATOM     32  C   UNL A   1      37.314  20.146  24.569  1.00  0.00     0.275 C 
BRANCH  32  33
ATOM     33  O   UNL A   1      38.133  19.584  25.629  1.00  0.00    -0.458 OA
BRANCH  33  34
ATOM     34  C   UNL A   1      39.460  20.157  25.900  1.00  0.00     0.338 C 
ATOM     35  O   UNL A   1      40.219  19.177  25.664  1.00  0.00    -0.246 OA
BRANCH  34  36
ATOM     36  C   UNL A   1      39.898  22.160  26.472  1.00  0.00     0.060 A 
ATOM     37  C   UNL A   1      39.064  23.422  26.468  1.00  0.00     0.016 A 
ATOM     38  C   UNL A   1      41.204  22.783  26.823  1.00  0.00     0.016 A 
ATOM     39  C   UNL A   1      39.521  24.782  26.407  1.00  0.00     0.010 A 
ATOM     40  C   UNL A   1      41.659  24.069  26.987  1.00  0.00     0.010 A 
ATOM     41  C   UNL A   1      40.858  25.084  26.603  1.00  0.00    -0.014 A 
BRANCH  41  42
ATOM     42  C   UNL A   1      41.506  26.369  26.825  1.00  0.00     0.031 A 
ATOM     43  C   UNL A   1      42.945  26.611  26.419  1.00  0.00     0.074 A 
ATOM     44  C   UNL A   1      40.906  27.042  27.819  1.00  0.00     0.049 A 
ATOM     45  N   UNL A   1      43.670  27.686  26.551  1.00  0.00    -0.248 NA
ATOM     46  C   UNL A   1      43.699  25.486  25.833  1.00  0.00     0.031 C 
ATOM     47  C   UNL A   1      39.663  26.613  28.490  1.00  0.00     0.029 A 
ATOM     48  N   UNL A   1      41.277  28.151  28.496  1.00  0.00    -0.354 N 
ATOM     49  C   UNL A   1      44.921  27.382  26.007  1.00  0.00     0.074 A 
ATOM     50  C   UNL A   1      44.890  26.007  25.588  1.00  0.00     0.031 C 
ATOM     51  C   UNL A   1      39.335  27.501  29.424  1.00  0.00     0.029 A 
ATOM     52  C   UNL A   1      40.363  28.518  29.448  1.00  0.00     0.049 A 
ATOM     53  H   UNL A   1      42.113  28.642  28.325  1.00  0.00     0.167 HD
ATOM     54  C   UNL A   1      46.006  28.185  25.917  1.00  0.00     0.034 A 
ATOM     55  C   UNL A   1      40.361  29.596  30.239  1.00  0.00     0.034 A 
ATOM     56  C   UNL A   1      46.019  29.462  26.581  1.00  0.00     0.049 A 
ATOM     57  C   UNL A   1      41.507  30.530  30.045  1.00  0.00     0.074 A 
ATOM     58  C   UNL A   1      46.982  30.449  26.571  1.00  0.00     0.029 A 
ATOM     59  N   UNL A   1      45.016  29.883  27.455  1.00  0.00    -0.354 N 
ATOM     60  N   UNL A   1      42.582  30.366  29.301  1.00  0.00    -0.248 NA
ATOM     61  C   UNL A   1      41.429  31.799  30.755  1.00  0.00     0.031 C 
ATOM     62  C   UNL A   1      46.602  31.419  27.508  1.00  0.00     0.029 A 
ATOM     63  C   UNL A   1      45.352  31.093  28.022  1.00  0.00     0.049 A 
ATOM     64  H   UNL A   1      44.185  29.387  27.638  1.00  0.00     0.167 HD
ATOM     65  C   UNL A   1      43.318  31.528  29.445  1.00  0.00     0.074 A 
ATOM     66  C   UNL A   1      42.527  32.392  30.313  1.00  0.00     0.031 C 
ATOM     67  C   UNL A   1      44.531  31.861  28.930  1.00  0.00     0.034 A 
BRANCH  54  68
ATOM     68  C   UNL A   1      47.218  27.686  25.154  1.00  0.00     0.023 A 
ATOM     69  C   UNL A   1      47.358  27.919  23.769  1.00  0.00     0.031 A 
ATOM     70  C   UNL A   1      48.246  26.967  25.790  1.00  0.00     0.131 A 
ATOM     71  C   UNL A   1      48.460  27.402  23.065  1.00  0.00     0.055 A 
ATOM     72  C   UNL A   1      49.375  26.514  25.098  1.00  0.00     0.041 A 
ATOM     73  F   UNL A   1      48.166  26.671  27.097  1.00  0.00    -0.206 F 
ATOM     74  C   UNL A   1      49.484  26.723  23.726  1.00  0.00     0.022 A 
BRANCH  71  75
ATOM     75  S   UNL A   1      48.473  27.521  21.252  1.00  0.00     0.124 S 
ATOM     76  O   UNL A   1      48.671  26.126  20.865  1.00  0.00    -0.237 OA
ATOM     77  O   UNL A   1      47.159  28.081  20.963  1.00  0.00    -0.237 OA
ATOM     78  O   UNL A   1      49.603  28.406  20.973  1.00  0.00    -0.744 OA
ENDBRANCH  71  75
ENDBRANCH  54  68
BRANCH  55  79
ATOM     79  C   UNL A   1      39.182  29.855  31.095  1.00  0.00     0.023 A 
ATOM     80  C   UNL A   1      38.272  30.857  30.738  1.00  0.00     0.031 A 
ATOM     81  C   UNL A   1      38.873  29.037  32.198  1.00  0.00     0.131 A 
ATOM     82  C   UNL A   1      37.121  31.056  31.508  1.00  0.00     0.055 A 
ATOM     83  C   UNL A   1      37.689  29.193  32.918  1.00  0.00     0.041 A 
ATOM     84  F   UNL A   1      39.686  28.025  32.543  1.00  0.00    -0.206 F 
ATOM     85  C   UNL A   1      36.812  30.220  32.585  1.00  0.00     0.022 A 
BRANCH  82  86
ATOM     86  S   UNL A   1      36.088  32.495  31.136  1.00  0.00     0.124 S 
ATOM     87  O   UNL A   1      34.961  32.291  32.039  1.00  0.00    -0.237 OA
ATOM     88  O   UNL A   1      36.980  33.602  31.465  1.00  0.00    -0.237 OA
ATOM     89  O   UNL A   1      35.787  32.336  29.716  1.00  0.00    -0.744 OA
ENDBRANCH  82  86
ENDBRANCH  55  79
BRANCH  67  90
ATOM     90  C   UNL A   1      45.042  33.209  29.338  1.00  0.00     0.023 A 
ATOM     91  C   UNL A   1      44.761  34.343  28.564  1.00  0.00     0.031 A 
ATOM     92  C   UNL A   1      45.864  33.344  30.467  1.00  0.00     0.131 A 
ATOM     93  C   UNL A   1      45.398  35.549  28.861  1.00  0.00     0.055 A 
ATOM     94  C   UNL A   1      46.405  34.575  30.822  1.00  0.00     0.041 A 
ATOM     95  F   UNL A   1      46.161  32.280  31.231  1.00  0.00    -0.206 F 
ATOM     96  C   UNL A   1      46.195  35.680  30.003  1.00  0.00     0.022 A 
BRANCH  93  97
ATOM     97  S   UNL A   1      45.321  36.871  27.629  1.00  0.00     0.124 S 
ATOM     98  O   UNL A   1      43.910  36.848  27.255  1.00  0.00    -0.237 OA
ATOM     99  O   UNL A   1      45.758  38.036  28.393  1.00  0.00    -0.237 OA
ATOM    100  O   UNL A   1      46.248  36.423  26.592  1.00  0.00    -0.744 OA
ENDBRANCH  93  97
ENDBRANCH  67  90
ENDBRANCH  41  42
ENDBRANCH  34  36
ENDBRANCH  33  34
ENDBRANCH  32  33
ENDBRANCH   1  32
TORSDOF 19
ENDMDL
MODEL 3
REMARK VINA RESULT:      -9.9      6.714     14.265
REMARK SMILES CC(=O)C1=C(c2ccccc2)NC(=S)N[C@@H]1c1cc(Cl)ccc1OCC(=O)OCCOC(=O)c1ccc(-c2c3nc(c(-c4cc(S(=O)(=O)[O-])ccc4F)c4ccc([nH]4)c(-c4cc(S(=O)(=O)[O-])ccc4F)c4nc(c(-c5cc(S(=O)(=O)[O-])ccc5F)c5ccc2[nH]5)C=C4)C=C3)cc1
REMARK SMILES IDX 29 1 28 2 26 3 27 4 25 5 24 6 23 7 17 8 18 9 19 10 22 11
REMARK SMILES IDX 20 12 21 13 16 14 4 15 5 16 12 17 15 18 13 19 14 22 2 23
REMARK SMILES IDX 1 24 3 25 6 26 7 27 11 28 8 29 10 30 9 31 30 32 31 33 32 34
REMARK SMILES IDX 33 35 34 36 35 37 96 38 36 39 95 40 37 41 38 42 39 43 89 44
REMARK SMILES IDX 40 45 94 46 88 47 90 48 41 49 93 50 87 51 86 52 42 54 74 55
REMARK SMILES IDX 54 56 73 57 55 58 58 59 72 60 91 61 56 62 57 63 71 65 92 66
REMARK SMILES IDX 59 67 43 68 44 69 52 70 45 71 51 72 53 73 50 74 46 75 47 76
REMARK SMILES IDX 48 77 49 78 75 79 76 80 84 81 77 82 83 83 85 84 82 85 78 86
REMARK SMILES IDX 79 87 80 88 81 89 60 90 61 91 69 92 62 93 68 94 70 95 67 96
REMARK SMILES IDX 63 97 64 98 65 99 66 100
REMARK H PARENT 12 20 15 21 90 53 58 64
REMARK Flexibility Score: inf
ROOT
ATOM      1  C   UNL A   1      46.923  32.016  27.009  1.00  0.00     0.274 C 
ENDROOT
BRANCH   1   2
ATOM      2  O   UNL A   1      46.780  30.946  26.043  1.00  0.00    -0.460 OA
BRANCH   2   3
ATOM      3  C   UNL A   1      46.948  29.688  26.527  1.00  0.00     0.344 C 
ATOM      4  O   UNL A   1      47.937  29.303  27.145  1.00  0.00    -0.248 OA
BRANCH   3   5
ATOM      5  C   UNL A   1      45.712  28.786  26.372  1.00  0.00     0.351 C 
BRANCH   5   6
ATOM      6  O   UNL A   1      45.609  27.765  25.437  1.00  0.00    -0.482 OA
BRANCH   6   7
ATOM      7  C   UNL A   1      45.504  26.436  25.677  1.00  0.00     0.125 A 
ATOM      8  C   UNL A   1      44.634  25.625  26.425  1.00  0.00     0.023 A 
ATOM      9  C   UNL A   1      44.775  24.222  26.180  1.00  0.00     0.030 A 
ATOM     10  C   UNL A   1      45.835  23.648  25.480  1.00  0.00     0.041 A 
ATOM     11  C   UNL A   1      46.558  25.828  24.936  1.00  0.00     0.048 A 
ATOM     12  Cl  UNL A   1      46.016  21.940  25.449  1.00  0.00    -0.084 Cl
ATOM     13  C   UNL A   1      46.764  24.456  24.878  1.00  0.00     0.024 A 
BRANCH   8  14
ATOM     14  C   UNL A   1      43.775  25.949  27.716  1.00  0.00     0.152 C 
ATOM     15  C   UNL A   1      42.164  27.077  27.391  1.00  0.00     0.046 C 
ATOM     16  C   UNL A   1      41.828  28.410  28.308  1.00  0.00     0.057 C 
ATOM     17  N   UNL A   1      42.698  28.647  29.816  1.00  0.00    -0.332 N 
ATOM     18  N   UNL A   1      44.700  26.524  29.301  1.00  0.00    -0.351 N 
ATOM     19  C   UNL A   1      44.074  27.726  30.496  1.00  0.00     0.171 C 
ATOM     20  H   UNL A   1      42.382  29.397  30.368  1.00  0.00     0.169 HD
ATOM     21  H   UNL A   1      45.585  26.132  29.477  1.00  0.00     0.163 HD
ATOM     22  S   UNL A   1      44.749  28.014  31.992  1.00  0.00    -0.041 S 
BRANCH  15  23
ATOM     23  C   UNL A   1      41.129  26.305  26.583  1.00  0.00     0.160 C 
ATOM     24  C   UNL A   1      39.986  25.619  27.342  1.00  0.00     0.093 C 
ATOM     25  O   UNL A   1      41.158  26.338  25.358  1.00  0.00    -0.295 OA
ENDBRANCH  15  23
BRANCH  16  26
ATOM     26  C   UNL A   1      40.556  29.247  28.435  1.00  0.00    -0.002 A 
ATOM     27  C   UNL A   1      39.458  29.151  27.596  1.00  0.00     0.010 A 
ATOM     28  C   UNL A   1      40.478  30.207  29.492  1.00  0.00     0.010 A 
ATOM     29  C   UNL A   1      38.294  29.888  27.888  1.00  0.00     0.001 A 
ATOM     30  C   UNL A   1      39.297  30.843  29.852  1.00  0.00     0.001 A 
ATOM     31  C   UNL A   1      38.192  30.677  29.042  1.00  0.00     0.000 A 
ENDBRANCH  16  26
ENDBRANCH   8  14
ENDBRANCH   6   7
ENDBRANCH   5   6
ENDBRANCH   3   5
ENDBRANCH   2   3
ENDBRANCH   1   2
BRANCH   1  32
ATOM     32  C   UNL A   1      47.875  33.093  26.492  1.00  0.00     0.275 C 
BRANCH  32  33
ATOM     33  O   UNL A   1      47.110  34.307  26.262  1.00  0.00    -0.458 OA
BRANCH  33  34
ATOM     34  C   UNL A   1      45.649  34.227  26.124  1.00  0.00     0.338 C 
ATOM     35  O   UNL A   1      45.512  34.109  24.876  1.00  0.00    -0.246 OA
BRANCH  34  36
ATOM     36  C   UNL A   1      44.211  34.245  27.693  1.00  0.00     0.060 A 
ATOM     37  C   UNL A   1      43.512  35.375  28.417  1.00  0.00     0.016 A 
ATOM     38  C   UNL A   1      43.728  33.128  28.552  1.00  0.00     0.016 A 
ATOM     39  C   UNL A   1      42.940  35.361  29.734  1.00  0.00     0.010 A 
ATOM     40  C   UNL A   1      42.997  33.034  29.711  1.00  0.00     0.010 A 
ATOM     41  C   UNL A   1      42.752  34.164  30.406  1.00  0.00    -0.014 A 
BRANCH  41  42
ATOM     42  C   UNL A   1      41.991  33.877  31.613  1.00  0.00     0.031 A 
ATOM     43  C   UNL A   1      40.486  34.053  31.661  1.00  0.00     0.074 A 
ATOM     44  C   UNL A   1      42.769  33.964  32.703  1.00  0.00     0.049 A 
ATOM     45  N   UNL A   1      39.663  33.850  32.651  1.00  0.00    -0.248 NA
ATOM     46  C   UNL A   1      39.811  34.575  30.457  1.00  0.00     0.031 C 
ATOM     47  C   UNL A   1      44.231  34.165  32.673  1.00  0.00     0.029 A 
ATOM     48  N   UNL A   1      42.462  33.985  34.019  1.00  0.00    -0.354 N 
ATOM     49  C   UNL A   1      38.388  34.152  32.164  1.00  0.00     0.074 A 
ATOM     50  C   UNL A   1      38.536  34.606  30.809  1.00  0.00     0.031 C 
ATOM     51  C   UNL A   1      44.698  34.203  33.918  1.00  0.00     0.029 A 
ATOM     52  C   UNL A   1      43.572  34.082  34.817  1.00  0.00     0.049 A 
ATOM     53  H   UNL A   1      41.543  33.938  34.366  1.00  0.00     0.167 HD
ATOM     54  C   UNL A   1      37.210  34.092  32.828  1.00  0.00     0.034 A 
ATOM     55  C   UNL A   1      43.651  34.046  36.150  1.00  0.00     0.034 A 
ATOM     56  C   UNL A   1      37.189  33.862  34.248  1.00  0.00     0.049 A 
ATOM     57  C   UNL A   1      42.353  33.865  36.862  1.00  0.00     0.074 A 
ATOM     58  C   UNL A   1      36.115  33.705  35.099  1.00  0.00     0.029 A 
ATOM     59  N   UNL A   1      38.339  33.833  35.038  1.00  0.00    -0.354 N 
ATOM     60  N   UNL A   1      41.135  33.872  36.360  1.00  0.00    -0.248 NA
ATOM     61  C   UNL A   1      42.434  33.634  38.297  1.00  0.00     0.031 C 
ATOM     62  C   UNL A   1      36.614  33.677  36.407  1.00  0.00     0.029 A 
ATOM     63  C   UNL A   1      38.003  33.706  36.368  1.00  0.00     0.049 A 
ATOM     64  H   UNL A   1      39.260  33.896  34.694  1.00  0.00     0.167 HD
ATOM     65  C   UNL A   1      40.289  33.634  37.428  1.00  0.00     0.074 A 
ATOM     66  C   UNL A   1      41.155  33.444  38.585  1.00  0.00     0.031 C 
ATOM     67  C   UNL A   1      38.931  33.586  37.470  1.00  0.00     0.034 A 
BRANCH  54  68
ATOM     68  C   UNL A   1      35.928  34.329  32.054  1.00  0.00     0.023 A 
ATOM     69  C   UNL A   1      35.119  35.458  32.305  1.00  0.00     0.031 A 
ATOM     70  C   UNL A   1      35.488  33.434  31.061  1.00  0.00     0.131 A 
ATOM     71  C   UNL A   1      33.905  35.635  31.619  1.00  0.00     0.055 A 
ATOM     72  C   UNL A   1      34.314  33.651  30.331  1.00  0.00     0.041 A 
ATOM     73  F   UNL A   1      36.182  32.317  30.792  1.00  0.00    -0.206 F 
ATOM     74  C   UNL A   1      33.509  34.752  30.613  1.00  0.00     0.022 A 
BRANCH  71  75
ATOM     75  S   UNL A   1      32.789  36.968  32.145  1.00  0.00     0.124 S 
ATOM     76  O   UNL A   1      33.301  37.273  33.480  1.00  0.00    -0.237 OA
ATOM     77  O   UNL A   1      33.015  37.988  31.129  1.00  0.00    -0.237 OA
ATOM     78  O   UNL A   1      31.468  36.343  32.119  1.00  0.00    -0.744 OA
ENDBRANCH  71  75
ENDBRANCH  54  68
BRANCH  55  79
ATOM     79  C   UNL A   1      44.987  34.023  36.789  1.00  0.00     0.023 A 
ATOM     80  C   UNL A   1      45.674  32.811  36.916  1.00  0.00     0.031 A 
ATOM     81  C   UNL A   1      45.650  35.207  37.162  1.00  0.00     0.131 A 
ATOM     82  C   UNL A   1      46.965  32.797  37.456  1.00  0.00     0.055 A 
ATOM     83  C   UNL A   1      46.964  35.195  37.631  1.00  0.00     0.041 A 
ATOM     84  F   UNL A   1      45.053  36.400  37.003  1.00  0.00    -0.206 F 
ATOM     85  C   UNL A   1      47.623  33.982  37.797  1.00  0.00     0.022 A 
BRANCH  82  86
ATOM     86  S   UNL A   1      47.727  31.191  37.798  1.00  0.00     0.124 S 
ATOM     87  O   UNL A   1      48.815  31.168  36.828  1.00  0.00    -0.237 OA
ATOM     88  O   UNL A   1      48.117  31.333  39.197  1.00  0.00    -0.237 OA
ATOM     89  O   UNL A   1      46.644  30.244  37.544  1.00  0.00    -0.744 OA
ENDBRANCH  82  86
ENDBRANCH  55  79
BRANCH  67  90
ATOM     90  C   UNL A   1      38.350  33.339  38.828  1.00  0.00     0.023 A 
ATOM     91  C   UNL A   1      38.410  34.327  39.821  1.00  0.00     0.031 A 
ATOM     92  C   UNL A   1      37.793  32.091  39.146  1.00  0.00     0.131 A 
ATOM     93  C   UNL A   1      38.030  34.009  41.126  1.00  0.00     0.055 A 
ATOM     94  C   UNL A   1      37.312  31.820  40.422  1.00  0.00     0.041 A 
ATOM     95  F   UNL A   1      37.722  31.117  38.224  1.00  0.00    -0.206 F 
ATOM     96  C   UNL A   1      37.454  32.772  41.427  1.00  0.00     0.022 A 
BRANCH  93  97
ATOM     97  S   UNL A   1      38.483  35.165  42.442  1.00  0.00     0.124 S 
ATOM     98  O   UNL A   1      39.607  34.477  43.069  1.00  0.00    -0.237 OA
ATOM     99  O   UNL A   1      38.813  36.375  41.697  1.00  0.00    -0.237 OA
ATOM    100  O   UNL A   1      37.270  35.245  43.254  1.00  0.00    -0.744 OA
ENDBRANCH  93  97
ENDBRANCH  67  90
ENDBRANCH  41  42
ENDBRANCH  34  36
ENDBRANCH  33  34
ENDBRANCH  32  33
ENDBRANCH   1  32
TORSDOF 19
ENDMDL
