MODEL 1
REMARK VINA RESULT:     -12.4      0.000      0.000
REMARK SMILES Cc1ccc(N)cc1S(=O)(=O)Nc1cccc(C(=O)OCCOC(=O)c2ccc(-c3c4nc(c(-c5cc(S(=O)(=O)[O-])ccc5F)c5ccc([nH]5)c(-c5cc(S(=O)(=O)[O-])ccc5F)c5nc(c(-c6cc(S(=O)(=O)[O-])ccc6F)c6ccc3[nH]6)C=C5)C=C4)cc2)c1
REMARK SMILES IDX 21 1 20 2 18 3 19 4 17 5 13 6 14 7 89 8 15 9 16 10 12 11
REMARK SMILES IDX 9 13 10 14 11 15 8 16 1 17 2 18 3 19 4 20 7 21 5 22 6 23
REMARK SMILES IDX 22 26 23 27 24 28 25 29 26 30 27 31 88 32 28 33 87 34 29 35
REMARK SMILES IDX 30 36 31 37 81 38 32 39 86 40 80 41 82 42 33 43 85 44 79 45
REMARK SMILES IDX 78 46 34 48 66 49 46 50 65 51 47 52 50 53 64 54 83 55 48 56
REMARK SMILES IDX 49 57 63 59 84 60 51 61 35 62 36 63 44 64 37 65 43 66 45 67
REMARK SMILES IDX 42 68 38 69 39 70 40 71 41 72 67 73 68 74 76 75 69 76 75 77
REMARK SMILES IDX 77 78 74 79 70 80 71 81 72 82 73 83 52 84 53 85 61 86 54 87
REMARK SMILES IDX 60 88 62 89 59 90 55 91 56 92 57 93 58 94
REMARK H PARENT 12 12 6 24 6 25 82 47 50 58
REMARK Flexibility Score: inf
ROOT
ATOM      1  C   UNL A   1      35.027  20.604  25.403  1.00  0.00     0.275 C 
ENDROOT
BRANCH   1   2
ATOM      2  O   UNL A   1      34.090  20.119  24.424  1.00  0.00    -0.458 OA
BRANCH   2   3
ATOM      3  C   UNL A   1      32.794  20.175  24.797  1.00  0.00     0.338 C 
ATOM      4  O   UNL A   1      32.181  19.337  25.444  1.00  0.00    -0.246 OA
BRANCH   3   5
ATOM      5  C   UNL A   1      32.146  21.400  24.289  1.00  0.00     0.062 A 
ATOM      6  C   UNL A   1      31.254  23.518  24.915  1.00  0.00     0.050 A 
ATOM      7  C   UNL A   1      31.555  24.035  23.647  1.00  0.00     0.027 A 
ATOM      8  C   UNL A   1      31.399  22.162  25.184  1.00  0.00     0.042 A 
ATOM      9  C   UNL A   1      32.203  23.244  22.712  1.00  0.00     0.003 A 
ATOM     10  C   UNL A   1      32.556  21.948  23.063  1.00  0.00     0.016 A 
BRANCH   6  11
ATOM     11  N   UNL A   1      31.069  24.480  25.937  1.00  0.00    -0.280 N 
ATOM     12  H   UNL A   1      31.184  24.170  26.866  1.00  0.00     0.180 HD
BRANCH  11  13
ATOM     13  S   UNL A   1      30.677  26.082  25.721  1.00  0.00     0.262 S 
ATOM     14  O   UNL A   1      30.701  26.696  27.035  1.00  0.00    -0.201 OA
ATOM     15  O   UNL A   1      29.453  26.071  24.945  1.00  0.00    -0.201 OA
BRANCH  13  16
ATOM     16  C   UNL A   1      31.878  26.976  24.731  1.00  0.00     0.092 A 
ATOM     17  C   UNL A   1      34.141  25.972  25.524  1.00  0.00     0.046 C 
ATOM     18  C   UNL A   1      33.276  26.990  24.844  1.00  0.00    -0.030 A 
ATOM     19  C   UNL A   1      33.979  28.016  24.178  1.00  0.00     0.007 A 
ATOM     20  C   UNL A   1      33.346  28.868  23.272  1.00  0.00     0.026 A 
ATOM     21  C   UNL A   1      31.267  27.820  23.776  1.00  0.00     0.048 A 
ATOM     22  C   UNL A   1      32.003  28.691  22.977  1.00  0.00     0.033 A 
BRANCH  22  23
ATOM     23  N   UNL A   1      31.374  29.471  22.017  1.00  0.00    -0.399 N 
ATOM     24  H   UNL A   1      31.365  30.451  22.108  1.00  0.00     0.156 HD
ATOM     25  H   UNL A   1      30.938  29.043  21.245  1.00  0.00     0.156 HD
ENDBRANCH  22  23
ENDBRANCH  13  16
ENDBRANCH  11  13
ENDBRANCH   6  11
ENDBRANCH   3   5
ENDBRANCH   2   3
ENDBRANCH   1   2
BRANCH   1  26
ATOM     26  C   UNL A   1      36.460  20.320  24.954  1.00  0.00     0.275 C 
BRANCH  26  27
ATOM     27  O   UNL A   1      37.311  21.452  25.218  1.00  0.00    -0.458 OA
BRANCH  27  28
ATOM     28  C   UNL A   1      38.536  21.139  25.702  1.00  0.00     0.338 C 
ATOM     29  O   UNL A   1      39.141  20.092  25.558  1.00  0.00    -0.246 OA
BRANCH  28  30
ATOM     30  C   UNL A   1      39.111  22.287  26.418  1.00  0.00     0.060 A 
ATOM     31  C   UNL A   1      38.646  23.567  26.135  1.00  0.00     0.016 A 
ATOM     32  C   UNL A   1      40.241  22.116  27.213  1.00  0.00     0.016 A 
ATOM     33  C   UNL A   1      39.393  24.679  26.504  1.00  0.00     0.010 A 
ATOM     34  C   UNL A   1      40.899  23.242  27.716  1.00  0.00     0.010 A 
ATOM     35  C   UNL A   1      40.514  24.539  27.328  1.00  0.00    -0.014 A 
BRANCH  35  36
ATOM     36  C   UNL A   1      41.295  25.731  27.770  1.00  0.00     0.031 A 
ATOM     37  C   UNL A   1      40.630  26.795  28.604  1.00  0.00     0.074 A 
ATOM     38  C   UNL A   1      42.588  25.874  27.415  1.00  0.00     0.049 A 
ATOM     39  N   UNL A   1      41.026  28.014  28.866  1.00  0.00    -0.248 NA
ATOM     40  C   UNL A   1      39.333  26.444  29.200  1.00  0.00     0.031 C 
ATOM     41  C   UNL A   1      43.385  24.888  26.680  1.00  0.00     0.029 A 
ATOM     42  N   UNL A   1      43.463  26.912  27.620  1.00  0.00    -0.354 N 
ATOM     43  C   UNL A   1      40.002  28.596  29.607  1.00  0.00     0.074 A 
ATOM     44  C   UNL A   1      38.957  27.599  29.725  1.00  0.00     0.031 C 
ATOM     45  C   UNL A   1      44.633  25.352  26.527  1.00  0.00     0.029 A 
ATOM     46  C   UNL A   1      44.695  26.714  27.039  1.00  0.00     0.049 A 
ATOM     47  H   UNL A   1      43.233  27.719  28.134  1.00  0.00     0.167 HD
ATOM     48  C   UNL A   1      39.943  29.845  30.137  1.00  0.00     0.034 A 
ATOM     49  C   UNL A   1      45.736  27.551  26.870  1.00  0.00     0.034 A 
ATOM     50  C   UNL A   1      41.012  30.808  30.024  1.00  0.00     0.049 A 
ATOM     51  C   UNL A   1      45.612  28.966  27.367  1.00  0.00     0.074 A 
ATOM     52  C   UNL A   1      41.068  32.101  30.516  1.00  0.00     0.029 A 
ATOM     53  N   UNL A   1      42.221  30.584  29.373  1.00  0.00    -0.354 N 
ATOM     54  N   UNL A   1      44.609  29.534  27.997  1.00  0.00    -0.248 NA
ATOM     55  C   UNL A   1      46.753  29.853  27.121  1.00  0.00     0.031 C 
ATOM     56  C   UNL A   1      42.271  32.681  30.098  1.00  0.00     0.029 A 
ATOM     57  C   UNL A   1      43.012  31.722  29.427  1.00  0.00     0.049 A 
ATOM     58  H   UNL A   1      42.478  29.738  28.939  1.00  0.00     0.167 HD
ATOM     59  C   UNL A   1      45.017  30.840  28.252  1.00  0.00     0.074 A 
ATOM     60  C   UNL A   1      46.356  30.969  27.715  1.00  0.00     0.031 C 
ATOM     61  C   UNL A   1      44.347  31.838  28.883  1.00  0.00     0.034 A 
BRANCH  48  62
ATOM     62  C   UNL A   1      38.656  30.250  30.823  1.00  0.00     0.023 A 
ATOM     63  C   UNL A   1      37.598  30.858  30.125  1.00  0.00     0.031 A 
ATOM     64  C   UNL A   1      38.509  30.081  32.213  1.00  0.00     0.131 A 
ATOM     65  C   UNL A   1      36.493  31.364  30.827  1.00  0.00     0.055 A 
ATOM     66  C   UNL A   1      37.361  30.496  32.892  1.00  0.00     0.041 A 
ATOM     67  F   UNL A   1      39.490  29.527  32.944  1.00  0.00    -0.206 F 
ATOM     68  C   UNL A   1      36.354  31.163  32.202  1.00  0.00     0.022 A 
BRANCH  65  69
ATOM     69  S   UNL A   1      35.338  32.452  29.947  1.00  0.00     0.124 S 
ATOM     70  O   UNL A   1      36.209  33.565  29.577  1.00  0.00    -0.237 OA
ATOM     71  O   UNL A   1      34.882  31.607  28.851  1.00  0.00    -0.237 OA
ATOM     72  O   UNL A   1      34.329  32.768  30.956  1.00  0.00    -0.744 OA
ENDBRANCH  65  69
ENDBRANCH  48  62
BRANCH  49  73
ATOM     73  C   UNL A   1      46.960  27.095  26.150  1.00  0.00     0.023 A 
ATOM     74  C   UNL A   1      47.991  26.438  26.836  1.00  0.00     0.031 A 
ATOM     75  C   UNL A   1      47.129  27.326  24.771  1.00  0.00     0.131 A 
ATOM     76  C   UNL A   1      49.160  26.067  26.153  1.00  0.00     0.055 A 
ATOM     77  C   UNL A   1      48.265  26.898  24.084  1.00  0.00     0.041 A 
ATOM     78  F   UNL A   1      46.174  27.952  24.064  1.00  0.00    -0.206 F 
ATOM     79  C   UNL A   1      49.296  26.276  24.780  1.00  0.00     0.022 A 
BRANCH  76  80
ATOM     80  S   UNL A   1      50.538  25.380  27.111  1.00  0.00     0.124 S 
ATOM     81  O   UNL A   1      50.998  26.551  27.849  1.00  0.00    -0.237 OA
ATOM     82  O   UNL A   1      49.875  24.344  27.896  1.00  0.00    -0.237 OA
ATOM     83  O   UNL A   1      51.453  24.889  26.082  1.00  0.00    -0.744 OA
ENDBRANCH  76  80
ENDBRANCH  49  73
BRANCH  61  84
ATOM     84  C   UNL A   1      45.087  33.138  29.086  1.00  0.00     0.023 A 
ATOM     85  C   UNL A   1      45.052  34.173  28.137  1.00  0.00     0.031 A 
ATOM     86  C   UNL A   1      45.846  33.336  30.254  1.00  0.00     0.131 A 
ATOM     87  C   UNL A   1      45.807  35.337  28.347  1.00  0.00     0.055 A 
ATOM     88  C   UNL A   1      46.540  34.522  30.489  1.00  0.00     0.041 A 
ATOM     89  F   UNL A   1      45.920  32.377  31.191  1.00  0.00    -0.206 F 
ATOM     90  C   UNL A   1      46.533  35.527  29.526  1.00  0.00     0.022 A 
BRANCH  87  91
ATOM     91  S   UNL A   1      45.907  36.564  27.014  1.00  0.00     0.124 S 
ATOM     92  O   UNL A   1      46.965  37.447  27.494  1.00  0.00    -0.237 OA
ATOM     93  O   UNL A   1      46.239  35.741  25.856  1.00  0.00    -0.237 OA
ATOM     94  O   UNL A   1      44.569  37.154  26.991  1.00  0.00    -0.744 OA
ENDBRANCH  87  91
ENDBRANCH  61  84
ENDBRANCH  35  36
ENDBRANCH  28  30
ENDBRANCH  27  28
ENDBRANCH  26  27
ENDBRANCH   1  26
TORSDOF 18
ENDMDL
MODEL 2
REMARK VINA RESULT:     -12.3      1.349      1.882
REMARK SMILES Cc1ccc(N)cc1S(=O)(=O)Nc1cccc(C(=O)OCCOC(=O)c2ccc(-c3c4nc(c(-c5cc(S(=O)(=O)[O-])ccc5F)c5ccc([nH]5)c(-c5cc(S(=O)(=O)[O-])ccc5F)c5nc(c(-c6cc(S(=O)(=O)[O-])ccc6F)c6ccc3[nH]6)C=C5)C=C4)cc2)c1
REMARK SMILES IDX 21 1 20 2 18 3 19 4 17 5 13 6 14 7 89 8 15 9 16 10 12 11
REMARK SMILES IDX 9 13 10 14 11 15 8 16 1 17 2 18 3 19 4 20 7 21 5 22 6 23
REMARK SMILES IDX 22 26 23 27 24 28 25 29 26 30 27 31 88 32 28 33 87 34 29 35
REMARK SMILES IDX 30 36 31 37 81 38 32 39 86 40 80 41 82 42 33 43 85 44 79 45
REMARK SMILES IDX 78 46 34 48 66 49 46 50 65 51 47 52 50 53 64 54 83 55 48 56
REMARK SMILES IDX 49 57 63 59 84 60 51 61 35 62 36 63 44 64 37 65 43 66 45 67
REMARK SMILES IDX 42 68 38 69 39 70 40 71 41 72 67 73 68 74 76 75 69 76 75 77
REMARK SMILES IDX 77 78 74 79 70 80 71 81 72 82 73 83 52 84 53 85 61 86 54 87
REMARK SMILES IDX 60 88 62 89 59 90 55 91 56 92 57 93 58 94
REMARK H PARENT 12 12 6 24 6 25 82 47 50 58
REMARK Flexibility Score: inf
ROOT
ATOM      1  C   UNL A   1      35.023  21.344  25.162  1.00  0.00     0.275 C 
ENDROOT
BRANCH   1   2
ATOM      2  O   UNL A   1      34.397  21.523  23.878  1.00  0.00    -0.458 OA
BRANCH   2   3
ATOM      3  C   UNL A   1      34.439  22.782  23.392  1.00  0.00     0.338 C 
ATOM      4  O   UNL A   1      35.402  23.339  22.884  1.00  0.00    -0.246 OA
BRANCH   3   5
ATOM      5  C   UNL A   1      33.145  23.468  23.578  1.00  0.00     0.062 A 
ATOM      6  C   UNL A   1      31.944  25.479  23.146  1.00  0.00     0.050 A 
ATOM      7  C   UNL A   1      30.733  24.773  23.152  1.00  0.00     0.027 A 
ATOM      8  C   UNL A   1      33.132  24.860  23.519  1.00  0.00     0.042 A 
ATOM      9  C   UNL A   1      30.733  23.397  23.319  1.00  0.00     0.003 A 
ATOM     10  C   UNL A   1      31.950  22.742  23.464  1.00  0.00     0.016 A 
BRANCH   6  11
ATOM     11  N   UNL A   1      31.914  26.734  22.492  1.00  0.00    -0.280 N 
ATOM     12  H   UNL A   1      31.962  26.724  21.508  1.00  0.00     0.180 HD
BRANCH  11  13
ATOM     13  S   UNL A   1      31.808  28.224  23.226  1.00  0.00     0.262 S 
ATOM     14  O   UNL A   1      30.407  28.599  23.201  1.00  0.00    -0.201 OA
ATOM     15  O   UNL A   1      32.794  29.047  22.554  1.00  0.00    -0.201 OA
BRANCH  13  16
ATOM     16  C   UNL A   1      32.286  28.195  24.955  1.00  0.00     0.092 A 
ATOM     17  C   UNL A   1      30.508  26.626  26.020  1.00  0.00     0.046 C 
ATOM     18  C   UNL A   1      31.595  27.658  26.050  1.00  0.00    -0.030 A 
ATOM     19  C   UNL A   1      32.006  28.047  27.343  1.00  0.00     0.007 A 
ATOM     20  C   UNL A   1      33.181  28.771  27.550  1.00  0.00     0.026 A 
ATOM     21  C   UNL A   1      33.495  28.889  25.191  1.00  0.00     0.048 A 
ATOM     22  C   UNL A   1      33.996  29.092  26.475  1.00  0.00     0.033 A 
BRANCH  22  23
ATOM     23  N   UNL A   1      35.209  29.737  26.665  1.00  0.00    -0.399 N 
ATOM     24  H   UNL A   1      36.001  29.222  26.944  1.00  0.00     0.156 HD
ATOM     25  H   UNL A   1      35.278  30.708  26.522  1.00  0.00     0.156 HD
ENDBRANCH  22  23
ENDBRANCH  13  16
ENDBRANCH  11  13
ENDBRANCH   6  11
ENDBRANCH   3   5
ENDBRANCH   2   3
ENDBRANCH   1   2
BRANCH   1  26
ATOM     26  C   UNL A   1      36.357  20.617  25.007  1.00  0.00     0.275 C 
BRANCH  26  27
ATOM     27  O   UNL A   1      37.450  21.555  24.969  1.00  0.00    -0.458 OA
BRANCH  27  28
ATOM     28  C   UNL A   1      38.552  21.170  25.655  1.00  0.00     0.338 C 
ATOM     29  O   UNL A   1      39.062  20.065  25.671  1.00  0.00    -0.246 OA
BRANCH  28  30
ATOM     30  C   UNL A   1      39.127  22.312  26.381  1.00  0.00     0.060 A 
ATOM     31  C   UNL A   1      38.649  23.592  26.121  1.00  0.00     0.016 A 
ATOM     32  C   UNL A   1      40.267  22.138  27.159  1.00  0.00     0.016 A 
ATOM     33  C   UNL A   1      39.392  24.705  26.496  1.00  0.00     0.010 A 
ATOM     34  C   UNL A   1      40.923  23.262  27.671  1.00  0.00     0.010 A 
ATOM     35  C   UNL A   1      40.523  24.562  27.306  1.00  0.00    -0.014 A 
BRANCH  35  36
ATOM     36  C   UNL A   1      41.301  25.753  27.754  1.00  0.00     0.031 A 
ATOM     37  C   UNL A   1      40.636  26.806  28.604  1.00  0.00     0.074 A 
ATOM     38  C   UNL A   1      42.591  25.906  27.393  1.00  0.00     0.049 A 
ATOM     39  N   UNL A   1      41.027  28.024  28.876  1.00  0.00    -0.248 NA
ATOM     40  C   UNL A   1      39.344  26.441  29.204  1.00  0.00     0.031 C 
ATOM     41  C   UNL A   1      43.389  24.933  26.643  1.00  0.00     0.029 A 
ATOM     42  N   UNL A   1      43.462  26.947  27.604  1.00  0.00    -0.354 N 
ATOM     43  C   UNL A   1      40.004  28.592  29.629  1.00  0.00     0.074 A 
ATOM     44  C   UNL A   1      38.965  27.589  29.743  1.00  0.00     0.031 C 
ATOM     45  C   UNL A   1      44.633  25.404  26.488  1.00  0.00     0.029 A 
ATOM     46  C   UNL A   1      44.691  26.761  27.014  1.00  0.00     0.049 A 
ATOM     47  H   UNL A   1      43.231  27.748  28.127  1.00  0.00     0.167 HD
ATOM     48  C   UNL A   1      39.943  29.835  30.172  1.00  0.00     0.034 A 
ATOM     49  C   UNL A   1      45.727  27.606  26.847  1.00  0.00     0.034 A 
ATOM     50  C   UNL A   1      41.006  30.806  30.063  1.00  0.00     0.049 A 
ATOM     51  C   UNL A   1      45.599  29.015  27.359  1.00  0.00     0.074 A 
ATOM     52  C   UNL A   1      41.057  32.094  30.567  1.00  0.00     0.029 A 
ATOM     53  N   UNL A   1      42.212  30.594  29.403  1.00  0.00    -0.354 N 
ATOM     54  N   UNL A   1      44.597  29.572  28.000  1.00  0.00    -0.248 NA
ATOM     55  C   UNL A   1      46.734  29.911  27.115  1.00  0.00     0.031 C 
ATOM     56  C   UNL A   1      42.255  32.684  30.149  1.00  0.00     0.029 A 
ATOM     57  C   UNL A   1      42.997  31.736  29.463  1.00  0.00     0.049 A 
ATOM     58  H   UNL A   1      42.471  29.755  28.957  1.00  0.00     0.167 HD
ATOM     59  C   UNL A   1      44.999  30.877  28.267  1.00  0.00     0.074 A 
ATOM     60  C   UNL A   1      46.335  31.018  27.723  1.00  0.00     0.031 C 
ATOM     61  C   UNL A   1      44.328  31.864  28.912  1.00  0.00     0.034 A 
BRANCH  48  62
ATOM     62  C   UNL A   1      38.658  30.227  30.871  1.00  0.00     0.023 A 
ATOM     63  C   UNL A   1      37.597  30.847  30.188  1.00  0.00     0.031 A 
ATOM     64  C   UNL A   1      38.515  30.031  32.257  1.00  0.00     0.131 A 
ATOM     65  C   UNL A   1      36.494  31.339  30.903  1.00  0.00     0.055 A 
ATOM     66  C   UNL A   1      37.369  30.432  32.948  1.00  0.00     0.041 A 
ATOM     67  F   UNL A   1      39.499  29.463  32.974  1.00  0.00    -0.206 F 
ATOM     68  C   UNL A   1      36.359  31.112  32.274  1.00  0.00     0.022 A 
BRANCH  65  69
ATOM     69  S   UNL A   1      35.336  32.444  30.048  1.00  0.00     0.124 S 
ATOM     70  O   UNL A   1      34.344  32.693  31.092  1.00  0.00    -0.237 OA
ATOM     71  O   UNL A   1      36.184  33.575  29.691  1.00  0.00    -0.237 OA
ATOM     72  O   UNL A   1      34.859  31.639  28.925  1.00  0.00    -0.744 OA
ENDBRANCH  65  69
ENDBRANCH  48  62
BRANCH  49  73
ATOM     73  C   UNL A   1      46.949  27.163  26.115  1.00  0.00     0.023 A 
ATOM     74  C   UNL A   1      47.989  26.507  26.788  1.00  0.00     0.031 A 
ATOM     75  C   UNL A   1      47.107  27.408  24.737  1.00  0.00     0.131 A 
ATOM     76  C   UNL A   1      49.155  26.150  26.094  1.00  0.00     0.055 A 
ATOM     77  C   UNL A   1      48.241  26.993  24.038  1.00  0.00     0.041 A 
ATOM     78  F   UNL A   1      46.144  28.034  24.042  1.00  0.00    -0.206 F 
ATOM     79  C   UNL A   1      49.281  26.371  24.722  1.00  0.00     0.022 A 
BRANCH  76  80
ATOM     80  S   UNL A   1      50.544  25.462  27.037  1.00  0.00     0.124 S 
ATOM     81  O   UNL A   1      51.495  25.151  25.976  1.00  0.00    -0.237 OA
ATOM     82  O   UNL A   1      50.897  26.575  27.912  1.00  0.00    -0.237 OA
ATOM     83  O   UNL A   1      49.956  24.305  27.709  1.00  0.00    -0.744 OA
ENDBRANCH  76  80
ENDBRANCH  49  73
BRANCH  61  84
ATOM     84  C   UNL A   1      45.062  33.166  29.124  1.00  0.00     0.023 A 
ATOM     85  C   UNL A   1      44.878  34.273  28.280  1.00  0.00     0.031 A 
ATOM     86  C   UNL A   1      45.968  33.292  30.193  1.00  0.00     0.131 A 
ATOM     87  C   UNL A   1      45.631  35.440  28.484  1.00  0.00     0.055 A 
ATOM     88  C   UNL A   1      46.664  34.477  30.432  1.00  0.00     0.041 A 
ATOM     89  F   UNL A   1      46.189  32.263  31.027  1.00  0.00    -0.206 F 
ATOM     90  C   UNL A   1      46.506  35.556  29.568  1.00  0.00     0.022 A 
BRANCH  87  91
ATOM     91  S   UNL A   1      45.524  36.773  27.260  1.00  0.00     0.124 S 
ATOM     92  O   UNL A   1      46.515  36.358  26.273  1.00  0.00    -0.237 OA
ATOM     93  O   UNL A   1      44.130  36.697  26.835  1.00  0.00    -0.237 OA
ATOM     94  O   UNL A   1      45.873  37.970  28.024  1.00  0.00    -0.744 OA
ENDBRANCH  87  91
ENDBRANCH  61  84
ENDBRANCH  35  36
ENDBRANCH  28  30
ENDBRANCH  27  28
ENDBRANCH  26  27
ENDBRANCH   1  26
TORSDOF 18
ENDMDL
MODEL 3
REMARK VINA RESULT:     -12.3      5.029     10.069
REMARK SMILES Cc1ccc(N)cc1S(=O)(=O)Nc1cccc(C(=O)OCCOC(=O)c2ccc(-c3c4nc(c(-c5cc(S(=O)(=O)[O-])ccc5F)c5ccc([nH]5)c(-c5cc(S(=O)(=O)[O-])ccc5F)c5nc(c(-c6cc(S(=O)(=O)[O-])ccc6F)c6ccc3[nH]6)C=C5)C=C4)cc2)c1
REMARK SMILES IDX 21 1 20 2 18 3 19 4 17 5 13 6 14 7 89 8 15 9 16 10 12 11
REMARK SMILES IDX 9 13 10 14 11 15 8 16 1 17 2 18 3 19 4 20 7 21 5 22 6 23
REMARK SMILES IDX 22 26 23 27 24 28 25 29 26 30 27 31 88 32 28 33 87 34 29 35
REMARK SMILES IDX 30 36 31 37 81 38 32 39 86 40 80 41 82 42 33 43 85 44 79 45
REMARK SMILES IDX 78 46 34 48 66 49 46 50 65 51 47 52 50 53 64 54 83 55 48 56
REMARK SMILES IDX 49 57 63 59 84 60 51 61 35 62 36 63 44 64 37 65 43 66 45 67
REMARK SMILES IDX 42 68 38 69 39 70 40 71 41 72 67 73 68 74 76 75 69 76 75 77
REMARK SMILES IDX 77 78 74 79 70 80 71 81 72 82 73 83 52 84 53 85 61 86 54 87
REMARK SMILES IDX 60 88 62 89 59 90 55 91 56 92 57 93 58 94
REMARK H PARENT 12 12 6 24 6 25 82 47 50 58
REMARK Flexibility Score: inf
ROOT
ATOM      1  C   UNL A   1      31.670  29.431  25.361  1.00  0.00     0.275 C 
ENDROOT
BRANCH   1   2
ATOM      2  O   UNL A   1      32.566  28.449  25.914  1.00  0.00    -0.458 OA
BRANCH   2   3
ATOM      3  C   UNL A   1      32.953  27.481  25.057  1.00  0.00     0.338 C 
ATOM      4  O   UNL A   1      33.900  27.524  24.283  1.00  0.00    -0.246 OA
BRANCH   3   5
ATOM      5  C   UNL A   1      32.048  26.316  25.124  1.00  0.00     0.062 A 
ATOM      6  C   UNL A   1      31.219  24.440  23.914  1.00  0.00     0.050 A 
ATOM      7  C   UNL A   1      31.009  23.743  25.113  1.00  0.00     0.027 A 
ATOM      8  C   UNL A   1      31.585  25.781  23.925  1.00  0.00     0.042 A 
ATOM      9  C   UNL A   1      31.370  24.317  26.321  1.00  0.00     0.003 A 
ATOM     10  C   UNL A   1      31.952  25.578  26.314  1.00  0.00     0.016 A 
BRANCH   6  11
ATOM     11  N   UNL A   1      31.304  23.639  22.750  1.00  0.00    -0.280 N 
ATOM     12  H   UNL A   1      30.564  23.713  22.104  1.00  0.00     0.180 HD
BRANCH  11  13
ATOM     13  S   UNL A   1      32.531  22.582  22.371  1.00  0.00     0.262 S 
ATOM     14  O   UNL A   1      33.446  23.302  21.506  1.00  0.00    -0.201 OA
ATOM     15  O   UNL A   1      31.866  21.386  21.891  1.00  0.00    -0.201 OA
BRANCH  13  16
ATOM     16  C   UNL A   1      33.492  22.072  23.798  1.00  0.00     0.092 A 
ATOM     17  C   UNL A   1      34.970  24.156  24.273  1.00  0.00     0.046 C 
ATOM     18  C   UNL A   1      34.585  22.713  24.397  1.00  0.00    -0.030 A 
ATOM     19  C   UNL A   1      35.378  21.963  25.292  1.00  0.00     0.007 A 
ATOM     20  C   UNL A   1      34.985  20.700  25.734  1.00  0.00     0.026 A 
ATOM     21  C   UNL A   1      33.091  20.811  24.294  1.00  0.00     0.048 A 
ATOM     22  C   UNL A   1      33.772  20.168  25.325  1.00  0.00     0.033 A 
BRANCH  22  23
ATOM     23  N   UNL A   1      33.322  18.952  25.818  1.00  0.00    -0.399 N 
ATOM     24  H   UNL A   1      32.929  18.288  25.206  1.00  0.00     0.156 HD
ATOM     25  H   UNL A   1      33.396  18.753  26.779  1.00  0.00     0.156 HD
ENDBRANCH  22  23
ENDBRANCH  13  16
ENDBRANCH  11  13
ENDBRANCH   6  11
ENDBRANCH   3   5
ENDBRANCH   2   3
ENDBRANCH   1   2
BRANCH   1  26
ATOM     26  C   UNL A   1      31.790  30.750  26.122  1.00  0.00     0.275 C 
BRANCH  26  27
ATOM     27  O   UNL A   1      32.703  30.620  27.229  1.00  0.00    -0.458 OA
BRANCH  27  28
ATOM     28  C   UNL A   1      33.462  31.715  27.470  1.00  0.00     0.338 C 
ATOM     29  O   UNL A   1      33.109  32.879  27.434  1.00  0.00    -0.246 OA
BRANCH  28  30
ATOM     30  C   UNL A   1      34.825  31.318  27.851  1.00  0.00     0.060 A 
ATOM     31  C   UNL A   1      35.069  30.002  28.228  1.00  0.00     0.016 A 
ATOM     32  C   UNL A   1      35.808  32.287  28.029  1.00  0.00     0.016 A 
ATOM     33  C   UNL A   1      36.225  29.678  28.930  1.00  0.00     0.010 A 
ATOM     34  C   UNL A   1      37.035  31.922  28.592  1.00  0.00     0.010 A 
ATOM     35  C   UNL A   1      37.242  30.624  29.095  1.00  0.00    -0.014 A 
BRANCH  35  36
ATOM     36  C   UNL A   1      38.506  30.274  29.805  1.00  0.00     0.031 A 
ATOM     37  C   UNL A   1      39.482  29.317  29.170  1.00  0.00     0.074 A 
ATOM     38  C   UNL A   1      38.778  30.794  31.019  1.00  0.00     0.049 A 
ATOM     39  N   UNL A   1      40.488  28.676  29.708  1.00  0.00    -0.248 NA
ATOM     40  C   UNL A   1      39.277  29.026  27.743  1.00  0.00     0.031 C 
ATOM     41  C   UNL A   1      37.968  31.793  31.721  1.00  0.00     0.029 A 
ATOM     42  N   UNL A   1      39.813  30.547  31.887  1.00  0.00    -0.354 N 
ATOM     43  C   UNL A   1      41.000  27.861  28.703  1.00  0.00     0.074 A 
ATOM     44  C   UNL A   1      40.172  28.073  27.533  1.00  0.00     0.031 C 
ATOM     45  C   UNL A   1      38.551  32.098  32.888  1.00  0.00     0.029 A 
ATOM     46  C   UNL A   1      39.705  31.230  33.078  1.00  0.00     0.049 A 
ATOM     47  H   UNL A   1      40.561  29.942  31.679  1.00  0.00     0.167 HD
ATOM     48  C   UNL A   1      42.063  27.018  28.756  1.00  0.00     0.034 A 
ATOM     49  C   UNL A   1      40.407  31.125  34.222  1.00  0.00     0.034 A 
ATOM     50  C   UNL A   1      42.886  26.847  29.930  1.00  0.00     0.049 A 
ATOM     51  C   UNL A   1      41.512  30.106  34.300  1.00  0.00     0.074 A 
ATOM     52  C   UNL A   1      43.984  26.022  30.104  1.00  0.00     0.029 A 
ATOM     53  N   UNL A   1      42.703  27.517  31.135  1.00  0.00    -0.354 N 
ATOM     54  N   UNL A   1      41.940  29.281  33.372  1.00  0.00    -0.248 NA
ATOM     55  C   UNL A   1      42.217  29.996  35.581  1.00  0.00     0.031 C 
ATOM     56  C   UNL A   1      44.415  26.136  31.431  1.00  0.00     0.029 A 
ATOM     57  C   UNL A   1      43.647  27.101  32.062  1.00  0.00     0.049 A 
ATOM     58  H   UNL A   1      42.003  28.189  31.305  1.00  0.00     0.167 HD
ATOM     59  C   UNL A   1      42.993  28.578  33.951  1.00  0.00     0.074 A 
ATOM     60  C   UNL A   1      43.135  29.082  35.301  1.00  0.00     0.031 C 
ATOM     61  C   UNL A   1      43.776  27.611  33.409  1.00  0.00     0.034 A 
BRANCH  48  62
ATOM     62  C   UNL A   1      42.344  26.174  27.531  1.00  0.00     0.023 A 
ATOM     63  C   UNL A   1      41.828  24.874  27.386  1.00  0.00     0.031 A 
ATOM     64  C   UNL A   1      43.193  26.656  26.517  1.00  0.00     0.131 A 
ATOM     65  C   UNL A   1      42.245  24.069  26.314  1.00  0.00     0.055 A 
ATOM     66  C   UNL A   1      43.524  25.885  25.399  1.00  0.00     0.041 A 
ATOM     67  F   UNL A   1      43.736  27.881  26.603  1.00  0.00    -0.206 F 
ATOM     68  C   UNL A   1      43.067  24.575  25.305  1.00  0.00     0.022 A 
BRANCH  65  69
ATOM     69  S   UNL A   1      41.851  22.299  26.362  1.00  0.00     0.124 S 
ATOM     70  O   UNL A   1      42.613  21.798  25.220  1.00  0.00    -0.237 OA
ATOM     71  O   UNL A   1      42.339  21.903  27.677  1.00  0.00    -0.237 OA
ATOM     72  O   UNL A   1      40.399  22.267  26.196  1.00  0.00    -0.744 OA
ENDBRANCH  65  69
ENDBRANCH  48  62
BRANCH  49  73
ATOM     73  C   UNL A   1      40.050  31.962  35.404  1.00  0.00     0.023 A 
ATOM     74  C   UNL A   1      39.109  31.513  36.342  1.00  0.00     0.031 A 
ATOM     75  C   UNL A   1      40.624  33.232  35.604  1.00  0.00     0.131 A 
ATOM     76  C   UNL A   1      38.743  32.338  37.416  1.00  0.00     0.055 A 
ATOM     77  C   UNL A   1      40.305  34.022  36.708  1.00  0.00     0.041 A 
ATOM     78  F   UNL A   1      41.529  33.713  34.736  1.00  0.00    -0.206 F 
ATOM     79  C   UNL A   1      39.348  33.581  37.616  1.00  0.00     0.022 A 
BRANCH  76  80
ATOM     80  S   UNL A   1      37.400  31.794  38.505  1.00  0.00     0.124 S 
ATOM     81  O   UNL A   1      37.185  30.426  38.048  1.00  0.00    -0.237 OA
ATOM     82  O   UNL A   1      38.000  31.943  39.826  1.00  0.00    -0.237 OA
ATOM     83  O   UNL A   1      36.319  32.731  38.204  1.00  0.00    -0.744 OA
ENDBRANCH  76  80
ENDBRANCH  49  73
BRANCH  61  84
ATOM     84  C   UNL A   1      44.905  27.085  34.263  1.00  0.00     0.023 A 
ATOM     85  C   UNL A   1      44.760  25.947  35.073  1.00  0.00     0.031 A 
ATOM     86  C   UNL A   1      46.146  27.746  34.265  1.00  0.00     0.131 A 
ATOM     87  C   UNL A   1      45.821  25.536  35.895  1.00  0.00     0.055 A 
ATOM     88  C   UNL A   1      47.219  27.294  35.033  1.00  0.00     0.041 A 
ATOM     89  F   UNL A   1      46.337  28.844  33.515  1.00  0.00    -0.206 F 
ATOM     90  C   UNL A   1      47.056  26.189  35.862  1.00  0.00     0.022 A 
BRANCH  87  91
ATOM     91  S   UNL A   1      45.537  24.192  37.079  1.00  0.00     0.124 S 
ATOM     92  O   UNL A   1      46.879  23.961  37.602  1.00  0.00    -0.237 OA
ATOM     93  O   UNL A   1      44.584  24.790  38.008  1.00  0.00    -0.237 OA
ATOM     94  O   UNL A   1      45.000  23.113  36.251  1.00  0.00    -0.744 OA
ENDBRANCH  87  91
ENDBRANCH  61  84
ENDBRANCH  35  36
ENDBRANCH  28  30
ENDBRANCH  27  28
ENDBRANCH  26  27
ENDBRANCH   1  26
TORSDOF 18
ENDMDL
