MODEL 1
REMARK VINA RESULT:     -12.6      0.000      0.000
REMARK SMILES Cc1c(Cl)cc2c(c1C)O[C@@H](C(F)(F)F)C(C(=O)OCCOC(=O)c1ccc(-c3c4nc(c(-c5cc(S(=O)(=O)[O-])ccc5F)c5ccc([nH]5)c(-c5cc(S(=O)(=O)[O-])ccc5F)c5nc(c(-c6cc(S(=O)(=O)[O-])ccc6F)c6ccc3[nH]6)C=C5)C=C4)cc1)=C2
REMARK SMILES IDX 21 1 20 2 19 3 17 4 18 5 16 6 1 7 2 8 3 9 8 10 4 11 5 12
REMARK SMILES IDX 7 13 9 14 6 15 10 16 88 17 11 18 12 19 13 20 14 21 15 22
REMARK SMILES IDX 22 23 23 24 24 25 25 26 26 27 87 28 27 29 86 30 28 31 29 32
REMARK SMILES IDX 30 33 80 34 31 35 85 36 79 37 81 38 32 39 84 40 78 41 77 42
REMARK SMILES IDX 33 44 65 45 45 46 64 47 46 48 49 49 63 50 82 51 47 52 48 53
REMARK SMILES IDX 62 55 83 56 50 57 34 58 35 59 43 60 36 61 42 62 44 63 41 64
REMARK SMILES IDX 37 65 38 66 39 67 40 68 66 69 67 70 75 71 68 72 74 73 76 74
REMARK SMILES IDX 73 75 69 76 70 77 71 78 72 79 51 80 52 81 60 82 53 83 59 84
REMARK SMILES IDX 61 85 58 86 54 87 55 88 56 89 57 90
REMARK H PARENT 81 43 49 54
REMARK Flexibility Score: inf
ROOT
ATOM      1  C   UNL A   1      36.241  21.305  24.623  1.00  0.00     0.275 C 
ENDROOT
BRANCH   1   2
ATOM      2  C   UNL A   1      34.954  20.535  24.912  1.00  0.00     0.275 C 
BRANCH   2   3
ATOM      3  O   UNL A   1      33.831  21.439  24.980  1.00  0.00    -0.459 OA
BRANCH   3   4
ATOM      4  C   UNL A   1      33.528  21.922  26.206  1.00  0.00     0.338 C 
ATOM      5  O   UNL A   1      33.682  21.343  27.263  1.00  0.00    -0.246 OA
BRANCH   4   6
ATOM      6  C   UNL A   1      33.036  23.311  26.104  1.00  0.00     0.087 C 
ATOM      7  C   UNL A   1      32.577  29.776  25.214  1.00  0.00     0.046 C 
ATOM      8  C   UNL A   1      32.766  28.280  25.230  1.00  0.00    -0.026 A 
ATOM      9  C   UNL A   1      33.593  27.704  24.239  1.00  0.00     0.045 A 
ATOM     10  C   UNL A   1      32.199  27.432  26.218  1.00  0.00    -0.004 A 
ATOM     11  Cl  UNL A   1      34.350  28.659  23.008  1.00  0.00    -0.084 Cl
ATOM     12  C   UNL A   1      33.871  26.340  24.232  1.00  0.00     0.032 A 
ATOM     13  C   UNL A   1      32.470  26.044  26.176  1.00  0.00     0.131 A 
ATOM     14  C   UNL A   1      31.310  27.926  27.331  1.00  0.00     0.049 C 
ATOM     15  C   UNL A   1      33.326  25.515  25.213  1.00  0.00     0.019 A 
ATOM     16  O   UNL A   1      31.924  25.258  27.164  1.00  0.00    -0.475 OA
ATOM     17  C   UNL A   1      33.724  24.125  25.295  1.00  0.00     0.027 C 
ATOM     18  C   UNL A   1      31.918  23.809  26.976  1.00  0.00     0.316 C 
BRANCH  18  19
ATOM     19  C   UNL A   1      30.507  23.341  26.577  1.00  0.00     0.430 C 
ATOM     20  F   UNL A   1      30.459  22.806  25.340  1.00  0.00    -0.167 F 
ATOM     21  F   UNL A   1      30.017  22.425  27.447  1.00  0.00    -0.167 F 
ATOM     22  F   UNL A   1      29.627  24.376  26.606  1.00  0.00    -0.167 F 
ENDBRANCH  18  19
ENDBRANCH   4   6
ENDBRANCH   3   4
ENDBRANCH   2   3
ENDBRANCH   1   2
BRANCH   1  23
ATOM     23  O   UNL A   1      36.924  21.579  25.858  1.00  0.00    -0.458 OA
BRANCH  23  24
ATOM     24  C   UNL A   1      38.269  21.438  25.828  1.00  0.00     0.338 C 
ATOM     25  O   UNL A   1      38.904  20.518  25.337  1.00  0.00    -0.246 OA
BRANCH  24  26
ATOM     26  C   UNL A   1      38.908  22.606  26.458  1.00  0.00     0.060 A 
ATOM     27  C   UNL A   1      38.425  23.878  26.170  1.00  0.00     0.016 A 
ATOM     28  C   UNL A   1      40.070  22.456  27.211  1.00  0.00     0.016 A 
ATOM     29  C   UNL A   1      39.170  25.003  26.515  1.00  0.00     0.010 A 
ATOM     30  C   UNL A   1      40.747  23.594  27.670  1.00  0.00     0.010 A 
ATOM     31  C   UNL A   1      40.334  24.885  27.289  1.00  0.00    -0.014 A 
BRANCH  31  32
ATOM     32  C   UNL A   1      41.134  26.094  27.660  1.00  0.00     0.031 A 
ATOM     33  C   UNL A   1      40.543  27.151  28.565  1.00  0.00     0.074 A 
ATOM     34  C   UNL A   1      42.404  26.244  27.223  1.00  0.00     0.049 A 
ATOM     35  N   UNL A   1      40.992  28.350  28.840  1.00  0.00    -0.248 NA
ATOM     36  C   UNL A   1      39.276  26.822  29.239  1.00  0.00     0.031 C 
ATOM     37  C   UNL A   1      43.138  25.281  26.397  1.00  0.00     0.029 A 
ATOM     38  N   UNL A   1      43.317  27.253  27.429  1.00  0.00    -0.354 N 
ATOM     39  C   UNL A   1      40.043  28.934  29.675  1.00  0.00     0.074 A 
ATOM     40  C   UNL A   1      38.986  27.962  29.853  1.00  0.00     0.031 C 
ATOM     41  C   UNL A   1      44.398  25.708  26.231  1.00  0.00     0.029 A 
ATOM     42  C   UNL A   1      44.538  27.029  26.833  1.00  0.00     0.049 A 
ATOM     43  H   UNL A   1      43.115  28.060  27.956  1.00  0.00     0.167 HD
ATOM     44  C   UNL A   1      40.052  30.167  30.240  1.00  0.00     0.034 A 
ATOM     45  C   UNL A   1      45.633  27.810  26.733  1.00  0.00     0.034 A 
ATOM     46  C   UNL A   1      41.136  31.109  30.107  1.00  0.00     0.049 A 
ATOM     47  C   UNL A   1      45.593  29.198  27.313  1.00  0.00     0.074 A 
ATOM     48  C   UNL A   1      41.233  32.388  30.629  1.00  0.00     0.029 A 
ATOM     49  N   UNL A   1      42.320  30.867  29.426  1.00  0.00    -0.354 N 
ATOM     50  N   UNL A   1      44.630  29.782  27.986  1.00  0.00    -0.248 NA
ATOM     51  C   UNL A   1      46.773  30.045  27.090  1.00  0.00     0.031 C 
ATOM     52  C   UNL A   1      42.455  32.935  30.227  1.00  0.00     0.029 A 
ATOM     53  C   UNL A   1      43.146  31.977  29.504  1.00  0.00     0.049 A 
ATOM     54  H   UNL A   1      42.542  30.030  28.958  1.00  0.00     0.167 HD
ATOM     55  C   UNL A   1      45.092  31.062  28.272  1.00  0.00     0.074 A 
ATOM     56  C   UNL A   1      46.424  31.161  27.715  1.00  0.00     0.031 C 
ATOM     57  C   UNL A   1      44.466  32.066  28.932  1.00  0.00     0.034 A 
BRANCH  44  58
ATOM     58  C   UNL A   1      38.839  30.594  31.025  1.00  0.00     0.023 A 
ATOM     59  C   UNL A   1      37.747  31.238  30.420  1.00  0.00     0.031 A 
ATOM     60  C   UNL A   1      38.760  30.308  32.401  1.00  0.00     0.131 A 
ATOM     61  C   UNL A   1      36.636  31.601  31.196  1.00  0.00     0.055 A 
ATOM     62  C   UNL A   1      37.627  30.619  33.155  1.00  0.00     0.041 A 
ATOM     63  F   UNL A   1      39.781  29.706  33.032  1.00  0.00    -0.206 F 
ATOM     64  C   UNL A   1      36.558  31.274  32.553  1.00  0.00     0.022 A 
BRANCH  61  65
ATOM     65  S   UNL A   1      35.305  32.562  30.424  1.00  0.00     0.124 S 
ATOM     66  O   UNL A   1      35.983  33.825  30.141  1.00  0.00    -0.237 OA
ATOM     67  O   UNL A   1      34.957  31.750  29.263  1.00  0.00    -0.237 OA
ATOM     68  O   UNL A   1      34.282  32.629  31.465  1.00  0.00    -0.744 OA
ENDBRANCH  61  65
ENDBRANCH  44  58
BRANCH  45  69
ATOM     69  C   UNL A   1      46.835  27.331  25.991  1.00  0.00     0.023 A 
ATOM     70  C   UNL A   1      47.047  27.688  24.650  1.00  0.00     0.031 A 
ATOM     71  C   UNL A   1      47.780  26.489  26.608  1.00  0.00     0.131 A 
ATOM     72  C   UNL A   1      48.165  27.188  23.963  1.00  0.00     0.055 A 
ATOM     73  C   UNL A   1      48.915  26.037  25.936  1.00  0.00     0.041 A 
ATOM     74  F   UNL A   1      47.621  26.114  27.887  1.00  0.00    -0.206 F 
ATOM     75  C   UNL A   1      49.109  26.381  24.601  1.00  0.00     0.022 A 
BRANCH  72  76
ATOM     76  S   UNL A   1      48.345  27.567  22.198  1.00  0.00     0.124 S 
ATOM     77  O   UNL A   1      48.551  26.239  21.630  1.00  0.00    -0.237 OA
ATOM     78  O   UNL A   1      47.072  28.208  21.891  1.00  0.00    -0.237 OA
ATOM     79  O   UNL A   1      49.509  28.450  22.157  1.00  0.00    -0.744 OA
ENDBRANCH  72  76
ENDBRANCH  45  69
BRANCH  57  80
ATOM     80  C   UNL A   1      45.226  33.351  29.111  1.00  0.00     0.023 A 
ATOM     81  C   UNL A   1      45.163  34.378  28.153  1.00  0.00     0.031 A 
ATOM     82  C   UNL A   1      46.000  33.562  30.265  1.00  0.00     0.131 A 
ATOM     83  C   UNL A   1      45.888  35.561  28.353  1.00  0.00     0.055 A 
ATOM     84  C   UNL A   1      46.684  34.758  30.480  1.00  0.00     0.041 A 
ATOM     85  F   UNL A   1      46.090  32.611  31.209  1.00  0.00    -0.206 F 
ATOM     86  C   UNL A   1      46.636  35.763  29.518  1.00  0.00     0.022 A 
BRANCH  83  87
ATOM     87  S   UNL A   1      45.870  36.825  27.054  1.00  0.00     0.124 S 
ATOM     88  O   UNL A   1      46.374  36.082  25.903  1.00  0.00    -0.237 OA
ATOM     89  O   UNL A   1      44.462  37.205  27.000  1.00  0.00    -0.237 OA
ATOM     90  O   UNL A   1      46.767  37.858  27.568  1.00  0.00    -0.744 OA
ENDBRANCH  83  87
ENDBRANCH  57  80
ENDBRANCH  31  32
ENDBRANCH  24  26
ENDBRANCH  23  24
ENDBRANCH   1  23
TORSDOF 15
ENDMDL
MODEL 2
REMARK VINA RESULT:     -12.4      1.630      1.904
REMARK SMILES Cc1c(Cl)cc2c(c1C)O[C@@H](C(F)(F)F)C(C(=O)OCCOC(=O)c1ccc(-c3c4nc(c(-c5cc(S(=O)(=O)[O-])ccc5F)c5ccc([nH]5)c(-c5cc(S(=O)(=O)[O-])ccc5F)c5nc(c(-c6cc(S(=O)(=O)[O-])ccc6F)c6ccc3[nH]6)C=C5)C=C4)cc1)=C2
REMARK SMILES IDX 21 1 20 2 19 3 17 4 18 5 16 6 1 7 2 8 3 9 8 10 4 11 5 12
REMARK SMILES IDX 7 13 9 14 6 15 10 16 88 17 11 18 12 19 13 20 14 21 15 22
REMARK SMILES IDX 22 23 23 24 24 25 25 26 26 27 87 28 27 29 86 30 28 31 29 32
REMARK SMILES IDX 30 33 80 34 31 35 85 36 79 37 81 38 32 39 84 40 78 41 77 42
REMARK SMILES IDX 33 44 65 45 45 46 64 47 46 48 49 49 63 50 82 51 47 52 48 53
REMARK SMILES IDX 62 55 83 56 50 57 34 58 35 59 43 60 36 61 42 62 44 63 41 64
REMARK SMILES IDX 37 65 38 66 39 67 40 68 66 69 67 70 75 71 68 72 74 73 76 74
REMARK SMILES IDX 73 75 69 76 70 77 71 78 72 79 51 80 52 81 60 82 53 83 59 84
REMARK SMILES IDX 61 85 58 86 54 87 55 88 56 89 57 90
REMARK H PARENT 81 43 49 54
REMARK Flexibility Score: inf
ROOT
ATOM      1  C   UNL A   1      35.894  20.664  25.145  1.00  0.00     0.275 C 
ENDROOT
BRANCH   1   2
ATOM      2  C   UNL A   1      34.483  21.245  25.075  1.00  0.00     0.275 C 
BRANCH   2   3
ATOM      3  O   UNL A   1      34.510  22.561  24.482  1.00  0.00    -0.459 OA
BRANCH   3   4
ATOM      4  C   UNL A   1      33.470  22.873  23.676  1.00  0.00     0.338 C 
ATOM      5  O   UNL A   1      32.849  22.099  22.974  1.00  0.00    -0.246 OA
BRANCH   4   6
ATOM      6  C   UNL A   1      33.126  24.302  23.812  1.00  0.00     0.087 C 
ATOM      7  C   UNL A   1      31.915  30.291  26.152  1.00  0.00     0.046 C 
ATOM      8  C   UNL A   1      32.376  28.924  25.711  1.00  0.00    -0.026 A 
ATOM      9  C   UNL A   1      33.498  28.360  26.358  1.00  0.00     0.045 A 
ATOM     10  C   UNL A   1      31.708  28.158  24.718  1.00  0.00    -0.004 A 
ATOM     11  Cl  UNL A   1      34.362  29.206  27.599  1.00  0.00    -0.084 Cl
ATOM     12  C   UNL A   1      33.938  27.074  26.055  1.00  0.00     0.032 A 
ATOM     13  C   UNL A   1      32.188  26.865  24.403  1.00  0.00     0.131 A 
ATOM     14  C   UNL A   1      30.495  28.644  23.964  1.00  0.00     0.049 C 
ATOM     15  C   UNL A   1      33.270  26.321  25.093  1.00  0.00     0.019 A 
ATOM     16  O   UNL A   1      31.502  26.143  23.456  1.00  0.00    -0.475 OA
ATOM     17  C   UNL A   1      33.634  24.936  24.875  1.00  0.00     0.027 C 
ATOM     18  C   UNL A   1      32.141  24.959  22.886  1.00  0.00     0.316 C 
BRANCH  18  19
ATOM     19  C   UNL A   1      32.668  25.279  21.476  1.00  0.00     0.430 C 
ATOM     20  F   UNL A   1      33.067  24.182  20.800  1.00  0.00    -0.167 F 
ATOM     21  F   UNL A   1      31.737  25.916  20.725  1.00  0.00    -0.167 F 
ATOM     22  F   UNL A   1      33.728  26.127  21.535  1.00  0.00    -0.167 F 
ENDBRANCH  18  19
ENDBRANCH   4   6
ENDBRANCH   3   4
ENDBRANCH   2   3
ENDBRANCH   1   2
BRANCH   1  23
ATOM     23  O   UNL A   1      36.850  21.734  25.235  1.00  0.00    -0.458 OA
BRANCH  23  24
ATOM     24  C   UNL A   1      38.105  21.372  25.587  1.00  0.00     0.338 C 
ATOM     25  O   UNL A   1      38.644  20.295  25.392  1.00  0.00    -0.246 OA
BRANCH  24  26
ATOM     26  C   UNL A   1      38.788  22.504  26.235  1.00  0.00     0.060 A 
ATOM     27  C   UNL A   1      38.238  23.777  26.126  1.00  0.00     0.016 A 
ATOM     28  C   UNL A   1      40.041  22.334  26.818  1.00  0.00     0.016 A 
ATOM     29  C   UNL A   1      38.991  24.896  26.476  1.00  0.00     0.010 A 
ATOM     30  C   UNL A   1      40.741  23.453  27.290  1.00  0.00     0.010 A 
ATOM     31  C   UNL A   1      40.249  24.755  27.083  1.00  0.00    -0.014 A 
BRANCH  31  32
ATOM     32  C   UNL A   1      41.058  25.957  27.458  1.00  0.00     0.031 A 
ATOM     33  C   UNL A   1      40.493  26.990  28.407  1.00  0.00     0.074 A 
ATOM     34  C   UNL A   1      42.313  26.121  26.985  1.00  0.00     0.049 A 
ATOM     35  N   UNL A   1      40.947  28.184  28.697  1.00  0.00    -0.248 NA
ATOM     36  C   UNL A   1      39.248  26.642  29.111  1.00  0.00     0.031 C 
ATOM     37  C   UNL A   1      43.023  25.180  26.114  1.00  0.00     0.029 A 
ATOM     38  N   UNL A   1      43.229  27.127  27.187  1.00  0.00    -0.354 N 
ATOM     39  C   UNL A   1      40.023  28.744  29.574  1.00  0.00     0.074 A 
ATOM     40  C   UNL A   1      38.975  27.765  29.762  1.00  0.00     0.031 C 
ATOM     41  C   UNL A   1      44.276  25.615  25.918  1.00  0.00     0.029 A 
ATOM     42  C   UNL A   1      44.431  26.922  26.548  1.00  0.00     0.049 A 
ATOM     43  H   UNL A   1      43.042  27.921  27.739  1.00  0.00     0.167 HD
ATOM     44  C   UNL A   1      40.048  29.963  30.169  1.00  0.00     0.034 A 
ATOM     45  C   UNL A   1      45.521  27.708  26.433  1.00  0.00     0.034 A 
ATOM     46  C   UNL A   1      41.125  30.911  30.025  1.00  0.00     0.049 A 
ATOM     47  C   UNL A   1      45.497  29.081  27.048  1.00  0.00     0.074 A 
ATOM     48  C   UNL A   1      41.236  32.177  30.575  1.00  0.00     0.029 A 
ATOM     49  N   UNL A   1      42.287  30.689  29.302  1.00  0.00    -0.354 N 
ATOM     50  N   UNL A   1      44.554  29.645  27.765  1.00  0.00    -0.248 NA
ATOM     51  C   UNL A   1      46.667  29.937  26.809  1.00  0.00     0.031 C 
ATOM     52  C   UNL A   1      42.444  32.737  30.148  1.00  0.00     0.029 A 
ATOM     53  C   UNL A   1      43.113  31.799  29.381  1.00  0.00     0.049 A 
ATOM     54  H   UNL A   1      42.497  29.865  28.807  1.00  0.00     0.167 HD
ATOM     55  C   UNL A   1      45.022  30.920  28.067  1.00  0.00     0.074 A 
ATOM     56  C   UNL A   1      46.336  31.036  27.471  1.00  0.00     0.031 C 
ATOM     57  C   UNL A   1      44.415  31.906  28.771  1.00  0.00     0.034 A 
BRANCH  44  58
ATOM     58  C   UNL A   1      38.859  30.368  31.002  1.00  0.00     0.023 A 
ATOM     59  C   UNL A   1      37.804  31.130  30.474  1.00  0.00     0.031 A 
ATOM     60  C   UNL A   1      38.765  29.940  32.340  1.00  0.00     0.131 A 
ATOM     61  C   UNL A   1      36.713  31.466  31.291  1.00  0.00     0.055 A 
ATOM     62  C   UNL A   1      37.650  30.229  33.128  1.00  0.00     0.041 A 
ATOM     63  F   UNL A   1      39.752  29.221  32.897  1.00  0.00    -0.206 F 
ATOM     64  C   UNL A   1      36.617  31.001  32.605  1.00  0.00     0.022 A 
BRANCH  61  65
ATOM     65  S   UNL A   1      35.436  32.573  30.633  1.00  0.00     0.124 S 
ATOM     66  O   UNL A   1      35.167  31.968  29.330  1.00  0.00    -0.237 OA
ATOM     67  O   UNL A   1      34.371  32.457  31.622  1.00  0.00    -0.237 OA
ATOM     68  O   UNL A   1      36.100  33.874  30.585  1.00  0.00    -0.744 OA
ENDBRANCH  61  65
ENDBRANCH  44  58
BRANCH  45  69
ATOM     69  C   UNL A   1      46.701  27.250  25.642  1.00  0.00     0.023 A 
ATOM     70  C   UNL A   1      46.962  27.773  24.366  1.00  0.00     0.031 A 
ATOM     71  C   UNL A   1      47.572  26.265  26.144  1.00  0.00     0.131 A 
ATOM     72  C   UNL A   1      48.056  27.294  23.626  1.00  0.00     0.055 A 
ATOM     73  C   UNL A   1      48.685  25.829  25.426  1.00  0.00     0.041 A 
ATOM     74  F   UNL A   1      47.363  25.729  27.357  1.00  0.00    -0.206 F 
ATOM     75  C   UNL A   1      48.928  26.339  24.154  1.00  0.00     0.022 A 
BRANCH  72  76
ATOM     76  S   UNL A   1      48.296  27.899  21.934  1.00  0.00     0.124 S 
ATOM     77  O   UNL A   1      48.272  26.657  21.169  1.00  0.00    -0.237 OA
ATOM     78  O   UNL A   1      47.149  28.784  21.759  1.00  0.00    -0.237 OA
ATOM     79  O   UNL A   1      49.593  28.571  21.993  1.00  0.00    -0.744 OA
ENDBRANCH  72  76
ENDBRANCH  45  69
BRANCH  57  80
ATOM     80  C   UNL A   1      45.177  33.189  28.957  1.00  0.00     0.023 A 
ATOM     81  C   UNL A   1      44.947  34.302  28.132  1.00  0.00     0.031 A 
ATOM     82  C   UNL A   1      46.126  33.306  29.988  1.00  0.00     0.131 A 
ATOM     83  C   UNL A   1      45.680  35.481  28.334  1.00  0.00     0.055 A 
ATOM     84  C   UNL A   1      46.820  34.494  30.212  1.00  0.00     0.041 A 
ATOM     85  F   UNL A   1      46.378  32.268  30.803  1.00  0.00    -0.206 F 
ATOM     86  C   UNL A   1      46.604  35.588  29.379  1.00  0.00     0.022 A 
BRANCH  83  87
ATOM     87  S   UNL A   1      45.437  36.867  27.191  1.00  0.00     0.124 S 
ATOM     88  O   UNL A   1      46.373  36.543  26.120  1.00  0.00    -0.237 OA
ATOM     89  O   UNL A   1      44.020  36.756  26.855  1.00  0.00    -0.237 OA
ATOM     90  O   UNL A   1      45.790  38.038  27.992  1.00  0.00    -0.744 OA
ENDBRANCH  83  87
ENDBRANCH  57  80
ENDBRANCH  31  32
ENDBRANCH  24  26
ENDBRANCH  23  24
ENDBRANCH   1  23
TORSDOF 15
ENDMDL
MODEL 3
REMARK VINA RESULT:     -12.4      5.109     10.171
REMARK SMILES Cc1c(Cl)cc2c(c1C)O[C@@H](C(F)(F)F)C(C(=O)OCCOC(=O)c1ccc(-c3c4nc(c(-c5cc(S(=O)(=O)[O-])ccc5F)c5ccc([nH]5)c(-c5cc(S(=O)(=O)[O-])ccc5F)c5nc(c(-c6cc(S(=O)(=O)[O-])ccc6F)c6ccc3[nH]6)C=C5)C=C4)cc1)=C2
REMARK SMILES IDX 21 1 20 2 19 3 17 4 18 5 16 6 1 7 2 8 3 9 8 10 4 11 5 12
REMARK SMILES IDX 7 13 9 14 6 15 10 16 88 17 11 18 12 19 13 20 14 21 15 22
REMARK SMILES IDX 22 23 23 24 24 25 25 26 26 27 87 28 27 29 86 30 28 31 29 32
REMARK SMILES IDX 30 33 80 34 31 35 85 36 79 37 81 38 32 39 84 40 78 41 77 42
REMARK SMILES IDX 33 44 65 45 45 46 64 47 46 48 49 49 63 50 82 51 47 52 48 53
REMARK SMILES IDX 62 55 83 56 50 57 34 58 35 59 43 60 36 61 42 62 44 63 41 64
REMARK SMILES IDX 37 65 38 66 39 67 40 68 66 69 67 70 75 71 68 72 74 73 76 74
REMARK SMILES IDX 73 75 69 76 70 77 71 78 72 79 51 80 52 81 60 82 53 83 59 84
REMARK SMILES IDX 61 85 58 86 54 87 55 88 56 89 57 90
REMARK H PARENT 81 43 49 54
REMARK Flexibility Score: inf
ROOT
ATOM      1  C   UNL A   1      31.376  30.458  25.504  1.00  0.00     0.275 C 
ENDROOT
BRANCH   1   2
ATOM      2  C   UNL A   1      31.069  29.242  24.633  1.00  0.00     0.275 C 
BRANCH   2   3
ATOM      3  O   UNL A   1      32.151  28.289  24.699  1.00  0.00    -0.459 OA
BRANCH   3   4
ATOM      4  C   UNL A   1      32.310  27.492  23.618  1.00  0.00     0.338 C 
ATOM      5  O   UNL A   1      32.285  27.846  22.455  1.00  0.00    -0.246 OA
BRANCH   4   6
ATOM      6  C   UNL A   1      32.599  26.107  24.039  1.00  0.00     0.087 C 
ATOM      7  C   UNL A   1      35.407  20.276  25.001  1.00  0.00     0.046 C 
ATOM      8  C   UNL A   1      34.934  21.701  24.855  1.00  0.00    -0.026 A 
ATOM      9  C   UNL A   1      35.891  22.734  24.973  1.00  0.00     0.045 A 
ATOM     10  C   UNL A   1      33.591  22.051  24.553  1.00  0.00    -0.004 A 
ATOM     11  Cl  UNL A   1      37.558  22.405  25.313  1.00  0.00    -0.084 Cl
ATOM     12  C   UNL A   1      35.543  24.068  24.781  1.00  0.00     0.032 A 
ATOM     13  C   UNL A   1      33.252  23.415  24.390  1.00  0.00     0.131 A 
ATOM     14  C   UNL A   1      32.482  21.042  24.392  1.00  0.00     0.049 C 
ATOM     15  C   UNL A   1      34.229  24.405  24.468  1.00  0.00     0.019 A 
ATOM     16  O   UNL A   1      31.947  23.714  24.073  1.00  0.00    -0.475 OA
ATOM     17  C   UNL A   1      33.891  25.772  24.128  1.00  0.00     0.027 C 
ATOM     18  C   UNL A   1      31.498  25.098  24.210  1.00  0.00     0.316 C 
BRANCH  18  19
ATOM     19  C   UNL A   1      30.653  25.248  25.487  1.00  0.00     0.430 C 
ATOM     20  F   UNL A   1      29.526  25.962  25.293  1.00  0.00    -0.167 F 
ATOM     21  F   UNL A   1      30.302  24.044  26.001  1.00  0.00    -0.167 F 
ATOM     22  F   UNL A   1      31.362  25.867  26.468  1.00  0.00    -0.167 F 
ENDBRANCH  18  19
ENDBRANCH   4   6
ENDBRANCH   3   4
ENDBRANCH   2   3
ENDBRANCH   1   2
BRANCH   1  23
ATOM     23  O   UNL A   1      32.609  30.241  26.213  1.00  0.00    -0.458 OA
BRANCH  23  24
ATOM     24  C   UNL A   1      33.026  31.266  26.991  1.00  0.00     0.338 C 
ATOM     25  O   UNL A   1      32.410  32.283  27.264  1.00  0.00    -0.246 OA
BRANCH  24  26
ATOM     26  C   UNL A   1      34.367  30.973  27.525  1.00  0.00     0.060 A 
ATOM     27  C   UNL A   1      34.711  29.655  27.803  1.00  0.00     0.016 A 
ATOM     28  C   UNL A   1      35.225  32.009  27.889  1.00  0.00     0.016 A 
ATOM     29  C   UNL A   1      35.844  29.374  28.563  1.00  0.00     0.010 A 
ATOM     30  C   UNL A   1      36.431  31.710  28.539  1.00  0.00     0.010 A 
ATOM     31  C   UNL A   1      36.736  30.393  28.928  1.00  0.00    -0.014 A 
BRANCH  31  32
ATOM     32  C   UNL A   1      37.954  30.090  29.744  1.00  0.00     0.031 A 
ATOM     33  C   UNL A   1      39.071  29.251  29.165  1.00  0.00     0.074 A 
ATOM     34  C   UNL A   1      38.091  30.588  30.993  1.00  0.00     0.049 A 
ATOM     35  N   UNL A   1      40.103  28.717  29.769  1.00  0.00    -0.248 NA
ATOM     36  C   UNL A   1      39.012  28.964  27.723  1.00  0.00     0.031 C 
ATOM     37  C   UNL A   1      37.131  31.468  31.667  1.00  0.00     0.029 A 
ATOM     38  N   UNL A   1      39.102  30.447  31.915  1.00  0.00    -0.354 N 
ATOM     39  C   UNL A   1      40.786  27.994  28.795  1.00  0.00     0.074 A 
ATOM     40  C   UNL A   1      40.046  28.148  27.562  1.00  0.00     0.031 C 
ATOM     41  C   UNL A   1      37.630  31.842  32.854  1.00  0.00     0.029 A 
ATOM     42  C   UNL A   1      38.888  31.141  33.086  1.00  0.00     0.049 A 
ATOM     43  H   UNL A   1      39.904  29.901  31.753  1.00  0.00     0.167 HD
ATOM     44  C   UNL A   1      41.926  27.270  28.918  1.00  0.00     0.034 A 
ATOM     45  C   UNL A   1      39.591  31.178  34.236  1.00  0.00     0.034 A 
ATOM     46  C   UNL A   1      42.692  27.170  30.136  1.00  0.00     0.049 A 
ATOM     47  C   UNL A   1      40.816  30.314  34.369  1.00  0.00     0.074 A 
ATOM     48  C   UNL A   1      43.853  26.450  30.366  1.00  0.00     0.029 A 
ATOM     49  N   UNL A   1      42.393  27.828  31.319  1.00  0.00    -0.354 N 
ATOM     50  N   UNL A   1      41.372  29.531  33.475  1.00  0.00    -0.248 NA
ATOM     51  C   UNL A   1      41.489  30.312  35.676  1.00  0.00     0.031 C 
ATOM     52  C   UNL A   1      44.229  26.637  31.699  1.00  0.00     0.029 A 
ATOM     53  C   UNL A   1      43.338  27.520  32.285  1.00  0.00     0.049 A 
ATOM     54  H   UNL A   1      41.624  28.427  31.454  1.00  0.00     0.167 HD
ATOM     55  C   UNL A   1      42.464  28.949  34.112  1.00  0.00     0.074 A 
ATOM     56  C   UNL A   1      42.499  29.482  35.457  1.00  0.00     0.031 C 
ATOM     57  C   UNL A   1      43.353  28.049  33.625  1.00  0.00     0.034 A 
BRANCH  44  58
ATOM     58  C   UNL A   1      42.403  26.491  27.720  1.00  0.00     0.023 A 
ATOM     59  C   UNL A   1      42.099  25.131  27.545  1.00  0.00     0.031 A 
ATOM     60  C   UNL A   1      43.139  27.141  26.711  1.00  0.00     0.131 A 
ATOM     61  C   UNL A   1      42.556  24.457  26.402  1.00  0.00     0.055 A 
ATOM     62  C   UNL A   1      43.540  26.479  25.549  1.00  0.00     0.041 A 
ATOM     63  F   UNL A   1      43.468  28.437  26.835  1.00  0.00    -0.206 F 
ATOM     64  C   UNL A   1      43.252  25.127  25.392  1.00  0.00     0.022 A 
BRANCH  61  65
ATOM     65  S   UNL A   1      42.278  22.670  26.270  1.00  0.00     0.124 S 
ATOM     66  O   UNL A   1      40.823  22.591  26.384  1.00  0.00    -0.237 OA
ATOM     67  O   UNL A   1      42.833  22.356  24.959  1.00  0.00    -0.237 OA
ATOM     68  O   UNL A   1      43.017  22.123  27.406  1.00  0.00    -0.744 OA
ENDBRANCH  61  65
ENDBRANCH  44  58
BRANCH  45  69
ATOM     69  C   UNL A   1      39.115  32.003  35.384  1.00  0.00     0.023 A 
ATOM     70  C   UNL A   1      38.457  31.412  36.475  1.00  0.00     0.031 A 
ATOM     71  C   UNL A   1      39.291  33.399  35.396  1.00  0.00     0.131 A 
ATOM     72  C   UNL A   1      37.981  32.217  37.522  1.00  0.00     0.055 A 
ATOM     73  C   UNL A   1      38.862  34.188  36.463  1.00  0.00     0.041 A 
ATOM     74  F   UNL A   1      39.909  34.013  34.375  1.00  0.00    -0.206 F 
ATOM     75  C   UNL A   1      38.194  33.597  37.532  1.00  0.00     0.022 A 
BRANCH  72  76
ATOM     76  S   UNL A   1      37.028  31.441  38.856  1.00  0.00     0.124 S 
ATOM     77  O   UNL A   1      35.823  32.264  38.877  1.00  0.00    -0.237 OA
ATOM     78  O   UNL A   1      36.867  30.078  38.364  1.00  0.00    -0.237 OA
ATOM     79  O   UNL A   1      37.899  31.580  40.022  1.00  0.00    -0.744 OA
ENDBRANCH  72  76
ENDBRANCH  45  69
BRANCH  57  80
ATOM     80  C   UNL A   1      44.456  27.604  34.547  1.00  0.00     0.023 A 
ATOM     81  C   UNL A   1      44.298  26.494  35.393  1.00  0.00     0.031 A 
ATOM     82  C   UNL A   1      45.686  28.283  34.557  1.00  0.00     0.131 A 
ATOM     83  C   UNL A   1      45.348  26.111  36.241  1.00  0.00     0.055 A 
ATOM     84  C   UNL A   1      46.742  27.872  35.370  1.00  0.00     0.041 A 
ATOM     85  F   UNL A   1      45.884  29.349  33.765  1.00  0.00    -0.206 F 
ATOM     86  C   UNL A   1      46.574  26.784  36.223  1.00  0.00     0.022 A 
BRANCH  83  87
ATOM     87  S   UNL A   1      45.080  24.740  37.396  1.00  0.00     0.124 S 
ATOM     88  O   UNL A   1      43.925  25.206  38.156  1.00  0.00    -0.237 OA
ATOM     89  O   UNL A   1      44.840  23.613  36.499  1.00  0.00    -0.237 OA
ATOM     90  O   UNL A   1      46.333  24.674  38.146  1.00  0.00    -0.744 OA
ENDBRANCH  83  87
ENDBRANCH  57  80
ENDBRANCH  31  32
ENDBRANCH  24  26
ENDBRANCH  23  24
ENDBRANCH   1  23
TORSDOF 15
ENDMDL
