MODEL 1
REMARK VINA RESULT:     -12.2      0.000      0.000
REMARK SMILES O=C(Nc1ccc(/C=C/C(=O)OCCOC(=O)c2ccc(-c3c4nc(c(-c5cc(S(=O)(=O)[O-])ccc5F)c5ccc([nH]5)c(-c5cc(S(=O)(=O)[O-])ccc5F)c5nc(c(-c6cc(S(=O)(=O)[O-])ccc6F)c6ccc3[nH]6)C=C5)C=C4)cc2)cc1F)NC1CCCC1
REMARK SMILES IDX 13 1 12 2 10 3 11 4 9 5 8 6 7 7 4 8 5 9 82 10 6 11 81 12
REMARK SMILES IDX 83 13 3 14 1 15 2 16 84 17 85 20 86 21 89 22 87 23 88 24
REMARK SMILES IDX 14 25 15 26 16 27 17 28 18 29 19 30 80 31 20 32 79 33 21 34
REMARK SMILES IDX 22 35 23 36 73 37 24 38 78 39 72 40 74 41 25 42 77 43 71 44
REMARK SMILES IDX 70 45 26 47 58 48 38 49 57 50 39 51 42 52 56 53 75 54 40 55
REMARK SMILES IDX 41 56 55 58 76 59 43 60 27 61 28 62 36 63 29 64 35 65 37 66
REMARK SMILES IDX 34 67 30 68 31 69 32 70 33 71 59 72 60 73 68 74 61 75 67 76
REMARK SMILES IDX 69 77 66 78 62 79 63 80 64 81 65 82 44 83 45 84 53 85 46 86
REMARK SMILES IDX 52 87 54 88 51 89 47 90 48 91 49 92 50 93
REMARK H PARENT 3 18 84 19 74 46 42 57
REMARK Flexibility Score: inf
ROOT
ATOM      1  C   UNL A   1      31.348  29.620  24.626  1.00  0.00     0.275 C 
ENDROOT
BRANCH   1   2
ATOM      2  O   UNL A   1      30.296  29.974  23.710  1.00  0.00    -0.459 OA
BRANCH   2   3
ATOM      3  C   UNL A   1      29.945  29.014  22.822  1.00  0.00     0.330 C 
ATOM      4  O   UNL A   1      29.413  29.196  21.736  1.00  0.00    -0.247 OA
BRANCH   3   5
ATOM      5  C   UNL A   1      30.292  27.657  23.286  1.00  0.00     0.094 C 
ATOM      6  C   UNL A   1      29.573  26.921  24.145  1.00  0.00     0.016 C 
BRANCH   6   7
ATOM      7  C   UNL A   1      30.015  25.586  24.561  1.00  0.00    -0.022 A 
ATOM      8  C   UNL A   1      31.051  23.074  25.335  1.00  0.00     0.078 A 
ATOM      9  C   UNL A   1      30.497  23.932  26.286  1.00  0.00     0.030 A 
ATOM     10  C   UNL A   1      30.979  23.449  23.987  1.00  0.00     0.147 A 
ATOM     11  C   UNL A   1      30.001  25.186  25.905  1.00  0.00     0.010 A 
ATOM     12  C   UNL A   1      30.466  24.685  23.598  1.00  0.00     0.049 A 
ATOM     13  F   UNL A   1      31.402  22.624  23.017  1.00  0.00    -0.205 F 
BRANCH   8  14
ATOM     14  N   UNL A   1      31.637  21.880  25.801  1.00  0.00    -0.305 N 
ATOM     15  O   UNL A   1      33.207  20.298  26.098  1.00  0.00    -0.248 OA
ATOM     16  C   UNL A   1      32.937  21.460  25.804  1.00  0.00     0.319 C 
ATOM     17  N   UNL A   1      33.890  22.409  25.600  1.00  0.00    -0.335 N 
ATOM     18  H   UNL A   1      31.001  21.238  26.193  1.00  0.00     0.171 HD
ATOM     19  H   UNL A   1      33.596  23.330  25.413  1.00  0.00     0.165 HD
BRANCH  17  20
ATOM     20  C   UNL A   1      35.306  22.144  25.641  1.00  0.00     0.083 C 
ATOM     21  C   UNL A   1      35.914  21.995  24.252  1.00  0.00     0.025 C 
ATOM     22  C   UNL A   1      36.086  23.322  26.219  1.00  0.00     0.025 C 
ATOM     23  C   UNL A   1      37.403  22.208  24.489  1.00  0.00     0.002 C 
ATOM     24  C   UNL A   1      37.504  23.153  25.687  1.00  0.00     0.002 C 
ENDBRANCH  17  20
ENDBRANCH   8  14
ENDBRANCH   6   7
ENDBRANCH   3   5
ENDBRANCH   2   3
ENDBRANCH   1   2
BRANCH   1  25
ATOM     25  C   UNL A   1      31.461  30.637  25.766  1.00  0.00     0.275 C 
BRANCH  25  26
ATOM     26  O   UNL A   1      32.619  30.403  26.588  1.00  0.00    -0.458 OA
BRANCH  26  27
ATOM     27  C   UNL A   1      33.119  31.511  27.189  1.00  0.00     0.338 C 
ATOM     28  O   UNL A   1      32.539  32.573  27.353  1.00  0.00    -0.246 OA
BRANCH  27  29
ATOM     29  C   UNL A   1      34.455  31.238  27.754  1.00  0.00     0.060 A 
ATOM     30  C   UNL A   1      34.740  29.920  28.121  1.00  0.00     0.016 A 
ATOM     31  C   UNL A   1      35.388  32.252  27.988  1.00  0.00     0.016 A 
ATOM     32  C   UNL A   1      35.951  29.613  28.736  1.00  0.00     0.010 A 
ATOM     33  C   UNL A   1      36.606  31.942  28.610  1.00  0.00     0.010 A 
ATOM     34  C   UNL A   1      36.888  30.623  29.000  1.00  0.00    -0.014 A 
BRANCH  34  35
ATOM     35  C   UNL A   1      38.133  30.268  29.727  1.00  0.00     0.031 A 
ATOM     36  C   UNL A   1      38.337  30.724  31.144  1.00  0.00     0.074 A 
ATOM     37  C   UNL A   1      39.038  29.460  29.141  1.00  0.00     0.049 A 
ATOM     38  N   UNL A   1      39.307  30.434  31.973  1.00  0.00    -0.248 NA
ATOM     39  C   UNL A   1      37.314  31.619  31.704  1.00  0.00     0.031 C 
ATOM     40  C   UNL A   1      38.933  28.930  27.782  1.00  0.00     0.029 A 
ATOM     41  N   UNL A   1      40.204  28.921  29.623  1.00  0.00    -0.354 N 
ATOM     42  C   UNL A   1      39.012  31.103  33.154  1.00  0.00     0.074 A 
ATOM     43  C   UNL A   1      37.789  31.844  32.922  1.00  0.00     0.031 C 
ATOM     44  C   UNL A   1      39.973  28.112  27.551  1.00  0.00     0.029 A 
ATOM     45  C   UNL A   1      40.834  28.084  28.732  1.00  0.00     0.049 A 
ATOM     46  H   UNL A   1      40.557  29.114  30.522  1.00  0.00     0.167 HD
ATOM     47  C   UNL A   1      39.691  31.090  34.327  1.00  0.00     0.034 A 
ATOM     48  C   UNL A   1      41.975  27.375  28.848  1.00  0.00     0.034 A 
ATOM     49  C   UNL A   1      40.907  30.348  34.550  1.00  0.00     0.049 A 
ATOM     50  C   UNL A   1      42.749  27.428  30.138  1.00  0.00     0.074 A 
ATOM     51  C   UNL A   1      41.655  30.250  35.711  1.00  0.00     0.029 A 
ATOM     52  N   UNL A   1      41.560  29.586  33.592  1.00  0.00    -0.354 N 
ATOM     53  N   UNL A   1      42.459  28.073  31.243  1.00  0.00    -0.248 NA
ATOM     54  C   UNL A   1      44.002  26.664  30.197  1.00  0.00     0.031 C 
ATOM     55  C   UNL A   1      42.790  29.481  35.439  1.00  0.00     0.029 A 
ATOM     56  C   UNL A   1      42.719  29.043  34.126  1.00  0.00     0.049 A 
ATOM     57  H   UNL A   1      41.247  29.450  32.669  1.00  0.00     0.167 HD
ATOM     58  C   UNL A   1      43.484  27.777  32.135  1.00  0.00     0.074 A 
ATOM     59  C   UNL A   1      44.404  26.900  31.440  1.00  0.00     0.031 C 
ATOM     60  C   UNL A   1      43.639  28.188  33.418  1.00  0.00     0.034 A 
BRANCH  47  61
ATOM     61  C   UNL A   1      39.156  31.935  35.453  1.00  0.00     0.023 A 
ATOM     62  C   UNL A   1      38.517  31.362  36.565  1.00  0.00     0.031 A 
ATOM     63  C   UNL A   1      39.303  33.332  35.419  1.00  0.00     0.131 A 
ATOM     64  C   UNL A   1      38.009  32.188  37.579  1.00  0.00     0.055 A 
ATOM     65  C   UNL A   1      38.851  34.144  36.460  1.00  0.00     0.041 A 
ATOM     66  F   UNL A   1      39.890  33.931  34.371  1.00  0.00    -0.206 F 
ATOM     67  C   UNL A   1      38.191  33.574  37.545  1.00  0.00     0.022 A 
BRANCH  64  68
ATOM     68  S   UNL A   1      37.028  31.436  38.905  1.00  0.00     0.124 S 
ATOM     69  O   UNL A   1      35.825  32.263  38.888  1.00  0.00    -0.237 OA
ATOM     70  O   UNL A   1      36.865  30.063  38.440  1.00  0.00    -0.237 OA
ATOM     71  O   UNL A   1      37.870  31.596  40.089  1.00  0.00    -0.744 OA
ENDBRANCH  64  68
ENDBRANCH  47  61
BRANCH  48  72
ATOM     72  C   UNL A   1      42.454  26.565  27.696  1.00  0.00     0.023 A 
ATOM     73  C   UNL A   1      42.146  25.201  27.587  1.00  0.00     0.031 A 
ATOM     74  C   UNL A   1      43.205  27.162  26.668  1.00  0.00     0.131 A 
ATOM     75  C   UNL A   1      42.594  24.473  26.473  1.00  0.00     0.055 A 
ATOM     76  C   UNL A   1      43.621  26.443  25.548  1.00  0.00     0.041 A 
ATOM     77  F   UNL A   1      43.515  28.467  26.727  1.00  0.00    -0.206 F 
ATOM     78  C   UNL A   1      43.318  25.089  25.447  1.00  0.00     0.022 A 
BRANCH  75  79
ATOM     79  S   UNL A   1      42.217  22.702  26.375  1.00  0.00     0.124 S 
ATOM     80  O   UNL A   1      40.787  22.687  26.664  1.00  0.00    -0.237 OA
ATOM     81  O   UNL A   1      42.598  22.382  25.004  1.00  0.00    -0.237 OA
ATOM     82  O   UNL A   1      43.070  22.116  27.407  1.00  0.00    -0.744 OA
ENDBRANCH  75  79
ENDBRANCH  48  72
BRANCH  60  83
ATOM     83  C   UNL A   1      44.834  27.678  34.177  1.00  0.00     0.023 A 
ATOM     84  C   UNL A   1      44.790  26.469  34.889  1.00  0.00     0.031 A 
ATOM     85  C   UNL A   1      46.053  28.377  34.118  1.00  0.00     0.131 A 
ATOM     86  C   UNL A   1      45.948  25.997  35.527  1.00  0.00     0.055 A 
ATOM     87  C   UNL A   1      47.208  27.885  34.723  1.00  0.00     0.041 A 
ATOM     88  F   UNL A   1      46.142  29.534  33.442  1.00  0.00    -0.206 F 
ATOM     89  C   UNL A   1      47.160  26.688  35.433  1.00  0.00     0.022 A 
BRANCH  86  90
ATOM     90  S   UNL A   1      45.860  24.455  36.480  1.00  0.00     0.124 S 
ATOM     91  O   UNL A   1      44.489  24.488  36.980  1.00  0.00    -0.237 OA
ATOM     92  O   UNL A   1      46.147  23.439  35.473  1.00  0.00    -0.237 OA
ATOM     93  O   UNL A   1      46.897  24.622  37.498  1.00  0.00    -0.744 OA
ENDBRANCH  86  90
ENDBRANCH  60  83
ENDBRANCH  34  35
ENDBRANCH  27  29
ENDBRANCH  26  27
ENDBRANCH  25  26
ENDBRANCH   1  25
TORSDOF 17
ENDMDL
MODEL 2
REMARK VINA RESULT:     -12.0      1.488      2.181
REMARK SMILES O=C(Nc1ccc(/C=C/C(=O)OCCOC(=O)c2ccc(-c3c4nc(c(-c5cc(S(=O)(=O)[O-])ccc5F)c5ccc([nH]5)c(-c5cc(S(=O)(=O)[O-])ccc5F)c5nc(c(-c6cc(S(=O)(=O)[O-])ccc6F)c6ccc3[nH]6)C=C5)C=C4)cc2)cc1F)NC1CCCC1
REMARK SMILES IDX 13 1 12 2 10 3 11 4 9 5 8 6 7 7 4 8 5 9 82 10 6 11 81 12
REMARK SMILES IDX 83 13 3 14 1 15 2 16 84 17 85 20 86 21 89 22 87 23 88 24
REMARK SMILES IDX 14 25 15 26 16 27 17 28 18 29 19 30 80 31 20 32 79 33 21 34
REMARK SMILES IDX 22 35 23 36 73 37 24 38 78 39 72 40 74 41 25 42 77 43 71 44
REMARK SMILES IDX 70 45 26 47 58 48 38 49 57 50 39 51 42 52 56 53 75 54 40 55
REMARK SMILES IDX 41 56 55 58 76 59 43 60 27 61 28 62 36 63 29 64 35 65 37 66
REMARK SMILES IDX 34 67 30 68 31 69 32 70 33 71 59 72 60 73 68 74 61 75 67 76
REMARK SMILES IDX 69 77 66 78 62 79 63 80 64 81 65 82 44 83 45 84 53 85 46 86
REMARK SMILES IDX 52 87 54 88 51 89 47 90 48 91 49 92 50 93
REMARK H PARENT 3 18 84 19 74 46 42 57
REMARK Flexibility Score: inf
ROOT
ATOM      1  C   UNL A   1      31.880  29.336  24.847  1.00  0.00     0.275 C 
ENDROOT
BRANCH   1   2
ATOM      2  O   UNL A   1      30.755  29.318  23.950  1.00  0.00    -0.459 OA
BRANCH   2   3
ATOM      3  C   UNL A   1      30.833  28.430  22.931  1.00  0.00     0.330 C 
ATOM      4  O   UNL A   1      30.139  28.426  21.924  1.00  0.00    -0.247 OA
BRANCH   3   5
ATOM      5  C   UNL A   1      31.894  27.425  23.134  1.00  0.00     0.094 C 
ATOM      6  C   UNL A   1      31.736  26.097  23.033  1.00  0.00     0.016 C 
BRANCH   6   7
ATOM      7  C   UNL A   1      32.852  25.176  23.274  1.00  0.00    -0.022 A 
ATOM      8  C   UNL A   1      34.897  23.326  23.887  1.00  0.00     0.078 A 
ATOM      9  C   UNL A   1      34.123  23.167  22.736  1.00  0.00     0.030 A 
ATOM     10  C   UNL A   1      34.699  24.477  24.661  1.00  0.00     0.147 A 
ATOM     11  C   UNL A   1      33.096  24.074  22.443  1.00  0.00     0.010 A 
ATOM     12  C   UNL A   1      33.695  25.396  24.362  1.00  0.00     0.049 A 
ATOM     13  F   UNL A   1      35.479  24.738  25.721  1.00  0.00    -0.205 F 
BRANCH   8  14
ATOM     14  N   UNL A   1      35.833  22.315  24.184  1.00  0.00    -0.305 N 
ATOM     15  O   UNL A   1      36.652  20.418  25.071  1.00  0.00    -0.248 OA
ATOM     16  C   UNL A   1      35.670  21.072  24.728  1.00  0.00     0.319 C 
ATOM     17  N   UNL A   1      34.407  20.569  24.744  1.00  0.00    -0.335 N 
ATOM     18  H   UNL A   1      36.765  22.543  23.960  1.00  0.00     0.171 HD
ATOM     19  H   UNL A   1      33.676  21.139  24.411  1.00  0.00     0.165 HD
BRANCH  17  20
ATOM     20  C   UNL A   1      34.076  19.250  25.218  1.00  0.00     0.083 C 
ATOM     21  C   UNL A   1      32.574  18.991  25.229  1.00  0.00     0.025 C 
ATOM     22  C   UNL A   1      34.592  18.163  24.279  1.00  0.00     0.025 C 
ATOM     23  C   UNL A   1      32.473  17.473  25.280  1.00  0.00     0.002 C 
ATOM     24  C   UNL A   1      33.720  16.947  24.568  1.00  0.00     0.002 C 
ENDBRANCH  17  20
ENDBRANCH   8  14
ENDBRANCH   6   7
ENDBRANCH   3   5
ENDBRANCH   2   3
ENDBRANCH   1   2
BRANCH   1  25
ATOM     25  C   UNL A   1      31.756  30.467  25.874  1.00  0.00     0.275 C 
BRANCH  25  26
ATOM     26  O   UNL A   1      32.688  30.317  26.960  1.00  0.00    -0.458 OA
BRANCH  26  27
ATOM     27  C   UNL A   1      33.320  31.460  27.325  1.00  0.00     0.338 C 
ATOM     28  O   UNL A   1      32.836  32.580  27.352  1.00  0.00    -0.246 OA
BRANCH  27  29
ATOM     29  C   UNL A   1      34.678  31.166  27.823  1.00  0.00     0.060 A 
ATOM     30  C   UNL A   1      34.952  29.849  28.203  1.00  0.00     0.016 A 
ATOM     31  C   UNL A   1      35.646  32.162  27.986  1.00  0.00     0.016 A 
ATOM     32  C   UNL A   1      36.188  29.527  28.759  1.00  0.00     0.010 A 
ATOM     33  C   UNL A   1      36.888  31.836  28.547  1.00  0.00     0.010 A 
ATOM     34  C   UNL A   1      37.160  30.518  28.951  1.00  0.00    -0.014 A 
BRANCH  34  35
ATOM     35  C   UNL A   1      38.434  30.149  29.617  1.00  0.00     0.031 A 
ATOM     36  C   UNL A   1      38.738  30.652  31.000  1.00  0.00     0.074 A 
ATOM     37  C   UNL A   1      39.275  29.287  29.014  1.00  0.00     0.049 A 
ATOM     38  N   UNL A   1      39.746  30.361  31.782  1.00  0.00    -0.248 NA
ATOM     39  C   UNL A   1      37.780  31.604  31.582  1.00  0.00     0.031 C 
ATOM     40  C   UNL A   1      39.072  28.708  27.685  1.00  0.00     0.029 A 
ATOM     41  N   UNL A   1      40.450  28.726  29.448  1.00  0.00    -0.354 N 
ATOM     42  C   UNL A   1      39.544  31.085  32.950  1.00  0.00     0.074 A 
ATOM     43  C   UNL A   1      38.334  31.859  32.760  1.00  0.00     0.031 C 
ATOM     44  C   UNL A   1      40.068  27.846  27.427  1.00  0.00     0.029 A 
ATOM     45  C   UNL A   1      40.998  27.834  28.556  1.00  0.00     0.049 A 
ATOM     46  H   UNL A   1      40.862  28.942  30.315  1.00  0.00     0.167 HD
ATOM     47  C   UNL A   1      40.292  31.095  34.080  1.00  0.00     0.034 A 
ATOM     48  C   UNL A   1      42.119  27.090  28.635  1.00  0.00     0.034 A 
ATOM     49  C   UNL A   1      41.494  30.319  34.262  1.00  0.00     0.049 A 
ATOM     50  C   UNL A   1      42.971  27.166  29.873  1.00  0.00     0.074 A 
ATOM     51  C   UNL A   1      42.306  30.241  35.380  1.00  0.00     0.029 A 
ATOM     52  N   UNL A   1      42.063  29.498  33.300  1.00  0.00    -0.354 N 
ATOM     53  N   UNL A   1      42.769  27.864  30.966  1.00  0.00    -0.248 NA
ATOM     54  C   UNL A   1      44.199  26.361  29.890  1.00  0.00     0.031 C 
ATOM     55  C   UNL A   1      43.397  29.422  35.074  1.00  0.00     0.029 A 
ATOM     56  C   UNL A   1      43.233  28.936  33.787  1.00  0.00     0.049 A 
ATOM     57  H   UNL A   1      41.690  29.337  32.403  1.00  0.00     0.167 HD
ATOM     58  C   UNL A   1      43.835  27.567  31.808  1.00  0.00     0.074 A 
ATOM     59  C   UNL A   1      44.683  26.632  31.097  1.00  0.00     0.031 C 
ATOM     60  C   UNL A   1      44.080  28.022  33.062  1.00  0.00     0.034 A 
BRANCH  47  61
ATOM     61  C   UNL A   1      39.853  32.001  35.200  1.00  0.00     0.023 A 
ATOM     62  C   UNL A   1      39.024  31.544  36.238  1.00  0.00     0.031 A 
ATOM     63  C   UNL A   1      40.284  33.338  35.237  1.00  0.00     0.131 A 
ATOM     64  C   UNL A   1      38.617  32.429  37.247  1.00  0.00     0.055 A 
ATOM     65  C   UNL A   1      39.927  34.198  36.277  1.00  0.00     0.041 A 
ATOM     66  F   UNL A   1      41.064  33.830  34.261  1.00  0.00    -0.206 F 
ATOM     67  C   UNL A   1      39.081  33.747  37.286  1.00  0.00     0.022 A 
BRANCH  64  68
ATOM     68  S   UNL A   1      37.400  31.860  38.465  1.00  0.00     0.124 S 
ATOM     69  O   UNL A   1      37.133  30.501  38.003  1.00  0.00    -0.237 OA
ATOM     70  O   UNL A   1      38.131  31.975  39.722  1.00  0.00    -0.237 OA
ATOM     71  O   UNL A   1      36.289  32.795  38.304  1.00  0.00    -0.744 OA
ENDBRANCH  64  68
ENDBRANCH  47  61
BRANCH  48  72
ATOM     72  C   UNL A   1      42.502  26.219  27.491  1.00  0.00     0.023 A 
ATOM     73  C   UNL A   1      42.125  24.869  27.447  1.00  0.00     0.031 A 
ATOM     74  C   UNL A   1      43.226  26.745  26.407  1.00  0.00     0.131 A 
ATOM     75  C   UNL A   1      42.483  24.083  26.339  1.00  0.00     0.055 A 
ATOM     76  C   UNL A   1      43.552  25.969  25.294  1.00  0.00     0.041 A 
ATOM     77  F   UNL A   1      43.600  28.034  26.403  1.00  0.00    -0.206 F 
ATOM     78  C   UNL A   1      43.182  24.628  25.257  1.00  0.00     0.022 A 
BRANCH  75  79
ATOM     79  S   UNL A   1      42.019  22.330  26.324  1.00  0.00     0.124 S 
ATOM     80  O   UNL A   1      42.761  21.838  25.168  1.00  0.00    -0.237 OA
ATOM     81  O   UNL A   1      42.488  21.876  27.628  1.00  0.00    -0.237 OA
ATOM     82  O   UNL A   1      40.566  22.364  26.166  1.00  0.00    -0.744 OA
ENDBRANCH  75  79
ENDBRANCH  48  72
BRANCH  60  83
ATOM     83  C   UNL A   1      45.301  27.501  33.770  1.00  0.00     0.023 A 
ATOM     84  C   UNL A   1      45.253  26.341  34.560  1.00  0.00     0.031 A 
ATOM     85  C   UNL A   1      46.544  28.132  33.583  1.00  0.00     0.131 A 
ATOM     86  C   UNL A   1      46.430  25.852  35.148  1.00  0.00     0.055 A 
ATOM     87  C   UNL A   1      47.715  27.621  34.139  1.00  0.00     0.041 A 
ATOM     88  F   UNL A   1      46.638  29.239  32.829  1.00  0.00    -0.206 F 
ATOM     89  C   UNL A   1      47.663  26.474  34.927  1.00  0.00     0.022 A 
BRANCH  86  90
ATOM     90  S   UNL A   1      46.339  24.378  36.203  1.00  0.00     0.124 S 
ATOM     91  O   UNL A   1      46.046  24.961  37.508  1.00  0.00    -0.237 OA
ATOM     92  O   UNL A   1      45.259  23.612  35.590  1.00  0.00    -0.237 OA
ATOM     93  O   UNL A   1      47.668  23.781  36.073  1.00  0.00    -0.744 OA
ENDBRANCH  86  90
ENDBRANCH  60  83
ENDBRANCH  34  35
ENDBRANCH  27  29
ENDBRANCH  26  27
ENDBRANCH  25  26
ENDBRANCH   1  25
TORSDOF 17
ENDMDL
MODEL 3
REMARK VINA RESULT:     -11.9      2.193      2.923
REMARK SMILES O=C(Nc1ccc(/C=C/C(=O)OCCOC(=O)c2ccc(-c3c4nc(c(-c5cc(S(=O)(=O)[O-])ccc5F)c5ccc([nH]5)c(-c5cc(S(=O)(=O)[O-])ccc5F)c5nc(c(-c6cc(S(=O)(=O)[O-])ccc6F)c6ccc3[nH]6)C=C5)C=C4)cc2)cc1F)NC1CCCC1
REMARK SMILES IDX 13 1 12 2 10 3 11 4 9 5 8 6 7 7 4 8 5 9 82 10 6 11 81 12
REMARK SMILES IDX 83 13 3 14 1 15 2 16 84 17 85 20 86 21 89 22 87 23 88 24
REMARK SMILES IDX 14 25 15 26 16 27 17 28 18 29 19 30 80 31 20 32 79 33 21 34
REMARK SMILES IDX 22 35 23 36 73 37 24 38 78 39 72 40 74 41 25 42 77 43 71 44
REMARK SMILES IDX 70 45 26 47 58 48 38 49 57 50 39 51 42 52 56 53 75 54 40 55
REMARK SMILES IDX 41 56 55 58 76 59 43 60 27 61 28 62 36 63 29 64 35 65 37 66
REMARK SMILES IDX 34 67 30 68 31 69 32 70 33 71 59 72 60 73 68 74 61 75 67 76
REMARK SMILES IDX 69 77 66 78 62 79 63 80 64 81 65 82 44 83 45 84 53 85 46 86
REMARK SMILES IDX 52 87 54 88 51 89 47 90 48 91 49 92 50 93
REMARK H PARENT 3 18 84 19 74 46 42 57
REMARK Flexibility Score: inf
ROOT
ATOM      1  C   UNL A   1      31.932  28.534  27.202  1.00  0.00     0.275 C 
ENDROOT
BRANCH   1   2
ATOM      2  O   UNL A   1      30.980  27.794  26.416  1.00  0.00    -0.459 OA
BRANCH   2   3
ATOM      3  C   UNL A   1      31.387  27.455  25.170  1.00  0.00     0.330 C 
ATOM      4  O   UNL A   1      31.011  27.965  24.125  1.00  0.00    -0.247 OA
BRANCH   3   5
ATOM      5  C   UNL A   1      32.391  26.373  25.175  1.00  0.00     0.094 C 
ATOM      6  C   UNL A   1      33.104  25.969  24.113  1.00  0.00     0.016 C 
BRANCH   6   7
ATOM      7  C   UNL A   1      34.066  24.867  24.215  1.00  0.00    -0.022 A 
ATOM      8  C   UNL A   1      35.781  22.641  24.506  1.00  0.00     0.078 A 
ATOM      9  C   UNL A   1      35.253  22.967  23.255  1.00  0.00     0.030 A 
ATOM     10  C   UNL A   1      35.521  23.506  25.577  1.00  0.00     0.147 A 
ATOM     11  C   UNL A   1      34.387  24.059  23.115  1.00  0.00     0.010 A 
ATOM     12  C   UNL A   1      34.679  24.608  25.440  1.00  0.00     0.049 A 
ATOM     13  F   UNL A   1      36.081  23.303  26.779  1.00  0.00    -0.205 F 
BRANCH   8  14
ATOM     14  N   UNL A   1      36.549  21.463  24.599  1.00  0.00    -0.305 N 
ATOM     15  O   UNL A   1      37.051  19.326  25.089  1.00  0.00    -0.248 OA
ATOM     16  C   UNL A   1      36.188  20.175  24.879  1.00  0.00     0.319 C 
ATOM     17  N   UNL A   1      34.865  19.873  24.782  1.00  0.00    -0.335 N 
ATOM     18  H   UNL A   1      37.512  21.589  24.432  1.00  0.00     0.171 HD
ATOM     19  H   UNL A   1      34.238  20.601  24.566  1.00  0.00     0.165 HD
BRANCH  17  20
ATOM     20  C   UNL A   1      34.329  18.551  24.977  1.00  0.00     0.083 C 
ATOM     21  C   UNL A   1      32.953  18.567  25.631  1.00  0.00     0.025 C 
ATOM     22  C   UNL A   1      34.057  17.848  23.649  1.00  0.00     0.025 C 
ATOM     23  C   UNL A   1      32.388  17.190  25.308  1.00  0.00     0.002 C 
ATOM     24  C   UNL A   1      33.016  16.782  23.975  1.00  0.00     0.002 C 
ENDBRANCH  17  20
ENDBRANCH   8  14
ENDBRANCH   6   7
ENDBRANCH   3   5
ENDBRANCH   2   3
ENDBRANCH   1   2
BRANCH   1  25
ATOM     25  C   UNL A   1      31.891  30.028  26.865  1.00  0.00     0.275 C 
BRANCH  25  26
ATOM     26  O   UNL A   1      33.190  30.540  26.515  1.00  0.00    -0.458 OA
BRANCH  26  27
ATOM     27  C   UNL A   1      33.620  31.567  27.290  1.00  0.00     0.338 C 
ATOM     28  O   UNL A   1      33.005  32.589  27.547  1.00  0.00    -0.246 OA
BRANCH  27  29
ATOM     29  C   UNL A   1      34.919  31.241  27.910  1.00  0.00     0.060 A 
ATOM     30  C   UNL A   1      35.084  29.948  28.414  1.00  0.00     0.016 A 
ATOM     31  C   UNL A   1      35.932  32.192  28.064  1.00  0.00     0.016 A 
ATOM     32  C   UNL A   1      36.255  29.605  29.085  1.00  0.00     0.010 A 
ATOM     33  C   UNL A   1      37.110  31.846  28.742  1.00  0.00     0.010 A 
ATOM     34  C   UNL A   1      37.271  30.553  29.269  1.00  0.00    -0.014 A 
BRANCH  34  35
ATOM     35  C   UNL A   1      38.470  30.171  30.056  1.00  0.00     0.031 A 
ATOM     36  C   UNL A   1      38.663  30.705  31.447  1.00  0.00     0.074 A 
ATOM     37  C   UNL A   1      39.338  29.271  29.553  1.00  0.00     0.049 A 
ATOM     38  N   UNL A   1      39.589  30.411  32.323  1.00  0.00    -0.248 NA
ATOM     39  C   UNL A   1      37.684  31.698  31.916  1.00  0.00     0.031 C 
ATOM     40  C   UNL A   1      39.237  28.661  28.227  1.00  0.00     0.029 A 
ATOM     41  N   UNL A   1      40.453  28.694  30.105  1.00  0.00    -0.354 N 
ATOM     42  C   UNL A   1      39.304  31.174  33.450  1.00  0.00     0.074 A 
ATOM     43  C   UNL A   1      38.138  31.972  33.132  1.00  0.00     0.031 C 
ATOM     44  C   UNL A   1      40.228  27.766  28.083  1.00  0.00     0.029 A 
ATOM     45  C   UNL A   1      41.053  27.763  29.290  1.00  0.00     0.049 A 
ATOM     46  H   UNL A   1      40.792  28.924  31.001  1.00  0.00     0.167 HD
ATOM     47  C   UNL A   1      39.949  31.196  34.642  1.00  0.00     0.034 A 
ATOM     48  C   UNL A   1      42.142  26.994  29.488  1.00  0.00     0.034 A 
ATOM     49  C   UNL A   1      41.108  30.396  34.951  1.00  0.00     0.049 A 
ATOM     50  C   UNL A   1      42.882  27.083  30.796  1.00  0.00     0.074 A 
ATOM     51  C   UNL A   1      41.815  30.329  36.139  1.00  0.00     0.029 A 
ATOM     52  N   UNL A   1      41.737  29.534  34.065  1.00  0.00    -0.354 N 
ATOM     53  N   UNL A   1      42.602  27.817  31.848  1.00  0.00    -0.248 NA
ATOM     54  C   UNL A   1      44.081  26.249  30.944  1.00  0.00     0.031 C 
ATOM     55  C   UNL A   1      42.906  29.475  35.953  1.00  0.00     0.029 A 
ATOM     56  C   UNL A   1      42.843  28.957  34.670  1.00  0.00     0.049 A 
ATOM     57  H   UNL A   1      41.442  29.357  33.143  1.00  0.00     0.167 HD
ATOM     58  C   UNL A   1      43.581  27.517  32.789  1.00  0.00     0.074 A 
ATOM     59  C   UNL A   1      44.462  26.541  32.182  1.00  0.00     0.031 C 
ATOM     60  C   UNL A   1      43.726  28.001  34.048  1.00  0.00     0.034 A 
BRANCH  47  61
ATOM     61  C   UNL A   1      39.437  32.145  35.694  1.00  0.00     0.023 A 
ATOM     62  C   UNL A   1      39.878  33.477  35.764  1.00  0.00     0.031 A 
ATOM     63  C   UNL A   1      38.480  31.713  36.629  1.00  0.00     0.131 A 
ATOM     64  C   UNL A   1      39.396  34.319  36.777  1.00  0.00     0.055 A 
ATOM     65  C   UNL A   1      37.957  32.573  37.596  1.00  0.00     0.041 A 
ATOM     66  F   UNL A   1      38.038  30.446  36.617  1.00  0.00    -0.206 F 
ATOM     67  C   UNL A   1      38.421  33.883  37.679  1.00  0.00     0.022 A 
BRANCH  64  68
ATOM     68  S   UNL A   1      40.122  35.971  36.955  1.00  0.00     0.124 S 
ATOM     69  O   UNL A   1      41.522  35.650  37.217  1.00  0.00    -0.237 OA
ATOM     70  O   UNL A   1      39.837  36.584  35.662  1.00  0.00    -0.237 OA
ATOM     71  O   UNL A   1      39.398  36.544  38.088  1.00  0.00    -0.744 OA
ENDBRANCH  64  68
ENDBRANCH  47  61
BRANCH  48  72
ATOM     72  C   UNL A   1      42.601  26.081  28.406  1.00  0.00     0.023 A 
ATOM     73  C   UNL A   1      41.979  24.844  28.186  1.00  0.00     0.031 A 
ATOM     74  C   UNL A   1      43.655  26.459  27.556  1.00  0.00     0.131 A 
ATOM     75  C   UNL A   1      42.422  24.020  27.139  1.00  0.00     0.055 A 
ATOM     76  C   UNL A   1      44.071  25.651  26.498  1.00  0.00     0.041 A 
ATOM     77  F   UNL A   1      44.273  27.638  27.725  1.00  0.00    -0.206 F 
ATOM     78  C   UNL A   1      43.455  24.421  26.286  1.00  0.00     0.022 A 
BRANCH  75  79
ATOM     79  S   UNL A   1      41.629  22.407  26.899  1.00  0.00     0.124 S 
ATOM     80  O   UNL A   1      40.224  22.731  27.126  1.00  0.00    -0.237 OA
ATOM     81  O   UNL A   1      41.999  22.083  25.526  1.00  0.00    -0.237 OA
ATOM     82  O   UNL A   1      42.250  21.567  27.922  1.00  0.00    -0.744 OA
ENDBRANCH  75  79
ENDBRANCH  48  72
BRANCH  60  83
ATOM     83  C   UNL A   1      44.864  27.470  34.876  1.00  0.00     0.023 A 
ATOM     84  C   UNL A   1      44.717  26.328  35.680  1.00  0.00     0.031 A 
ATOM     85  C   UNL A   1      46.133  28.072  34.794  1.00  0.00     0.131 A 
ATOM     86  C   UNL A   1      45.824  25.826  36.383  1.00  0.00     0.055 A 
ATOM     87  C   UNL A   1      47.236  27.548  35.466  1.00  0.00     0.041 A 
ATOM     88  F   UNL A   1      46.321  29.161  34.032  1.00  0.00    -0.206 F 
ATOM     89  C   UNL A   1      47.085  26.419  36.267  1.00  0.00     0.022 A 
BRANCH  86  90
ATOM     90  S   UNL A   1      45.603  24.377  37.452  1.00  0.00     0.124 S 
ATOM     91  O   UNL A   1      45.003  23.414  36.533  1.00  0.00    -0.237 OA
ATOM     92  O   UNL A   1      46.966  24.084  37.881  1.00  0.00    -0.237 OA
ATOM     93  O   UNL A   1      44.716  24.862  38.509  1.00  0.00    -0.744 OA
ENDBRANCH  86  90
ENDBRANCH  60  83
ENDBRANCH  34  35
ENDBRANCH  27  29
ENDBRANCH  26  27
ENDBRANCH  25  26
ENDBRANCH   1  25
TORSDOF 17
ENDMDL
