MODEL 1
REMARK VINA RESULT:     -12.6      0.000      0.000
REMARK SMILES CS(=O)(=O)c1ccc(C2=NN(c3ccc(C(=O)OCCOC(=O)c4ccc(-c5c6nc(c(-c7cc(S(=O)(=O)[O-])ccc7F)c7ccc([nH]7)c(-c7cc(S(=O)(=O)[O-])ccc7F)c7nc(c(-c8cc(S(=O)(=O)[O-])ccc8F)c8ccc5[nH]8)C=C7)C=C6)cc4)cc3)[C@H](c3ccccc3)C2)cc1
REMARK SMILES IDX 19 1 18 2 16 3 17 4 15 5 12 6 13 7 88 8 14 9 87 10 11 11
REMARK SMILES IDX 9 12 10 13 96 14 89 15 8 16 5 17 6 18 98 19 7 20 97 21 2 22
REMARK SMILES IDX 1 23 3 24 4 25 90 26 91 27 95 28 92 29 94 30 93 31 20 32
REMARK SMILES IDX 21 33 22 34 23 35 24 36 25 37 86 38 26 39 85 40 27 41 28 42
REMARK SMILES IDX 29 43 79 44 30 45 84 46 78 47 80 48 31 49 83 50 77 51 76 52
REMARK SMILES IDX 32 54 64 55 44 56 63 57 45 58 48 59 62 60 81 61 46 62 47 63
REMARK SMILES IDX 61 65 82 66 49 67 33 68 34 69 42 70 35 71 41 72 43 73 40 74
REMARK SMILES IDX 36 75 37 76 38 77 39 78 65 79 66 80 74 81 67 82 73 83 75 84
REMARK SMILES IDX 72 85 68 86 69 87 70 88 71 89 50 90 51 91 59 92 52 93 58 94
REMARK SMILES IDX 60 95 57 96 53 97 54 98 55 99 56 100
REMARK H PARENT 80 53 48 64
REMARK Flexibility Score: inf
ROOT
ATOM      1  C   UNL A   1      38.548  20.059  25.755  1.00  0.00     0.275 C 
ENDROOT
BRANCH   1   2
ATOM      2  O   UNL A   1      38.979  21.283  25.129  1.00  0.00    -0.458 OA
BRANCH   2   3
ATOM      3  C   UNL A   1      38.573  22.425  25.739  1.00  0.00     0.338 C 
ATOM      4  O   UNL A   1      39.186  23.040  26.597  1.00  0.00    -0.246 OA
BRANCH   3   5
ATOM      5  C   UNL A   1      37.279  22.897  25.190  1.00  0.00     0.060 A 
ATOM      6  C   UNL A   1      34.727  23.678  24.316  1.00  0.00     0.060 A 
ATOM      7  C   UNL A   1      35.182  24.055  25.582  1.00  0.00     0.029 A 
ATOM      8  C   UNL A   1      35.589  22.969  23.467  1.00  0.00     0.029 A 
ATOM      9  C   UNL A   1      36.433  23.634  26.030  1.00  0.00     0.018 A 
ATOM     10  C   UNL A   1      36.864  22.585  23.893  1.00  0.00     0.018 A 
BRANCH   6  11
ATOM     11  N   UNL A   1      33.384  23.840  23.962  1.00  0.00    -0.257 N 
ATOM     12  C   UNL A   1      31.708  25.162  23.900  1.00  0.00     0.071 C 
ATOM     13  N   UNL A   1      32.951  25.057  23.542  1.00  0.00    -0.176 NA
ATOM     14  C   UNL A   1      31.162  24.019  24.711  1.00  0.00     0.091 C 
ATOM     15  C   UNL A   1      32.386  23.099  24.748  1.00  0.00     0.144 C 
BRANCH  12  16
ATOM     16  C   UNL A   1      30.865  26.309  23.514  1.00  0.00    -0.002 A 
ATOM     17  C   UNL A   1      29.200  28.458  22.880  1.00  0.00     0.067 A 
ATOM     18  C   UNL A   1      28.665  27.320  23.492  1.00  0.00     0.021 A 
ATOM     19  C   UNL A   1      30.562  28.520  22.566  1.00  0.00     0.021 A 
ATOM     20  C   UNL A   1      29.496  26.242  23.795  1.00  0.00     0.011 A 
ATOM     21  C   UNL A   1      31.398  27.445  22.895  1.00  0.00     0.011 A 
BRANCH  17  22
ATOM     22  S   UNL A   1      28.096  29.819  22.573  1.00  0.00     0.175 S 
ATOM     23  C   UNL A   1      28.820  31.249  23.322  1.00  0.00     0.163 C 
ATOM     24  O   UNL A   1      26.881  29.541  23.318  1.00  0.00    -0.224 OA
ATOM     25  O   UNL A   1      28.071  30.035  21.142  1.00  0.00    -0.224 OA
ENDBRANCH  17  22
ENDBRANCH  12  16
BRANCH  15  26
ATOM     26  C   UNL A   1      32.265  21.692  24.180  1.00  0.00    -0.023 A 
ATOM     27  C   UNL A   1      32.103  21.425  22.814  1.00  0.00     0.006 A 
ATOM     28  C   UNL A   1      32.478  20.601  25.048  1.00  0.00     0.006 A 
ATOM     29  C   UNL A   1      32.156  20.112  22.335  1.00  0.00     0.000 A 
ATOM     30  C   UNL A   1      32.560  19.295  24.564  1.00  0.00     0.000 A 
ATOM     31  C   UNL A   1      32.397  19.051  23.206  1.00  0.00     0.000 A 
ENDBRANCH  15  26
ENDBRANCH   6  11
ENDBRANCH   3   5
ENDBRANCH   2   3
ENDBRANCH   1   2
BRANCH   1  32
ATOM     32  C   UNL A   1      39.693  19.051  25.821  1.00  0.00     0.275 C 
BRANCH  32  33
ATOM     33  O   UNL A   1      40.897  19.640  25.298  1.00  0.00    -0.458 OA
BRANCH  33  34
ATOM     34  C   UNL A   1      41.952  19.667  26.146  1.00  0.00     0.338 C 
ATOM     35  O   UNL A   1      42.623  18.724  26.523  1.00  0.00    -0.246 OA
BRANCH  34  36
ATOM     36  C   UNL A   1      42.221  21.059  26.544  1.00  0.00     0.060 A 
ATOM     37  C   UNL A   1      42.334  22.026  25.552  1.00  0.00     0.016 A 
ATOM     38  C   UNL A   1      42.490  21.385  27.871  1.00  0.00     0.016 A 
ATOM     39  C   UNL A   1      42.793  23.303  25.860  1.00  0.00     0.010 A 
ATOM     40  C   UNL A   1      42.860  22.698  28.194  1.00  0.00     0.010 A 
ATOM     41  C   UNL A   1      43.050  23.666  27.190  1.00  0.00    -0.014 A 
BRANCH  41  42
ATOM     42  C   UNL A   1      43.559  25.035  27.504  1.00  0.00     0.031 A 
ATOM     43  C   UNL A   1      42.630  26.083  28.066  1.00  0.00     0.074 A 
ATOM     44  C   UNL A   1      44.858  25.341  27.306  1.00  0.00     0.049 A 
ATOM     45  N   UNL A   1      42.843  27.358  28.273  1.00  0.00    -0.248 NA
ATOM     46  C   UNL A   1      41.276  25.637  28.422  1.00  0.00     0.031 C 
ATOM     47  C   UNL A   1      45.873  24.421  26.792  1.00  0.00     0.029 A 
ATOM     48  N   UNL A   1      45.550  26.510  27.519  1.00  0.00    -0.354 N 
ATOM     49  C   UNL A   1      41.632  27.881  28.720  1.00  0.00     0.074 A 
ATOM     50  C   UNL A   1      40.689  26.781  28.739  1.00  0.00     0.031 C 
ATOM     51  C   UNL A   1      47.061  25.044  26.764  1.00  0.00     0.029 A 
ATOM     52  C   UNL A   1      46.879  26.434  27.167  1.00  0.00     0.049 A 
ATOM     53  H   UNL A   1      45.136  27.323  27.888  1.00  0.00     0.167 HD
ATOM     54  C   UNL A   1      41.337  29.158  29.080  1.00  0.00     0.034 A 
ATOM     55  C   UNL A   1      47.838  27.380  27.121  1.00  0.00     0.034 A 
ATOM     56  C   UNL A   1      42.306  30.230  29.105  1.00  0.00     0.049 A 
ATOM     57  C   UNL A   1      47.489  28.790  27.513  1.00  0.00     0.074 A 
ATOM     58  C   UNL A   1      42.129  31.543  29.508  1.00  0.00     0.029 A 
ATOM     59  N   UNL A   1      43.634  30.118  28.711  1.00  0.00    -0.354 N 
ATOM     60  N   UNL A   1      46.335  29.275  27.907  1.00  0.00    -0.248 NA
ATOM     61  C   UNL A   1      48.570  29.779  27.444  1.00  0.00     0.031 C 
ATOM     62  C   UNL A   1      43.324  32.239  29.289  1.00  0.00     0.029 A 
ATOM     63  C   UNL A   1      44.276  31.344  28.824  1.00  0.00     0.049 A 
ATOM     64  H   UNL A   1      44.060  29.288  28.396  1.00  0.00     0.167 HD
ATOM     65  C   UNL A   1      46.550  30.631  28.130  1.00  0.00     0.074 A 
ATOM     66  C   UNL A   1      47.955  30.875  27.863  1.00  0.00     0.031 C 
ATOM     67  C   UNL A   1      45.667  31.588  28.515  1.00  0.00     0.034 A 
BRANCH  54  68
ATOM     68  C   UNL A   1      39.891  29.474  29.404  1.00  0.00     0.023 A 
ATOM     69  C   UNL A   1      39.427  29.633  30.721  1.00  0.00     0.031 A 
ATOM     70  C   UNL A   1      38.948  29.569  28.363  1.00  0.00     0.131 A 
ATOM     71  C   UNL A   1      38.053  29.788  30.967  1.00  0.00     0.055 A 
ATOM     72  C   UNL A   1      37.595  29.812  28.610  1.00  0.00     0.041 A 
ATOM     73  F   UNL A   1      39.323  29.408  27.083  1.00  0.00    -0.206 F 
ATOM     74  C   UNL A   1      37.137  29.903  29.918  1.00  0.00     0.022 A 
BRANCH  71  75
ATOM     75  S   UNL A   1      37.456  29.661  32.676  1.00  0.00     0.124 S 
ATOM     76  O   UNL A   1      38.511  30.355  33.410  1.00  0.00    -0.237 OA
ATOM     77  O   UNL A   1      36.167  30.340  32.607  1.00  0.00    -0.237 OA
ATOM     78  O   UNL A   1      37.391  28.219  32.910  1.00  0.00    -0.744 OA
ENDBRANCH  71  75
ENDBRANCH  54  68
BRANCH  55  79
ATOM     79  C   UNL A   1      49.196  27.036  26.610  1.00  0.00     0.023 A 
ATOM     80  C   UNL A   1      50.308  26.974  27.464  1.00  0.00     0.031 A 
ATOM     81  C   UNL A   1      49.394  26.758  25.245  1.00  0.00     0.131 A 
ATOM     82  C   UNL A   1      51.572  26.659  26.939  1.00  0.00     0.055 A 
ATOM     83  C   UNL A   1      50.641  26.395  24.737  1.00  0.00     0.041 A 
ATOM     84  F   UNL A   1      48.362  26.802  24.387  1.00  0.00    -0.206 F 
ATOM     85  C   UNL A   1      51.742  26.352  25.586  1.00  0.00     0.022 A 
BRANCH  82  86
ATOM     86  S   UNL A   1      53.010  26.696  28.044  1.00  0.00     0.124 S 
ATOM     87  O   UNL A   1      53.058  28.103  28.425  1.00  0.00    -0.237 OA
ATOM     88  O   UNL A   1      52.614  25.762  29.092  1.00  0.00    -0.237 OA
ATOM     89  O   UNL A   1      54.108  26.243  27.192  1.00  0.00    -0.744 OA
ENDBRANCH  82  86
ENDBRANCH  55  79
BRANCH  67  90
ATOM     90  C   UNL A   1      46.214  32.987  28.678  1.00  0.00     0.023 A 
ATOM     91  C   UNL A   1      46.220  33.902  27.610  1.00  0.00     0.031 A 
ATOM     92  C   UNL A   1      46.775  33.395  29.900  1.00  0.00     0.131 A 
ATOM     93  C   UNL A   1      46.839  35.153  27.764  1.00  0.00     0.055 A 
ATOM     94  C   UNL A   1      47.329  34.665  30.067  1.00  0.00     0.041 A 
ATOM     95  F   UNL A   1      46.803  32.561  30.952  1.00  0.00    -0.206 F 
ATOM     96  C   UNL A   1      47.378  35.546  28.991  1.00  0.00     0.022 A 
BRANCH  93  97
ATOM     97  S   UNL A   1      47.036  36.213  26.305  1.00  0.00     0.124 S 
ATOM     98  O   UNL A   1      46.614  35.325  25.226  1.00  0.00    -0.237 OA
ATOM     99  O   UNL A   1      46.140  37.325  26.603  1.00  0.00    -0.237 OA
ATOM    100  O   UNL A   1      48.459  36.546  26.312  1.00  0.00    -0.744 OA
ENDBRANCH  93  97
ENDBRANCH  67  90
ENDBRANCH  41  42
ENDBRANCH  34  36
ENDBRANCH  33  34
ENDBRANCH  32  33
ENDBRANCH   1  32
TORSDOF 18
ENDMDL
MODEL 2
REMARK VINA RESULT:     -12.5      5.788     10.256
REMARK SMILES CS(=O)(=O)c1ccc(C2=NN(c3ccc(C(=O)OCCOC(=O)c4ccc(-c5c6nc(c(-c7cc(S(=O)(=O)[O-])ccc7F)c7ccc([nH]7)c(-c7cc(S(=O)(=O)[O-])ccc7F)c7nc(c(-c8cc(S(=O)(=O)[O-])ccc8F)c8ccc5[nH]8)C=C7)C=C6)cc4)cc3)[C@H](c3ccccc3)C2)cc1
REMARK SMILES IDX 19 1 18 2 16 3 17 4 15 5 12 6 13 7 88 8 14 9 87 10 11 11
REMARK SMILES IDX 9 12 10 13 96 14 89 15 8 16 5 17 6 18 98 19 7 20 97 21 2 22
REMARK SMILES IDX 1 23 3 24 4 25 90 26 91 27 95 28 92 29 94 30 93 31 20 32
REMARK SMILES IDX 21 33 22 34 23 35 24 36 25 37 86 38 26 39 85 40 27 41 28 42
REMARK SMILES IDX 29 43 79 44 30 45 84 46 78 47 80 48 31 49 83 50 77 51 76 52
REMARK SMILES IDX 32 54 64 55 44 56 63 57 45 58 48 59 62 60 81 61 46 62 47 63
REMARK SMILES IDX 61 65 82 66 49 67 33 68 34 69 42 70 35 71 41 72 43 73 40 74
REMARK SMILES IDX 36 75 37 76 38 77 39 78 65 79 66 80 74 81 67 82 73 83 75 84
REMARK SMILES IDX 72 85 68 86 69 87 70 88 71 89 50 90 51 91 59 92 52 93 58 94
REMARK SMILES IDX 60 95 57 96 53 97 54 98 55 99 56 100
REMARK H PARENT 80 53 48 64
REMARK Flexibility Score: inf
ROOT
ATOM      1  C   UNL A   1      32.915  33.247  27.518  1.00  0.00     0.275 C 
ENDROOT
BRANCH   1   2
ATOM      2  O   UNL A   1      33.344  32.116  28.299  1.00  0.00    -0.458 OA
BRANCH   2   3
ATOM      3  C   UNL A   1      34.274  31.320  27.714  1.00  0.00     0.338 C 
ATOM      4  O   UNL A   1      35.471  31.548  27.636  1.00  0.00    -0.246 OA
BRANCH   3   5
ATOM      5  C   UNL A   1      33.666  30.065  27.209  1.00  0.00     0.060 A 
ATOM      6  C   UNL A   1      32.608  27.735  26.053  1.00  0.00     0.060 A 
ATOM      7  C   UNL A   1      33.991  27.918  26.126  1.00  0.00     0.029 A 
ATOM      8  C   UNL A   1      31.765  28.696  26.628  1.00  0.00     0.029 A 
ATOM      9  C   UNL A   1      34.515  29.091  26.664  1.00  0.00     0.018 A 
ATOM     10  C   UNL A   1      32.285  29.854  27.213  1.00  0.00     0.018 A 
BRANCH   6  11
ATOM     11  N   UNL A   1      32.062  26.714  25.268  1.00  0.00    -0.257 N 
ATOM     12  C   UNL A   1      32.293  24.725  24.526  1.00  0.00     0.071 C 
ATOM     13  N   UNL A   1      32.277  25.420  25.621  1.00  0.00    -0.176 NA
ATOM     14  C   UNL A   1      32.175  25.513  23.249  1.00  0.00     0.091 C 
ATOM     15  C   UNL A   1      32.024  26.929  23.814  1.00  0.00     0.144 C 
BRANCH  12  16
ATOM     16  C   UNL A   1      32.389  23.253  24.520  1.00  0.00    -0.002 A 
ATOM     17  C   UNL A   1      32.650  20.476  24.418  1.00  0.00     0.067 A 
ATOM     18  C   UNL A   1      32.749  21.228  23.243  1.00  0.00     0.021 A 
ATOM     19  C   UNL A   1      32.401  21.105  25.643  1.00  0.00     0.021 A 
ATOM     20  C   UNL A   1      32.605  22.614  23.294  1.00  0.00     0.011 A 
ATOM     21  C   UNL A   1      32.282  22.500  25.694  1.00  0.00     0.011 A 
BRANCH  17  22
ATOM     22  S   UNL A   1      32.900  18.719  24.291  1.00  0.00     0.175 S 
ATOM     23  C   UNL A   1      32.342  18.234  22.684  1.00  0.00     0.163 C 
ATOM     24  O   UNL A   1      31.991  18.103  25.241  1.00  0.00    -0.224 OA
ATOM     25  O   UNL A   1      34.327  18.486  24.352  1.00  0.00    -0.224 OA
ENDBRANCH  17  22
ENDBRANCH  12  16
BRANCH  15  26
ATOM     26  C   UNL A   1      30.774  27.727  23.472  1.00  0.00    -0.023 A 
ATOM     27  C   UNL A   1      30.802  28.930  22.754  1.00  0.00     0.006 A 
ATOM     28  C   UNL A   1      29.517  27.155  23.757  1.00  0.00     0.006 A 
ATOM     29  C   UNL A   1      29.613  29.536  22.334  1.00  0.00     0.000 A 
ATOM     30  C   UNL A   1      28.334  27.744  23.312  1.00  0.00     0.000 A 
ATOM     31  C   UNL A   1      28.383  28.938  22.601  1.00  0.00     0.000 A 
ENDBRANCH  15  26
ENDBRANCH   6  11
ENDBRANCH   3   5
ENDBRANCH   2   3
ENDBRANCH   1   2
BRANCH   1  32
ATOM     32  C   UNL A   1      33.297  34.557  28.204  1.00  0.00     0.275 C 
BRANCH  32  33
ATOM     33  O   UNL A   1      32.603  34.675  29.458  1.00  0.00    -0.458 OA
BRANCH  33  34
ATOM     34  C   UNL A   1      33.330  35.174  30.486  1.00  0.00     0.338 C 
ATOM     35  O   UNL A   1      33.094  36.172  31.143  1.00  0.00    -0.246 OA
BRANCH  34  36
ATOM     36  C   UNL A   1      34.480  34.292  30.743  1.00  0.00     0.060 A 
ATOM     37  C   UNL A   1      34.297  33.180  31.558  1.00  0.00     0.016 A 
ATOM     38  C   UNL A   1      35.755  34.628  30.296  1.00  0.00     0.016 A 
ATOM     39  C   UNL A   1      35.391  32.441  31.999  1.00  0.00     0.010 A 
ATOM     40  C   UNL A   1      36.845  33.826  30.663  1.00  0.00     0.010 A 
ATOM     41  C   UNL A   1      36.683  32.743  31.548  1.00  0.00    -0.014 A 
BRANCH  41  42
ATOM     42  C   UNL A   1      37.850  31.952  32.043  1.00  0.00     0.031 A 
ATOM     43  C   UNL A   1      38.456  32.252  33.392  1.00  0.00     0.074 A 
ATOM     44  C   UNL A   1      38.358  30.949  31.299  1.00  0.00     0.049 A 
ATOM     45  N   UNL A   1      39.548  31.777  33.937  1.00  0.00    -0.248 NA
ATOM     46  C   UNL A   1      37.751  33.234  34.226  1.00  0.00     0.031 C 
ATOM     47  C   UNL A   1      37.857  30.532  29.988  1.00  0.00     0.029 A 
ATOM     48  N   UNL A   1      39.406  30.092  31.537  1.00  0.00    -0.354 N 
ATOM     49  C   UNL A   1      39.696  32.449  35.148  1.00  0.00     0.074 A 
ATOM     50  C   UNL A   1      38.585  33.374  35.244  1.00  0.00     0.031 C 
ATOM     51  C   UNL A   1      38.568  29.481  29.556  1.00  0.00     0.029 A 
ATOM     52  C   UNL A   1      39.637  29.205  30.510  1.00  0.00     0.049 A 
ATOM     53  H   UNL A   1      39.940  30.110  32.364  1.00  0.00     0.167 HD
ATOM     54  C   UNL A   1      40.666  32.306  36.088  1.00  0.00     0.034 A 
ATOM     55  C   UNL A   1      40.622  28.303  30.323  1.00  0.00     0.034 A 
ATOM     56  C   UNL A   1      41.736  31.339  35.997  1.00  0.00     0.049 A 
ATOM     57  C   UNL A   1      41.693  28.168  31.370  1.00  0.00     0.074 A 
ATOM     58  C   UNL A   1      42.736  31.071  36.917  1.00  0.00     0.029 A 
ATOM     59  N   UNL A   1      41.952  30.482  34.925  1.00  0.00    -0.354 N 
ATOM     60  N   UNL A   1      41.835  28.828  32.496  1.00  0.00    -0.248 NA
ATOM     61  C   UNL A   1      42.740  27.173  31.115  1.00  0.00     0.031 C 
ATOM     62  C   UNL A   1      43.594  30.107  36.372  1.00  0.00     0.029 A 
ATOM     63  C   UNL A   1      43.087  29.712  35.143  1.00  0.00     0.049 A 
ATOM     64  H   UNL A   1      41.382  30.427  34.124  1.00  0.00     0.167 HD
ATOM     65  C   UNL A   1      42.993  28.330  33.084  1.00  0.00     0.074 A 
ATOM     66  C   UNL A   1      43.487  27.287  32.204  1.00  0.00     0.031 C 
ATOM     67  C   UNL A   1      43.596  28.704  34.241  1.00  0.00     0.034 A 
BRANCH  54  68
ATOM     68  C   UNL A   1      40.651  33.269  37.257  1.00  0.00     0.023 A 
ATOM     69  C   UNL A   1      39.899  33.036  38.422  1.00  0.00     0.031 A 
ATOM     70  C   UNL A   1      41.373  34.476  37.176  1.00  0.00     0.131 A 
ATOM     71  C   UNL A   1      39.814  34.028  39.413  1.00  0.00     0.055 A 
ATOM     72  C   UNL A   1      41.354  35.420  38.205  1.00  0.00     0.041 A 
ATOM     73  F   UNL A   1      42.095  34.769  36.083  1.00  0.00    -0.206 F 
ATOM     74  C   UNL A   1      40.556  35.208  39.323  1.00  0.00     0.022 A 
BRANCH  71  75
ATOM     75  S   UNL A   1      38.586  33.833  40.734  1.00  0.00     0.124 S 
ATOM     76  O   UNL A   1      39.322  33.024  41.704  1.00  0.00    -0.237 OA
ATOM     77  O   UNL A   1      38.321  35.214  41.120  1.00  0.00    -0.237 OA
ATOM     78  O   UNL A   1      37.479  33.144  40.074  1.00  0.00    -0.744 OA
ENDBRANCH  71  75
ENDBRANCH  54  68
BRANCH  55  79
ATOM     79  C   UNL A   1      40.679  27.519  29.055  1.00  0.00     0.023 A 
ATOM     80  C   UNL A   1      41.581  27.845  28.031  1.00  0.00     0.031 A 
ATOM     81  C   UNL A   1      39.821  26.422  28.857  1.00  0.00     0.131 A 
ATOM     82  C   UNL A   1      41.593  27.088  26.847  1.00  0.00     0.055 A 
ATOM     83  C   UNL A   1      39.872  25.642  27.702  1.00  0.00     0.041 A 
ATOM     84  F   UNL A   1      38.940  26.069  29.807  1.00  0.00    -0.206 F 
ATOM     85  C   UNL A   1      40.758  25.980  26.684  1.00  0.00     0.022 A 
BRANCH  82  86
ATOM     86  S   UNL A   1      42.691  27.599  25.496  1.00  0.00     0.124 S 
ATOM     87  O   UNL A   1      43.932  27.879  26.210  1.00  0.00    -0.237 OA
ATOM     88  O   UNL A   1      42.696  26.416  24.643  1.00  0.00    -0.237 OA
ATOM     89  O   UNL A   1      42.018  28.767  24.933  1.00  0.00    -0.744 OA
ENDBRANCH  82  86
ENDBRANCH  55  79
BRANCH  67  90
ATOM     90  C   UNL A   1      44.856  27.960  34.618  1.00  0.00     0.023 A 
ATOM     91  C   UNL A   1      44.814  26.791  35.399  1.00  0.00     0.031 A 
ATOM     92  C   UNL A   1      46.115  28.448  34.228  1.00  0.00     0.131 A 
ATOM     93  C   UNL A   1      46.009  26.190  35.824  1.00  0.00     0.055 A 
ATOM     94  C   UNL A   1      47.299  27.807  34.599  1.00  0.00     0.041 A 
ATOM     95  F   UNL A   1      46.218  29.564  33.487  1.00  0.00    -0.206 F 
ATOM     96  C   UNL A   1      47.251  26.681  35.415  1.00  0.00     0.022 A 
BRANCH  93  97
ATOM     97  S   UNL A   1      45.922  24.827  37.018  1.00  0.00     0.124 S 
ATOM     98  O   UNL A   1      46.255  23.674  36.187  1.00  0.00    -0.237 OA
ATOM     99  O   UNL A   1      46.924  25.212  38.006  1.00  0.00    -0.237 OA
ATOM    100  O   UNL A   1      44.538  24.871  37.489  1.00  0.00    -0.744 OA
ENDBRANCH  93  97
ENDBRANCH  67  90
ENDBRANCH  41  42
ENDBRANCH  34  36
ENDBRANCH  33  34
ENDBRANCH  32  33
ENDBRANCH   1  32
TORSDOF 18
ENDMDL
MODEL 3
REMARK VINA RESULT:     -12.3      5.706     11.277
REMARK SMILES CS(=O)(=O)c1ccc(C2=NN(c3ccc(C(=O)OCCOC(=O)c4ccc(-c5c6nc(c(-c7cc(S(=O)(=O)[O-])ccc7F)c7ccc([nH]7)c(-c7cc(S(=O)(=O)[O-])ccc7F)c7nc(c(-c8cc(S(=O)(=O)[O-])ccc8F)c8ccc5[nH]8)C=C7)C=C6)cc4)cc3)[C@H](c3ccccc3)C2)cc1
REMARK SMILES IDX 19 1 18 2 16 3 17 4 15 5 12 6 13 7 88 8 14 9 87 10 11 11
REMARK SMILES IDX 9 12 10 13 96 14 89 15 8 16 5 17 6 18 98 19 7 20 97 21 2 22
REMARK SMILES IDX 1 23 3 24 4 25 90 26 91 27 95 28 92 29 94 30 93 31 20 32
REMARK SMILES IDX 21 33 22 34 23 35 24 36 25 37 86 38 26 39 85 40 27 41 28 42
REMARK SMILES IDX 29 43 79 44 30 45 84 46 78 47 80 48 31 49 83 50 77 51 76 52
REMARK SMILES IDX 32 54 64 55 44 56 63 57 45 58 48 59 62 60 81 61 46 62 47 63
REMARK SMILES IDX 61 65 82 66 49 67 33 68 34 69 42 70 35 71 41 72 43 73 40 74
REMARK SMILES IDX 36 75 37 76 38 77 39 78 65 79 66 80 74 81 67 82 73 83 75 84
REMARK SMILES IDX 72 85 68 86 69 87 70 88 71 89 50 90 51 91 59 92 52 93 58 94
REMARK SMILES IDX 60 95 57 96 53 97 54 98 55 99 56 100
REMARK H PARENT 80 53 48 64
REMARK Flexibility Score: inf
ROOT
ATOM      1  C   UNL A   1      33.420  33.089  27.305  1.00  0.00     0.275 C 
ENDROOT
BRANCH   1   2
ATOM      2  O   UNL A   1      32.841  31.770  27.343  1.00  0.00    -0.458 OA
BRANCH   2   3
ATOM      3  C   UNL A   1      33.705  30.760  27.616  1.00  0.00     0.338 C 
ATOM      4  O   UNL A   1      34.717  30.841  28.294  1.00  0.00    -0.246 OA
BRANCH   3   5
ATOM      5  C   UNL A   1      33.239  29.482  27.027  1.00  0.00     0.060 A 
ATOM      6  C   UNL A   1      32.387  27.154  25.707  1.00  0.00     0.060 A 
ATOM      7  C   UNL A   1      33.684  27.636  25.515  1.00  0.00     0.029 A 
ATOM      8  C   UNL A   1      31.548  27.808  26.620  1.00  0.00     0.029 A 
ATOM      9  C   UNL A   1      34.094  28.812  26.140  1.00  0.00     0.018 A 
ATOM     10  C   UNL A   1      31.969  28.963  27.286  1.00  0.00     0.018 A 
BRANCH   6  11
ATOM     11  N   UNL A   1      31.867  26.153  24.880  1.00  0.00    -0.257 N 
ATOM     12  C   UNL A   1      32.171  24.226  24.012  1.00  0.00     0.071 C 
ATOM     13  N   UNL A   1      32.157  24.854  25.148  1.00  0.00    -0.176 NA
ATOM     14  C   UNL A   1      31.971  25.080  22.790  1.00  0.00     0.091 C 
ATOM     15  C   UNL A   1      31.768  26.451  23.443  1.00  0.00     0.144 C 
BRANCH  12  16
ATOM     16  C   UNL A   1      32.340  22.764  23.915  1.00  0.00    -0.002 A 
ATOM     17  C   UNL A   1      32.633  19.989  23.849  1.00  0.00     0.067 A 
ATOM     18  C   UNL A   1      32.970  20.697  25.007  1.00  0.00     0.021 A 
ATOM     19  C   UNL A   1      32.167  20.664  22.716  1.00  0.00     0.021 A 
ATOM     20  C   UNL A   1      32.837  22.084  25.033  1.00  0.00     0.011 A 
ATOM     21  C   UNL A   1      32.010  22.056  22.755  1.00  0.00     0.011 A 
BRANCH  17  22
ATOM     22  S   UNL A   1      32.773  18.216  23.902  1.00  0.00     0.175 S 
ATOM     23  C   UNL A   1      34.460  17.844  24.282  1.00  0.00     0.163 C 
ATOM     24  O   UNL A   1      32.548  17.744  22.547  1.00  0.00    -0.224 OA
ATOM     25  O   UNL A   1      31.959  17.756  25.006  1.00  0.00    -0.224 OA
ENDBRANCH  17  22
ENDBRANCH  12  16
BRANCH  15  26
ATOM     26  C   UNL A   1      30.469  27.202  23.188  1.00  0.00    -0.023 A 
ATOM     27  C   UNL A   1      29.228  26.781  23.683  1.00  0.00     0.006 A 
ATOM     28  C   UNL A   1      30.538  28.460  22.554  1.00  0.00     0.006 A 
ATOM     29  C   UNL A   1      28.097  27.593  23.550  1.00  0.00     0.000 A 
ATOM     30  C   UNL A   1      29.416  29.281  22.449  1.00  0.00     0.000 A 
ATOM     31  C   UNL A   1      28.193  28.845  22.946  1.00  0.00     0.000 A 
ENDBRANCH  15  26
ENDBRANCH   6  11
ENDBRANCH   3   5
ENDBRANCH   2   3
ENDBRANCH   1   2
BRANCH   1  32
ATOM     32  C   UNL A   1      32.493  34.108  27.962  1.00  0.00     0.275 C 
BRANCH  32  33
ATOM     33  O   UNL A   1      33.267  35.095  28.666  1.00  0.00    -0.458 OA
BRANCH  33  34
ATOM     34  C   UNL A   1      33.318  34.949  30.011  1.00  0.00     0.338 C 
ATOM     35  O   UNL A   1      32.505  35.339  30.829  1.00  0.00    -0.246 OA
BRANCH  34  36
ATOM     36  C   UNL A   1      34.526  34.190  30.373  1.00  0.00     0.060 A 
ATOM     37  C   UNL A   1      34.418  33.176  31.318  1.00  0.00     0.016 A 
ATOM     38  C   UNL A   1      35.777  34.559  29.886  1.00  0.00     0.016 A 
ATOM     39  C   UNL A   1      35.558  32.577  31.845  1.00  0.00     0.010 A 
ATOM     40  C   UNL A   1      36.920  33.889  30.347  1.00  0.00     0.010 A 
ATOM     41  C   UNL A   1      36.829  32.913  31.358  1.00  0.00    -0.014 A 
BRANCH  41  42
ATOM     42  C   UNL A   1      38.045  32.274  31.945  1.00  0.00     0.031 A 
ATOM     43  C   UNL A   1      38.797  31.216  31.176  1.00  0.00     0.074 A 
ATOM     44  C   UNL A   1      38.494  32.651  33.160  1.00  0.00     0.049 A 
ATOM     45  N   UNL A   1      39.785  30.449  31.564  1.00  0.00    -0.248 NA
ATOM     46  C   UNL A   1      38.362  30.976  29.793  1.00  0.00     0.031 C 
ATOM     47  C   UNL A   1      37.882  33.678  34.004  1.00  0.00     0.029 A 
ATOM     48  N   UNL A   1      39.573  32.221  33.895  1.00  0.00    -0.354 N 
ATOM     49  C   UNL A   1      40.047  29.592  30.498  1.00  0.00     0.074 A 
ATOM     50  C   UNL A   1      39.100  29.930  29.455  1.00  0.00     0.031 C 
ATOM     51  C   UNL A   1      38.611  33.826  35.120  1.00  0.00     0.029 A 
ATOM     52  C   UNL A   1      39.687  32.842  35.119  1.00  0.00     0.049 A 
ATOM     53  H   UNL A   1      40.203  31.535  33.577  1.00  0.00     0.167 HD
ATOM     54  C   UNL A   1      40.988  28.617  30.401  1.00  0.00     0.034 A 
ATOM     55  C   UNL A   1      40.527  32.618  36.150  1.00  0.00     0.034 A 
ATOM     56  C   UNL A   1      41.958  28.331  31.434  1.00  0.00     0.049 A 
ATOM     57  C   UNL A   1      41.554  31.526  36.028  1.00  0.00     0.074 A 
ATOM     58  C   UNL A   1      42.989  27.407  31.416  1.00  0.00     0.029 A 
ATOM     59  N   UNL A   1      42.019  28.961  32.671  1.00  0.00    -0.354 N 
ATOM     60  N   UNL A   1      41.773  30.706  35.026  1.00  0.00    -0.248 NA
ATOM     61  C   UNL A   1      42.441  31.325  37.179  1.00  0.00     0.031 C 
ATOM     62  C   UNL A   1      43.626  27.428  32.663  1.00  0.00     0.029 A 
ATOM     63  C   UNL A   1      43.044  28.422  33.437  1.00  0.00     0.049 A 
ATOM     64  H   UNL A   1      41.422  29.687  32.964  1.00  0.00     0.167 HD
ATOM     65  C   UNL A   1      42.822  29.886  35.429  1.00  0.00     0.074 A 
ATOM     66  C   UNL A   1      43.215  30.339  36.750  1.00  0.00     0.031 C 
ATOM     67  C   UNL A   1      43.403  28.851  34.770  1.00  0.00     0.034 A 
BRANCH  54  68
ATOM     68  C   UNL A   1      40.960  27.743  29.165  1.00  0.00     0.023 A 
ATOM     69  C   UNL A   1      41.875  27.896  28.108  1.00  0.00     0.031 A 
ATOM     70  C   UNL A   1      39.959  26.763  29.025  1.00  0.00     0.131 A 
ATOM     71  C   UNL A   1      41.715  27.151  26.928  1.00  0.00     0.055 A 
ATOM     72  C   UNL A   1      39.860  25.963  27.884  1.00  0.00     0.041 A 
ATOM     73  F   UNL A   1      39.043  26.579  29.989  1.00  0.00    -0.206 F 
ATOM     74  C   UNL A   1      40.729  26.168  26.819  1.00  0.00     0.022 A 
BRANCH  71  75
ATOM     75  S   UNL A   1      42.702  27.604  25.474  1.00  0.00     0.124 S 
ATOM     76  O   UNL A   1      42.039  28.830  25.037  1.00  0.00    -0.237 OA
ATOM     77  O   UNL A   1      44.037  27.762  26.039  1.00  0.00    -0.237 OA
ATOM     78  O   UNL A   1      42.534  26.462  24.577  1.00  0.00    -0.744 OA
ENDBRANCH  71  75
ENDBRANCH  54  68
BRANCH  55  79
ATOM     79  C   UNL A   1      40.372  33.393  37.414  1.00  0.00     0.023 A 
ATOM     80  C   UNL A   1      39.470  32.995  38.413  1.00  0.00     0.031 A 
ATOM     81  C   UNL A   1      41.138  34.552  37.637  1.00  0.00     0.131 A 
ATOM     82  C   UNL A   1      39.346  33.762  39.584  1.00  0.00     0.055 A 
ATOM     83  C   UNL A   1      41.048  35.281  38.823  1.00  0.00     0.041 A 
ATOM     84  F   UNL A   1      42.015  34.974  36.713  1.00  0.00    -0.206 F 
ATOM     85  C   UNL A   1      40.141  34.890  39.803  1.00  0.00     0.022 A 
BRANCH  82  86
ATOM     86  S   UNL A   1      38.094  33.288  40.809  1.00  0.00     0.124 S 
ATOM     87  O   UNL A   1      38.872  32.468  41.730  1.00  0.00    -0.237 OA
ATOM     88  O   UNL A   1      37.657  34.584  41.316  1.00  0.00    -0.237 OA
ATOM     89  O   UNL A   1      37.099  32.565  40.017  1.00  0.00    -0.744 OA
ENDBRANCH  82  86
ENDBRANCH  55  79
BRANCH  67  90
ATOM     90  C   UNL A   1      44.539  28.151  35.479  1.00  0.00     0.023 A 
ATOM     91  C   UNL A   1      45.847  28.665  35.456  1.00  0.00     0.031 A 
ATOM     92  C   UNL A   1      44.319  26.934  36.148  1.00  0.00     0.131 A 
ATOM     93  C   UNL A   1      46.897  27.931  36.030  1.00  0.00     0.055 A 
ATOM     94  C   UNL A   1      45.357  26.241  36.773  1.00  0.00     0.041 A 
ATOM     95  F   UNL A   1      43.091  26.392  36.196  1.00  0.00    -0.206 F 
ATOM     96  C   UNL A   1      46.657  26.731  36.703  1.00  0.00     0.022 A 
BRANCH  93  97
ATOM     97  S   UNL A   1      48.600  28.505  35.780  1.00  0.00     0.124 S 
ATOM     98  O   UNL A   1      49.343  27.667  36.716  1.00  0.00    -0.237 OA
ATOM     99  O   UNL A   1      48.819  28.229  34.364  1.00  0.00    -0.237 OA
ATOM    100  O   UNL A   1      48.540  29.923  36.133  1.00  0.00    -0.744 OA
ENDBRANCH  93  97
ENDBRANCH  67  90
ENDBRANCH  41  42
ENDBRANCH  34  36
ENDBRANCH  33  34
ENDBRANCH  32  33
ENDBRANCH   1  32
TORSDOF 18
ENDMDL
