MODEL 1
REMARK VINA RESULT:     -10.7      0.000      0.000
REMARK SMILES CCOc1ccc(SCC(=O)N2CSC[C@@H]2C(=O)OCCOC(=O)c2ccc(-c3c4nc(c(-c5cc(S(=O)(=O)[O-])ccc5F)c5ccc([nH]5)c(-c5cc(S(=O)(=O)[O-])ccc5F)c5nc(c(-c6cc(S(=O)(=O)[O-])ccc6F)c6ccc3[nH]6)C=C5)C=C4)cc2)cc1
REMARK SMILES IDX 19 1 17 2 18 3 16 4 12 5 13 6 14 7 15 8 10 9 11 10 9 11 8 12
REMARK SMILES IDX 7 13 4 14 5 15 89 16 6 17 88 18 3 19 2 20 1 21 20 22 21 23
REMARK SMILES IDX 22 24 23 25 24 26 25 27 26 28 87 29 27 30 86 31 28 32 29 33
REMARK SMILES IDX 30 34 80 35 31 36 85 37 79 38 81 39 32 40 84 41 78 42 77 43
REMARK SMILES IDX 33 45 65 46 45 47 64 48 46 49 49 50 63 51 82 52 47 53 48 54
REMARK SMILES IDX 62 56 83 57 50 58 34 59 35 60 43 61 36 62 42 63 44 64 41 65
REMARK SMILES IDX 37 66 38 67 39 68 40 69 66 70 67 71 75 72 68 73 74 74 76 75
REMARK SMILES IDX 73 76 69 77 70 78 71 79 72 80 51 81 52 82 60 83 53 84 59 85
REMARK SMILES IDX 61 86 58 87 54 88 55 89 56 90 57 91
REMARK H PARENT 81 44 49 55
REMARK Flexibility Score: inf
ROOT
ATOM      1  O   UNL A   1      35.183  22.497  24.652  1.00  0.00    -0.461 OA
ENDROOT
BRANCH   1   2
ATOM      2  C   UNL A   1      34.998  23.733  25.201  1.00  0.00     0.329 C 
ATOM      3  O   UNL A   1      35.898  24.424  25.665  1.00  0.00    -0.250 OA
BRANCH   2   4
ATOM      4  C   UNL A   1      33.520  24.173  25.105  1.00  0.00     0.205 C 
ATOM      5  N   UNL A   1      33.240  24.600  23.724  1.00  0.00    -0.318 N 
ATOM      6  C   UNL A   1      32.876  25.980  23.542  1.00  0.00     0.190 C 
ATOM      7  S   UNL A   1      33.318  26.829  25.068  1.00  0.00    -0.138 SA
ATOM      8  C   UNL A   1      33.206  25.317  26.060  1.00  0.00     0.108 C 
BRANCH   5   9
ATOM      9  C   UNL A   1      32.924  23.671  22.756  1.00  0.00     0.234 C 
ATOM     10  O   UNL A   1      33.290  23.834  21.595  1.00  0.00    -0.274 OA
BRANCH   9  11
ATOM     11  C   UNL A   1      32.009  22.535  23.192  1.00  0.00     0.175 C 
BRANCH  11  12
ATOM     12  S   UNL A   1      32.068  21.119  22.062  1.00  0.00    -0.116 SA
BRANCH  12  13
ATOM     13  C   UNL A   1      32.319  19.745  23.175  1.00  0.00     0.008 A 
ATOM     14  C   UNL A   1      32.844  17.698  25.007  1.00  0.00     0.119 A 
ATOM     15  C   UNL A   1      32.837  19.022  25.435  1.00  0.00     0.047 A 
ATOM     16  C   UNL A   1      32.506  17.381  23.697  1.00  0.00     0.047 A 
ATOM     17  C   UNL A   1      32.576  20.043  24.519  1.00  0.00     0.019 A 
ATOM     18  C   UNL A   1      32.242  18.405  22.785  1.00  0.00     0.019 A 
BRANCH  14  19
ATOM     19  O   UNL A   1      33.092  16.705  25.911  1.00  0.00    -0.494 OA
BRANCH  19  20
ATOM     20  C   UNL A   1      33.875  15.647  25.340  1.00  0.00     0.226 C 
ATOM     21  C   UNL A   1      35.357  15.988  25.340  1.00  0.00     0.049 C 
ENDBRANCH  19  20
ENDBRANCH  14  19
ENDBRANCH  12  13
ENDBRANCH  11  12
ENDBRANCH   9  11
ENDBRANCH   5   9
ENDBRANCH   2   4
ENDBRANCH   1   2
BRANCH   1  22
ATOM     22  C   UNL A   1      36.408  22.290  23.914  1.00  0.00     0.274 C 
BRANCH  22  23
ATOM     23  C   UNL A   1      37.237  21.146  24.506  1.00  0.00     0.275 C 
BRANCH  23  24
ATOM     24  O   UNL A   1      37.663  21.457  25.845  1.00  0.00    -0.458 OA
BRANCH  24  25
ATOM     25  C   UNL A   1      38.960  21.178  26.108  1.00  0.00     0.338 C 
ATOM     26  O   UNL A   1      39.572  20.167  25.783  1.00  0.00    -0.246 OA
BRANCH  25  27
ATOM     27  C   UNL A   1      39.615  22.376  26.653  1.00  0.00     0.060 A 
ATOM     28  C   UNL A   1      39.197  23.593  26.127  1.00  0.00     0.016 A 
ATOM     29  C   UNL A   1      40.642  22.335  27.596  1.00  0.00     0.016 A 
ATOM     30  C   UNL A   1      39.782  24.782  26.547  1.00  0.00     0.010 A 
ATOM     31  C   UNL A   1      41.240  23.537  28.015  1.00  0.00     0.010 A 
ATOM     32  C   UNL A   1      40.809  24.770  27.491  1.00  0.00    -0.014 A 
BRANCH  32  33
ATOM     33  C   UNL A   1      41.472  26.057  27.822  1.00  0.00     0.031 A 
ATOM     34  C   UNL A   1      40.743  27.070  28.655  1.00  0.00     0.074 A 
ATOM     35  C   UNL A   1      42.757  26.270  27.484  1.00  0.00     0.049 A 
ATOM     36  N   UNL A   1      41.124  28.261  29.033  1.00  0.00    -0.248 NA
ATOM     37  C   UNL A   1      39.407  26.681  29.124  1.00  0.00     0.031 C 
ATOM     38  C   UNL A   1      43.605  25.320  26.763  1.00  0.00     0.029 A 
ATOM     39  N   UNL A   1      43.583  27.339  27.727  1.00  0.00    -0.354 N 
ATOM     40  C   UNL A   1      40.060  28.786  29.759  1.00  0.00     0.074 A 
ATOM     41  C   UNL A   1      39.022  27.774  29.766  1.00  0.00     0.031 C 
ATOM     42  C   UNL A   1      44.836  25.844  26.640  1.00  0.00     0.029 A 
ATOM     43  C   UNL A   1      44.849  27.190  27.210  1.00  0.00     0.049 A 
ATOM     44  H   UNL A   1      43.296  28.139  28.225  1.00  0.00     0.167 HD
ATOM     45  C   UNL A   1      39.955  30.003  30.350  1.00  0.00     0.034 A 
ATOM     46  C   UNL A   1      45.885  28.053  27.163  1.00  0.00     0.034 A 
ATOM     47  C   UNL A   1      40.995  31.003  30.330  1.00  0.00     0.049 A 
ATOM     48  C   UNL A   1      45.720  29.432  27.759  1.00  0.00     0.074 A 
ATOM     49  C   UNL A   1      40.979  32.276  30.876  1.00  0.00     0.029 A 
ATOM     50  N   UNL A   1      42.237  30.850  29.726  1.00  0.00    -0.354 N 
ATOM     51  N   UNL A   1      44.682  29.944  28.380  1.00  0.00    -0.248 NA
ATOM     52  C   UNL A   1      46.857  30.353  27.628  1.00  0.00     0.031 C 
ATOM     53  C   UNL A   1      42.179  32.915  30.540  1.00  0.00     0.029 A 
ATOM     54  C   UNL A   1      42.977  32.017  29.849  1.00  0.00     0.049 A 
ATOM     55  H   UNL A   1      42.547  30.032  29.274  1.00  0.00     0.167 HD
ATOM     56  C   UNL A   1      45.045  31.247  28.715  1.00  0.00     0.074 A 
ATOM     57  C   UNL A   1      46.405  31.432  28.249  1.00  0.00     0.031 C 
ATOM     58  C   UNL A   1      44.319  32.205  29.348  1.00  0.00     0.034 A 
BRANCH  45  59
ATOM     59  C   UNL A   1      38.623  30.341  30.972  1.00  0.00     0.023 A 
ATOM     60  C   UNL A   1      37.600  30.976  30.247  1.00  0.00     0.031 A 
ATOM     61  C   UNL A   1      38.408  30.092  32.339  1.00  0.00     0.131 A 
ATOM     62  C   UNL A   1      36.446  31.417  30.913  1.00  0.00     0.055 A 
ATOM     63  C   UNL A   1      37.223  30.459  32.978  1.00  0.00     0.041 A 
ATOM     64  F   UNL A   1      39.360  29.511  33.086  1.00  0.00    -0.206 F 
ATOM     65  C   UNL A   1      36.241  31.144  32.268  1.00  0.00     0.022 A 
BRANCH  62  66
ATOM     66  S   UNL A   1      35.299  32.508  30.027  1.00  0.00     0.124 S 
ATOM     67  O   UNL A   1      34.835  31.639  28.948  1.00  0.00    -0.237 OA
ATOM     68  O   UNL A   1      34.315  32.831  31.053  1.00  0.00    -0.237 OA
ATOM     69  O   UNL A   1      36.145  33.621  29.598  1.00  0.00    -0.744 OA
ENDBRANCH  62  66
ENDBRANCH  45  59
BRANCH  46  70
ATOM     70  C   UNL A   1      47.137  27.686  26.438  1.00  0.00     0.023 A 
ATOM     71  C   UNL A   1      47.279  27.887  25.056  1.00  0.00     0.031 A 
ATOM     72  C   UNL A   1      48.200  27.074  27.128  1.00  0.00     0.131 A 
ATOM     73  C   UNL A   1      48.446  27.450  24.404  1.00  0.00     0.055 A 
ATOM     74  C   UNL A   1      49.378  26.692  26.486  1.00  0.00     0.041 A 
ATOM     75  F   UNL A   1      48.112  26.847  28.449  1.00  0.00    -0.206 F 
ATOM     76  C   UNL A   1      49.502  26.871  25.113  1.00  0.00     0.022 A 
BRANCH  73  77
ATOM     77  S   UNL A   1      48.543  27.581  22.596  1.00  0.00     0.124 S 
ATOM     78  O   UNL A   1      48.596  26.179  22.200  1.00  0.00    -0.237 OA
ATOM     79  O   UNL A   1      47.314  28.296  22.273  1.00  0.00    -0.237 OA
ATOM     80  O   UNL A   1      49.775  28.338  22.376  1.00  0.00    -0.744 OA
ENDBRANCH  73  77
ENDBRANCH  46  70
BRANCH  58  81
ATOM     81  C   UNL A   1      44.991  33.539  29.578  1.00  0.00     0.023 A 
ATOM     82  C   UNL A   1      44.808  34.621  28.698  1.00  0.00     0.031 A 
ATOM     83  C   UNL A   1      45.828  33.729  30.692  1.00  0.00     0.131 A 
ATOM     84  C   UNL A   1      45.484  35.830  28.923  1.00  0.00     0.055 A 
ATOM     85  C   UNL A   1      46.459  34.949  30.938  1.00  0.00     0.041 A 
ATOM     86  F   UNL A   1      46.040  32.731  31.565  1.00  0.00    -0.206 F 
ATOM     87  C   UNL A   1      46.297  36.005  30.046  1.00  0.00     0.022 A 
BRANCH  84  88
ATOM     88  S   UNL A   1      45.346  37.155  27.691  1.00  0.00     0.124 S 
ATOM     89  O   UNL A   1      44.605  36.500  26.619  1.00  0.00    -0.237 OA
ATOM     90  O   UNL A   1      44.625  38.190  28.424  1.00  0.00    -0.237 OA
ATOM     91  O   UNL A   1      46.737  37.476  27.375  1.00  0.00    -0.744 OA
ENDBRANCH  84  88
ENDBRANCH  58  81
ENDBRANCH  32  33
ENDBRANCH  25  27
ENDBRANCH  24  25
ENDBRANCH  23  24
ENDBRANCH  22  23
ENDBRANCH   1  22
TORSDOF 20
ENDMDL
MODEL 2
REMARK VINA RESULT:     -10.7      5.082      9.747
REMARK SMILES CCOc1ccc(SCC(=O)N2CSC[C@@H]2C(=O)OCCOC(=O)c2ccc(-c3c4nc(c(-c5cc(S(=O)(=O)[O-])ccc5F)c5ccc([nH]5)c(-c5cc(S(=O)(=O)[O-])ccc5F)c5nc(c(-c6cc(S(=O)(=O)[O-])ccc6F)c6ccc3[nH]6)C=C5)C=C4)cc2)cc1
REMARK SMILES IDX 19 1 17 2 18 3 16 4 12 5 13 6 14 7 15 8 10 9 11 10 9 11 8 12
REMARK SMILES IDX 7 13 4 14 5 15 89 16 6 17 88 18 3 19 2 20 1 21 20 22 21 23
REMARK SMILES IDX 22 24 23 25 24 26 25 27 26 28 87 29 27 30 86 31 28 32 29 33
REMARK SMILES IDX 30 34 80 35 31 36 85 37 79 38 81 39 32 40 84 41 78 42 77 43
REMARK SMILES IDX 33 45 65 46 45 47 64 48 46 49 49 50 63 51 82 52 47 53 48 54
REMARK SMILES IDX 62 56 83 57 50 58 34 59 35 60 43 61 36 62 42 63 44 64 41 65
REMARK SMILES IDX 37 66 38 67 39 68 40 69 66 70 67 71 75 72 68 73 74 74 76 75
REMARK SMILES IDX 73 76 69 77 70 78 71 79 72 80 51 81 52 82 60 83 53 84 59 85
REMARK SMILES IDX 61 86 58 87 54 88 55 89 56 90 57 91
REMARK H PARENT 81 44 49 55
REMARK Flexibility Score: inf
ROOT
ATOM      1  O   UNL A   1      32.023  27.779  26.130  1.00  0.00    -0.461 OA
ENDROOT
BRANCH   1   2
ATOM      2  C   UNL A   1      31.031  26.895  25.812  1.00  0.00     0.329 C 
ATOM      3  O   UNL A   1      30.406  26.235  26.635  1.00  0.00    -0.250 OA
BRANCH   2   4
ATOM      4  C   UNL A   1      30.759  26.882  24.292  1.00  0.00     0.205 C 
ATOM      5  N   UNL A   1      31.972  26.423  23.595  1.00  0.00    -0.318 N 
ATOM      6  C   UNL A   1      32.599  27.369  22.711  1.00  0.00     0.190 C 
ATOM      7  S   UNL A   1      31.895  28.979  23.105  1.00  0.00    -0.138 SA
ATOM      8  C   UNL A   1      30.371  28.261  23.775  1.00  0.00     0.108 C 
BRANCH   5   9
ATOM      9  C   UNL A   1      32.233  25.077  23.460  1.00  0.00     0.234 C 
ATOM     10  O   UNL A   1      31.493  24.363  22.788  1.00  0.00    -0.274 OA
BRANCH   9  11
ATOM     11  C   UNL A   1      33.392  24.535  24.285  1.00  0.00     0.175 C 
BRANCH  11  12
ATOM     12  S   UNL A   1      34.381  23.313  23.380  1.00  0.00    -0.116 SA
BRANCH  12  13
ATOM     13  C   UNL A   1      33.637  21.768  23.878  1.00  0.00     0.008 A 
ATOM     14  C   UNL A   1      32.641  19.296  24.726  1.00  0.00     0.119 A 
ATOM     15  C   UNL A   1      33.556  19.981  25.520  1.00  0.00     0.047 A 
ATOM     16  C   UNL A   1      32.153  19.872  23.560  1.00  0.00     0.047 A 
ATOM     17  C   UNL A   1      34.053  21.214  25.094  1.00  0.00     0.019 A 
ATOM     18  C   UNL A   1      32.650  21.108  23.139  1.00  0.00     0.019 A 
BRANCH  14  19
ATOM     19  O   UNL A   1      32.153  18.094  25.154  1.00  0.00    -0.494 OA
BRANCH  19  20
ATOM     20  C   UNL A   1      33.185  17.103  25.249  1.00  0.00     0.226 C 
ATOM     21  C   UNL A   1      33.540  16.535  23.883  1.00  0.00     0.049 C 
ENDBRANCH  19  20
ENDBRANCH  14  19
ENDBRANCH  12  13
ENDBRANCH  11  12
ENDBRANCH   9  11
ENDBRANCH   5   9
ENDBRANCH   2   4
ENDBRANCH   1   2
BRANCH   1  22
ATOM     22  C   UNL A   1      31.765  28.675  27.234  1.00  0.00     0.274 C 
BRANCH  22  23
ATOM     23  C   UNL A   1      31.781  30.139  26.788  1.00  0.00     0.275 C 
BRANCH  23  24
ATOM     24  O   UNL A   1      33.123  30.576  26.502  1.00  0.00    -0.458 OA
BRANCH  24  25
ATOM     25  C   UNL A   1      33.552  31.620  27.248  1.00  0.00     0.338 C 
ATOM     26  O   UNL A   1      32.908  32.619  27.548  1.00  0.00    -0.246 OA
BRANCH  25  27
ATOM     27  C   UNL A   1      34.849  31.285  27.853  1.00  0.00     0.060 A 
ATOM     28  C   UNL A   1      34.980  29.989  28.340  1.00  0.00     0.016 A 
ATOM     29  C   UNL A   1      35.892  32.200  28.007  1.00  0.00     0.016 A 
ATOM     30  C   UNL A   1      36.153  29.585  28.966  1.00  0.00     0.010 A 
ATOM     31  C   UNL A   1      37.075  31.795  28.648  1.00  0.00     0.010 A 
ATOM     32  C   UNL A   1      37.212  30.479  29.130  1.00  0.00    -0.014 A 
BRANCH  32  33
ATOM     33  C   UNL A   1      38.398  30.029  29.902  1.00  0.00     0.031 A 
ATOM     34  C   UNL A   1      39.367  29.072  29.273  1.00  0.00     0.074 A 
ATOM     35  C   UNL A   1      38.670  30.561  31.108  1.00  0.00     0.049 A 
ATOM     36  N   UNL A   1      40.446  28.533  29.778  1.00  0.00    -0.248 NA
ATOM     37  C   UNL A   1      39.079  28.676  27.889  1.00  0.00     0.031 C 
ATOM     38  C   UNL A   1      37.860  31.575  31.782  1.00  0.00     0.029 A 
ATOM     39  N   UNL A   1      39.719  30.345  31.967  1.00  0.00    -0.354 N 
ATOM     40  C   UNL A   1      40.952  27.702  28.785  1.00  0.00     0.074 A 
ATOM     41  C   UNL A   1      40.059  27.816  27.650  1.00  0.00     0.031 C 
ATOM     42  C   UNL A   1      38.453  31.906  32.941  1.00  0.00     0.029 A 
ATOM     43  C   UNL A   1      39.646  31.082  33.126  1.00  0.00     0.049 A 
ATOM     44  H   UNL A   1      40.455  29.721  31.772  1.00  0.00     0.167 HD
ATOM     45  C   UNL A   1      42.052  26.907  28.824  1.00  0.00     0.034 A 
ATOM     46  C   UNL A   1      40.426  31.064  34.228  1.00  0.00     0.034 A 
ATOM     47  C   UNL A   1      42.930  26.798  29.964  1.00  0.00     0.049 A 
ATOM     48  C   UNL A   1      41.600  30.115  34.281  1.00  0.00     0.074 A 
ATOM     49  C   UNL A   1      44.054  26.004  30.115  1.00  0.00     0.029 A 
ATOM     50  N   UNL A   1      42.780  27.498  31.155  1.00  0.00    -0.354 N 
ATOM     51  N   UNL A   1      42.029  29.279  33.363  1.00  0.00    -0.248 NA
ATOM     52  C   UNL A   1      42.380  30.092  35.526  1.00  0.00     0.031 C 
ATOM     53  C   UNL A   1      44.540  26.170  31.418  1.00  0.00     0.029 A 
ATOM     54  C   UNL A   1      43.766  27.124  32.058  1.00  0.00     0.049 A 
ATOM     55  H   UNL A   1      42.076  28.163  31.333  1.00  0.00     0.167 HD
ATOM     56  C   UNL A   1      43.131  28.634  33.922  1.00  0.00     0.074 A 
ATOM     57  C   UNL A   1      43.314  29.195  35.245  1.00  0.00     0.031 C 
ATOM     58  C   UNL A   1      43.918  27.663  33.390  1.00  0.00     0.034 A 
BRANCH  45  59
ATOM     59  C   UNL A   1      42.290  26.020  27.627  1.00  0.00     0.023 A 
ATOM     60  C   UNL A   1      41.749  24.726  27.538  1.00  0.00     0.031 A 
ATOM     61  C   UNL A   1      43.140  26.454  26.594  1.00  0.00     0.131 A 
ATOM     62  C   UNL A   1      42.134  23.882  26.484  1.00  0.00     0.055 A 
ATOM     63  C   UNL A   1      43.454  25.639  25.506  1.00  0.00     0.041 A 
ATOM     64  F   UNL A   1      43.705  27.670  26.641  1.00  0.00    -0.206 F 
ATOM     65  C   UNL A   1      42.965  24.337  25.457  1.00  0.00     0.022 A 
BRANCH  62  66
ATOM     66  S   UNL A   1      41.678  22.128  26.569  1.00  0.00     0.124 S 
ATOM     67  O   UNL A   1      42.272  21.727  27.842  1.00  0.00    -0.237 OA
ATOM     68  O   UNL A   1      40.221  22.179  26.533  1.00  0.00    -0.237 OA
ATOM     69  O   UNL A   1      42.313  21.551  25.385  1.00  0.00    -0.744 OA
ENDBRANCH  62  66
ENDBRANCH  45  59
BRANCH  46  70
ATOM     70  C   UNL A   1      40.067  31.894  35.415  1.00  0.00     0.023 A 
ATOM     71  C   UNL A   1      39.107  31.476  36.349  1.00  0.00     0.031 A 
ATOM     72  C   UNL A   1      40.659  33.158  35.599  1.00  0.00     0.131 A 
ATOM     73  C   UNL A   1      38.745  32.328  37.406  1.00  0.00     0.055 A 
ATOM     74  C   UNL A   1      40.336  33.977  36.681  1.00  0.00     0.041 A 
ATOM     75  F   UNL A   1      41.575  33.613  34.728  1.00  0.00    -0.206 F 
ATOM     76  C   UNL A   1      39.365  33.567  37.588  1.00  0.00     0.022 A 
BRANCH  73  77
ATOM     77  S   UNL A   1      37.394  31.831  38.512  1.00  0.00     0.124 S 
ATOM     78  O   UNL A   1      38.017  31.971  39.823  1.00  0.00    -0.237 OA
ATOM     79  O   UNL A   1      36.356  32.802  38.186  1.00  0.00    -0.237 OA
ATOM     80  O   UNL A   1      37.107  30.457  38.102  1.00  0.00    -0.744 OA
ENDBRANCH  73  77
ENDBRANCH  46  70
BRANCH  58  81
ATOM     81  C   UNL A   1      45.055  27.154  34.244  1.00  0.00     0.023 A 
ATOM     82  C   UNL A   1      44.893  26.063  35.118  1.00  0.00     0.031 A 
ATOM     83  C   UNL A   1      46.318  27.770  34.185  1.00  0.00     0.131 A 
ATOM     84  C   UNL A   1      45.963  25.647  35.926  1.00  0.00     0.055 A 
ATOM     85  C   UNL A   1      47.392  27.322  34.956  1.00  0.00     0.041 A 
ATOM     86  F   UNL A   1      46.529  28.816  33.371  1.00  0.00    -0.206 F 
ATOM     87  C   UNL A   1      47.216  26.262  35.839  1.00  0.00     0.022 A 
BRANCH  84  88
ATOM     88  S   UNL A   1      45.682  24.337  37.149  1.00  0.00     0.124 S 
ATOM     89  O   UNL A   1      46.898  24.403  37.953  1.00  0.00    -0.237 OA
ATOM     90  O   UNL A   1      44.458  24.782  37.808  1.00  0.00    -0.237 OA
ATOM     91  O   UNL A   1      45.542  23.131  36.335  1.00  0.00    -0.744 OA
ENDBRANCH  84  88
ENDBRANCH  58  81
ENDBRANCH  32  33
ENDBRANCH  25  27
ENDBRANCH  24  25
ENDBRANCH  23  24
ENDBRANCH  22  23
ENDBRANCH   1  22
TORSDOF 20
ENDMDL
MODEL 3
REMARK VINA RESULT:     -10.5      5.371      8.325
REMARK SMILES CCOc1ccc(SCC(=O)N2CSC[C@@H]2C(=O)OCCOC(=O)c2ccc(-c3c4nc(c(-c5cc(S(=O)(=O)[O-])ccc5F)c5ccc([nH]5)c(-c5cc(S(=O)(=O)[O-])ccc5F)c5nc(c(-c6cc(S(=O)(=O)[O-])ccc6F)c6ccc3[nH]6)C=C5)C=C4)cc2)cc1
REMARK SMILES IDX 19 1 17 2 18 3 16 4 12 5 13 6 14 7 15 8 10 9 11 10 9 11 8 12
REMARK SMILES IDX 7 13 4 14 5 15 89 16 6 17 88 18 3 19 2 20 1 21 20 22 21 23
REMARK SMILES IDX 22 24 23 25 24 26 25 27 26 28 87 29 27 30 86 31 28 32 29 33
REMARK SMILES IDX 30 34 80 35 31 36 85 37 79 38 81 39 32 40 84 41 78 42 77 43
REMARK SMILES IDX 33 45 65 46 45 47 64 48 46 49 49 50 63 51 82 52 47 53 48 54
REMARK SMILES IDX 62 56 83 57 50 58 34 59 35 60 43 61 36 62 42 63 44 64 41 65
REMARK SMILES IDX 37 66 38 67 39 68 40 69 66 70 67 71 75 72 68 73 74 74 76 75
REMARK SMILES IDX 73 76 69 77 70 78 71 79 72 80 51 81 52 82 60 83 53 84 59 85
REMARK SMILES IDX 61 86 58 87 54 88 55 89 56 90 57 91
REMARK H PARENT 81 44 49 55
REMARK Flexibility Score: inf
ROOT
ATOM      1  O   UNL A   1      32.262  28.165  25.710  1.00  0.00    -0.461 OA
ENDROOT
BRANCH   1   2
ATOM      2  C   UNL A   1      33.297  27.274  25.670  1.00  0.00     0.329 C 
ATOM      3  O   UNL A   1      34.325  27.381  26.329  1.00  0.00    -0.250 OA
BRANCH   2   4
ATOM      4  C   UNL A   1      32.976  26.085  24.737  1.00  0.00     0.205 C 
ATOM      5  N   UNL A   1      32.014  25.197  25.412  1.00  0.00    -0.318 N 
ATOM      6  C   UNL A   1      32.470  23.865  25.707  1.00  0.00     0.190 C 
ATOM      7  S   UNL A   1      34.261  23.887  25.522  1.00  0.00    -0.138 SA
ATOM      8  C   UNL A   1      34.227  25.293  24.379  1.00  0.00     0.108 C 
BRANCH   5   9
ATOM      9  C   UNL A   1      30.663  25.469  25.368  1.00  0.00     0.234 C 
ATOM     10  O   UNL A   1      29.987  25.431  26.393  1.00  0.00    -0.274 OA
BRANCH   9  11
ATOM     11  C   UNL A   1      30.070  25.683  23.983  1.00  0.00     0.175 C 
BRANCH  11  12
ATOM     12  S   UNL A   1      28.374  26.325  24.043  1.00  0.00    -0.116 SA
BRANCH  12  13
ATOM     13  C   UNL A   1      28.534  27.916  23.247  1.00  0.00     0.008 A 
ATOM     14  C   UNL A   1      28.951  30.426  22.088  1.00  0.00     0.119 A 
ATOM     15  C   UNL A   1      30.019  29.545  22.228  1.00  0.00     0.047 A 
ATOM     16  C   UNL A   1      27.665  30.033  22.437  1.00  0.00     0.047 A 
ATOM     17  C   UNL A   1      29.808  28.293  22.809  1.00  0.00     0.019 A 
ATOM     18  C   UNL A   1      27.459  28.778  23.014  1.00  0.00     0.019 A 
BRANCH  14  19
ATOM     19  O   UNL A   1      29.163  31.646  21.511  1.00  0.00    -0.494 OA
BRANCH  19  20
ATOM     20  C   UNL A   1      28.337  32.663  22.096  1.00  0.00     0.226 C 
ATOM     21  C   UNL A   1      29.092  33.455  23.152  1.00  0.00     0.049 C 
ENDBRANCH  19  20
ENDBRANCH  14  19
ENDBRANCH  12  13
ENDBRANCH  11  12
ENDBRANCH   9  11
ENDBRANCH   5   9
ENDBRANCH   2   4
ENDBRANCH   1   2
BRANCH   1  22
ATOM     22  C   UNL A   1      32.511  29.475  25.154  1.00  0.00     0.274 C 
BRANCH  22  23
ATOM     23  C   UNL A   1      31.944  30.583  26.045  1.00  0.00     0.275 C 
BRANCH  23  24
ATOM     24  O   UNL A   1      32.664  30.664  27.289  1.00  0.00    -0.458 OA
BRANCH  24  25
ATOM     25  C   UNL A   1      33.370  31.805  27.464  1.00  0.00     0.338 C 
ATOM     26  O   UNL A   1      32.933  32.949  27.423  1.00  0.00    -0.246 OA
BRANCH  25  27
ATOM     27  C   UNL A   1      34.719  31.474  27.945  1.00  0.00     0.060 A 
ATOM     28  C   UNL A   1      34.916  30.160  28.355  1.00  0.00     0.016 A 
ATOM     29  C   UNL A   1      35.751  32.406  28.057  1.00  0.00     0.016 A 
ATOM     30  C   UNL A   1      36.145  29.756  28.863  1.00  0.00     0.010 A 
ATOM     31  C   UNL A   1      36.991  32.000  28.579  1.00  0.00     0.010 A 
ATOM     32  C   UNL A   1      37.195  30.667  28.984  1.00  0.00    -0.014 A 
BRANCH  32  33
ATOM     33  C   UNL A   1      38.450  30.210  29.634  1.00  0.00     0.031 A 
ATOM     34  C   UNL A   1      38.789  30.703  31.009  1.00  0.00     0.074 A 
ATOM     35  C   UNL A   1      39.219  29.272  29.051  1.00  0.00     0.049 A 
ATOM     36  N   UNL A   1      39.842  30.453  31.743  1.00  0.00    -0.248 NA
ATOM     37  C   UNL A   1      37.805  31.593  31.639  1.00  0.00     0.031 C 
ATOM     38  C   UNL A   1      38.941  28.640  27.761  1.00  0.00     0.029 A 
ATOM     39  N   UNL A   1      40.372  28.665  29.480  1.00  0.00    -0.354 N 
ATOM     40  C   UNL A   1      39.668  31.185  32.913  1.00  0.00     0.074 A 
ATOM     41  C   UNL A   1      38.404  31.882  32.785  1.00  0.00     0.031 C 
ATOM     42  C   UNL A   1      39.890  27.721  27.515  1.00  0.00     0.029 A 
ATOM     43  C   UNL A   1      40.878  27.744  28.591  1.00  0.00     0.049 A 
ATOM     44  H   UNL A   1      40.799  28.868  30.344  1.00  0.00     0.167 HD
ATOM     45  C   UNL A   1      40.494  31.276  33.986  1.00  0.00     0.034 A 
ATOM     46  C   UNL A   1      42.025  27.035  28.621  1.00  0.00     0.034 A 
ATOM     47  C   UNL A   1      41.753  30.579  34.098  1.00  0.00     0.049 A 
ATOM     48  C   UNL A   1      42.968  27.210  29.788  1.00  0.00     0.074 A 
ATOM     49  C   UNL A   1      42.675  30.623  35.131  1.00  0.00     0.029 A 
ATOM     50  N   UNL A   1      42.275  29.717  33.142  1.00  0.00    -0.354 N 
ATOM     51  N   UNL A   1      42.828  27.960  30.857  1.00  0.00    -0.248 NA
ATOM     52  C   UNL A   1      44.230  26.459  29.742  1.00  0.00     0.031 C 
ATOM     53  C   UNL A   1      43.782  29.847  34.766  1.00  0.00     0.029 A 
ATOM     54  C   UNL A   1      43.522  29.257  33.541  1.00  0.00     0.049 A 
ATOM     55  H   UNL A   1      41.825  29.469  32.301  1.00  0.00     0.167 HD
ATOM     56  C   UNL A   1      43.985  27.769  31.610  1.00  0.00     0.074 A 
ATOM     57  C   UNL A   1      44.799  26.814  30.885  1.00  0.00     0.031 C 
ATOM     58  C   UNL A   1      44.344  28.333  32.792  1.00  0.00     0.034 A 
BRANCH  45  59
ATOM     59  C   UNL A   1      40.095  32.248  35.068  1.00  0.00     0.023 A 
ATOM     60  C   UNL A   1      39.241  31.882  36.123  1.00  0.00     0.031 A 
ATOM     61  C   UNL A   1      40.517  33.588  34.994  1.00  0.00     0.131 A 
ATOM     62  C   UNL A   1      38.768  32.862  37.009  1.00  0.00     0.055 A 
ATOM     63  C   UNL A   1      40.108  34.542  35.927  1.00  0.00     0.041 A 
ATOM     64  F   UNL A   1      41.311  33.999  33.994  1.00  0.00    -0.206 F 
ATOM     65  C   UNL A   1      39.213  34.185  36.931  1.00  0.00     0.022 A 
BRANCH  62  66
ATOM     66  S   UNL A   1      37.429  32.424  38.151  1.00  0.00     0.124 S 
ATOM     67  O   UNL A   1      36.278  33.067  37.521  1.00  0.00    -0.237 OA
ATOM     68  O   UNL A   1      37.446  30.967  38.112  1.00  0.00    -0.237 OA
ATOM     69  O   UNL A   1      37.849  33.021  39.418  1.00  0.00    -0.744 OA
ENDBRANCH  62  66
ENDBRANCH  45  59
BRANCH  46  70
ATOM     70  C   UNL A   1      42.403  26.171  27.464  1.00  0.00     0.023 A 
ATOM     71  C   UNL A   1      42.017  24.823  27.387  1.00  0.00     0.031 A 
ATOM     72  C   UNL A   1      43.211  26.684  26.431  1.00  0.00     0.131 A 
ATOM     73  C   UNL A   1      42.466  24.029  26.318  1.00  0.00     0.055 A 
ATOM     74  C   UNL A   1      43.607  25.906  25.344  1.00  0.00     0.041 A 
ATOM     75  F   UNL A   1      43.619  27.964  26.460  1.00  0.00    -0.206 F 
ATOM     76  C   UNL A   1      43.243  24.566  25.288  1.00  0.00     0.022 A 
BRANCH  73  77
ATOM     77  S   UNL A   1      42.082  22.255  26.320  1.00  0.00     0.124 S 
ATOM     78  O   UNL A   1      40.623  22.267  26.320  1.00  0.00    -0.237 OA
ATOM     79  O   UNL A   1      42.722  21.800  25.092  1.00  0.00    -0.237 OA
ATOM     80  O   UNL A   1      42.700  21.774  27.555  1.00  0.00    -0.744 OA
ENDBRANCH  73  77
ENDBRANCH  46  70
BRANCH  58  81
ATOM     81  C   UNL A   1      45.675  27.922  33.375  1.00  0.00     0.023 A 
ATOM     82  C   UNL A   1      45.802  26.791  34.203  1.00  0.00     0.031 A 
ATOM     83  C   UNL A   1      46.832  28.672  33.100  1.00  0.00     0.131 A 
ATOM     84  C   UNL A   1      47.049  26.467  34.759  1.00  0.00     0.055 A 
ATOM     85  C   UNL A   1      48.079  28.317  33.617  1.00  0.00     0.041 A 
ATOM     86  F   UNL A   1      46.770  29.761  32.318  1.00  0.00    -0.206 F 
ATOM     87  C   UNL A   1      48.192  27.215  34.460  1.00  0.00     0.022 A 
BRANCH  84  88
ATOM     88  S   UNL A   1      47.153  25.094  35.942  1.00  0.00     0.124 S 
ATOM     89  O   UNL A   1      48.178  24.249  35.340  1.00  0.00    -0.237 OA
ATOM     90  O   UNL A   1      47.530  25.773  37.177  1.00  0.00    -0.237 OA
ATOM     91  O   UNL A   1      45.803  24.531  35.933  1.00  0.00    -0.744 OA
ENDBRANCH  84  88
ENDBRANCH  58  81
ENDBRANCH  32  33
ENDBRANCH  25  27
ENDBRANCH  24  25
ENDBRANCH  23  24
ENDBRANCH  22  23
ENDBRANCH   1  22
TORSDOF 20
ENDMDL
