MODEL 1
REMARK VINA RESULT:     -12.8      0.000      0.000
REMARK SMILES Cc1cc(F)c([C@@](C)(C(=O)OCCOC(=O)c2ccc(-c3c4nc(c(-c5cc(S(=O)(=O)[O-])ccc5F)c5ccc([nH]5)c(-c5cc(S(=O)(=O)[O-])ccc5F)c5nc(c(-c6cc(S(=O)(=O)[O-])ccc6F)c6ccc3[nH]6)C=C5)C=C4)cc2)[NH+]2CC[NH2+]CC2)cc1F
REMARK SMILES IDX 13 1 12 2 11 3 9 4 10 5 7 6 8 7 6 8 1 9 2 10 3 11 87 12 4 13
REMARK SMILES IDX 86 14 88 15 5 16 80 17 81 18 85 19 82 21 84 22 83 23 14 26
REMARK SMILES IDX 15 27 16 28 17 29 18 30 79 31 19 32 78 33 20 34 21 35 22 36
REMARK SMILES IDX 72 37 23 38 77 39 71 40 73 41 24 42 76 43 70 44 69 45 25 47
REMARK SMILES IDX 57 48 37 49 56 50 38 51 41 52 55 53 74 54 39 55 40 56 54 58
REMARK SMILES IDX 75 59 42 60 26 61 27 62 35 63 28 64 34 65 36 66 33 67 29 68
REMARK SMILES IDX 30 69 31 70 32 71 58 72 59 73 67 74 60 75 66 76 68 77 65 78
REMARK SMILES IDX 61 79 62 80 63 81 64 82 43 83 44 84 52 85 45 86 51 87 53 88
REMARK SMILES IDX 50 89 46 90 47 91 48 92 49 93
REMARK H PARENT 80 20 83 24 83 25 73 46 41 57
REMARK Flexibility Score: inf
ROOT
ATOM      1  C   UNL A   1      31.911  29.983  26.593  1.00  0.00     0.275 C 
ENDROOT
BRANCH   1   2
ATOM      2  C   UNL A   1      31.918  28.520  27.012  1.00  0.00     0.274 C 
BRANCH   2   3
ATOM      3  O   UNL A   1      32.373  27.676  25.930  1.00  0.00    -0.457 OA
BRANCH   3   4
ATOM      4  C   UNL A   1      31.815  26.434  25.856  1.00  0.00     0.373 C 
ATOM      5  O   UNL A   1      31.262  25.893  26.814  1.00  0.00    -0.244 OA
BRANCH   4   6
ATOM      6  C   UNL A   1      31.990  25.729  24.458  1.00  0.00     0.221 C 
ATOM      7  C   UNL A   1      30.781  24.753  24.405  1.00  0.00     0.098 C 
BRANCH   6   8
ATOM      8  C   UNL A   1      33.254  24.849  24.300  1.00  0.00     0.062 A 
ATOM      9  C   UNL A   1      36.872  22.465  23.912  1.00  0.00     0.047 C 
ATOM     10  C   UNL A   1      35.616  23.266  24.031  1.00  0.00    -0.012 A 
ATOM     11  C   UNL A   1      34.599  23.202  23.075  1.00  0.00     0.046 A 
ATOM     12  C   UNL A   1      35.472  24.167  25.078  1.00  0.00     0.126 A 
ATOM     13  C   UNL A   1      33.448  23.991  23.208  1.00  0.00     0.133 A 
ATOM     14  C   UNL A   1      34.329  24.947  25.202  1.00  0.00     0.053 A 
ATOM     15  F   UNL A   1      36.452  24.308  25.981  1.00  0.00    -0.207 F 
ATOM     16  F   UNL A   1      32.540  23.931  22.223  1.00  0.00    -0.206 F 
ENDBRANCH   6   8
BRANCH   6  17
ATOM     17  N   UNL A   1      31.918  26.767  23.403  1.00  0.00    -0.308 N 
ATOM     18  C   UNL A   1      30.636  27.233  22.887  1.00  0.00     0.325 C 
ATOM     19  C   UNL A   1      33.070  27.434  22.818  1.00  0.00     0.325 C 
ATOM     20  H   UNL A   1      32.319  25.954  23.868  1.00  0.00     0.349 HD
ATOM     21  C   UNL A   1      30.493  28.773  22.836  1.00  0.00     0.322 C 
ATOM     22  C   UNL A   1      32.915  28.975  22.816  1.00  0.00     0.322 C 
ATOM     23  N   UNL A   1      31.651  29.469  22.258  1.00  0.00    -0.337 N 
ATOM     24  H   UNL A   1      31.570  30.466  22.454  1.00  0.00     0.346 HD
ATOM     25  H   UNL A   1      31.659  29.293  21.252  1.00  0.00     0.346 HD
ENDBRANCH   6  17
ENDBRANCH   4   6
ENDBRANCH   3   4
ENDBRANCH   2   3
ENDBRANCH   1   2
BRANCH   1  26
ATOM     26  O   UNL A   1      33.269  30.408  26.417  1.00  0.00    -0.458 OA
BRANCH  26  27
ATOM     27  C   UNL A   1      33.725  31.314  27.308  1.00  0.00     0.338 C 
ATOM     28  O   UNL A   1      33.141  32.308  27.716  1.00  0.00    -0.246 OA
BRANCH  27  29
ATOM     29  C   UNL A   1      35.073  30.920  27.751  1.00  0.00     0.060 A 
ATOM     30  C   UNL A   1      36.013  31.905  28.041  1.00  0.00     0.016 A 
ATOM     31  C   UNL A   1      35.371  29.579  27.993  1.00  0.00     0.016 A 
ATOM     32  C   UNL A   1      37.257  31.537  28.561  1.00  0.00     0.010 A 
ATOM     33  C   UNL A   1      36.562  29.233  28.632  1.00  0.00     0.010 A 
ATOM     34  C   UNL A   1      37.537  30.199  28.905  1.00  0.00    -0.014 A 
BRANCH  34  35
ATOM     35  C   UNL A   1      38.832  29.838  29.555  1.00  0.00     0.031 A 
ATOM     36  C   UNL A   1      39.193  30.354  30.928  1.00  0.00     0.074 A 
ATOM     37  C   UNL A   1      39.708  29.047  28.898  1.00  0.00     0.049 A 
ATOM     38  N   UNL A   1      40.229  30.054  31.671  1.00  0.00    -0.248 NA
ATOM     39  C   UNL A   1      38.311  31.366  31.531  1.00  0.00     0.031 C 
ATOM     40  C   UNL A   1      39.559  28.594  27.513  1.00  0.00     0.029 A 
ATOM     41  N   UNL A   1      40.883  28.462  29.309  1.00  0.00    -0.354 N 
ATOM     42  C   UNL A   1      40.129  30.848  32.808  1.00  0.00     0.074 A 
ATOM     43  C   UNL A   1      38.983  31.706  32.620  1.00  0.00     0.031 C 
ATOM     44  C   UNL A   1      40.549  27.740  27.219  1.00  0.00     0.029 A 
ATOM     45  C   UNL A   1      41.424  27.600  28.381  1.00  0.00     0.049 A 
ATOM     46  H   UNL A   1      41.297  28.643  30.183  1.00  0.00     0.167 HD
ATOM     47  C   UNL A   1      40.886  30.832  33.931  1.00  0.00     0.034 A 
ATOM     48  C   UNL A   1      42.478  26.761  28.464  1.00  0.00     0.034 A 
ATOM     49  C   UNL A   1      41.987  29.931  34.138  1.00  0.00     0.049 A 
ATOM     50  C   UNL A   1      43.228  26.658  29.769  1.00  0.00     0.074 A 
ATOM     51  C   UNL A   1      42.773  29.784  35.267  1.00  0.00     0.029 A 
ATOM     52  N   UNL A   1      42.441  29.006  33.210  1.00  0.00    -0.354 N 
ATOM     53  N   UNL A   1      43.034  27.322  30.884  1.00  0.00    -0.248 NA
ATOM     54  C   UNL A   1      44.319  25.676  29.844  1.00  0.00     0.031 C 
ATOM     55  C   UNL A   1      43.718  28.789  35.014  1.00  0.00     0.029 A 
ATOM     56  C   UNL A   1      43.491  28.281  33.744  1.00  0.00     0.049 A 
ATOM     57  H   UNL A   1      42.072  28.884  32.306  1.00  0.00     0.167 HD
ATOM     58  C   UNL A   1      43.961  26.826  31.795  1.00  0.00     0.074 A 
ATOM     59  C   UNL A   1      44.697  25.782  31.112  1.00  0.00     0.031 C 
ATOM     60  C   UNL A   1      44.192  27.213  33.074  1.00  0.00     0.034 A 
BRANCH  47  61
ATOM     61  C   UNL A   1      40.513  31.762  35.061  1.00  0.00     0.023 A 
ATOM     62  C   UNL A   1      39.490  31.418  35.963  1.00  0.00     0.031 A 
ATOM     63  C   UNL A   1      41.099  33.036  35.174  1.00  0.00     0.131 A 
ATOM     64  C   UNL A   1      39.073  32.346  36.927  1.00  0.00     0.055 A 
ATOM     65  C   UNL A   1      40.712  33.940  36.163  1.00  0.00     0.041 A 
ATOM     66  F   UNL A   1      42.076  33.414  34.333  1.00  0.00    -0.206 F 
ATOM     67  C   UNL A   1      39.687  33.599  37.039  1.00  0.00     0.022 A 
BRANCH  64  68
ATOM     68  S   UNL A   1      37.690  31.990  38.044  1.00  0.00     0.124 S 
ATOM     69  O   UNL A   1      36.690  32.961  37.604  1.00  0.00    -0.237 OA
ATOM     70  O   UNL A   1      37.390  30.597  37.723  1.00  0.00    -0.237 OA
ATOM     71  O   UNL A   1      38.241  32.228  39.374  1.00  0.00    -0.744 OA
ENDBRANCH  64  68
ENDBRANCH  47  61
BRANCH  48  72
ATOM     72  C   UNL A   1      42.790  25.866  27.309  1.00  0.00     0.023 A 
ATOM     73  C   UNL A   1      42.285  24.556  27.241  1.00  0.00     0.031 A 
ATOM     74  C   UNL A   1      43.685  26.282  26.307  1.00  0.00     0.131 A 
ATOM     75  C   UNL A   1      42.715  23.696  26.220  1.00  0.00     0.055 A 
ATOM     76  C   UNL A   1      44.063  25.442  25.258  1.00  0.00     0.041 A 
ATOM     77  F   UNL A   1      44.209  27.518  26.341  1.00  0.00    -0.206 F 
ATOM     78  C   UNL A   1      43.589  24.136  25.220  1.00  0.00     0.022 A 
BRANCH  75  79
ATOM     79  S   UNL A   1      42.258  21.940  26.225  1.00  0.00     0.124 S 
ATOM     80  O   UNL A   1      43.136  21.396  25.193  1.00  0.00    -0.237 OA
ATOM     81  O   UNL A   1      42.579  21.549  27.596  1.00  0.00    -0.237 OA
ATOM     82  O   UNL A   1      40.835  21.955  25.903  1.00  0.00    -0.744 OA
ENDBRANCH  75  79
ENDBRANCH  48  72
BRANCH  60  83
ATOM     83  C   UNL A   1      45.271  26.516  33.865  1.00  0.00     0.023 A 
ATOM     84  C   UNL A   1      44.947  25.405  34.667  1.00  0.00     0.031 A 
ATOM     85  C   UNL A   1      46.562  27.061  33.967  1.00  0.00     0.131 A 
ATOM     86  C   UNL A   1      45.892  24.900  35.568  1.00  0.00     0.055 A 
ATOM     87  C   UNL A   1      47.514  26.527  34.838  1.00  0.00     0.041 A 
ATOM     88  F   UNL A   1      46.911  28.130  33.235  1.00  0.00    -0.206 F 
ATOM     89  C   UNL A   1      47.175  25.452  35.654  1.00  0.00     0.022 A 
BRANCH  86  90
ATOM     90  S   UNL A   1      45.465  23.571  36.727  1.00  0.00     0.124 S 
ATOM     91  O   UNL A   1      44.769  24.303  37.783  1.00  0.00    -0.237 OA
ATOM     92  O   UNL A   1      44.620  22.707  35.907  1.00  0.00    -0.237 OA
ATOM     93  O   UNL A   1      46.755  23.006  37.109  1.00  0.00    -0.744 OA
ENDBRANCH  86  90
ENDBRANCH  60  83
ENDBRANCH  34  35
ENDBRANCH  27  29
ENDBRANCH  26  27
ENDBRANCH   1  26
TORSDOF 16
ENDMDL
MODEL 2
REMARK VINA RESULT:     -12.8      5.021      9.889
REMARK SMILES Cc1cc(F)c([C@@](C)(C(=O)OCCOC(=O)c2ccc(-c3c4nc(c(-c5cc(S(=O)(=O)[O-])ccc5F)c5ccc([nH]5)c(-c5cc(S(=O)(=O)[O-])ccc5F)c5nc(c(-c6cc(S(=O)(=O)[O-])ccc6F)c6ccc3[nH]6)C=C5)C=C4)cc2)[NH+]2CC[NH2+]CC2)cc1F
REMARK SMILES IDX 13 1 12 2 11 3 9 4 10 5 7 6 8 7 6 8 1 9 2 10 3 11 87 12 4 13
REMARK SMILES IDX 86 14 88 15 5 16 80 17 81 18 85 19 82 21 84 22 83 23 14 26
REMARK SMILES IDX 15 27 16 28 17 29 18 30 79 31 19 32 78 33 20 34 21 35 22 36
REMARK SMILES IDX 72 37 23 38 77 39 71 40 73 41 24 42 76 43 70 44 69 45 25 47
REMARK SMILES IDX 57 48 37 49 56 50 38 51 41 52 55 53 74 54 39 55 40 56 54 58
REMARK SMILES IDX 75 59 42 60 26 61 27 62 35 63 28 64 34 65 36 66 33 67 29 68
REMARK SMILES IDX 30 69 31 70 32 71 58 72 59 73 67 74 60 75 66 76 68 77 65 78
REMARK SMILES IDX 61 79 62 80 63 81 64 82 43 83 44 84 52 85 45 86 51 87 53 88
REMARK SMILES IDX 50 89 46 90 47 91 48 92 49 93
REMARK H PARENT 80 20 83 24 83 25 73 46 41 57
REMARK Flexibility Score: inf
ROOT
ATOM      1  C   UNL A   1      36.471  21.316  24.380  1.00  0.00     0.275 C 
ENDROOT
BRANCH   1   2
ATOM      2  C   UNL A   1      36.166  22.654  23.723  1.00  0.00     0.274 C 
BRANCH   2   3
ATOM      3  O   UNL A   1      35.083  23.327  24.405  1.00  0.00    -0.457 OA
BRANCH   3   4
ATOM      4  C   UNL A   1      34.002  23.661  23.642  1.00  0.00     0.373 C 
ATOM      5  O   UNL A   1      34.082  23.886  22.435  1.00  0.00    -0.244 OA
BRANCH   4   6
ATOM      6  C   UNL A   1      32.656  23.792  24.451  1.00  0.00     0.221 C 
ATOM      7  C   UNL A   1      31.575  23.762  23.336  1.00  0.00     0.098 C 
BRANCH   6   8
ATOM      8  C   UNL A   1      32.451  25.127  25.207  1.00  0.00     0.062 A 
ATOM      9  C   UNL A   1      31.988  28.871  27.375  1.00  0.00     0.047 C 
ATOM     10  C   UNL A   1      32.121  27.586  26.623  1.00  0.00    -0.012 A 
ATOM     11  C   UNL A   1      31.039  26.728  26.417  1.00  0.00     0.046 A 
ATOM     12  C   UNL A   1      33.372  27.178  26.175  1.00  0.00     0.126 A 
ATOM     13  C   UNL A   1      31.210  25.517  25.732  1.00  0.00     0.133 A 
ATOM     14  C   UNL A   1      33.534  25.976  25.498  1.00  0.00     0.053 A 
ATOM     15  F   UNL A   1      34.449  27.939  26.409  1.00  0.00    -0.207 F 
ATOM     16  F   UNL A   1      30.145  24.710  25.626  1.00  0.00    -0.206 F 
ENDBRANCH   6   8
BRANCH   6  17
ATOM     17  N   UNL A   1      32.550  22.630  25.366  1.00  0.00    -0.308 N 
ATOM     18  C   UNL A   1      32.137  21.319  24.878  1.00  0.00     0.325 C 
ATOM     19  C   UNL A   1      32.870  22.661  26.784  1.00  0.00     0.325 C 
ATOM     20  H   UNL A   1      32.467  23.614  25.115  1.00  0.00     0.349 HD
ATOM     21  C   UNL A   1      33.054  20.156  25.326  1.00  0.00     0.322 C 
ATOM     22  C   UNL A   1      33.819  21.510  27.194  1.00  0.00     0.322 C 
ATOM     23  N   UNL A   1      33.399  20.175  26.755  1.00  0.00    -0.337 N 
ATOM     24  H   UNL A   1      34.160  19.516  26.920  1.00  0.00     0.346 HD
ATOM     25  H   UNL A   1      32.567  19.913  27.286  1.00  0.00     0.346 HD
ENDBRANCH   6  17
ENDBRANCH   4   6
ENDBRANCH   3   4
ENDBRANCH   2   3
ENDBRANCH   1   2
BRANCH   1  26
ATOM     26  O   UNL A   1      37.036  21.567  25.673  1.00  0.00    -0.458 OA
BRANCH  26  27
ATOM     27  C   UNL A   1      38.362  21.343  25.793  1.00  0.00     0.338 C 
ATOM     28  O   UNL A   1      38.982  20.357  25.421  1.00  0.00    -0.246 OA
BRANCH  27  29
ATOM     29  C   UNL A   1      38.989  22.504  26.447  1.00  0.00     0.060 A 
ATOM     30  C   UNL A   1      40.127  22.316  27.228  1.00  0.00     0.016 A 
ATOM     31  C   UNL A   1      38.524  23.794  26.193  1.00  0.00     0.016 A 
ATOM     32  C   UNL A   1      40.785  23.428  27.762  1.00  0.00     0.010 A 
ATOM     33  C   UNL A   1      39.260  24.900  26.621  1.00  0.00     0.010 A 
ATOM     34  C   UNL A   1      40.387  24.739  27.433  1.00  0.00    -0.014 A 
BRANCH  34  35
ATOM     35  C   UNL A   1      41.163  25.914  27.930  1.00  0.00     0.031 A 
ATOM     36  C   UNL A   1      42.591  26.152  27.499  1.00  0.00     0.074 A 
ATOM     37  C   UNL A   1      40.585  26.775  28.796  1.00  0.00     0.049 A 
ATOM     38  N   UNL A   1      43.367  27.175  27.759  1.00  0.00    -0.248 NA
ATOM     39  C   UNL A   1      43.254  25.097  26.717  1.00  0.00     0.031 C 
ATOM     40  C   UNL A   1      39.267  26.595  29.409  1.00  0.00     0.029 A 
ATOM     41  N   UNL A   1      41.014  27.985  29.291  1.00  0.00    -0.354 N 
ATOM     42  C   UNL A   1      44.600  26.875  27.190  1.00  0.00     0.074 A 
ATOM     43  C   UNL A   1      44.499  25.541  26.650  1.00  0.00     0.031 C 
ATOM     44  C   UNL A   1      38.961  27.685  30.126  1.00  0.00     0.029 A 
ATOM     45  C   UNL A   1      40.068  28.637  30.050  1.00  0.00     0.049 A 
ATOM     46  H   UNL A   1      41.912  28.348  29.120  1.00  0.00     0.167 HD
ATOM     47  C   UNL A   1      45.702  27.656  27.079  1.00  0.00     0.034 A 
ATOM     48  C   UNL A   1      40.067  29.874  30.589  1.00  0.00     0.034 A 
ATOM     49  C   UNL A   1      45.775  29.007  27.564  1.00  0.00     0.049 A 
ATOM     50  C   UNL A   1      41.248  30.779  30.340  1.00  0.00     0.074 A 
ATOM     51  C   UNL A   1      46.818  29.907  27.438  1.00  0.00     0.029 A 
ATOM     52  N   UNL A   1      44.759  29.664  28.241  1.00  0.00    -0.354 N 
ATOM     53  N   UNL A   1      42.355  30.525  29.683  1.00  0.00    -0.248 NA
ATOM     54  C   UNL A   1      41.176  32.146  30.878  1.00  0.00     0.031 C 
ATOM     55  C   UNL A   1      46.444  31.098  28.061  1.00  0.00     0.029 A 
ATOM     56  C   UNL A   1      45.148  30.959  28.533  1.00  0.00     0.049 A 
ATOM     57  H   UNL A   1      43.890  29.267  28.479  1.00  0.00     0.167 HD
ATOM     58  C   UNL A   1      43.098  31.701  29.710  1.00  0.00     0.074 A 
ATOM     59  C   UNL A   1      42.303  32.679  30.422  1.00  0.00     0.031 C 
ATOM     60  C   UNL A   1      44.334  31.942  29.205  1.00  0.00     0.034 A 
BRANCH  47  61
ATOM     61  C   UNL A   1      46.899  27.105  26.342  1.00  0.00     0.023 A 
ATOM     62  C   UNL A   1      47.946  26.479  27.042  1.00  0.00     0.031 A 
ATOM     63  C   UNL A   1      47.050  27.301  24.956  1.00  0.00     0.131 A 
ATOM     64  C   UNL A   1      49.104  26.088  26.356  1.00  0.00     0.055 A 
ATOM     65  C   UNL A   1      48.185  26.871  24.270  1.00  0.00     0.041 A 
ATOM     66  F   UNL A   1      46.081  27.900  24.243  1.00  0.00    -0.206 F 
ATOM     67  C   UNL A   1      49.224  26.270  24.974  1.00  0.00     0.022 A 
BRANCH  64  68
ATOM     68  S   UNL A   1      50.523  25.373  27.231  1.00  0.00     0.124 S 
ATOM     69  O   UNL A   1      50.956  26.490  28.068  1.00  0.00    -0.237 OA
ATOM     70  O   UNL A   1      49.908  24.258  27.948  1.00  0.00    -0.237 OA
ATOM     71  O   UNL A   1      51.445  25.005  26.163  1.00  0.00    -0.744 OA
ENDBRANCH  64  68
ENDBRANCH  47  61
BRANCH  48  72
ATOM     72  C   UNL A   1      38.848  30.357  31.304  1.00  0.00     0.023 A 
ATOM     73  C   UNL A   1      37.777  30.948  30.609  1.00  0.00     0.031 A 
ATOM     74  C   UNL A   1      38.785  30.324  32.708  1.00  0.00     0.131 A 
ATOM     75  C   UNL A   1      36.716  31.523  31.323  1.00  0.00     0.055 A 
ATOM     76  C   UNL A   1      37.697  30.843  33.413  1.00  0.00     0.041 A 
ATOM     77  F   UNL A   1      39.792  29.789  33.417  1.00  0.00    -0.206 F 
ATOM     78  C   UNL A   1      36.661  31.459  32.719  1.00  0.00     0.022 A 
BRANCH  75  79
ATOM     79  S   UNL A   1      35.432  32.483  30.473  1.00  0.00     0.124 S 
ATOM     80  O   UNL A   1      36.136  33.724  30.166  1.00  0.00    -0.237 OA
ATOM     81  O   UNL A   1      35.128  31.630  29.326  1.00  0.00    -0.237 OA
ATOM     82  O   UNL A   1      34.368  32.587  31.466  1.00  0.00    -0.744 OA
ENDBRANCH  75  79
ENDBRANCH  48  72
BRANCH  60  83
ATOM     83  C   UNL A   1      44.937  33.315  29.371  1.00  0.00     0.023 A 
ATOM     84  C   UNL A   1      44.868  34.243  28.314  1.00  0.00     0.031 A 
ATOM     85  C   UNL A   1      45.727  33.630  30.488  1.00  0.00     0.131 A 
ATOM     86  C   UNL A   1      45.615  35.425  28.379  1.00  0.00     0.055 A 
ATOM     87  C   UNL A   1      46.437  34.830  30.565  1.00  0.00     0.041 A 
ATOM     88  F   UNL A   1      45.836  32.769  31.511  1.00  0.00    -0.206 F 
ATOM     89  C   UNL A   1      46.395  35.726  29.501  1.00  0.00     0.022 A 
BRANCH  86  90
ATOM     90  S   UNL A   1      45.678  36.573  26.975  1.00  0.00     0.124 S 
ATOM     91  O   UNL A   1      44.280  36.980  26.855  1.00  0.00    -0.237 OA
ATOM     92  O   UNL A   1      46.588  37.606  27.462  1.00  0.00    -0.237 OA
ATOM     93  O   UNL A   1      46.185  35.758  25.875  1.00  0.00    -0.744 OA
ENDBRANCH  86  90
ENDBRANCH  60  83
ENDBRANCH  34  35
ENDBRANCH  27  29
ENDBRANCH  26  27
ENDBRANCH   1  26
TORSDOF 16
ENDMDL
MODEL 3
REMARK VINA RESULT:     -12.7      4.974      9.996
REMARK SMILES Cc1cc(F)c([C@@](C)(C(=O)OCCOC(=O)c2ccc(-c3c4nc(c(-c5cc(S(=O)(=O)[O-])ccc5F)c5ccc([nH]5)c(-c5cc(S(=O)(=O)[O-])ccc5F)c5nc(c(-c6cc(S(=O)(=O)[O-])ccc6F)c6ccc3[nH]6)C=C5)C=C4)cc2)[NH+]2CC[NH2+]CC2)cc1F
REMARK SMILES IDX 13 1 12 2 11 3 9 4 10 5 7 6 8 7 6 8 1 9 2 10 3 11 87 12 4 13
REMARK SMILES IDX 86 14 88 15 5 16 80 17 81 18 85 19 82 21 84 22 83 23 14 26
REMARK SMILES IDX 15 27 16 28 17 29 18 30 79 31 19 32 78 33 20 34 21 35 22 36
REMARK SMILES IDX 72 37 23 38 77 39 71 40 73 41 24 42 76 43 70 44 69 45 25 47
REMARK SMILES IDX 57 48 37 49 56 50 38 51 41 52 55 53 74 54 39 55 40 56 54 58
REMARK SMILES IDX 75 59 42 60 26 61 27 62 35 63 28 64 34 65 36 66 33 67 29 68
REMARK SMILES IDX 30 69 31 70 32 71 58 72 59 73 67 74 60 75 66 76 68 77 65 78
REMARK SMILES IDX 61 79 62 80 63 81 64 82 43 83 44 84 52 85 45 86 51 87 53 88
REMARK SMILES IDX 50 89 46 90 47 91 48 92 49 93
REMARK H PARENT 80 20 83 24 83 25 73 46 41 57
REMARK Flexibility Score: inf
ROOT
ATOM      1  C   UNL A   1      36.950  21.502  24.568  1.00  0.00     0.275 C 
ENDROOT
BRANCH   1   2
ATOM      2  C   UNL A   1      36.424  22.761  23.897  1.00  0.00     0.274 C 
BRANCH   2   3
ATOM      3  O   UNL A   1      35.190  23.196  24.512  1.00  0.00    -0.457 OA
BRANCH   3   4
ATOM      4  C   UNL A   1      34.195  23.586  23.664  1.00  0.00     0.373 C 
ATOM      5  O   UNL A   1      34.395  23.855  22.480  1.00  0.00    -0.244 OA
BRANCH   4   6
ATOM      6  C   UNL A   1      32.781  23.718  24.345  1.00  0.00     0.221 C 
ATOM      7  C   UNL A   1      31.808  23.710  23.134  1.00  0.00     0.098 C 
BRANCH   6   8
ATOM      8  C   UNL A   1      32.515  25.047  25.095  1.00  0.00     0.062 A 
ATOM      9  C   UNL A   1      31.881  28.772  27.251  1.00  0.00     0.047 C 
ATOM     10  C   UNL A   1      32.073  27.493  26.502  1.00  0.00    -0.012 A 
ATOM     11  C   UNL A   1      31.016  26.619  26.236  1.00  0.00     0.046 A 
ATOM     12  C   UNL A   1      33.351  27.106  26.119  1.00  0.00     0.126 A 
ATOM     13  C   UNL A   1      31.243  25.415  25.556  1.00  0.00     0.133 A 
ATOM     14  C   UNL A   1      33.568  25.910  25.446  1.00  0.00     0.053 A 
ATOM     15  F   UNL A   1      34.403  27.883  26.412  1.00  0.00    -0.207 F 
ATOM     16  F   UNL A   1      30.197  24.592  25.391  1.00  0.00    -0.206 F 
ENDBRANCH   6   8
BRANCH   6  17
ATOM     17  N   UNL A   1      32.581  22.547  25.232  1.00  0.00    -0.308 N 
ATOM     18  C   UNL A   1      32.201  21.247  24.692  1.00  0.00     0.325 C 
ATOM     19  C   UNL A   1      32.773  22.558  26.673  1.00  0.00     0.325 C 
ATOM     20  H   UNL A   1      32.531  23.535  24.987  1.00  0.00     0.349 HD
ATOM     21  C   UNL A   1      33.063  20.069  25.206  1.00  0.00     0.322 C 
ATOM     22  C   UNL A   1      33.670  21.392  27.152  1.00  0.00     0.322 C 
ATOM     23  N   UNL A   1      33.278  20.066  26.660  1.00  0.00    -0.337 N 
ATOM     24  H   UNL A   1      34.014  19.398  26.885  1.00  0.00     0.346 HD
ATOM     25  H   UNL A   1      32.400  19.807  27.111  1.00  0.00     0.346 HD
ENDBRANCH   6  17
ENDBRANCH   4   6
ENDBRANCH   3   4
ENDBRANCH   2   3
ENDBRANCH   1   2
BRANCH   1  26
ATOM     26  O   UNL A   1      37.433  21.853  25.871  1.00  0.00    -0.458 OA
BRANCH  26  27
ATOM     27  C   UNL A   1      38.761  21.715  26.067  1.00  0.00     0.338 C 
ATOM     28  O   UNL A   1      39.460  20.762  25.753  1.00  0.00    -0.246 OA
BRANCH  27  29
ATOM     29  C   UNL A   1      39.280  22.927  26.725  1.00  0.00     0.060 A 
ATOM     30  C   UNL A   1      40.403  22.833  27.543  1.00  0.00     0.016 A 
ATOM     31  C   UNL A   1      38.728  24.176  26.439  1.00  0.00     0.016 A 
ATOM     32  C   UNL A   1      40.959  23.996  28.083  1.00  0.00     0.010 A 
ATOM     33  C   UNL A   1      39.366  25.337  26.875  1.00  0.00     0.010 A 
ATOM     34  C   UNL A   1      40.476  25.270  27.725  1.00  0.00    -0.014 A 
BRANCH  34  35
ATOM     35  C   UNL A   1      41.147  26.505  28.231  1.00  0.00     0.031 A 
ATOM     36  C   UNL A   1      42.587  26.812  27.893  1.00  0.00     0.074 A 
ATOM     37  C   UNL A   1      40.460  27.360  29.019  1.00  0.00     0.049 A 
ATOM     38  N   UNL A   1      43.283  27.887  28.168  1.00  0.00    -0.248 NA
ATOM     39  C   UNL A   1      43.362  25.771  27.200  1.00  0.00     0.031 C 
ATOM     40  C   UNL A   1      39.113  27.123  29.545  1.00  0.00     0.029 A 
ATOM     41  N   UNL A   1      40.783  28.608  29.497  1.00  0.00    -0.354 N 
ATOM     42  C   UNL A   1      44.569  27.640  27.699  1.00  0.00     0.074 A 
ATOM     43  C   UNL A   1      44.582  26.285  27.204  1.00  0.00     0.031 C 
ATOM     44  C   UNL A   1      38.695  28.217  30.196  1.00  0.00     0.029 A 
ATOM     45  C   UNL A   1      39.748  29.229  30.162  1.00  0.00     0.049 A 
ATOM     46  H   UNL A   1      41.669  29.018  29.376  1.00  0.00     0.167 HD
ATOM     47  C   UNL A   1      45.631  28.480  27.637  1.00  0.00     0.034 A 
ATOM     48  C   UNL A   1      39.639  30.482  30.652  1.00  0.00     0.034 A 
ATOM     49  C   UNL A   1      45.592  29.849  28.074  1.00  0.00     0.049 A 
ATOM     50  C   UNL A   1      40.783  31.446  30.453  1.00  0.00     0.074 A 
ATOM     51  C   UNL A   1      46.589  30.804  27.988  1.00  0.00     0.029 A 
ATOM     52  N   UNL A   1      44.494  30.467  28.651  1.00  0.00    -0.354 N 
ATOM     53  N   UNL A   1      41.947  31.235  29.886  1.00  0.00    -0.248 NA
ATOM     54  C   UNL A   1      40.595  32.823  30.932  1.00  0.00     0.031 C 
ATOM     55  C   UNL A   1      46.104  31.992  28.537  1.00  0.00     0.029 A 
ATOM     56  C   UNL A   1      44.788  31.792  28.921  1.00  0.00     0.049 A 
ATOM     57  H   UNL A   1      43.634  30.028  28.843  1.00  0.00     0.167 HD
ATOM     58  C   UNL A   1      42.619  32.452  29.921  1.00  0.00     0.074 A 
ATOM     59  C   UNL A   1      41.720  33.406  30.537  1.00  0.00     0.031 C 
ATOM     60  C   UNL A   1      43.873  32.748  29.496  1.00  0.00     0.034 A 
BRANCH  47  61
ATOM     61  C   UNL A   1      46.908  27.976  27.008  1.00  0.00     0.023 A 
ATOM     62  C   UNL A   1      47.080  28.008  25.612  1.00  0.00     0.031 A 
ATOM     63  C   UNL A   1      47.906  27.363  27.788  1.00  0.00     0.131 A 
ATOM     64  C   UNL A   1      48.217  27.422  25.039  1.00  0.00     0.055 A 
ATOM     65  C   UNL A   1      49.057  26.820  27.216  1.00  0.00     0.041 A 
ATOM     66  F   UNL A   1      47.785  27.301  29.124  1.00  0.00    -0.206 F 
ATOM     67  C   UNL A   1      49.210  26.839  25.834  1.00  0.00     0.022 A 
BRANCH  64  68
ATOM     68  S   UNL A   1      48.434  27.345  23.240  1.00  0.00     0.124 S 
ATOM     69  O   UNL A   1      47.347  28.201  22.769  1.00  0.00    -0.237 OA
ATOM     70  O   UNL A   1      49.777  27.893  23.072  1.00  0.00    -0.237 OA
ATOM     71  O   UNL A   1      48.286  25.928  22.929  1.00  0.00    -0.744 OA
ENDBRANCH  64  68
ENDBRANCH  47  61
BRANCH  48  72
ATOM     72  C   UNL A   1      38.346  30.916  31.260  1.00  0.00     0.023 A 
ATOM     73  C   UNL A   1      37.328  31.495  30.480  1.00  0.00     0.031 A 
ATOM     74  C   UNL A   1      38.155  30.850  32.651  1.00  0.00     0.131 A 
ATOM     75  C   UNL A   1      36.189  32.025  31.103  1.00  0.00     0.055 A 
ATOM     76  C   UNL A   1      36.992  31.324  33.262  1.00  0.00     0.041 A 
ATOM     77  F   UNL A   1      39.106  30.326  33.440  1.00  0.00    -0.206 F 
ATOM     78  C   UNL A   1      36.008  31.928  32.487  1.00  0.00     0.022 A 
BRANCH  75  79
ATOM     79  S   UNL A   1      34.962  32.970  30.157  1.00  0.00     0.124 S 
ATOM     80  O   UNL A   1      35.788  34.000  29.536  1.00  0.00    -0.237 OA
ATOM     81  O   UNL A   1      34.434  31.953  29.250  1.00  0.00    -0.237 OA
ATOM     82  O   UNL A   1      34.028  33.435  31.177  1.00  0.00    -0.744 OA
ENDBRANCH  75  79
ENDBRANCH  48  72
BRANCH  60  83
ATOM     83  C   UNL A   1      44.384  34.159  29.651  1.00  0.00     0.023 A 
ATOM     84  C   UNL A   1      44.301  35.058  28.570  1.00  0.00     0.031 A 
ATOM     85  C   UNL A   1      45.110  34.547  30.790  1.00  0.00     0.131 A 
ATOM     86  C   UNL A   1      44.971  36.286  28.636  1.00  0.00     0.055 A 
ATOM     87  C   UNL A   1      45.742  35.789  30.865  1.00  0.00     0.041 A 
ATOM     88  F   UNL A   1      45.230  33.716  31.837  1.00  0.00    -0.206 F 
ATOM     89  C   UNL A   1      45.686  36.658  29.779  1.00  0.00     0.022 A 
BRANCH  86  90
ATOM     90  S   UNL A   1      45.019  37.404  27.208  1.00  0.00     0.124 S 
ATOM     91  O   UNL A   1      45.851  36.658  26.267  1.00  0.00    -0.237 OA
ATOM     92  O   UNL A   1      43.607  37.504  26.848  1.00  0.00    -0.237 OA
ATOM     93  O   UNL A   1      45.619  38.626  27.736  1.00  0.00    -0.744 OA
ENDBRANCH  86  90
ENDBRANCH  60  83
ENDBRANCH  34  35
ENDBRANCH  27  29
ENDBRANCH  26  27
ENDBRANCH   1  26
TORSDOF 16
ENDMDL
