MODEL 1
REMARK VINA RESULT:     -12.2      0.000      0.000
REMARK SMILES N#C/C(=C\c1ccc(-c2cc(C(F)(F)F)ccc2Cl)o1)C(=O)OCCOC(=O)c1ccc(-c2c3nc(c(-c4cc(S(=O)(=O)[O-])ccc4F)c4ccc([nH]4)c(-c4cc(S(=O)(=O)[O-])ccc4F)c4nc(c(-c5cc(S(=O)(=O)[O-])ccc5F)c5ccc2[nH]5)C=C4)C=C3)cc1
REMARK SMILES IDX 24 1 23 2 21 3 22 4 3 5 4 6 2 7 1 8 5 9 6 10 20 11 7 12 8 13
REMARK SMILES IDX 9 14 10 15 18 16 11 17 17 18 19 19 16 20 12 21 13 22 14 23
REMARK SMILES IDX 15 24 25 25 26 26 27 27 28 28 29 29 30 30 91 31 31 32 90 33
REMARK SMILES IDX 32 34 33 35 34 36 84 37 35 38 89 39 83 40 85 41 36 42 88 43
REMARK SMILES IDX 82 44 81 45 37 47 69 48 49 49 68 50 50 51 53 52 67 53 86 54
REMARK SMILES IDX 51 55 52 56 66 58 87 59 54 60 38 61 39 62 47 63 40 64 46 65
REMARK SMILES IDX 48 66 45 67 41 68 42 69 43 70 44 71 70 72 71 73 79 74 72 75
REMARK SMILES IDX 78 76 80 77 77 78 73 79 74 80 75 81 76 82 55 83 56 84 64 85
REMARK SMILES IDX 57 86 63 87 65 88 62 89 58 90 59 91 60 92 61 93
REMARK H PARENT 85 46 53 57
REMARK Flexibility Score: inf
ROOT
ATOM      1  C   UNL A   1      35.497  21.110  25.016  1.00  0.00     0.275 C 
ENDROOT
BRANCH   1   2
ATOM      2  O   UNL A   1      35.546  22.469  24.543  1.00  0.00    -0.458 OA
BRANCH   2   3
ATOM      3  C   UNL A   1      35.115  23.414  25.417  1.00  0.00     0.349 C 
ATOM      4  O   UNL A   1      35.433  23.494  26.594  1.00  0.00    -0.245 OA
BRANCH   3   5
ATOM      5  C   UNL A   1      34.216  24.364  24.750  1.00  0.00     0.141 C 
ATOM      6  C   UNL A   1      33.995  25.555  25.361  1.00  0.00     0.074 C 
BRANCH   5   7
ATOM      7  C   UNL A   1      33.910  24.268  23.264  1.00  0.00     0.107 C 
ATOM      8  N   UNL A   1      33.657  24.189  22.031  1.00  0.00    -0.192 NA
ENDBRANCH   5   7
BRANCH   6   9
ATOM      9  C   UNL A   1      33.377  26.668  24.695  1.00  0.00     0.129 A 
ATOM     10  C   UNL A   1      33.962  27.768  24.072  1.00  0.00     0.051 A 
ATOM     11  O   UNL A   1      32.000  26.830  24.595  1.00  0.00    -0.457 OA
ATOM     12  C   UNL A   1      32.936  28.641  23.659  1.00  0.00     0.051 A 
ATOM     13  C   UNL A   1      31.749  28.021  23.971  1.00  0.00     0.136 A 
BRANCH  13  14
ATOM     14  C   UNL A   1      30.358  28.405  23.744  1.00  0.00     0.036 A 
ATOM     15  C   UNL A   1      30.005  29.767  23.657  1.00  0.00     0.026 A 
ATOM     16  C   UNL A   1      29.360  27.443  23.496  1.00  0.00     0.052 A 
ATOM     17  C   UNL A   1      28.697  30.165  23.301  1.00  0.00     0.056 A 
ATOM     18  C   UNL A   1      28.062  27.830  23.146  1.00  0.00     0.022 A 
ATOM     19  Cl  UNL A   1      29.653  25.740  23.617  1.00  0.00    -0.084 Cl
ATOM     20  C   UNL A   1      27.733  29.180  23.043  1.00  0.00     0.014 A 
BRANCH  17  21
ATOM     21  C   UNL A   1      28.341  31.629  23.179  1.00  0.00     0.416 C 
ATOM     22  F   UNL A   1      28.150  32.014  21.888  1.00  0.00    -0.166 F 
ATOM     23  F   UNL A   1      27.202  31.954  23.846  1.00  0.00    -0.166 F 
ATOM     24  F   UNL A   1      29.308  32.460  23.669  1.00  0.00    -0.166 F 
ENDBRANCH  17  21
ENDBRANCH  13  14
ENDBRANCH   6   9
ENDBRANCH   3   5
ENDBRANCH   2   3
ENDBRANCH   1   2
BRANCH   1  25
ATOM     25  C   UNL A   1      36.888  20.474  24.947  1.00  0.00     0.275 C 
BRANCH  25  26
ATOM     26  O   UNL A   1      37.923  21.476  25.012  1.00  0.00    -0.458 OA
BRANCH  26  27
ATOM     27  C   UNL A   1      38.939  21.192  25.862  1.00  0.00     0.338 C 
ATOM     28  O   UNL A   1      39.486  20.112  26.011  1.00  0.00    -0.246 OA
BRANCH  27  29
ATOM     29  C   UNL A   1      39.442  22.417  26.502  1.00  0.00     0.060 A 
ATOM     30  C   UNL A   1      38.781  23.603  26.217  1.00  0.00     0.016 A 
ATOM     31  C   UNL A   1      40.668  22.455  27.158  1.00  0.00     0.016 A 
ATOM     32  C   UNL A   1      39.408  24.823  26.422  1.00  0.00     0.010 A 
ATOM     33  C   UNL A   1      41.220  23.696  27.516  1.00  0.00     0.010 A 
ATOM     34  C   UNL A   1      40.618  24.903  27.109  1.00  0.00    -0.014 A 
BRANCH  34  35
ATOM     35  C   UNL A   1      41.240  26.242  27.344  1.00  0.00     0.031 A 
ATOM     36  C   UNL A   1      42.598  26.557  26.772  1.00  0.00     0.074 A 
ATOM     37  C   UNL A   1      40.572  27.203  28.022  1.00  0.00     0.049 A 
ATOM     38  N   UNL A   1      43.407  27.549  27.049  1.00  0.00    -0.248 NA
ATOM     39  C   UNL A   1      43.127  25.621  25.769  1.00  0.00     0.031 C 
ATOM     40  C   UNL A   1      39.211  27.081  28.555  1.00  0.00     0.029 A 
ATOM     41  N   UNL A   1      40.938  28.482  28.373  1.00  0.00    -0.354 N 
ATOM     42  C   UNL A   1      44.558  27.325  26.301  1.00  0.00     0.074 A 
ATOM     43  C   UNL A   1      44.351  26.091  25.573  1.00  0.00     0.031 C 
ATOM     44  C   UNL A   1      38.841  28.243  29.106  1.00  0.00     0.029 A 
ATOM     45  C   UNL A   1      39.982  29.145  29.109  1.00  0.00     0.049 A 
ATOM     46  H   UNL A   1      41.801  28.884  28.122  1.00  0.00     0.167 HD
ATOM     47  C   UNL A   1      45.683  28.082  26.234  1.00  0.00     0.034 A 
ATOM     48  C   UNL A   1      40.030  30.311  29.785  1.00  0.00     0.034 A 
ATOM     49  C   UNL A   1      45.845  29.335  26.935  1.00  0.00     0.049 A 
ATOM     50  C   UNL A   1      41.317  31.089  29.772  1.00  0.00     0.074 A 
ATOM     51  C   UNL A   1      46.945  30.175  26.960  1.00  0.00     0.029 A 
ATOM     52  N   UNL A   1      44.871  29.938  27.722  1.00  0.00    -0.354 N 
ATOM     53  N   UNL A   1      42.444  30.810  29.156  1.00  0.00    -0.248 NA
ATOM     54  C   UNL A   1      41.348  32.328  30.555  1.00  0.00     0.031 C 
ATOM     55  C   UNL A   1      46.662  31.247  27.814  1.00  0.00     0.029 A 
ATOM     56  C   UNL A   1      45.355  31.124  28.256  1.00  0.00     0.049 A 
ATOM     57  H   UNL A   1      43.969  29.577  27.879  1.00  0.00     0.167 HD
ATOM     58  C   UNL A   1      43.310  31.853  29.463  1.00  0.00     0.074 A 
ATOM     59  C   UNL A   1      42.568  32.777  30.297  1.00  0.00     0.031 C 
ATOM     60  C   UNL A   1      44.603  32.031  29.093  1.00  0.00     0.034 A 
BRANCH  47  61
ATOM     61  C   UNL A   1      46.846  27.542  25.432  1.00  0.00     0.023 A 
ATOM     62  C   UNL A   1      47.119  27.968  24.120  1.00  0.00     0.031 A 
ATOM     63  C   UNL A   1      47.686  26.559  25.989  1.00  0.00     0.131 A 
ATOM     64  C   UNL A   1      48.157  27.366  23.390  1.00  0.00     0.055 A 
ATOM     65  C   UNL A   1      48.768  26.025  25.287  1.00  0.00     0.041 A 
ATOM     66  F   UNL A   1      47.463  26.092  27.229  1.00  0.00    -0.206 F 
ATOM     67  C   UNL A   1      49.000  26.417  23.974  1.00  0.00     0.022 A 
BRANCH  64  68
ATOM     68  S   UNL A   1      48.301  27.733  21.619  1.00  0.00     0.124 S 
ATOM     69  O   UNL A   1      46.954  28.204  21.304  1.00  0.00    -0.237 OA
ATOM     70  O   UNL A   1      49.355  28.740  21.589  1.00  0.00    -0.237 OA
ATOM     71  O   UNL A   1      48.653  26.442  21.028  1.00  0.00    -0.744 OA
ENDBRANCH  64  68
ENDBRANCH  47  61
BRANCH  48  72
ATOM     72  C   UNL A   1      38.870  30.752  30.618  1.00  0.00     0.023 A 
ATOM     73  C   UNL A   1      37.860  31.570  30.091  1.00  0.00     0.031 A 
ATOM     74  C   UNL A   1      38.781  30.394  31.978  1.00  0.00     0.131 A 
ATOM     75  C   UNL A   1      36.833  32.039  30.926  1.00  0.00     0.055 A 
ATOM     76  C   UNL A   1      37.718  30.801  32.785  1.00  0.00     0.041 A 
ATOM     77  F   UNL A   1      39.724  29.623  32.543  1.00  0.00    -0.206 F 
ATOM     78  C   UNL A   1      36.744  31.642  32.263  1.00  0.00     0.022 A 
BRANCH  75  79
ATOM     79  S   UNL A   1      35.673  33.270  30.273  1.00  0.00     0.124 S 
ATOM     80  O   UNL A   1      35.554  34.192  31.398  1.00  0.00    -0.237 OA
ATOM     81  O   UNL A   1      36.389  33.772  29.105  1.00  0.00    -0.237 OA
ATOM     82  O   UNL A   1      34.475  32.488  29.979  1.00  0.00    -0.744 OA
ENDBRANCH  75  79
ENDBRANCH  48  72
BRANCH  60  83
ATOM     83  C   UNL A   1      45.272  33.305  29.549  1.00  0.00     0.023 A 
ATOM     84  C   UNL A   1      45.236  34.479  28.775  1.00  0.00     0.031 A 
ATOM     85  C   UNL A   1      45.976  33.333  30.765  1.00  0.00     0.131 A 
ATOM     86  C   UNL A   1      45.945  35.613  29.197  1.00  0.00     0.055 A 
ATOM     87  C   UNL A   1      46.623  34.486  31.211  1.00  0.00     0.041 A 
ATOM     88  F   UNL A   1      46.049  32.240  31.540  1.00  0.00    -0.206 F 
ATOM     89  C   UNL A   1      46.623  35.630  30.419  1.00  0.00     0.022 A 
BRANCH  86  90
ATOM     90  S   UNL A   1      46.057  37.035  28.077  1.00  0.00     0.124 S 
ATOM     91  O   UNL A   1      47.466  37.013  27.700  1.00  0.00    -0.237 OA
ATOM     92  O   UNL A   1      45.110  36.680  27.025  1.00  0.00    -0.237 OA
ATOM     93  O   UNL A   1      45.656  38.164  28.916  1.00  0.00    -0.744 OA
ENDBRANCH  86  90
ENDBRANCH  60  83
ENDBRANCH  34  35
ENDBRANCH  27  29
ENDBRANCH  26  27
ENDBRANCH  25  26
ENDBRANCH   1  25
TORSDOF 18
ENDMDL
MODEL 2
REMARK VINA RESULT:     -11.8      2.401      2.947
REMARK SMILES N#C/C(=C\c1ccc(-c2cc(C(F)(F)F)ccc2Cl)o1)C(=O)OCCOC(=O)c1ccc(-c2c3nc(c(-c4cc(S(=O)(=O)[O-])ccc4F)c4ccc([nH]4)c(-c4cc(S(=O)(=O)[O-])ccc4F)c4nc(c(-c5cc(S(=O)(=O)[O-])ccc5F)c5ccc2[nH]5)C=C4)C=C3)cc1
REMARK SMILES IDX 24 1 23 2 21 3 22 4 3 5 4 6 2 7 1 8 5 9 6 10 20 11 7 12 8 13
REMARK SMILES IDX 9 14 10 15 18 16 11 17 17 18 19 19 16 20 12 21 13 22 14 23
REMARK SMILES IDX 15 24 25 25 26 26 27 27 28 28 29 29 30 30 91 31 31 32 90 33
REMARK SMILES IDX 32 34 33 35 34 36 84 37 35 38 89 39 83 40 85 41 36 42 88 43
REMARK SMILES IDX 82 44 81 45 37 47 69 48 49 49 68 50 50 51 53 52 67 53 86 54
REMARK SMILES IDX 51 55 52 56 66 58 87 59 54 60 38 61 39 62 47 63 40 64 46 65
REMARK SMILES IDX 48 66 45 67 41 68 42 69 43 70 44 71 70 72 71 73 79 74 72 75
REMARK SMILES IDX 78 76 80 77 77 78 73 79 74 80 75 81 76 82 55 83 56 84 64 85
REMARK SMILES IDX 57 86 63 87 65 88 62 89 58 90 59 91 60 92 61 93
REMARK H PARENT 85 46 53 57
REMARK Flexibility Score: inf
ROOT
ATOM      1  C   UNL A   1      36.094  20.268  24.979  1.00  0.00     0.275 C 
ENDROOT
BRANCH   1   2
ATOM      2  O   UNL A   1      35.329  21.086  25.884  1.00  0.00    -0.458 OA
BRANCH   2   3
ATOM      3  C   UNL A   1      33.999  21.168  25.624  1.00  0.00     0.349 C 
ATOM      4  O   UNL A   1      33.249  20.220  25.445  1.00  0.00    -0.245 OA
BRANCH   3   5
ATOM      5  C   UNL A   1      33.560  22.568  25.607  1.00  0.00     0.141 C 
ATOM      6  C   UNL A   1      34.482  23.512  25.289  1.00  0.00     0.074 C 
BRANCH   5   7
ATOM      7  C   UNL A   1      32.094  22.946  25.477  1.00  0.00     0.107 C 
ATOM      8  N   UNL A   1      30.877  23.259  25.369  1.00  0.00    -0.192 NA
ENDBRANCH   5   7
BRANCH   6   9
ATOM      9  C   UNL A   1      34.128  24.865  24.962  1.00  0.00     0.129 A 
ATOM     10  C   UNL A   1      33.811  25.428  23.728  1.00  0.00     0.051 A 
ATOM     11  O   UNL A   1      34.075  25.890  25.900  1.00  0.00    -0.457 OA
ATOM     12  C   UNL A   1      33.639  26.817  23.904  1.00  0.00     0.051 A 
ATOM     13  C   UNL A   1      33.781  27.057  25.250  1.00  0.00     0.136 A 
BRANCH  13  14
ATOM     14  C   UNL A   1      33.663  28.280  26.041  1.00  0.00     0.036 A 
ATOM     15  C   UNL A   1      34.772  28.765  26.763  1.00  0.00     0.026 A 
ATOM     16  C   UNL A   1      32.492  29.062  26.017  1.00  0.00     0.052 A 
ATOM     17  C   UNL A   1      34.730  30.014  27.421  1.00  0.00     0.056 A 
ATOM     18  C   UNL A   1      32.442  30.299  26.669  1.00  0.00     0.022 A 
ATOM     19  Cl  UNL A   1      31.047  28.557  25.205  1.00  0.00    -0.084 Cl
ATOM     20  C   UNL A   1      33.554  30.775  27.361  1.00  0.00     0.014 A 
BRANCH  17  21
ATOM     21  C   UNL A   1      35.938  30.537  28.165  1.00  0.00     0.416 C 
ATOM     22  F   UNL A   1      35.954  30.150  29.470  1.00  0.00    -0.166 F 
ATOM     23  F   UNL A   1      37.114  30.116  27.629  1.00  0.00    -0.166 F 
ATOM     24  F   UNL A   1      36.007  31.901  28.187  1.00  0.00    -0.166 F 
ENDBRANCH  17  21
ENDBRANCH  13  14
ENDBRANCH   6   9
ENDBRANCH   3   5
ENDBRANCH   2   3
ENDBRANCH   1   2
BRANCH   1  25
ATOM     25  C   UNL A   1      37.402  20.970  24.607  1.00  0.00     0.275 C 
BRANCH  25  26
ATOM     26  O   UNL A   1      37.810  21.895  25.636  1.00  0.00    -0.458 OA
BRANCH  26  27
ATOM     27  C   UNL A   1      39.030  21.651  26.172  1.00  0.00     0.338 C 
ATOM     28  O   UNL A   1      39.690  20.632  26.049  1.00  0.00    -0.246 OA
BRANCH  27  29
ATOM     29  C   UNL A   1      39.569  22.859  26.814  1.00  0.00     0.060 A 
ATOM     30  C   UNL A   1      39.027  24.078  26.436  1.00  0.00     0.016 A 
ATOM     31  C   UNL A   1      40.734  22.831  27.573  1.00  0.00     0.016 A 
ATOM     32  C   UNL A   1      39.726  25.256  26.656  1.00  0.00     0.010 A 
ATOM     33  C   UNL A   1      41.347  24.042  27.939  1.00  0.00     0.010 A 
ATOM     34  C   UNL A   1      40.876  25.273  27.444  1.00  0.00    -0.014 A 
BRANCH  34  35
ATOM     35  C   UNL A   1      41.576  26.571  27.690  1.00  0.00     0.031 A 
ATOM     36  C   UNL A   1      42.919  26.838  27.060  1.00  0.00     0.074 A 
ATOM     37  C   UNL A   1      40.992  27.539  28.432  1.00  0.00     0.049 A 
ATOM     38  N   UNL A   1      43.790  27.779  27.328  1.00  0.00    -0.248 NA
ATOM     39  C   UNL A   1      43.349  25.912  26.002  1.00  0.00     0.031 C 
ATOM     40  C   UNL A   1      39.654  27.466  29.028  1.00  0.00     0.029 A 
ATOM     41  N   UNL A   1      41.439  28.785  28.805  1.00  0.00    -0.354 N 
ATOM     42  C   UNL A   1      44.890  27.524  26.516  1.00  0.00     0.074 A 
ATOM     43  C   UNL A   1      44.584  26.328  25.760  1.00  0.00     0.031 C 
ATOM     44  C   UNL A   1      39.371  28.625  29.635  1.00  0.00     0.029 A 
ATOM     45  C   UNL A   1      40.555  29.468  29.610  1.00  0.00     0.049 A 
ATOM     46  H   UNL A   1      42.308  29.153  28.524  1.00  0.00     0.167 HD
ATOM     47  C   UNL A   1      46.047  28.227  26.416  1.00  0.00     0.034 A 
ATOM     48  C   UNL A   1      40.696  30.606  30.320  1.00  0.00     0.034 A 
ATOM     49  C   UNL A   1      46.307  29.445  27.149  1.00  0.00     0.049 A 
ATOM     50  C   UNL A   1      42.019  31.320  30.266  1.00  0.00     0.074 A 
ATOM     51  C   UNL A   1      47.448  30.229  27.146  1.00  0.00     0.029 A 
ATOM     52  N   UNL A   1      45.404  30.068  28.003  1.00  0.00    -0.354 N 
ATOM     53  N   UNL A   1      43.099  31.008  29.586  1.00  0.00    -0.248 NA
ATOM     54  C   UNL A   1      42.151  32.528  31.087  1.00  0.00     0.031 C 
ATOM     55  C   UNL A   1      47.262  31.283  28.047  1.00  0.00     0.029 A 
ATOM     56  C   UNL A   1      45.974  31.209  28.550  1.00  0.00     0.049 A 
ATOM     57  H   UNL A   1      44.494  29.747  28.194  1.00  0.00     0.167 HD
ATOM     58  C   UNL A   1      44.030  31.995  29.882  1.00  0.00     0.074 A 
ATOM     59  C   UNL A   1      43.378  32.925  30.783  1.00  0.00     0.031 C 
ATOM     60  C   UNL A   1      45.312  32.123  29.453  1.00  0.00     0.034 A 
BRANCH  47  61
ATOM     61  C   UNL A   1      47.140  27.659  25.539  1.00  0.00     0.023 A 
ATOM     62  C   UNL A   1      47.327  28.067  24.208  1.00  0.00     0.031 A 
ATOM     63  C   UNL A   1      48.001  26.665  26.046  1.00  0.00     0.131 A 
ATOM     64  C   UNL A   1      48.299  27.440  23.412  1.00  0.00     0.055 A 
ATOM     65  C   UNL A   1      49.020  26.105  25.275  1.00  0.00     0.041 A 
ATOM     66  F   UNL A   1      47.858  26.214  27.303  1.00  0.00    -0.206 F 
ATOM     67  C   UNL A   1      49.165  26.481  23.944  1.00  0.00     0.022 A 
BRANCH  64  68
ATOM     68  S   UNL A   1      48.323  27.788  21.631  1.00  0.00     0.124 S 
ATOM     69  O   UNL A   1      46.985  28.335  21.418  1.00  0.00    -0.237 OA
ATOM     70  O   UNL A   1      49.427  28.732  21.508  1.00  0.00    -0.237 OA
ATOM     71  O   UNL A   1      48.553  26.476  21.028  1.00  0.00    -0.744 OA
ENDBRANCH  64  68
ENDBRANCH  47  61
BRANCH  48  72
ATOM     72  C   UNL A   1      39.602  31.075  31.224  1.00  0.00     0.023 A 
ATOM     73  C   UNL A   1      38.613  31.963  30.777  1.00  0.00     0.031 A 
ATOM     74  C   UNL A   1      39.560  30.672  32.573  1.00  0.00     0.131 A 
ATOM     75  C   UNL A   1      37.652  32.452  31.678  1.00  0.00     0.055 A 
ATOM     76  C   UNL A   1      38.559  31.102  33.446  1.00  0.00     0.041 A 
ATOM     77  F   UNL A   1      40.487  29.834  33.064  1.00  0.00    -0.206 F 
ATOM     78  C   UNL A   1      37.607  32.010  33.003  1.00  0.00     0.022 A 
BRANCH  75  79
ATOM     79  S   UNL A   1      36.529  33.764  31.126  1.00  0.00     0.124 S 
ATOM     80  O   UNL A   1      37.176  34.211  29.897  1.00  0.00    -0.237 OA
ATOM     81  O   UNL A   1      35.272  33.041  30.964  1.00  0.00    -0.237 OA
ATOM     82  O   UNL A   1      36.556  34.723  32.229  1.00  0.00    -0.744 OA
ENDBRANCH  75  79
ENDBRANCH  48  72
BRANCH  60  83
ATOM     83  C   UNL A   1      46.066  33.345  29.915  1.00  0.00     0.023 A 
ATOM     84  C   UNL A   1      46.053  34.545  29.182  1.00  0.00     0.031 A 
ATOM     85  C   UNL A   1      46.828  33.297  31.096  1.00  0.00     0.131 A 
ATOM     86  C   UNL A   1      46.839  35.627  29.604  1.00  0.00     0.055 A 
ATOM     87  C   UNL A   1      47.553  34.400  31.546  1.00  0.00     0.041 A 
ATOM     88  F   UNL A   1      46.880  32.175  31.831  1.00  0.00    -0.206 F 
ATOM     89  C   UNL A   1      47.574  35.568  30.791  1.00  0.00     0.022 A 
BRANCH  86  90
ATOM     90  S   UNL A   1      46.971  37.079  28.525  1.00  0.00     0.124 S 
ATOM     91  O   UNL A   1      46.104  38.038  29.201  1.00  0.00    -0.237 OA
ATOM     92  O   UNL A   1      48.400  37.372  28.568  1.00  0.00    -0.237 OA
ATOM     93  O   UNL A   1      46.476  36.595  27.238  1.00  0.00    -0.744 OA
ENDBRANCH  86  90
ENDBRANCH  60  83
ENDBRANCH  34  35
ENDBRANCH  27  29
ENDBRANCH  26  27
ENDBRANCH  25  26
ENDBRANCH   1  25
TORSDOF 18
ENDMDL
MODEL 3
REMARK VINA RESULT:     -11.8      2.694      8.071
REMARK SMILES N#C/C(=C\c1ccc(-c2cc(C(F)(F)F)ccc2Cl)o1)C(=O)OCCOC(=O)c1ccc(-c2c3nc(c(-c4cc(S(=O)(=O)[O-])ccc4F)c4ccc([nH]4)c(-c4cc(S(=O)(=O)[O-])ccc4F)c4nc(c(-c5cc(S(=O)(=O)[O-])ccc5F)c5ccc2[nH]5)C=C4)C=C3)cc1
REMARK SMILES IDX 24 1 23 2 21 3 22 4 3 5 4 6 2 7 1 8 5 9 6 10 20 11 7 12 8 13
REMARK SMILES IDX 9 14 10 15 18 16 11 17 17 18 19 19 16 20 12 21 13 22 14 23
REMARK SMILES IDX 15 24 25 25 26 26 27 27 28 28 29 29 30 30 91 31 31 32 90 33
REMARK SMILES IDX 32 34 33 35 34 36 84 37 35 38 89 39 83 40 85 41 36 42 88 43
REMARK SMILES IDX 82 44 81 45 37 47 69 48 49 49 68 50 50 51 53 52 67 53 86 54
REMARK SMILES IDX 51 55 52 56 66 58 87 59 54 60 38 61 39 62 47 63 40 64 46 65
REMARK SMILES IDX 48 66 45 67 41 68 42 69 43 70 44 71 70 72 71 73 79 74 72 75
REMARK SMILES IDX 78 76 80 77 77 78 73 79 74 80 75 81 76 82 55 83 56 84 64 85
REMARK SMILES IDX 57 86 63 87 65 88 62 89 58 90 59 91 60 92 61 93
REMARK H PARENT 85 46 53 57
REMARK Flexibility Score: inf
ROOT
ATOM      1  C   UNL A   1      35.232  20.754  24.687  1.00  0.00     0.275 C 
ENDROOT
BRANCH   1   2
ATOM      2  O   UNL A   1      34.428  19.582  24.922  1.00  0.00    -0.458 OA
BRANCH   2   3
ATOM      3  C   UNL A   1      33.125  19.811  25.221  1.00  0.00     0.349 C 
ATOM      4  O   UNL A   1      32.297  18.956  25.502  1.00  0.00    -0.245 OA
BRANCH   3   5
ATOM      5  C   UNL A   1      32.830  21.249  25.186  1.00  0.00     0.141 C 
ATOM      6  C   UNL A   1      32.477  21.788  23.992  1.00  0.00     0.074 C 
BRANCH   5   7
ATOM      7  C   UNL A   1      32.468  22.022  26.443  1.00  0.00     0.107 C 
ATOM      8  N   UNL A   1      32.167  22.664  27.486  1.00  0.00    -0.192 NA
ENDBRANCH   5   7
BRANCH   6   9
ATOM      9  C   UNL A   1      31.896  23.097  23.873  1.00  0.00     0.129 A 
ATOM     10  C   UNL A   1      30.639  23.473  23.407  1.00  0.00     0.051 A 
ATOM     11  O   UNL A   1      32.572  24.266  24.205  1.00  0.00    -0.457 OA
ATOM     12  C   UNL A   1      30.577  24.882  23.384  1.00  0.00     0.051 A 
ATOM     13  C   UNL A   1      31.767  25.331  23.905  1.00  0.00     0.136 A 
BRANCH  13  14
ATOM     14  C   UNL A   1      32.267  26.677  24.180  1.00  0.00     0.036 A 
ATOM     15  C   UNL A   1      32.078  27.255  25.450  1.00  0.00     0.026 A 
ATOM     16  C   UNL A   1      33.039  27.382  23.236  1.00  0.00     0.052 A 
ATOM     17  C   UNL A   1      32.669  28.493  25.788  1.00  0.00     0.056 A 
ATOM     18  C   UNL A   1      33.625  28.609  23.563  1.00  0.00     0.022 A 
ATOM     19  Cl  UNL A   1      33.307  26.801  21.626  1.00  0.00    -0.084 Cl
ATOM     20  C   UNL A   1      33.447  29.159  24.831  1.00  0.00     0.014 A 
BRANCH  17  21
ATOM     21  C   UNL A   1      32.485  29.087  27.167  1.00  0.00     0.416 C 
ATOM     22  F   UNL A   1      31.324  28.688  27.755  1.00  0.00    -0.166 F 
ATOM     23  F   UNL A   1      33.483  28.752  28.026  1.00  0.00    -0.166 F 
ATOM     24  F   UNL A   1      32.442  30.452  27.162  1.00  0.00    -0.166 F 
ENDBRANCH  17  21
ENDBRANCH  13  14
ENDBRANCH   6   9
ENDBRANCH   3   5
ENDBRANCH   2   3
ENDBRANCH   1   2
BRANCH   1  25
ATOM     25  C   UNL A   1      36.712  20.434  24.908  1.00  0.00     0.275 C 
BRANCH  25  26
ATOM     26  O   UNL A   1      37.369  21.485  25.647  1.00  0.00    -0.458 OA
BRANCH  26  27
ATOM     27  C   UNL A   1      38.665  21.241  25.957  1.00  0.00     0.338 C 
ATOM     28  O   UNL A   1      39.338  20.294  25.584  1.00  0.00    -0.246 OA
BRANCH  27  29
ATOM     29  C   UNL A   1      39.247  22.371  26.696  1.00  0.00     0.060 A 
ATOM     30  C   UNL A   1      38.775  23.640  26.395  1.00  0.00     0.016 A 
ATOM     31  C   UNL A   1      40.391  22.230  27.473  1.00  0.00     0.016 A 
ATOM     32  C   UNL A   1      39.525  24.762  26.714  1.00  0.00     0.010 A 
ATOM     33  C   UNL A   1      41.054  23.379  27.938  1.00  0.00     0.010 A 
ATOM     34  C   UNL A   1      40.656  24.665  27.523  1.00  0.00    -0.014 A 
BRANCH  34  35
ATOM     35  C   UNL A   1      41.413  25.904  27.877  1.00  0.00     0.031 A 
ATOM     36  C   UNL A   1      40.757  26.983  28.701  1.00  0.00     0.074 A 
ATOM     37  C   UNL A   1      42.707  26.048  27.514  1.00  0.00     0.049 A 
ATOM     38  N   UNL A   1      41.144  28.215  28.915  1.00  0.00    -0.248 NA
ATOM     39  C   UNL A   1      39.487  26.636  29.355  1.00  0.00     0.031 C 
ATOM     40  C   UNL A   1      43.508  25.050  26.797  1.00  0.00     0.029 A 
ATOM     41  N   UNL A   1      43.590  27.086  27.704  1.00  0.00    -0.354 N 
ATOM     42  C   UNL A   1      40.140  28.805  29.676  1.00  0.00     0.074 A 
ATOM     43  C   UNL A   1      39.117  27.800  29.869  1.00  0.00     0.031 C 
ATOM     44  C   UNL A   1      44.763  25.496  26.663  1.00  0.00     0.029 A 
ATOM     45  C   UNL A   1      44.827  26.867  27.140  1.00  0.00     0.049 A 
ATOM     46  H   UNL A   1      43.359  27.906  28.198  1.00  0.00     0.167 HD
ATOM     47  C   UNL A   1      40.083  30.071  30.164  1.00  0.00     0.034 A 
ATOM     48  C   UNL A   1      45.875  27.694  26.948  1.00  0.00     0.034 A 
ATOM     49  C   UNL A   1      41.142  31.040  29.995  1.00  0.00     0.049 A 
ATOM     50  C   UNL A   1      45.754  29.118  27.416  1.00  0.00     0.074 A 
ATOM     51  C   UNL A   1      41.185  32.355  30.425  1.00  0.00     0.029 A 
ATOM     52  N   UNL A   1      42.353  30.793  29.360  1.00  0.00    -0.354 N 
ATOM     53  N   UNL A   1      44.752  29.703  28.032  1.00  0.00    -0.248 NA
ATOM     54  C   UNL A   1      46.895  30.000  27.149  1.00  0.00     0.031 C 
ATOM     55  C   UNL A   1      42.389  32.922  29.990  1.00  0.00     0.029 A 
ATOM     56  C   UNL A   1      43.137  31.938  29.364  1.00  0.00     0.049 A 
ATOM     57  H   UNL A   1      42.617  29.932  28.964  1.00  0.00     0.167 HD
ATOM     58  C   UNL A   1      45.154  31.016  28.244  1.00  0.00     0.074 A 
ATOM     59  C   UNL A   1      46.497  31.130  27.713  1.00  0.00     0.031 C 
ATOM     60  C   UNL A   1      44.473  32.038  28.823  1.00  0.00     0.034 A 
BRANCH  47  61
ATOM     61  C   UNL A   1      38.811  30.497  30.861  1.00  0.00     0.023 A 
ATOM     62  C   UNL A   1      37.721  31.050  30.168  1.00  0.00     0.031 A 
ATOM     63  C   UNL A   1      38.700  30.367  32.259  1.00  0.00     0.131 A 
ATOM     64  C   UNL A   1      36.601  31.513  30.879  1.00  0.00     0.055 A 
ATOM     65  C   UNL A   1      37.551  30.752  32.950  1.00  0.00     0.041 A 
ATOM     66  F   UNL A   1      39.718  29.869  32.982  1.00  0.00    -0.206 F 
ATOM     67  C   UNL A   1      36.497  31.343  32.261  1.00  0.00     0.022 A 
BRANCH  64  68
ATOM     68  S   UNL A   1      35.343  32.473  29.990  1.00  0.00     0.124 S 
ATOM     69  O   UNL A   1      36.114  33.632  29.545  1.00  0.00    -0.237 OA
ATOM     70  O   UNL A   1      34.917  31.548  28.947  1.00  0.00    -0.237 OA
ATOM     71  O   UNL A   1      34.341  32.760  31.017  1.00  0.00    -0.744 OA
ENDBRANCH  64  68
ENDBRANCH  47  61
BRANCH  48  72
ATOM     72  C   UNL A   1      47.075  27.230  26.187  1.00  0.00     0.023 A 
ATOM     73  C   UNL A   1      48.124  26.548  26.819  1.00  0.00     0.031 A 
ATOM     74  C   UNL A   1      47.208  27.508  24.812  1.00  0.00     0.131 A 
ATOM     75  C   UNL A   1      49.276  26.206  26.091  1.00  0.00     0.055 A 
ATOM     76  C   UNL A   1      48.321  27.101  24.076  1.00  0.00     0.041 A 
ATOM     77  F   UNL A   1      46.243  28.170  24.154  1.00  0.00    -0.206 F 
ATOM     78  C   UNL A   1      49.371  26.459  24.720  1.00  0.00     0.022 A 
BRANCH  75  79
ATOM     79  S   UNL A   1      50.701  25.528  26.984  1.00  0.00     0.124 S 
ATOM     80  O   UNL A   1      51.625  25.240  25.892  1.00  0.00    -0.237 OA
ATOM     81  O   UNL A   1      51.067  26.637  27.859  1.00  0.00    -0.237 OA
ATOM     82  O   UNL A   1      50.153  24.356  27.662  1.00  0.00    -0.744 OA
ENDBRANCH  75  79
ENDBRANCH  48  72
BRANCH  60  83
ATOM     83  C   UNL A   1      45.203  33.352  28.956  1.00  0.00     0.023 A 
ATOM     84  C   UNL A   1      45.986  33.654  30.084  1.00  0.00     0.031 A 
ATOM     85  C   UNL A   1      45.091  34.324  27.947  1.00  0.00     0.131 A 
ATOM     86  C   UNL A   1      46.575  34.921  30.205  1.00  0.00     0.055 A 
ATOM     87  C   UNL A   1      45.736  35.558  28.042  1.00  0.00     0.041 A 
ATOM     88  F   UNL A   1      44.352  34.091  26.851  1.00  0.00    -0.206 F 
ATOM     89  C   UNL A   1      46.471  35.867  29.183  1.00  0.00     0.022 A 
BRANCH  86  90
ATOM     90  S   UNL A   1      47.395  35.354  31.764  1.00  0.00     0.124 S 
ATOM     91  O   UNL A   1      46.653  34.550  32.729  1.00  0.00    -0.237 OA
ATOM     92  O   UNL A   1      48.774  34.944  31.517  1.00  0.00    -0.237 OA
ATOM     93  O   UNL A   1      47.188  36.798  31.869  1.00  0.00    -0.744 OA
ENDBRANCH  86  90
ENDBRANCH  60  83
ENDBRANCH  34  35
ENDBRANCH  27  29
ENDBRANCH  26  27
ENDBRANCH  25  26
ENDBRANCH   1  25
TORSDOF 18
ENDMDL
