MODEL 1
REMARK VINA RESULT:     -11.5      0.000      0.000
REMARK SMILES CC(=O)N(c1ccccc1)c1nc(/C=C(/C#N)C(=O)OCCOC(=O)c2ccc(-c3c4nc(c(-c5cc(S(=O)(=O)[O-])ccc5F)c5ccc([nH]5)c(-c5cc(S(=O)(=O)[O-])ccc5F)c5nc(c(-c6cc(S(=O)(=O)[O-])ccc6F)c6ccc3[nH]6)C=C5)C=C4)cc2)cs1
REMARK SMILES IDX 21 1 20 2 18 3 19 4 15 5 14 6 13 7 11 8 12 9 90 10 89 11
REMARK SMILES IDX 4 12 2 13 1 14 3 15 5 16 6 17 10 18 7 19 9 20 8 21 16 22
REMARK SMILES IDX 17 23 22 24 23 25 24 26 25 27 26 28 27 29 88 30 28 31 87 32
REMARK SMILES IDX 29 33 30 34 31 35 81 36 32 37 86 38 80 39 82 40 33 41 85 42
REMARK SMILES IDX 79 43 78 44 34 46 66 47 46 48 65 49 47 50 50 51 64 52 83 53
REMARK SMILES IDX 48 54 49 55 63 57 84 58 51 59 35 60 36 61 44 62 37 63 43 64
REMARK SMILES IDX 45 65 42 66 38 67 39 68 40 69 41 70 67 71 68 72 76 73 69 74
REMARK SMILES IDX 75 75 77 76 74 77 70 78 71 79 72 80 73 81 52 82 53 83 61 84
REMARK SMILES IDX 54 85 60 86 62 87 59 88 55 89 56 90 57 91 58 92
REMARK H PARENT 82 45 50 56
REMARK Flexibility Score: inf
ROOT
ATOM      1  C   UNL A   1      35.419  21.400  25.600  1.00  0.00     0.275 C 
ENDROOT
BRANCH   1   2
ATOM      2  O   UNL A   1      34.735  21.960  24.490  1.00  0.00    -0.458 OA
BRANCH   2   3
ATOM      3  C   UNL A   1      33.422  22.090  24.714  1.00  0.00     0.349 C 
ATOM      4  O   UNL A   1      32.942  22.521  25.758  1.00  0.00    -0.245 OA
BRANCH   3   5
ATOM      5  C   UNL A   1      32.613  21.440  23.601  1.00  0.00     0.139 C 
ATOM      6  C   UNL A   1      31.694  22.330  23.218  1.00  0.00     0.056 C 
BRANCH   6   7
ATOM      7  C   UNL A   1      32.115  23.660  22.927  1.00  0.00     0.078 A 
ATOM      8  C   UNL A   1      31.569  25.732  23.041  1.00  0.00     0.197 A 
ATOM      9  N   UNL A   1      31.193  24.522  23.333  1.00  0.00    -0.220 NA
ATOM     10  S   UNL A   1      32.852  25.908  21.952  1.00  0.00    -0.104 S 
ATOM     11  C   UNL A   1      33.116  24.211  22.145  1.00  0.00     0.097 A 
BRANCH   8  12
ATOM     12  N   UNL A   1      31.283  26.694  23.948  1.00  0.00    -0.256 N 
BRANCH  12  13
ATOM     13  C   UNL A   1      29.969  26.243  24.487  1.00  0.00     0.230 C 
ATOM     14  C   UNL A   1      29.865  25.560  25.931  1.00  0.00     0.115 C 
ATOM     15  O   UNL A   1      28.917  26.404  23.857  1.00  0.00    -0.274 OA
ENDBRANCH  12  13
BRANCH  12  16
ATOM     16  C   UNL A   1      32.473  27.437  24.568  1.00  0.00     0.051 A 
ATOM     17  C   UNL A   1      32.498  28.847  24.497  1.00  0.00     0.027 A 
ATOM     18  C   UNL A   1      33.337  26.934  25.551  1.00  0.00     0.027 A 
ATOM     19  C   UNL A   1      33.025  29.706  25.490  1.00  0.00     0.002 A 
ATOM     20  C   UNL A   1      33.966  27.787  26.509  1.00  0.00     0.002 A 
ATOM     21  C   UNL A   1      33.759  29.166  26.520  1.00  0.00     0.000 A 
ENDBRANCH  12  16
ENDBRANCH   8  12
ENDBRANCH   6   7
BRANCH   5  22
ATOM     22  C   UNL A   1      32.390  20.129  24.334  1.00  0.00     0.107 C 
ATOM     23  N   UNL A   1      32.203  19.040  24.941  1.00  0.00    -0.192 NA
ENDBRANCH   5  22
ENDBRANCH   3   5
ENDBRANCH   2   3
ENDBRANCH   1   2
BRANCH   1  24
ATOM     24  C   UNL A   1      36.527  20.539  24.999  1.00  0.00     0.275 C 
BRANCH  24  25
ATOM     25  O   UNL A   1      37.796  21.257  24.818  1.00  0.00    -0.458 OA
BRANCH  25  26
ATOM     26  C   UNL A   1      38.856  20.955  25.634  1.00  0.00     0.338 C 
ATOM     27  O   UNL A   1      39.454  19.871  25.644  1.00  0.00    -0.246 OA
BRANCH  26  28
ATOM     28  C   UNL A   1      39.283  22.129  26.470  1.00  0.00     0.060 A 
ATOM     29  C   UNL A   1      40.326  22.092  27.404  1.00  0.00     0.016 A 
ATOM     30  C   UNL A   1      38.618  23.336  26.380  1.00  0.00     0.016 A 
ATOM     31  C   UNL A   1      40.880  23.309  27.975  1.00  0.00     0.010 A 
ATOM     32  C   UNL A   1      39.125  24.500  27.046  1.00  0.00     0.010 A 
ATOM     33  C   UNL A   1      40.407  24.609  27.658  1.00  0.00    -0.014 A 
BRANCH  33  34
ATOM     34  C   UNL A   1      41.001  26.072  28.222  1.00  0.00     0.031 A 
ATOM     35  C   UNL A   1      42.398  26.271  27.717  1.00  0.00     0.074 A 
ATOM     36  C   UNL A   1      40.594  27.134  29.070  1.00  0.00     0.049 A 
ATOM     37  N   UNL A   1      43.213  27.261  27.942  1.00  0.00    -0.248 NA
ATOM     38  C   UNL A   1      42.979  25.167  26.940  1.00  0.00     0.031 C 
ATOM     39  C   UNL A   1      39.417  27.268  29.868  1.00  0.00     0.029 A 
ATOM     40  N   UNL A   1      41.094  28.410  29.441  1.00  0.00    -0.354 N 
ATOM     41  C   UNL A   1      44.397  26.879  27.351  1.00  0.00     0.074 A 
ATOM     42  C   UNL A   1      44.247  25.512  26.921  1.00  0.00     0.031 C 
ATOM     43  C   UNL A   1      39.113  28.411  30.442  1.00  0.00     0.029 A 
ATOM     44  C   UNL A   1      40.223  29.220  30.232  1.00  0.00     0.049 A 
ATOM     45  H   UNL A   1      41.988  28.719  29.170  1.00  0.00     0.167 HD
ATOM     46  C   UNL A   1      45.489  27.632  27.109  1.00  0.00     0.034 A 
ATOM     47  C   UNL A   1      40.143  30.438  30.809  1.00  0.00     0.034 A 
ATOM     48  C   UNL A   1      45.626  28.986  27.568  1.00  0.00     0.049 A 
ATOM     49  C   UNL A   1      41.309  31.253  30.502  1.00  0.00     0.074 A 
ATOM     50  C   UNL A   1      46.709  29.828  27.424  1.00  0.00     0.029 A 
ATOM     51  N   UNL A   1      44.658  29.700  28.277  1.00  0.00    -0.354 N 
ATOM     52  N   UNL A   1      42.367  30.848  29.850  1.00  0.00    -0.248 NA
ATOM     53  C   UNL A   1      41.283  32.644  30.917  1.00  0.00     0.031 C 
ATOM     54  C   UNL A   1      46.427  31.021  28.096  1.00  0.00     0.029 A 
ATOM     55  C   UNL A   1      45.136  30.964  28.593  1.00  0.00     0.049 A 
ATOM     56  H   UNL A   1      43.767  29.357  28.517  1.00  0.00     0.167 HD
ATOM     57  C   UNL A   1      43.159  31.952  29.760  1.00  0.00     0.074 A 
ATOM     58  C   UNL A   1      42.412  33.053  30.362  1.00  0.00     0.031 C 
ATOM     59  C   UNL A   1      44.409  32.016  29.256  1.00  0.00     0.034 A 
BRANCH  46  60
ATOM     60  C   UNL A   1      46.590  26.922  26.365  1.00  0.00     0.023 A 
ATOM     61  C   UNL A   1      47.643  26.278  27.052  1.00  0.00     0.031 A 
ATOM     62  C   UNL A   1      46.703  27.077  24.978  1.00  0.00     0.131 A 
ATOM     63  C   UNL A   1      48.820  25.951  26.366  1.00  0.00     0.055 A 
ATOM     64  C   UNL A   1      47.826  26.629  24.283  1.00  0.00     0.041 A 
ATOM     65  F   UNL A   1      45.760  27.734  24.285  1.00  0.00    -0.206 F 
ATOM     66  C   UNL A   1      48.904  26.086  24.979  1.00  0.00     0.022 A 
BRANCH  63  67
ATOM     67  S   UNL A   1      50.318  25.594  27.333  1.00  0.00     0.124 S 
ATOM     68  O   UNL A   1      50.028  24.253  27.836  1.00  0.00    -0.237 OA
ATOM     69  O   UNL A   1      51.373  25.684  26.329  1.00  0.00    -0.237 OA
ATOM     70  O   UNL A   1      50.327  26.645  28.348  1.00  0.00    -0.744 OA
ENDBRANCH  63  67
ENDBRANCH  46  60
BRANCH  47  71
ATOM     71  C   UNL A   1      38.908  30.967  31.549  1.00  0.00     0.023 A 
ATOM     72  C   UNL A   1      37.817  31.507  30.836  1.00  0.00     0.031 A 
ATOM     73  C   UNL A   1      38.726  30.833  32.949  1.00  0.00     0.131 A 
ATOM     74  C   UNL A   1      36.622  31.876  31.495  1.00  0.00     0.055 A 
ATOM     75  C   UNL A   1      37.517  31.154  33.593  1.00  0.00     0.041 A 
ATOM     76  F   UNL A   1      39.697  30.303  33.712  1.00  0.00    -0.206 F 
ATOM     77  C   UNL A   1      36.456  31.681  32.866  1.00  0.00     0.022 A 
BRANCH  74  78
ATOM     78  S   UNL A   1      35.288  32.669  30.543  1.00  0.00     0.124 S 
ATOM     79  O   UNL A   1      35.873  33.966  30.223  1.00  0.00    -0.237 OA
ATOM     80  O   UNL A   1      35.122  31.745  29.426  1.00  0.00    -0.237 OA
ATOM     81  O   UNL A   1      34.170  32.710  31.486  1.00  0.00    -0.744 OA
ENDBRANCH  74  78
ENDBRANCH  47  71
BRANCH  59  82
ATOM     82  C   UNL A   1      45.025  33.358  29.413  1.00  0.00     0.023 A 
ATOM     83  C   UNL A   1      44.744  34.364  28.475  1.00  0.00     0.031 A 
ATOM     84  C   UNL A   1      46.024  33.560  30.369  1.00  0.00     0.131 A 
ATOM     85  C   UNL A   1      45.567  35.487  28.427  1.00  0.00     0.055 A 
ATOM     86  C   UNL A   1      46.767  34.733  30.383  1.00  0.00     0.041 A 
ATOM     87  F   UNL A   1      46.331  32.596  31.253  1.00  0.00    -0.206 F 
ATOM     88  C   UNL A   1      46.558  35.693  29.391  1.00  0.00     0.022 A 
BRANCH  85  89
ATOM     89  S   UNL A   1      45.457  36.548  26.965  1.00  0.00     0.124 S 
ATOM     90  O   UNL A   1      46.650  36.153  26.221  1.00  0.00    -0.237 OA
ATOM     91  O   UNL A   1      44.181  36.147  26.380  1.00  0.00    -0.237 OA
ATOM     92  O   UNL A   1      45.490  37.896  27.525  1.00  0.00    -0.744 OA
ENDBRANCH  85  89
ENDBRANCH  59  82
ENDBRANCH  33  34
ENDBRANCH  26  28
ENDBRANCH  25  26
ENDBRANCH  24  25
ENDBRANCH   1  24
TORSDOF 19
ENDMDL
MODEL 2
REMARK VINA RESULT:     -11.3      2.388      3.174
REMARK SMILES CC(=O)N(c1ccccc1)c1nc(/C=C(/C#N)C(=O)OCCOC(=O)c2ccc(-c3c4nc(c(-c5cc(S(=O)(=O)[O-])ccc5F)c5ccc([nH]5)c(-c5cc(S(=O)(=O)[O-])ccc5F)c5nc(c(-c6cc(S(=O)(=O)[O-])ccc6F)c6ccc3[nH]6)C=C5)C=C4)cc2)cs1
REMARK SMILES IDX 21 1 20 2 18 3 19 4 15 5 14 6 13 7 11 8 12 9 90 10 89 11
REMARK SMILES IDX 4 12 2 13 1 14 3 15 5 16 6 17 10 18 7 19 9 20 8 21 16 22
REMARK SMILES IDX 17 23 22 24 23 25 24 26 25 27 26 28 27 29 88 30 28 31 87 32
REMARK SMILES IDX 29 33 30 34 31 35 81 36 32 37 86 38 80 39 82 40 33 41 85 42
REMARK SMILES IDX 79 43 78 44 34 46 66 47 46 48 65 49 47 50 50 51 64 52 83 53
REMARK SMILES IDX 48 54 49 55 63 57 84 58 51 59 35 60 36 61 44 62 37 63 43 64
REMARK SMILES IDX 45 65 42 66 38 67 39 68 40 69 41 70 67 71 68 72 76 73 69 74
REMARK SMILES IDX 75 75 77 76 74 77 70 78 71 79 72 80 73 81 52 82 53 83 61 84
REMARK SMILES IDX 54 85 60 86 62 87 59 88 55 89 56 90 57 91 58 92
REMARK H PARENT 82 45 50 56
REMARK Flexibility Score: inf
ROOT
ATOM      1  C   UNL A   1      35.940  23.284  23.726  1.00  0.00     0.275 C 
ENDROOT
BRANCH   1   2
ATOM      2  O   UNL A   1      34.730  22.944  24.387  1.00  0.00    -0.458 OA
BRANCH   2   3
ATOM      3  C   UNL A   1      33.763  22.598  23.530  1.00  0.00     0.349 C 
ATOM      4  O   UNL A   1      33.729  22.946  22.353  1.00  0.00    -0.245 OA
BRANCH   3   5
ATOM      5  C   UNL A   1      32.618  21.903  24.253  1.00  0.00     0.139 C 
ATOM      6  C   UNL A   1      32.138  22.772  25.145  1.00  0.00     0.056 C 
BRANCH   6   7
ATOM      7  C   UNL A   1      31.831  24.094  24.711  1.00  0.00     0.078 A 
ATOM      8  C   UNL A   1      32.161  26.180  25.085  1.00  0.00     0.197 A 
ATOM      9  N   UNL A   1      32.467  24.976  25.469  1.00  0.00    -0.220 NA
ATOM     10  S   UNL A   1      30.833  26.356  24.052  1.00  0.00    -0.104 S 
ATOM     11  C   UNL A   1      30.881  24.639  23.863  1.00  0.00     0.097 A 
BRANCH   8  12
ATOM     12  N   UNL A   1      33.155  27.098  25.111  1.00  0.00    -0.256 N 
BRANCH  12  13
ATOM     13  C   UNL A   1      33.558  27.170  23.679  1.00  0.00     0.230 C 
ATOM     14  C   UNL A   1      33.430  28.537  22.856  1.00  0.00     0.115 C 
ATOM     15  O   UNL A   1      34.031  26.192  23.086  1.00  0.00    -0.274 OA
ENDBRANCH  12  13
BRANCH  12  16
ATOM     16  C   UNL A   1      33.113  28.132  26.244  1.00  0.00     0.051 A 
ATOM     17  C   UNL A   1      34.332  28.683  26.699  1.00  0.00     0.027 A 
ATOM     18  C   UNL A   1      32.004  28.907  26.611  1.00  0.00     0.027 A 
ATOM     19  C   UNL A   1      34.509  30.010  27.154  1.00  0.00     0.002 A 
ATOM     20  C   UNL A   1      32.150  30.215  27.168  1.00  0.00     0.002 A 
ATOM     21  C   UNL A   1      33.401  30.793  27.378  1.00  0.00     0.000 A 
ENDBRANCH  12  16
ENDBRANCH   8  12
ENDBRANCH   6   7
BRANCH   5  22
ATOM     22  C   UNL A   1      33.380  20.617  24.523  1.00  0.00     0.107 C 
ATOM     23  N   UNL A   1      34.013  19.550  24.748  1.00  0.00    -0.192 NA
ENDBRANCH   5  22
ENDBRANCH   3   5
ENDBRANCH   2   3
ENDBRANCH   1   2
BRANCH   1  24
ATOM     24  C   UNL A   1      36.916  23.656  24.839  1.00  0.00     0.275 C 
BRANCH  24  25
ATOM     25  O   UNL A   1      37.261  22.531  25.719  1.00  0.00    -0.458 OA
BRANCH  25  26
ATOM     26  C   UNL A   1      38.567  22.361  26.104  1.00  0.00     0.338 C 
ATOM     27  O   UNL A   1      39.215  21.316  25.963  1.00  0.00    -0.246 OA
BRANCH  26  28
ATOM     28  C   UNL A   1      39.169  23.627  26.645  1.00  0.00     0.060 A 
ATOM     29  C   UNL A   1      40.082  24.427  25.944  1.00  0.00     0.016 A 
ATOM     30  C   UNL A   1      38.870  24.060  27.922  1.00  0.00     0.016 A 
ATOM     31  C   UNL A   1      40.414  25.770  26.389  1.00  0.00     0.010 A 
ATOM     32  C   UNL A   1      39.307  25.347  28.378  1.00  0.00     0.010 A 
ATOM     33  C   UNL A   1      39.872  26.366  27.558  1.00  0.00    -0.014 A 
BRANCH  33  34
ATOM     34  C   UNL A   1      40.153  27.916  28.133  1.00  0.00     0.031 A 
ATOM     35  C   UNL A   1      41.623  28.204  28.090  1.00  0.00     0.074 A 
ATOM     36  C   UNL A   1      39.423  28.996  28.690  1.00  0.00     0.049 A 
ATOM     37  N   UNL A   1      42.254  29.279  28.466  1.00  0.00    -0.248 NA
ATOM     38  C   UNL A   1      42.496  27.103  27.659  1.00  0.00     0.031 C 
ATOM     39  C   UNL A   1      38.042  29.080  29.046  1.00  0.00     0.029 A 
ATOM     40  N   UNL A   1      39.691  30.337  29.073  1.00  0.00    -0.354 N 
ATOM     41  C   UNL A   1      43.588  28.965  28.332  1.00  0.00     0.074 A 
ATOM     42  C   UNL A   1      43.675  27.561  28.017  1.00  0.00     0.031 C 
ATOM     43  C   UNL A   1      37.494  30.230  29.372  1.00  0.00     0.029 A 
ATOM     44  C   UNL A   1      38.558  31.120  29.453  1.00  0.00     0.049 A 
ATOM     45  H   UNL A   1      40.603  30.706  29.075  1.00  0.00     0.167 HD
ATOM     46  C   UNL A   1      44.650  29.795  28.382  1.00  0.00     0.034 A 
ATOM     47  C   UNL A   1      38.215  32.365  29.846  1.00  0.00     0.034 A 
ATOM     48  C   UNL A   1      44.542  31.187  28.721  1.00  0.00     0.049 A 
ATOM     49  C   UNL A   1      39.365  33.259  29.852  1.00  0.00     0.074 A 
ATOM     50  C   UNL A   1      45.557  32.112  28.851  1.00  0.00     0.029 A 
ATOM     51  N   UNL A   1      43.351  31.859  29.001  1.00  0.00    -0.354 N 
ATOM     52  N   UNL A   1      40.601  32.906  29.622  1.00  0.00    -0.248 NA
ATOM     53  C   UNL A   1      39.115  34.669  30.093  1.00  0.00     0.031 C 
ATOM     54  C   UNL A   1      44.995  33.321  29.271  1.00  0.00     0.029 A 
ATOM     55  C   UNL A   1      43.618  33.182  29.325  1.00  0.00     0.049 A 
ATOM     56  H   UNL A   1      42.454  31.455  28.973  1.00  0.00     0.167 HD
ATOM     57  C   UNL A   1      41.308  34.068  29.683  1.00  0.00     0.074 A 
ATOM     58  C   UNL A   1      40.337  35.137  29.895  1.00  0.00     0.031 C 
ATOM     59  C   UNL A   1      42.648  34.209  29.608  1.00  0.00     0.034 A 
BRANCH  46  60
ATOM     60  C   UNL A   1      45.977  29.136  28.111  1.00  0.00     0.023 A 
ATOM     61  C   UNL A   1      46.394  28.840  26.795  1.00  0.00     0.031 A 
ATOM     62  C   UNL A   1      46.722  28.609  29.174  1.00  0.00     0.131 A 
ATOM     63  C   UNL A   1      47.431  27.921  26.586  1.00  0.00     0.055 A 
ATOM     64  C   UNL A   1      47.835  27.800  28.954  1.00  0.00     0.041 A 
ATOM     65  F   UNL A   1      46.336  28.811  30.443  1.00  0.00    -0.206 F 
ATOM     66  C   UNL A   1      48.180  27.429  27.656  1.00  0.00     0.022 A 
BRANCH  63  67
ATOM     67  S   UNL A   1      47.619  27.183  24.935  1.00  0.00     0.124 S 
ATOM     68  O   UNL A   1      48.659  28.030  24.353  1.00  0.00    -0.237 OA
ATOM     69  O   UNL A   1      48.010  25.812  25.242  1.00  0.00    -0.237 OA
ATOM     70  O   UNL A   1      46.293  27.337  24.339  1.00  0.00    -0.744 OA
ENDBRANCH  63  67
ENDBRANCH  46  60
BRANCH  47  71
ATOM     71  C   UNL A   1      36.774  32.832  30.088  1.00  0.00     0.023 A 
ATOM     72  C   UNL A   1      36.294  33.033  31.399  1.00  0.00     0.031 A 
ATOM     73  C   UNL A   1      35.895  33.209  29.042  1.00  0.00     0.131 A 
ATOM     74  C   UNL A   1      35.014  33.588  31.632  1.00  0.00     0.055 A 
ATOM     75  C   UNL A   1      34.643  33.806  29.278  1.00  0.00     0.041 A 
ATOM     76  F   UNL A   1      36.273  33.081  27.759  1.00  0.00    -0.206 F 
ATOM     77  C   UNL A   1      34.195  33.998  30.580  1.00  0.00     0.022 A 
BRANCH  74  78
ATOM     78  S   UNL A   1      34.400  33.725  33.340  1.00  0.00     0.124 S 
ATOM     79  O   UNL A   1      34.359  35.171  33.532  1.00  0.00    -0.237 OA
ATOM     80  O   UNL A   1      33.109  33.052  33.254  1.00  0.00    -0.237 OA
ATOM     81  O   UNL A   1      35.415  33.025  34.127  1.00  0.00    -0.744 OA
ENDBRANCH  74  78
ENDBRANCH  47  71
BRANCH  59  82
ATOM     82  C   UNL A   1      43.091  35.610  29.819  1.00  0.00     0.023 A 
ATOM     83  C   UNL A   1      43.290  36.449  28.711  1.00  0.00     0.031 A 
ATOM     84  C   UNL A   1      43.496  36.030  31.089  1.00  0.00     0.131 A 
ATOM     85  C   UNL A   1      44.018  37.626  28.880  1.00  0.00     0.055 A 
ATOM     86  C   UNL A   1      44.123  37.257  31.265  1.00  0.00     0.041 A 
ATOM     87  F   UNL A   1      43.347  35.227  32.155  1.00  0.00    -0.206 F 
ATOM     88  C   UNL A   1      44.411  38.050  30.153  1.00  0.00     0.022 A 
BRANCH  85  89
ATOM     89  S   UNL A   1      44.620  38.464  27.394  1.00  0.00     0.124 S 
ATOM     90  O   UNL A   1      45.354  39.589  27.964  1.00  0.00    -0.237 OA
ATOM     91  O   UNL A   1      45.433  37.432  26.758  1.00  0.00    -0.237 OA
ATOM     92  O   UNL A   1      43.392  38.816  26.686  1.00  0.00    -0.744 OA
ENDBRANCH  85  89
ENDBRANCH  59  82
ENDBRANCH  33  34
ENDBRANCH  26  28
ENDBRANCH  25  26
ENDBRANCH  24  25
ENDBRANCH   1  24
TORSDOF 19
ENDMDL
MODEL 3
REMARK VINA RESULT:     -11.3      2.317      2.962
REMARK SMILES CC(=O)N(c1ccccc1)c1nc(/C=C(/C#N)C(=O)OCCOC(=O)c2ccc(-c3c4nc(c(-c5cc(S(=O)(=O)[O-])ccc5F)c5ccc([nH]5)c(-c5cc(S(=O)(=O)[O-])ccc5F)c5nc(c(-c6cc(S(=O)(=O)[O-])ccc6F)c6ccc3[nH]6)C=C5)C=C4)cc2)cs1
REMARK SMILES IDX 21 1 20 2 18 3 19 4 15 5 14 6 13 7 11 8 12 9 90 10 89 11
REMARK SMILES IDX 4 12 2 13 1 14 3 15 5 16 6 17 10 18 7 19 9 20 8 21 16 22
REMARK SMILES IDX 17 23 22 24 23 25 24 26 25 27 26 28 27 29 88 30 28 31 87 32
REMARK SMILES IDX 29 33 30 34 31 35 81 36 32 37 86 38 80 39 82 40 33 41 85 42
REMARK SMILES IDX 79 43 78 44 34 46 66 47 46 48 65 49 47 50 50 51 64 52 83 53
REMARK SMILES IDX 48 54 49 55 63 57 84 58 51 59 35 60 36 61 44 62 37 63 43 64
REMARK SMILES IDX 45 65 42 66 38 67 39 68 40 69 41 70 67 71 68 72 76 73 69 74
REMARK SMILES IDX 75 75 77 76 74 77 70 78 71 79 72 80 73 81 52 82 53 83 61 84
REMARK SMILES IDX 54 85 60 86 62 87 59 88 55 89 56 90 57 91 58 92
REMARK H PARENT 82 45 50 56
REMARK Flexibility Score: inf
ROOT
ATOM      1  C   UNL A   1      35.802  23.451  23.892  1.00  0.00     0.275 C 
ENDROOT
BRANCH   1   2
ATOM      2  O   UNL A   1      34.644  22.914  24.512  1.00  0.00    -0.458 OA
BRANCH   2   3
ATOM      3  C   UNL A   1      33.971  23.832  25.215  1.00  0.00     0.349 C 
ATOM      4  O   UNL A   1      34.476  24.852  25.675  1.00  0.00    -0.245 OA
BRANCH   3   5
ATOM      5  C   UNL A   1      32.568  23.345  25.545  1.00  0.00     0.139 C 
ATOM      6  C   UNL A   1      31.746  24.384  25.380  1.00  0.00     0.056 C 
BRANCH   6   7
ATOM      7  C   UNL A   1      31.830  25.132  24.170  1.00  0.00     0.078 A 
ATOM      8  C   UNL A   1      31.264  26.961  23.201  1.00  0.00     0.197 A 
ATOM      9  N   UNL A   1      31.208  26.294  24.316  1.00  0.00    -0.220 NA
ATOM     10  S   UNL A   1      31.730  26.117  21.810  1.00  0.00    -0.104 S 
ATOM     11  C   UNL A   1      32.196  24.833  22.868  1.00  0.00     0.097 A 
BRANCH   8  12
ATOM     12  N   UNL A   1      31.437  28.299  23.299  1.00  0.00    -0.256 N 
BRANCH  12  13
ATOM     13  C   UNL A   1      30.251  28.827  22.570  1.00  0.00     0.230 C 
ATOM     14  C   UNL A   1      28.766  28.495  23.068  1.00  0.00     0.115 C 
ATOM     15  O   UNL A   1      30.368  29.560  21.580  1.00  0.00    -0.274 OA
ENDBRANCH  12  13
BRANCH  12  16
ATOM     16  C   UNL A   1      32.243  28.805  24.502  1.00  0.00     0.051 A 
ATOM     17  C   UNL A   1      31.543  29.191  25.667  1.00  0.00     0.027 A 
ATOM     18  C   UNL A   1      33.600  28.554  24.751  1.00  0.00     0.027 A 
ATOM     19  C   UNL A   1      32.006  29.018  26.993  1.00  0.00     0.002 A 
ATOM     20  C   UNL A   1      34.120  28.472  26.079  1.00  0.00     0.002 A 
ATOM     21  C   UNL A   1      33.311  28.639  27.202  1.00  0.00     0.000 A 
ENDBRANCH  12  16
ENDBRANCH   8  12
ENDBRANCH   6   7
BRANCH   5  22
ATOM     22  C   UNL A   1      32.956  22.662  26.845  1.00  0.00     0.107 C 
ATOM     23  N   UNL A   1      33.279  22.097  27.925  1.00  0.00    -0.192 NA
ENDBRANCH   5  22
ENDBRANCH   3   5
ENDBRANCH   2   3
ENDBRANCH   1   2
BRANCH   1  24
ATOM     24  C   UNL A   1      36.949  22.540  24.323  1.00  0.00     0.275 C 
BRANCH  24  25
ATOM     25  O   UNL A   1      37.336  22.708  25.731  1.00  0.00    -0.458 OA
BRANCH  25  26
ATOM     26  C   UNL A   1      38.647  22.522  26.089  1.00  0.00     0.338 C 
ATOM     27  O   UNL A   1      39.282  21.472  25.927  1.00  0.00    -0.246 OA
BRANCH  26  28
ATOM     28  C   UNL A   1      39.273  23.777  26.630  1.00  0.00     0.060 A 
ATOM     29  C   UNL A   1      40.063  24.652  25.873  1.00  0.00     0.016 A 
ATOM     30  C   UNL A   1      39.123  24.122  27.959  1.00  0.00     0.016 A 
ATOM     31  C   UNL A   1      40.405  25.979  26.356  1.00  0.00     0.010 A 
ATOM     32  C   UNL A   1      39.573  25.397  28.437  1.00  0.00     0.010 A 
ATOM     33  C   UNL A   1      39.997  26.484  27.619  1.00  0.00    -0.014 A 
BRANCH  33  34
ATOM     34  C   UNL A   1      40.298  28.007  28.251  1.00  0.00     0.031 A 
ATOM     35  C   UNL A   1      41.752  28.335  28.088  1.00  0.00     0.074 A 
ATOM     36  C   UNL A   1      39.602  29.036  28.933  1.00  0.00     0.049 A 
ATOM     37  N   UNL A   1      42.393  29.405  28.464  1.00  0.00    -0.248 NA
ATOM     38  C   UNL A   1      42.603  27.282  27.518  1.00  0.00     0.031 C 
ATOM     39  C   UNL A   1      38.259  29.066  29.420  1.00  0.00     0.029 A 
ATOM     40  N   UNL A   1      39.876  30.362  29.363  1.00  0.00    -0.354 N 
ATOM     41  C   UNL A   1      43.715  29.132  28.190  1.00  0.00     0.074 A 
ATOM     42  C   UNL A   1      43.801  27.750  27.791  1.00  0.00     0.031 C 
ATOM     43  C   UNL A   1      37.720  30.182  29.858  1.00  0.00     0.029 A 
ATOM     44  C   UNL A   1      38.768  31.094  29.890  1.00  0.00     0.049 A 
ATOM     45  H   UNL A   1      40.777  30.753  29.302  1.00  0.00     0.167 HD
ATOM     46  C   UNL A   1      44.759  29.985  28.188  1.00  0.00     0.034 A 
ATOM     47  C   UNL A   1      38.438  32.307  30.382  1.00  0.00     0.034 A 
ATOM     48  C   UNL A   1      44.655  31.354  28.612  1.00  0.00     0.049 A 
ATOM     49  C   UNL A   1      39.565  33.229  30.331  1.00  0.00     0.074 A 
ATOM     50  C   UNL A   1      45.658  32.297  28.699  1.00  0.00     0.029 A 
ATOM     51  N   UNL A   1      43.482  31.980  29.039  1.00  0.00    -0.354 N 
ATOM     52  N   UNL A   1      40.781  32.920  29.969  1.00  0.00    -0.248 NA
ATOM     53  C   UNL A   1      39.310  34.617  30.673  1.00  0.00     0.031 C 
ATOM     54  C   UNL A   1      45.113  33.467  29.237  1.00  0.00     0.029 A 
ATOM     55  C   UNL A   1      43.750  33.289  29.410  1.00  0.00     0.049 A 
ATOM     56  H   UNL A   1      42.595  31.554  29.071  1.00  0.00     0.167 HD
ATOM     57  C   UNL A   1      41.467  34.095  30.029  1.00  0.00     0.074 A 
ATOM     58  C   UNL A   1      40.498  35.126  30.389  1.00  0.00     0.031 C 
ATOM     59  C   UNL A   1      42.790  34.275  29.838  1.00  0.00     0.034 A 
BRANCH  46  60
ATOM     60  C   UNL A   1      46.068  29.377  27.759  1.00  0.00     0.023 A 
ATOM     61  C   UNL A   1      46.372  29.176  26.394  1.00  0.00     0.031 A 
ATOM     62  C   UNL A   1      46.913  28.800  28.716  1.00  0.00     0.131 A 
ATOM     63  C   UNL A   1      47.402  28.297  26.035  1.00  0.00     0.055 A 
ATOM     64  C   UNL A   1      48.017  28.032  28.346  1.00  0.00     0.041 A 
ATOM     65  F   UNL A   1      46.638  28.910  30.025  1.00  0.00    -0.206 F 
ATOM     66  C   UNL A   1      48.252  27.754  27.001  1.00  0.00     0.022 A 
BRANCH  63  67
ATOM     67  S   UNL A   1      47.456  27.671  24.329  1.00  0.00     0.124 S 
ATOM     68  O   UNL A   1      48.892  27.688  24.058  1.00  0.00    -0.237 OA
ATOM     69  O   UNL A   1      46.846  26.352  24.455  1.00  0.00    -0.237 OA
ATOM     70  O   UNL A   1      46.675  28.653  23.581  1.00  0.00    -0.744 OA
ENDBRANCH  63  67
ENDBRANCH  46  60
BRANCH  47  71
ATOM     71  C   UNL A   1      37.017  32.723  30.782  1.00  0.00     0.023 A 
ATOM     72  C   UNL A   1      36.142  33.297  29.837  1.00  0.00     0.031 A 
ATOM     73  C   UNL A   1      36.458  32.446  32.055  1.00  0.00     0.131 A 
ATOM     74  C   UNL A   1      34.791  33.563  30.157  1.00  0.00     0.055 A 
ATOM     75  C   UNL A   1      35.101  32.666  32.353  1.00  0.00     0.041 A 
ATOM     76  F   UNL A   1      37.204  31.874  33.014  1.00  0.00    -0.206 F 
ATOM     77  C   UNL A   1      34.258  33.229  31.402  1.00  0.00     0.022 A 
BRANCH  74  78
ATOM     78  S   UNL A   1      33.735  34.405  28.937  1.00  0.00     0.124 S 
ATOM     79  O   UNL A   1      33.438  33.327  27.999  1.00  0.00    -0.237 OA
ATOM     80  O   UNL A   1      32.622  34.863  29.762  1.00  0.00    -0.237 OA
ATOM     81  O   UNL A   1      34.594  35.464  28.410  1.00  0.00    -0.744 OA
ENDBRANCH  74  78
ENDBRANCH  47  71
BRANCH  59  82
ATOM     82  C   UNL A   1      43.222  35.673  30.085  1.00  0.00     0.023 A 
ATOM     83  C   UNL A   1      43.129  36.621  29.053  1.00  0.00     0.031 A 
ATOM     84  C   UNL A   1      43.898  35.997  31.265  1.00  0.00     0.131 A 
ATOM     85  C   UNL A   1      43.835  37.816  29.172  1.00  0.00     0.055 A 
ATOM     86  C   UNL A   1      44.506  37.236  31.419  1.00  0.00     0.041 A 
ATOM     87  F   UNL A   1      44.029  35.092  32.249  1.00  0.00    -0.206 F 
ATOM     88  C   UNL A   1      44.499  38.143  30.358  1.00  0.00     0.022 A 
BRANCH  85  89
ATOM     89  S   UNL A   1      44.044  38.821  27.681  1.00  0.00     0.124 S 
ATOM     90  O   UNL A   1      43.361  38.009  26.678  1.00  0.00    -0.237 OA
ATOM     91  O   UNL A   1      43.381  40.069  28.047  1.00  0.00    -0.237 OA
ATOM     92  O   UNL A   1      45.494  38.905  27.533  1.00  0.00    -0.744 OA
ENDBRANCH  85  89
ENDBRANCH  59  82
ENDBRANCH  33  34
ENDBRANCH  26  28
ENDBRANCH  25  26
ENDBRANCH  24  25
ENDBRANCH   1  24
TORSDOF 19
ENDMDL
