MODEL 1
REMARK VINA RESULT:     -11.3      0.000      0.000
REMARK SMILES C[C@@](NC(=O)C[C@@H]1CCC[NH2+]C1)(C(=O)OCCOC(=O)c1ccc(-c2c3nc(c(-c4cc(S(=O)(=O)[O-])ccc4F)c4ccc([nH]4)c(-c4cc(S(=O)(=O)[O-])ccc4F)c4nc(c(-c5cc(S(=O)(=O)[O-])ccc5F)c5ccc2[nH]5)C=C4)C=C3)cc1)C(F)(F)F
REMARK SMILES IDX 16 1 15 2 13 3 14 4 2 5 1 6 3 7 4 8 5 10 6 11 7 12 8 13
REMARK SMILES IDX 12 14 9 15 11 16 10 17 84 20 85 21 86 22 87 23 17 24 18 25
REMARK SMILES IDX 19 26 20 27 21 28 22 29 83 30 23 31 82 32 24 33 25 34 26 35
REMARK SMILES IDX 76 36 27 37 81 38 75 39 77 40 28 41 80 42 74 43 73 44 29 46
REMARK SMILES IDX 61 47 41 48 60 49 42 50 45 51 59 52 78 53 43 54 44 55 58 57
REMARK SMILES IDX 79 58 46 59 30 60 31 61 39 62 32 63 38 64 40 65 37 66 33 67
REMARK SMILES IDX 34 68 35 69 36 70 62 71 63 72 71 73 64 74 70 75 72 76 69 77
REMARK SMILES IDX 65 78 66 79 67 80 68 81 47 82 48 83 56 84 49 85 55 86 57 87
REMARK SMILES IDX 54 88 50 89 51 90 52 91 53 92
REMARK H PARENT 3 9 11 18 11 19 77 45 45 56
REMARK Flexibility Score: inf
ROOT
ATOM      1  C   UNL A   1      35.396  21.864  26.068  1.00  0.00     0.274 C 
ENDROOT
BRANCH   1   2
ATOM      2  O   UNL A   1      34.216  22.529  25.546  1.00  0.00    -0.460 OA
BRANCH   2   3
ATOM      3  C   UNL A   1      34.376  23.795  25.048  1.00  0.00     0.341 C 
ATOM      4  O   UNL A   1      35.101  24.627  25.580  1.00  0.00    -0.249 OA
BRANCH   3   5
ATOM      5  C   UNL A   1      33.446  24.104  23.861  1.00  0.00     0.231 C 
ATOM      6  C   UNL A   1      31.944  23.922  24.169  1.00  0.00     0.058 C 
BRANCH   5   7
ATOM      7  N   UNL A   1      33.667  25.453  23.219  1.00  0.00    -0.333 N 
ATOM      8  C   UNL A   1      33.416  26.752  23.496  1.00  0.00     0.221 C 
ATOM      9  H   UNL A   1      34.124  25.361  22.352  1.00  0.00     0.164 HD
ATOM     10  O   UNL A   1      33.704  27.559  22.605  1.00  0.00    -0.275 OA
BRANCH   8  11
ATOM     11  C   UNL A   1      32.898  27.252  24.826  1.00  0.00     0.109 C 
BRANCH  11  12
ATOM     12  C   UNL A   1      31.460  27.798  24.938  1.00  0.00     0.054 C 
ATOM     13  C   UNL A   1      30.386  27.103  24.100  1.00  0.00     0.016 C 
ATOM     14  C   UNL A   1      31.377  29.311  24.669  1.00  0.00     0.264 C 
ATOM     15  C   UNL A   1      30.456  27.476  22.625  1.00  0.00     0.062 C 
ATOM     16  N   UNL A   1      31.501  29.630  23.251  1.00  0.00    -0.346 N 
ATOM     17  C   UNL A   1      30.455  28.989  22.454  1.00  0.00     0.260 C 
ATOM     18  H   UNL A   1      31.432  30.641  23.133  1.00  0.00     0.346 HD
ATOM     19  H   UNL A   1      32.403  29.282  22.926  1.00  0.00     0.346 HD
ENDBRANCH  11  12
ENDBRANCH   8  11
ENDBRANCH   5   7
BRANCH   5  20
ATOM     20  C   UNL A   1      33.770  23.022  22.796  1.00  0.00     0.422 C 
ATOM     21  F   UNL A   1      33.275  21.812  23.123  1.00  0.00    -0.168 F 
ATOM     22  F   UNL A   1      33.182  23.364  21.614  1.00  0.00    -0.168 F 
ATOM     23  F   UNL A   1      35.085  22.885  22.539  1.00  0.00    -0.168 F 
ENDBRANCH   5  20
ENDBRANCH   3   5
ENDBRANCH   2   3
ENDBRANCH   1   2
BRANCH   1  24
ATOM     24  C   UNL A   1      36.318  21.323  24.976  1.00  0.00     0.275 C 
BRANCH  24  25
ATOM     25  O   UNL A   1      37.514  22.104  24.928  1.00  0.00    -0.458 OA
BRANCH  25  26
ATOM     26  C   UNL A   1      38.545  21.559  25.601  1.00  0.00     0.338 C 
ATOM     27  O   UNL A   1      39.081  20.475  25.398  1.00  0.00    -0.246 OA
BRANCH  26  28
ATOM     28  C   UNL A   1      39.111  22.587  26.464  1.00  0.00     0.060 A 
ATOM     29  C   UNL A   1      38.690  23.892  26.229  1.00  0.00     0.016 A 
ATOM     30  C   UNL A   1      40.114  22.310  27.382  1.00  0.00     0.016 A 
ATOM     31  C   UNL A   1      39.351  24.961  26.805  1.00  0.00     0.010 A 
ATOM     32  C   UNL A   1      40.736  23.382  28.021  1.00  0.00     0.010 A 
ATOM     33  C   UNL A   1      40.394  24.711  27.693  1.00  0.00    -0.014 A 
BRANCH  33  34
ATOM     34  C   UNL A   1      41.252  25.819  28.162  1.00  0.00     0.031 A 
ATOM     35  C   UNL A   1      40.614  26.880  29.005  1.00  0.00     0.074 A 
ATOM     36  C   UNL A   1      42.556  25.875  27.848  1.00  0.00     0.049 A 
ATOM     37  N   UNL A   1      40.979  28.114  29.207  1.00  0.00    -0.248 NA
ATOM     38  C   UNL A   1      39.362  26.497  29.678  1.00  0.00     0.031 C 
ATOM     39  C   UNL A   1      43.315  24.827  27.163  1.00  0.00     0.029 A 
ATOM     40  N   UNL A   1      43.470  26.877  28.047  1.00  0.00    -0.354 N 
ATOM     41  C   UNL A   1      39.956  28.687  29.956  1.00  0.00     0.074 A 
ATOM     42  C   UNL A   1      38.966  27.655  30.181  1.00  0.00     0.031 C 
ATOM     43  C   UNL A   1      44.575  25.251  26.980  1.00  0.00     0.029 A 
ATOM     44  C   UNL A   1      44.676  26.631  27.437  1.00  0.00     0.049 A 
ATOM     45  H   UNL A   1      43.280  27.688  28.572  1.00  0.00     0.167 HD
ATOM     46  C   UNL A   1      39.859  29.971  30.378  1.00  0.00     0.034 A 
ATOM     47  C   UNL A   1      45.708  27.463  27.195  1.00  0.00     0.034 A 
ATOM     48  C   UNL A   1      40.903  30.940  30.151  1.00  0.00     0.049 A 
ATOM     49  C   UNL A   1      45.574  28.898  27.630  1.00  0.00     0.074 A 
ATOM     50  C   UNL A   1      40.939  32.281  30.486  1.00  0.00     0.029 A 
ATOM     51  N   UNL A   1      42.119  30.652  29.534  1.00  0.00    -0.354 N 
ATOM     52  N   UNL A   1      44.553  29.493  28.208  1.00  0.00    -0.248 NA
ATOM     53  C   UNL A   1      46.718  29.777  27.366  1.00  0.00     0.031 C 
ATOM     54  C   UNL A   1      42.155  32.811  30.033  1.00  0.00     0.029 A 
ATOM     55  C   UNL A   1      42.907  31.788  29.474  1.00  0.00     0.049 A 
ATOM     56  H   UNL A   1      42.379  29.767  29.191  1.00  0.00     0.167 HD
ATOM     57  C   UNL A   1      44.940  30.816  28.393  1.00  0.00     0.074 A 
ATOM     58  C   UNL A   1      46.289  30.925  27.872  1.00  0.00     0.031 C 
ATOM     59  C   UNL A   1      44.249  31.849  28.942  1.00  0.00     0.034 A 
BRANCH  46  60
ATOM     60  C   UNL A   1      38.554  30.392  31.014  1.00  0.00     0.023 A 
ATOM     61  C   UNL A   1      37.509  30.977  30.276  1.00  0.00     0.031 A 
ATOM     62  C   UNL A   1      38.392  30.292  32.408  1.00  0.00     0.131 A 
ATOM     63  C   UNL A   1      36.399  31.523  30.941  1.00  0.00     0.055 A 
ATOM     64  C   UNL A   1      37.245  30.757  33.056  1.00  0.00     0.041 A 
ATOM     65  F   UNL A   1      39.364  29.772  33.175  1.00  0.00    -0.206 F 
ATOM     66  C   UNL A   1      36.248  31.396  32.324  1.00  0.00     0.022 A 
BRANCH  63  67
ATOM     67  S   UNL A   1      35.244  32.559  29.999  1.00  0.00     0.124 S 
ATOM     68  O   UNL A   1      34.827  31.644  28.939  1.00  0.00    -0.237 OA
ATOM     69  O   UNL A   1      34.232  32.887  30.995  1.00  0.00    -0.237 OA
ATOM     70  O   UNL A   1      36.071  33.679  29.555  1.00  0.00    -0.744 OA
ENDBRANCH  63  67
ENDBRANCH  46  60
BRANCH  47  71
ATOM     71  C   UNL A   1      46.889  26.981  26.426  1.00  0.00     0.023 A 
ATOM     72  C   UNL A   1      47.995  26.414  27.074  1.00  0.00     0.031 A 
ATOM     73  C   UNL A   1      46.921  27.071  25.021  1.00  0.00     0.131 A 
ATOM     74  C   UNL A   1      49.093  25.970  26.320  1.00  0.00     0.055 A 
ATOM     75  C   UNL A   1      47.994  26.587  24.273  1.00  0.00     0.041 A 
ATOM     76  F   UNL A   1      45.886  27.604  24.350  1.00  0.00    -0.206 F 
ATOM     77  C   UNL A   1      49.094  26.038  24.924  1.00  0.00     0.022 A 
BRANCH  74  78
ATOM     78  S   UNL A   1      50.552  25.339  27.195  1.00  0.00     0.124 S 
ATOM     79  O   UNL A   1      49.987  24.225  27.948  1.00  0.00    -0.237 OA
ATOM     80  O   UNL A   1      51.438  24.985  26.092  1.00  0.00    -0.237 OA
ATOM     81  O   UNL A   1      50.985  26.480  28.000  1.00  0.00    -0.744 OA
ENDBRANCH  74  78
ENDBRANCH  47  71
BRANCH  59  82
ATOM     82  C   UNL A   1      44.981  33.159  29.052  1.00  0.00     0.023 A 
ATOM     83  C   UNL A   1      44.798  34.189  28.114  1.00  0.00     0.031 A 
ATOM     84  C   UNL A   1      45.878  33.370  30.114  1.00  0.00     0.131 A 
ATOM     85  C   UNL A   1      45.542  35.371  28.231  1.00  0.00     0.055 A 
ATOM     86  C   UNL A   1      46.578  34.566  30.251  1.00  0.00     0.041 A 
ATOM     87  F   UNL A   1      46.083  32.412  31.032  1.00  0.00    -0.206 F 
ATOM     88  C   UNL A   1      46.420  35.572  29.301  1.00  0.00     0.022 A 
BRANCH  85  89
ATOM     89  S   UNL A   1      45.403  36.620  26.925  1.00  0.00     0.124 S 
ATOM     90  O   UNL A   1      43.997  36.511  26.550  1.00  0.00    -0.237 OA
ATOM     91  O   UNL A   1      45.785  37.845  27.621  1.00  0.00    -0.237 OA
ATOM     92  O   UNL A   1      46.351  36.163  25.911  1.00  0.00    -0.744 OA
ENDBRANCH  85  89
ENDBRANCH  59  82
ENDBRANCH  33  34
ENDBRANCH  26  28
ENDBRANCH  25  26
ENDBRANCH  24  25
ENDBRANCH   1  24
TORSDOF 18
ENDMDL
MODEL 2
REMARK VINA RESULT:     -11.3      3.036      8.725
REMARK SMILES C[C@@](NC(=O)C[C@@H]1CCC[NH2+]C1)(C(=O)OCCOC(=O)c1ccc(-c2c3nc(c(-c4cc(S(=O)(=O)[O-])ccc4F)c4ccc([nH]4)c(-c4cc(S(=O)(=O)[O-])ccc4F)c4nc(c(-c5cc(S(=O)(=O)[O-])ccc5F)c5ccc2[nH]5)C=C4)C=C3)cc1)C(F)(F)F
REMARK SMILES IDX 16 1 15 2 13 3 14 4 2 5 1 6 3 7 4 8 5 10 6 11 7 12 8 13
REMARK SMILES IDX 12 14 9 15 11 16 10 17 84 20 85 21 86 22 87 23 17 24 18 25
REMARK SMILES IDX 19 26 20 27 21 28 22 29 83 30 23 31 82 32 24 33 25 34 26 35
REMARK SMILES IDX 76 36 27 37 81 38 75 39 77 40 28 41 80 42 74 43 73 44 29 46
REMARK SMILES IDX 61 47 41 48 60 49 42 50 45 51 59 52 78 53 43 54 44 55 58 57
REMARK SMILES IDX 79 58 46 59 30 60 31 61 39 62 32 63 38 64 40 65 37 66 33 67
REMARK SMILES IDX 34 68 35 69 36 70 62 71 63 72 71 73 64 74 70 75 72 76 69 77
REMARK SMILES IDX 65 78 66 79 67 80 68 81 47 82 48 83 56 84 49 85 55 86 57 87
REMARK SMILES IDX 54 88 50 89 51 90 52 91 53 92
REMARK H PARENT 3 9 11 18 11 19 77 45 45 56
REMARK Flexibility Score: inf
ROOT
ATOM      1  C   UNL A   1      36.970  20.248  24.935  1.00  0.00     0.274 C 
ENDROOT
BRANCH   1   2
ATOM      2  O   UNL A   1      36.751  21.682  24.980  1.00  0.00    -0.460 OA
BRANCH   2   3
ATOM      3  C   UNL A   1      35.705  22.136  25.739  1.00  0.00     0.341 C 
ATOM      4  O   UNL A   1      35.598  21.884  26.933  1.00  0.00    -0.249 OA
BRANCH   3   5
ATOM      5  C   UNL A   1      34.620  22.850  24.913  1.00  0.00     0.231 C 
ATOM      6  C   UNL A   1      34.935  22.952  23.406  1.00  0.00     0.058 C 
BRANCH   5   7
ATOM      7  N   UNL A   1      33.223  22.304  25.099  1.00  0.00    -0.333 N 
ATOM      8  C   UNL A   1      32.565  21.140  24.903  1.00  0.00     0.221 C 
ATOM      9  H   UNL A   1      32.622  22.991  25.467  1.00  0.00     0.164 HD
ATOM     10  O   UNL A   1      31.348  21.166  25.119  1.00  0.00    -0.275 OA
BRANCH   8  11
ATOM     11  C   UNL A   1      33.235  19.837  24.528  1.00  0.00     0.109 C 
BRANCH  11  12
ATOM     12  C   UNL A   1      32.386  18.572  24.294  1.00  0.00     0.054 C 
ATOM     13  C   UNL A   1      32.410  17.507  25.391  1.00  0.00     0.016 C 
ATOM     14  C   UNL A   1      32.697  17.888  22.951  1.00  0.00     0.264 C 
ATOM     15  C   UNL A   1      33.696  16.691  25.394  1.00  0.00     0.062 C 
ATOM     16  N   UNL A   1      33.962  17.162  22.979  1.00  0.00    -0.346 N 
ATOM     17  C   UNL A   1      33.973  16.122  24.008  1.00  0.00     0.260 C 
ATOM     18  H   UNL A   1      34.111  16.726  22.068  1.00  0.00     0.346 HD
ATOM     19  H   UNL A   1      34.704  17.828  23.194  1.00  0.00     0.346 HD
ENDBRANCH  11  12
ENDBRANCH   8  11
ENDBRANCH   5   7
BRANCH   5  20
ATOM     20  C   UNL A   1      34.618  24.317  25.423  1.00  0.00     0.422 C 
ATOM     21  F   UNL A   1      33.851  24.481  26.519  1.00  0.00    -0.168 F 
ATOM     22  F   UNL A   1      35.884  24.666  25.791  1.00  0.00    -0.168 F 
ATOM     23  F   UNL A   1      34.231  25.216  24.498  1.00  0.00    -0.168 F 
ENDBRANCH   5  20
ENDBRANCH   3   5
ENDBRANCH   2   3
ENDBRANCH   1   2
BRANCH   1  24
ATOM     24  C   UNL A   1      38.417  19.847  25.213  1.00  0.00     0.275 C 
BRANCH  24  25
ATOM     25  O   UNL A   1      39.207  21.018  25.425  1.00  0.00    -0.458 OA
BRANCH  25  26
ATOM     26  C   UNL A   1      40.013  20.940  26.501  1.00  0.00     0.338 C 
ATOM     27  O   UNL A   1      40.666  19.973  26.878  1.00  0.00    -0.246 OA
BRANCH  26  28
ATOM     28  C   UNL A   1      40.202  22.289  27.019  1.00  0.00     0.060 A 
ATOM     29  C   UNL A   1      39.392  23.280  26.472  1.00  0.00     0.016 A 
ATOM     30  C   UNL A   1      41.220  22.602  27.909  1.00  0.00     0.016 A 
ATOM     31  C   UNL A   1      39.665  24.616  26.698  1.00  0.00     0.010 A 
ATOM     32  C   UNL A   1      41.452  23.946  28.196  1.00  0.00     0.010 A 
ATOM     33  C   UNL A   1      40.712  24.959  27.548  1.00  0.00    -0.014 A 
BRANCH  33  34
ATOM     34  C   UNL A   1      41.161  26.363  27.647  1.00  0.00     0.031 A 
ATOM     35  C   UNL A   1      42.500  26.705  27.069  1.00  0.00     0.074 A 
ATOM     36  C   UNL A   1      40.399  27.302  28.232  1.00  0.00     0.049 A 
ATOM     37  N   UNL A   1      43.300  27.693  27.350  1.00  0.00    -0.248 NA
ATOM     38  C   UNL A   1      43.020  25.767  26.060  1.00  0.00     0.031 C 
ATOM     39  C   UNL A   1      39.022  27.117  28.694  1.00  0.00     0.029 A 
ATOM     40  N   UNL A   1      40.692  28.599  28.559  1.00  0.00    -0.354 N 
ATOM     41  C   UNL A   1      44.461  27.450  26.623  1.00  0.00     0.074 A 
ATOM     42  C   UNL A   1      44.247  26.228  25.878  1.00  0.00     0.031 C 
ATOM     43  C   UNL A   1      38.598  28.255  29.264  1.00  0.00     0.029 A 
ATOM     44  C   UNL A   1      39.705  29.202  29.300  1.00  0.00     0.049 A 
ATOM     45  H   UNL A   1      41.525  29.052  28.290  1.00  0.00     0.167 HD
ATOM     46  C   UNL A   1      45.603  28.181  26.619  1.00  0.00     0.034 A 
ATOM     47  C   UNL A   1      39.732  30.349  30.005  1.00  0.00     0.034 A 
ATOM     48  C   UNL A   1      45.734  29.414  27.357  1.00  0.00     0.049 A 
ATOM     49  C   UNL A   1      41.018  31.132  30.029  1.00  0.00     0.074 A 
ATOM     50  C   UNL A   1      46.831  30.246  27.480  1.00  0.00     0.029 A 
ATOM     51  N   UNL A   1      44.707  29.999  28.094  1.00  0.00    -0.354 N 
ATOM     52  N   UNL A   1      42.171  30.843  29.468  1.00  0.00    -0.248 NA
ATOM     53  C   UNL A   1      41.014  32.384  30.795  1.00  0.00     0.031 C 
ATOM     54  C   UNL A   1      46.480  31.308  28.324  1.00  0.00     0.029 A 
ATOM     55  C   UNL A   1      45.145  31.176  28.676  1.00  0.00     0.049 A 
ATOM     56  H   UNL A   1      43.799  29.629  28.186  1.00  0.00     0.167 HD
ATOM     57  C   UNL A   1      43.028  31.887  29.797  1.00  0.00     0.074 A 
ATOM     58  C   UNL A   1      42.253  32.815  30.599  1.00  0.00     0.031 C 
ATOM     59  C   UNL A   1      44.334  32.069  29.472  1.00  0.00     0.034 A 
BRANCH  46  60
ATOM     60  C   UNL A   1      46.792  27.600  25.888  1.00  0.00     0.023 A 
ATOM     61  C   UNL A   1      47.154  28.009  24.593  1.00  0.00     0.031 A 
ATOM     62  C   UNL A   1      47.520  26.544  26.468  1.00  0.00     0.131 A 
ATOM     63  C   UNL A   1      48.145  27.307  23.886  1.00  0.00     0.055 A 
ATOM     64  C   UNL A   1      48.564  25.907  25.794  1.00  0.00     0.041 A 
ATOM     65  F   UNL A   1      47.204  26.085  27.690  1.00  0.00    -0.206 F 
ATOM     66  C   UNL A   1      48.869  26.275  24.487  1.00  0.00     0.022 A 
BRANCH  63  67
ATOM     67  S   UNL A   1      48.351  27.642  22.115  1.00  0.00     0.124 S 
ATOM     68  O   UNL A   1      49.534  28.499  22.113  1.00  0.00    -0.237 OA
ATOM     69  O   UNL A   1      48.529  26.306  21.560  1.00  0.00    -0.237 OA
ATOM     70  O   UNL A   1      47.106  28.312  21.745  1.00  0.00    -0.744 OA
ENDBRANCH  63  67
ENDBRANCH  46  60
BRANCH  47  71
ATOM     71  C   UNL A   1      38.549  30.755  30.814  1.00  0.00     0.023 A 
ATOM     72  C   UNL A   1      37.497  31.487  30.245  1.00  0.00     0.031 A 
ATOM     73  C   UNL A   1      38.449  30.402  32.174  1.00  0.00     0.131 A 
ATOM     74  C   UNL A   1      36.396  31.855  31.035  1.00  0.00     0.055 A 
ATOM     75  C   UNL A   1      37.331  30.730  32.943  1.00  0.00     0.041 A 
ATOM     76  F   UNL A   1      39.427  29.699  32.767  1.00  0.00    -0.206 F 
ATOM     77  C   UNL A   1      36.299  31.468  32.375  1.00  0.00     0.022 A 
BRANCH  74  78
ATOM     78  S   UNL A   1      35.103  32.891  30.296  1.00  0.00     0.124 S 
ATOM     79  O   UNL A   1      35.863  34.066  29.886  1.00  0.00    -0.237 OA
ATOM     80  O   UNL A   1      34.609  32.038  29.221  1.00  0.00    -0.237 OA
ATOM     81  O   UNL A   1      34.168  33.106  31.399  1.00  0.00    -0.744 OA
ENDBRANCH  74  78
ENDBRANCH  47  71
BRANCH  59  82
ATOM     82  C   UNL A   1      44.968  33.351  29.939  1.00  0.00     0.023 A 
ATOM     83  C   UNL A   1      45.636  33.437  31.171  1.00  0.00     0.031 A 
ATOM     84  C   UNL A   1      44.892  34.501  29.135  1.00  0.00     0.131 A 
ATOM     85  C   UNL A   1      46.165  34.667  31.587  1.00  0.00     0.055 A 
ATOM     86  C   UNL A   1      45.462  35.709  29.532  1.00  0.00     0.041 A 
ATOM     87  F   UNL A   1      44.262  34.463  27.950  1.00  0.00    -0.206 F 
ATOM     88  C   UNL A   1      46.094  35.799  30.769  1.00  0.00     0.022 A 
BRANCH  85  89
ATOM     89  S   UNL A   1      46.886  34.790  33.245  1.00  0.00     0.124 S 
ATOM     90  O   UNL A   1      47.613  36.052  33.167  1.00  0.00    -0.237 OA
ATOM     91  O   UNL A   1      45.704  34.786  34.102  1.00  0.00    -0.237 OA
ATOM     92  O   UNL A   1      47.724  33.597  33.345  1.00  0.00    -0.744 OA
ENDBRANCH  85  89
ENDBRANCH  59  82
ENDBRANCH  33  34
ENDBRANCH  26  28
ENDBRANCH  25  26
ENDBRANCH  24  25
ENDBRANCH   1  24
TORSDOF 18
ENDMDL
MODEL 3
REMARK VINA RESULT:     -11.2      1.611      1.938
REMARK SMILES C[C@@](NC(=O)C[C@@H]1CCC[NH2+]C1)(C(=O)OCCOC(=O)c1ccc(-c2c3nc(c(-c4cc(S(=O)(=O)[O-])ccc4F)c4ccc([nH]4)c(-c4cc(S(=O)(=O)[O-])ccc4F)c4nc(c(-c5cc(S(=O)(=O)[O-])ccc5F)c5ccc2[nH]5)C=C4)C=C3)cc1)C(F)(F)F
REMARK SMILES IDX 16 1 15 2 13 3 14 4 2 5 1 6 3 7 4 8 5 10 6 11 7 12 8 13
REMARK SMILES IDX 12 14 9 15 11 16 10 17 84 20 85 21 86 22 87 23 17 24 18 25
REMARK SMILES IDX 19 26 20 27 21 28 22 29 83 30 23 31 82 32 24 33 25 34 26 35
REMARK SMILES IDX 76 36 27 37 81 38 75 39 77 40 28 41 80 42 74 43 73 44 29 46
REMARK SMILES IDX 61 47 41 48 60 49 42 50 45 51 59 52 78 53 43 54 44 55 58 57
REMARK SMILES IDX 79 58 46 59 30 60 31 61 39 62 32 63 38 64 40 65 37 66 33 67
REMARK SMILES IDX 34 68 35 69 36 70 62 71 63 72 71 73 64 74 70 75 72 76 69 77
REMARK SMILES IDX 65 78 66 79 67 80 68 81 47 82 48 83 56 84 49 85 55 86 57 87
REMARK SMILES IDX 54 88 50 89 51 90 52 91 53 92
REMARK H PARENT 3 9 11 18 11 19 77 45 45 56
REMARK Flexibility Score: inf
ROOT
ATOM      1  C   UNL A   1      35.799  22.353  23.839  1.00  0.00     0.274 C 
ENDROOT
BRANCH   1   2
ATOM      2  O   UNL A   1      34.450  21.971  24.217  1.00  0.00    -0.460 OA
BRANCH   2   3
ATOM      3  C   UNL A   1      33.830  22.722  25.180  1.00  0.00     0.341 C 
ATOM      4  O   UNL A   1      33.936  22.478  26.376  1.00  0.00    -0.249 OA
BRANCH   3   5
ATOM      5  C   UNL A   1      32.880  23.786  24.604  1.00  0.00     0.231 C 
ATOM      6  C   UNL A   1      32.277  24.736  25.660  1.00  0.00     0.058 C 
BRANCH   5   7
ATOM      7  N   UNL A   1      33.456  24.599  23.468  1.00  0.00    -0.333 N 
ATOM      8  C   UNL A   1      33.040  25.545  22.596  1.00  0.00     0.221 C 
ATOM      9  H   UNL A   1      34.403  24.375  23.319  1.00  0.00     0.164 HD
ATOM     10  O   UNL A   1      33.861  25.882  21.736  1.00  0.00    -0.275 OA
BRANCH   8  11
ATOM     11  C   UNL A   1      31.702  26.244  22.676  1.00  0.00     0.109 C 
BRANCH  11  12
ATOM     12  C   UNL A   1      31.526  27.471  23.593  1.00  0.00     0.054 C 
ATOM     13  C   UNL A   1      30.104  27.797  24.051  1.00  0.00     0.016 C 
ATOM     14  C   UNL A   1      32.146  28.748  23.000  1.00  0.00     0.264 C 
ATOM     15  C   UNL A   1      29.264  28.444  22.958  1.00  0.00     0.062 C 
ATOM     16  N   UNL A   1      31.339  29.307  21.921  1.00  0.00    -0.346 N 
ATOM     17  C   UNL A   1      29.988  29.647  22.368  1.00  0.00     0.260 C 
ATOM     18  H   UNL A   1      31.794  30.152  21.573  1.00  0.00     0.346 HD
ATOM     19  H   UNL A   1      31.261  28.603  21.187  1.00  0.00     0.346 HD
ENDBRANCH  11  12
ENDBRANCH   8  11
ENDBRANCH   5   7
BRANCH   5  20
ATOM     20  C   UNL A   1      31.670  22.992  24.041  1.00  0.00     0.422 C 
ATOM     21  F   UNL A   1      31.875  22.565  22.780  1.00  0.00    -0.168 F 
ATOM     22  F   UNL A   1      31.479  21.871  24.795  1.00  0.00    -0.168 F 
ATOM     23  F   UNL A   1      30.508  23.672  24.074  1.00  0.00    -0.168 F 
ENDBRANCH   5  20
ENDBRANCH   3   5
ENDBRANCH   2   3
ENDBRANCH   1   2
BRANCH   1  24
ATOM     24  C   UNL A   1      36.880  21.614  24.625  1.00  0.00     0.275 C 
BRANCH  24  25
ATOM     25  O   UNL A   1      37.887  22.539  25.041  1.00  0.00    -0.458 OA
BRANCH  25  26
ATOM     26  C   UNL A   1      38.824  21.996  25.842  1.00  0.00     0.338 C 
ATOM     27  O   UNL A   1      39.346  20.891  25.740  1.00  0.00    -0.246 OA
BRANCH  26  28
ATOM     28  C   UNL A   1      39.325  23.044  26.721  1.00  0.00     0.060 A 
ATOM     29  C   UNL A   1      38.856  24.331  26.477  1.00  0.00     0.016 A 
ATOM     30  C   UNL A   1      40.316  22.806  27.662  1.00  0.00     0.016 A 
ATOM     31  C   UNL A   1      39.458  25.425  27.071  1.00  0.00     0.010 A 
ATOM     32  C   UNL A   1      40.877  23.901  28.319  1.00  0.00     0.010 A 
ATOM     33  C   UNL A   1      40.489  25.216  27.984  1.00  0.00    -0.014 A 
BRANCH  33  34
ATOM     34  C   UNL A   1      41.288  26.357  28.477  1.00  0.00     0.031 A 
ATOM     35  C   UNL A   1      40.576  27.414  29.263  1.00  0.00     0.074 A 
ATOM     36  C   UNL A   1      42.605  26.447  28.230  1.00  0.00     0.049 A 
ATOM     37  N   UNL A   1      40.894  28.662  29.460  1.00  0.00    -0.248 NA
ATOM     38  C   UNL A   1      39.301  27.006  29.876  1.00  0.00     0.031 C 
ATOM     39  C   UNL A   1      43.430  25.409  27.607  1.00  0.00     0.029 A 
ATOM     40  N   UNL A   1      43.477  27.478  28.457  1.00  0.00    -0.354 N 
ATOM     41  C   UNL A   1      39.816  29.217  30.142  1.00  0.00     0.074 A 
ATOM     42  C   UNL A   1      38.846  28.160  30.336  1.00  0.00     0.031 C 
ATOM     43  C   UNL A   1      44.685  25.867  27.483  1.00  0.00     0.029 A 
ATOM     44  C   UNL A   1      44.721  27.258  27.917  1.00  0.00     0.049 A 
ATOM     45  H   UNL A   1      43.237  28.293  28.956  1.00  0.00     0.167 HD
ATOM     46  C   UNL A   1      39.660  30.505  30.534  1.00  0.00     0.034 A 
ATOM     47  C   UNL A   1      45.740  28.115  27.714  1.00  0.00     0.034 A 
ATOM     48  C   UNL A   1      40.687  31.501  30.343  1.00  0.00     0.049 A 
ATOM     49  C   UNL A   1      45.542  29.553  28.114  1.00  0.00     0.074 A 
ATOM     50  C   UNL A   1      40.666  32.848  30.653  1.00  0.00     0.029 A 
ATOM     51  N   UNL A   1      41.941  31.238  29.797  1.00  0.00    -0.354 N 
ATOM     52  N   UNL A   1      44.475  30.128  28.625  1.00  0.00    -0.248 NA
ATOM     53  C   UNL A   1      46.673  30.461  27.893  1.00  0.00     0.031 C 
ATOM     54  C   UNL A   1      41.889  33.405  30.255  1.00  0.00     0.029 A 
ATOM     55  C   UNL A   1      42.699  32.396  29.756  1.00  0.00     0.049 A 
ATOM     56  H   UNL A   1      42.245  30.355  29.485  1.00  0.00     0.167 HD
ATOM     57  C   UNL A   1      44.813  31.465  28.804  1.00  0.00     0.074 A 
ATOM     58  C   UNL A   1      46.185  31.605  28.353  1.00  0.00     0.031 C 
ATOM     59  C   UNL A   1      44.064  32.487  29.295  1.00  0.00     0.034 A 
BRANCH  46  60
ATOM     60  C   UNL A   1      38.311  30.899  31.091  1.00  0.00     0.023 A 
ATOM     61  C   UNL A   1      37.287  31.427  30.286  1.00  0.00     0.031 A 
ATOM     62  C   UNL A   1      38.082  30.831  32.478  1.00  0.00     0.131 A 
ATOM     63  C   UNL A   1      36.128  31.954  30.879  1.00  0.00     0.055 A 
ATOM     64  C   UNL A   1      36.889  31.274  33.054  1.00  0.00     0.041 A 
ATOM     65  F   UNL A   1      39.030  30.365  33.307  1.00  0.00    -0.206 F 
ATOM     66  C   UNL A   1      35.911  31.858  32.255  1.00  0.00     0.022 A 
BRANCH  63  67
ATOM     67  S   UNL A   1      34.989  32.923  29.851  1.00  0.00     0.124 S 
ATOM     68  O   UNL A   1      34.061  33.446  30.852  1.00  0.00    -0.237 OA
ATOM     69  O   UNL A   1      35.877  33.900  29.232  1.00  0.00    -0.237 OA
ATOM     70  O   UNL A   1      34.418  31.932  28.942  1.00  0.00    -0.744 OA
ENDBRANCH  63  67
ENDBRANCH  46  60
BRANCH  47  71
ATOM     71  C   UNL A   1      46.974  27.655  27.018  1.00  0.00     0.023 A 
ATOM     72  C   UNL A   1      47.107  27.763  25.627  1.00  0.00     0.031 A 
ATOM     73  C   UNL A   1      48.051  27.110  27.744  1.00  0.00     0.131 A 
ATOM     74  C   UNL A   1      48.283  27.319  25.002  1.00  0.00     0.055 A 
ATOM     75  C   UNL A   1      49.236  26.713  27.124  1.00  0.00     0.041 A 
ATOM     76  F   UNL A   1      47.977  26.986  29.080  1.00  0.00    -0.206 F 
ATOM     77  C   UNL A   1      49.354  26.811  25.741  1.00  0.00     0.022 A 
BRANCH  74  78
ATOM     78  S   UNL A   1      48.379  27.375  23.191  1.00  0.00     0.124 S 
ATOM     79  O   UNL A   1      47.209  28.177  22.856  1.00  0.00    -0.237 OA
ATOM     80  O   UNL A   1      49.676  28.009  22.976  1.00  0.00    -0.237 OA
ATOM     81  O   UNL A   1      48.304  25.968  22.803  1.00  0.00    -0.744 OA
ENDBRANCH  74  78
ENDBRANCH  47  71
BRANCH  59  82
ATOM     82  C   UNL A   1      44.752  33.820  29.418  1.00  0.00     0.023 A 
ATOM     83  C   UNL A   1      44.779  34.737  28.355  1.00  0.00     0.031 A 
ATOM     84  C   UNL A   1      45.391  34.166  30.621  1.00  0.00     0.131 A 
ATOM     85  C   UNL A   1      45.477  35.944  28.501  1.00  0.00     0.055 A 
ATOM     86  C   UNL A   1      46.042  35.389  30.776  1.00  0.00     0.041 A 
ATOM     87  F   UNL A   1      45.390  33.319  31.663  1.00  0.00    -0.206 F 
ATOM     88  C   UNL A   1      46.096  36.282  29.709  1.00  0.00     0.022 A 
BRANCH  85  89
ATOM     89  S   UNL A   1      45.629  37.042  27.067  1.00  0.00     0.124 S 
ATOM     90  O   UNL A   1      44.255  37.501  26.890  1.00  0.00    -0.237 OA
ATOM     91  O   UNL A   1      46.581  38.043  27.538  1.00  0.00    -0.237 OA
ATOM     92  O   UNL A   1      46.129  36.162  26.013  1.00  0.00    -0.744 OA
ENDBRANCH  85  89
ENDBRANCH  59  82
ENDBRANCH  33  34
ENDBRANCH  26  28
ENDBRANCH  25  26
ENDBRANCH  24  25
ENDBRANCH   1  24
TORSDOF 18
ENDMDL
