MODEL 1
REMARK VINA RESULT:     -11.7      0.000      0.000
REMARK SMILES C[C@H]1SCCC[C@]1(Nc1ccc(Cl)cc1)C(=O)OCCOC(=O)c1ccc(-c2c3nc(c(-c4cc(S(=O)(=O)[O-])ccc4F)c4ccc([nH]4)c(-c4cc(S(=O)(=O)[O-])ccc4F)c4nc(c(-c5cc(S(=O)(=O)[O-])ccc5F)c5ccc2[nH]5)C=C4)C=C3)cc1
REMARK SMILES IDX 20 1 19 2 18 3 16 4 17 5 7 6 1 7 2 8 3 9 4 10 6 11 5 12 8 13
REMARK SMILES IDX 9 15 10 16 15 17 11 18 14 19 12 20 13 21 21 22 22 23 23 24
REMARK SMILES IDX 24 25 25 26 86 27 26 28 85 29 27 30 28 31 29 32 79 33 30 34
REMARK SMILES IDX 84 35 78 36 80 37 31 38 83 39 77 40 76 41 32 43 64 44 44 45
REMARK SMILES IDX 63 46 45 47 48 48 62 49 81 50 46 51 47 52 61 54 82 55 49 56
REMARK SMILES IDX 33 57 34 58 42 59 35 60 41 61 43 62 40 63 36 64 37 65 38 66
REMARK SMILES IDX 39 67 65 68 66 69 74 70 67 71 73 72 75 73 72 74 68 75 69 76
REMARK SMILES IDX 70 77 71 78 50 79 51 80 59 81 52 82 58 83 60 84 57 85 53 86
REMARK SMILES IDX 54 87 55 88 56 89
REMARK H PARENT 8 14 80 42 48 53
REMARK Flexibility Score: inf
ROOT
ATOM      1  C   UNL A   1      31.749  30.017  26.802  1.00  0.00     0.275 C 
ENDROOT
BRANCH   1   2
ATOM      2  C   UNL A   1      31.751  28.573  27.312  1.00  0.00     0.274 C 
BRANCH   2   3
ATOM      3  O   UNL A   1      32.216  27.635  26.320  1.00  0.00    -0.460 OA
BRANCH   3   4
ATOM      4  C   UNL A   1      31.413  26.565  26.083  1.00  0.00     0.333 C 
ATOM      5  O   UNL A   1      30.509  26.244  26.851  1.00  0.00    -0.249 OA
BRANCH   4   6
ATOM      6  C   UNL A   1      31.783  25.752  24.788  1.00  0.00     0.147 C 
ATOM      7  C   UNL A   1      30.830  23.399  25.491  1.00  0.00     0.022 C 
ATOM      8  C   UNL A   1      32.054  24.231  25.075  1.00  0.00     0.080 C 
ATOM      9  S   UNL A   1      32.691  23.334  23.574  1.00  0.00    -0.156 SA
ATOM     10  C   UNL A   1      34.134  24.362  23.206  1.00  0.00     0.070 C 
ATOM     11  C   UNL A   1      33.093  26.409  24.255  1.00  0.00     0.042 C 
ATOM     12  C   UNL A   1      33.715  25.805  23.001  1.00  0.00     0.014 C 
BRANCH   6  13
ATOM     13  N   UNL A   1      30.749  25.869  23.716  1.00  0.00    -0.369 N 
ATOM     14  H   UNL A   1      30.576  25.072  23.163  1.00  0.00     0.161 HD
BRANCH  13  15
ATOM     15  C   UNL A   1      30.017  27.004  23.443  1.00  0.00     0.035 A 
ATOM     16  C   UNL A   1      28.632  27.067  23.623  1.00  0.00     0.027 A 
ATOM     17  C   UNL A   1      30.658  28.114  22.882  1.00  0.00     0.027 A 
ATOM     18  C   UNL A   1      27.897  28.187  23.225  1.00  0.00     0.022 A 
ATOM     19  C   UNL A   1      29.934  29.240  22.479  1.00  0.00     0.022 A 
ATOM     20  C   UNL A   1      28.552  29.267  22.643  1.00  0.00     0.041 A 
ATOM     21  Cl  UNL A   1      27.655  30.636  22.114  1.00  0.00    -0.084 Cl
ENDBRANCH  13  15
ENDBRANCH   6  13
ENDBRANCH   4   6
ENDBRANCH   3   4
ENDBRANCH   2   3
ENDBRANCH   1   2
BRANCH   1  22
ATOM     22  O   UNL A   1      33.069  30.468  26.444  1.00  0.00    -0.458 OA
BRANCH  22  23
ATOM     23  C   UNL A   1      33.557  31.465  27.217  1.00  0.00     0.338 C 
ATOM     24  O   UNL A   1      32.958  32.454  27.606  1.00  0.00    -0.246 OA
BRANCH  23  25
ATOM     25  C   UNL A   1      34.919  31.136  27.665  1.00  0.00     0.060 A 
ATOM     26  C   UNL A   1      35.187  29.805  27.961  1.00  0.00     0.016 A 
ATOM     27  C   UNL A   1      35.862  32.120  27.954  1.00  0.00     0.016 A 
ATOM     28  C   UNL A   1      36.344  29.448  28.637  1.00  0.00     0.010 A 
ATOM     29  C   UNL A   1      37.071  31.751  28.563  1.00  0.00     0.010 A 
ATOM     30  C   UNL A   1      37.304  30.415  28.944  1.00  0.00    -0.014 A 
BRANCH  30  31
ATOM     31  C   UNL A   1      38.494  30.013  29.741  1.00  0.00     0.031 A 
ATOM     32  C   UNL A   1      39.546  29.135  29.121  1.00  0.00     0.074 A 
ATOM     33  C   UNL A   1      38.687  30.514  30.977  1.00  0.00     0.049 A 
ATOM     34  N   UNL A   1      40.588  28.570  29.674  1.00  0.00    -0.248 NA
ATOM     35  C   UNL A   1      39.397  28.851  27.686  1.00  0.00     0.031 C 
ATOM     36  C   UNL A   1      37.792  31.454  31.659  1.00  0.00     0.029 A 
ATOM     37  N   UNL A   1      39.715  30.336  31.865  1.00  0.00    -0.354 N 
ATOM     38  C   UNL A   1      41.187  27.813  28.671  1.00  0.00     0.074 A 
ATOM     39  C   UNL A   1      40.387  27.995  27.477  1.00  0.00     0.031 C 
ATOM     40  C   UNL A   1      38.344  31.817  32.827  1.00  0.00     0.029 A 
ATOM     41  C   UNL A   1      39.581  31.071  33.020  1.00  0.00     0.049 A 
ATOM     42  H   UNL A   1      40.479  29.739  31.692  1.00  0.00     0.167 HD
ATOM     43  C   UNL A   1      42.294  27.033  28.747  1.00  0.00     0.034 A 
ATOM     44  C   UNL A   1      40.349  31.109  34.126  1.00  0.00     0.034 A 
ATOM     45  C   UNL A   1      43.100  26.898  29.936  1.00  0.00     0.049 A 
ATOM     46  C   UNL A   1      41.542  30.199  34.210  1.00  0.00     0.074 A 
ATOM     47  C   UNL A   1      44.219  26.109  30.144  1.00  0.00     0.029 A 
ATOM     48  N   UNL A   1      42.880  27.588  31.122  1.00  0.00    -0.354 N 
ATOM     49  N   UNL A   1      42.015  29.374  33.305  1.00  0.00    -0.248 NA
ATOM     50  C   UNL A   1      42.281  30.198  35.478  1.00  0.00     0.031 C 
ATOM     51  C   UNL A   1      44.649  26.292  31.465  1.00  0.00     0.029 A 
ATOM     52  C   UNL A   1      43.829  27.233  32.067  1.00  0.00     0.049 A 
ATOM     53  H   UNL A   1      42.152  28.235  31.269  1.00  0.00     0.167 HD
ATOM     54  C   UNL A   1      43.100  28.742  33.902  1.00  0.00     0.074 A 
ATOM     55  C   UNL A   1      43.228  29.304  35.232  1.00  0.00     0.031 C 
ATOM     56  C   UNL A   1      43.912  27.779  33.400  1.00  0.00     0.034 A 
BRANCH  43  57
ATOM     57  C   UNL A   1      42.629  26.209  27.528  1.00  0.00     0.023 A 
ATOM     58  C   UNL A   1      42.129  24.908  27.345  1.00  0.00     0.031 A 
ATOM     59  C   UNL A   1      43.537  26.707  26.577  1.00  0.00     0.131 A 
ATOM     60  C   UNL A   1      42.605  24.120  26.285  1.00  0.00     0.055 A 
ATOM     61  C   UNL A   1      43.948  25.945  25.481  1.00  0.00     0.041 A 
ATOM     62  F   UNL A   1      44.067  27.933  26.713  1.00  0.00    -0.206 F 
ATOM     63  C   UNL A   1      43.496  24.636  25.341  1.00  0.00     0.022 A 
BRANCH  60  64
ATOM     64  S   UNL A   1      42.181  22.356  26.259  1.00  0.00     0.124 S 
ATOM     65  O   UNL A   1      42.752  21.893  27.521  1.00  0.00    -0.237 OA
ATOM     66  O   UNL A   1      40.726  22.385  26.185  1.00  0.00    -0.237 OA
ATOM     67  O   UNL A   1      42.858  21.859  25.062  1.00  0.00    -0.744 OA
ENDBRANCH  60  64
ENDBRANCH  43  57
BRANCH  44  68
ATOM     68  C   UNL A   1      39.968  31.977  35.273  1.00  0.00     0.023 A 
ATOM     69  C   UNL A   1      39.044  31.540  36.234  1.00  0.00     0.031 A 
ATOM     70  C   UNL A   1      40.516  33.265  35.414  1.00  0.00     0.131 A 
ATOM     71  C   UNL A   1      38.682  32.392  37.289  1.00  0.00     0.055 A 
ATOM     72  C   UNL A   1      40.181  34.094  36.483  1.00  0.00     0.041 A 
ATOM     73  F   UNL A   1      41.404  33.724  34.519  1.00  0.00    -0.206 F 
ATOM     74  C   UNL A   1      39.254  33.660  37.427  1.00  0.00     0.022 A 
BRANCH  71  75
ATOM     75  S   UNL A   1      37.425  31.834  38.471  1.00  0.00     0.124 S 
ATOM     76  O   UNL A   1      37.168  30.474  38.012  1.00  0.00    -0.237 OA
ATOM     77  O   UNL A   1      38.125  31.960  39.745  1.00  0.00    -0.237 OA
ATOM     78  O   UNL A   1      36.327  32.779  38.272  1.00  0.00    -0.744 OA
ENDBRANCH  71  75
ENDBRANCH  44  68
BRANCH  56  79
ATOM     79  C   UNL A   1      45.004  27.288  34.311  1.00  0.00     0.023 A 
ATOM     80  C   UNL A   1      44.787  26.217  35.195  1.00  0.00     0.031 A 
ATOM     81  C   UNL A   1      46.257  27.922  34.322  1.00  0.00     0.131 A 
ATOM     82  C   UNL A   1      45.798  25.838  36.088  1.00  0.00     0.055 A 
ATOM     83  C   UNL A   1      47.273  27.515  35.188  1.00  0.00     0.041 A 
ATOM     84  F   UNL A   1      46.508  28.952  33.498  1.00  0.00    -0.206 F 
ATOM     85  C   UNL A   1      47.043  26.475  36.084  1.00  0.00     0.022 A 
BRANCH  82  86
ATOM     86  S   UNL A   1      45.443  24.544  37.309  1.00  0.00     0.124 S 
ATOM     87  O   UNL A   1      46.540  24.710  38.258  1.00  0.00    -0.237 OA
ATOM     88  O   UNL A   1      44.119  24.923  37.792  1.00  0.00    -0.237 OA
ATOM     89  O   UNL A   1      45.485  23.311  36.523  1.00  0.00    -0.744 OA
ENDBRANCH  82  86
ENDBRANCH  56  79
ENDBRANCH  30  31
ENDBRANCH  23  25
ENDBRANCH  22  23
ENDBRANCH   1  22
TORSDOF 16
ENDMDL
MODEL 2
REMARK VINA RESULT:     -11.6      5.379     10.246
REMARK SMILES C[C@H]1SCCC[C@]1(Nc1ccc(Cl)cc1)C(=O)OCCOC(=O)c1ccc(-c2c3nc(c(-c4cc(S(=O)(=O)[O-])ccc4F)c4ccc([nH]4)c(-c4cc(S(=O)(=O)[O-])ccc4F)c4nc(c(-c5cc(S(=O)(=O)[O-])ccc5F)c5ccc2[nH]5)C=C4)C=C3)cc1
REMARK SMILES IDX 20 1 19 2 18 3 16 4 17 5 7 6 1 7 2 8 3 9 4 10 6 11 5 12 8 13
REMARK SMILES IDX 9 15 10 16 15 17 11 18 14 19 12 20 13 21 21 22 22 23 23 24
REMARK SMILES IDX 24 25 25 26 86 27 26 28 85 29 27 30 28 31 29 32 79 33 30 34
REMARK SMILES IDX 84 35 78 36 80 37 31 38 83 39 77 40 76 41 32 43 64 44 44 45
REMARK SMILES IDX 63 46 45 47 48 48 62 49 81 50 46 51 47 52 61 54 82 55 49 56
REMARK SMILES IDX 33 57 34 58 42 59 35 60 41 61 43 62 40 63 36 64 37 65 38 66
REMARK SMILES IDX 39 67 65 68 66 69 74 70 67 71 73 72 75 73 72 74 68 75 69 76
REMARK SMILES IDX 70 77 71 78 50 79 51 80 59 81 52 82 58 83 60 84 57 85 53 86
REMARK SMILES IDX 54 87 55 88 56 89
REMARK H PARENT 8 14 80 42 48 53
REMARK Flexibility Score: inf
ROOT
ATOM      1  C   UNL A   1      36.423  21.616  25.320  1.00  0.00     0.275 C 
ENDROOT
BRANCH   1   2
ATOM      2  C   UNL A   1      35.431  22.151  24.285  1.00  0.00     0.274 C 
BRANCH   2   3
ATOM      3  O   UNL A   1      34.871  23.426  24.661  1.00  0.00    -0.460 OA
BRANCH   3   4
ATOM      4  C   UNL A   1      34.120  24.054  23.719  1.00  0.00     0.333 C 
ATOM      5  O   UNL A   1      34.514  24.205  22.564  1.00  0.00    -0.249 OA
BRANCH   4   6
ATOM      6  C   UNL A   1      32.751  24.617  24.251  1.00  0.00     0.147 C 
ATOM      7  C   UNL A   1      31.849  25.687  22.019  1.00  0.00     0.022 C 
ATOM      8  C   UNL A   1      32.275  25.901  23.481  1.00  0.00     0.080 C 
ATOM      9  S   UNL A   1      30.768  26.669  24.258  1.00  0.00    -0.156 SA
ATOM     10  C   UNL A   1      31.393  26.913  25.938  1.00  0.00     0.070 C 
ATOM     11  C   UNL A   1      33.015  24.988  25.742  1.00  0.00     0.042 C 
ATOM     12  C   UNL A   1      31.856  25.593  26.525  1.00  0.00     0.014 C 
BRANCH   6  13
ATOM     13  N   UNL A   1      31.658  23.599  24.224  1.00  0.00    -0.369 N 
ATOM     14  H   UNL A   1      30.739  23.916  24.382  1.00  0.00     0.161 HD
BRANCH  13  15
ATOM     15  C   UNL A   1      31.835  22.252  23.993  1.00  0.00     0.035 A 
ATOM     16  C   UNL A   1      32.081  21.339  25.024  1.00  0.00     0.027 A 
ATOM     17  C   UNL A   1      31.858  21.779  22.677  1.00  0.00     0.027 A 
ATOM     18  C   UNL A   1      32.378  20.000  24.753  1.00  0.00     0.022 A 
ATOM     19  C   UNL A   1      32.154  20.443  22.394  1.00  0.00     0.022 A 
ATOM     20  C   UNL A   1      32.423  19.560  23.436  1.00  0.00     0.041 A 
ATOM     21  Cl  UNL A   1      32.823  17.923  23.088  1.00  0.00    -0.084 Cl
ENDBRANCH  13  15
ENDBRANCH   6  13
ENDBRANCH   4   6
ENDBRANCH   3   4
ENDBRANCH   2   3
ENDBRANCH   1   2
BRANCH   1  22
ATOM     22  O   UNL A   1      37.787  21.727  24.874  1.00  0.00    -0.458 OA
BRANCH  22  23
ATOM     23  C   UNL A   1      38.715  21.329  25.775  1.00  0.00     0.338 C 
ATOM     24  O   UNL A   1      39.134  20.197  25.946  1.00  0.00    -0.246 OA
BRANCH  23  25
ATOM     25  C   UNL A   1      39.282  22.497  26.464  1.00  0.00     0.060 A 
ATOM     26  C   UNL A   1      38.781  23.747  26.117  1.00  0.00     0.016 A 
ATOM     27  C   UNL A   1      40.392  22.397  27.301  1.00  0.00     0.016 A 
ATOM     28  C   UNL A   1      39.431  24.906  26.512  1.00  0.00     0.010 A 
ATOM     29  C   UNL A   1      41.003  23.570  27.770  1.00  0.00     0.010 A 
ATOM     30  C   UNL A   1      40.549  24.835  27.347  1.00  0.00    -0.014 A 
BRANCH  30  31
ATOM     31  C   UNL A   1      41.272  26.090  27.683  1.00  0.00     0.031 A 
ATOM     32  C   UNL A   1      40.631  27.098  28.598  1.00  0.00     0.074 A 
ATOM     33  C   UNL A   1      42.536  26.283  27.259  1.00  0.00     0.049 A 
ATOM     34  N   UNL A   1      41.029  28.303  28.914  1.00  0.00    -0.248 NA
ATOM     35  C   UNL A   1      39.368  26.695  29.231  1.00  0.00     0.031 C 
ATOM     36  C   UNL A   1      43.311  25.340  26.446  1.00  0.00     0.029 A 
ATOM     37  N   UNL A   1      43.408  27.317  27.483  1.00  0.00    -0.354 N 
ATOM     38  C   UNL A   1      40.037  28.827  29.738  1.00  0.00     0.074 A 
ATOM     39  C   UNL A   1      39.020  27.804  29.867  1.00  0.00     0.031 C 
ATOM     40  C   UNL A   1      44.559  25.810  26.297  1.00  0.00     0.029 A 
ATOM     41  C   UNL A   1      44.649  27.124  26.921  1.00  0.00     0.049 A 
ATOM     42  H   UNL A   1      43.169  28.122  27.997  1.00  0.00     0.167 HD
ATOM     43  C   UNL A   1      39.980  30.051  30.320  1.00  0.00     0.034 A 
ATOM     44  C   UNL A   1      45.726  27.933  26.881  1.00  0.00     0.034 A 
ATOM     45  C   UNL A   1      41.024  31.041  30.212  1.00  0.00     0.049 A 
ATOM     46  C   UNL A   1      45.623  29.304  27.488  1.00  0.00     0.074 A 
ATOM     47  C   UNL A   1      41.061  32.326  30.724  1.00  0.00     0.029 A 
ATOM     48  N   UNL A   1      42.232  30.844  29.554  1.00  0.00    -0.354 N 
ATOM     49  N   UNL A   1      44.619  29.844  28.138  1.00  0.00    -0.248 NA
ATOM     50  C   UNL A   1      46.784  30.186  27.320  1.00  0.00     0.031 C 
ATOM     51  C   UNL A   1      42.272  32.919  30.342  1.00  0.00     0.029 A 
ATOM     52  C   UNL A   1      43.013  31.987  29.634  1.00  0.00     0.049 A 
ATOM     53  H   UNL A   1      42.495  30.013  29.096  1.00  0.00     0.167 HD
ATOM     54  C   UNL A   1      45.023  31.139  28.444  1.00  0.00     0.074 A 
ATOM     55  C   UNL A   1      46.371  31.286  27.933  1.00  0.00     0.031 C 
ATOM     56  C   UNL A   1      44.339  32.121  29.082  1.00  0.00     0.034 A 
BRANCH  43  57
ATOM     57  C   UNL A   1      38.704  30.398  31.046  1.00  0.00     0.023 A 
ATOM     58  C   UNL A   1      37.624  31.028  30.403  1.00  0.00     0.031 A 
ATOM     59  C   UNL A   1      38.604  30.170  32.431  1.00  0.00     0.131 A 
ATOM     60  C   UNL A   1      36.532  31.485  31.157  1.00  0.00     0.055 A 
ATOM     61  C   UNL A   1      37.481  30.559  33.163  1.00  0.00     0.041 A 
ATOM     62  F   UNL A   1      39.613  29.596  33.103  1.00  0.00    -0.206 F 
ATOM     63  C   UNL A   1      36.444  31.237  32.529  1.00  0.00     0.022 A 
BRANCH  60  64
ATOM     64  S   UNL A   1      35.313  32.562  30.352  1.00  0.00     0.124 S 
ATOM     65  O   UNL A   1      34.295  32.689  31.391  1.00  0.00    -0.237 OA
ATOM     66  O   UNL A   1      36.094  33.760  30.068  1.00  0.00    -0.237 OA
ATOM     67  O   UNL A   1      34.899  31.793  29.179  1.00  0.00    -0.744 OA
ENDBRANCH  60  64
ENDBRANCH  43  57
BRANCH  44  68
ATOM     68  C   UNL A   1      46.961  27.501  26.173  1.00  0.00     0.023 A 
ATOM     69  C   UNL A   1      47.150  27.784  24.812  1.00  0.00     0.031 A 
ATOM     70  C   UNL A   1      47.964  26.784  26.849  1.00  0.00     0.131 A 
ATOM     71  C   UNL A   1      48.313  27.338  24.164  1.00  0.00     0.055 A 
ATOM     72  C   UNL A   1      49.134  26.375  26.210  1.00  0.00     0.041 A 
ATOM     73  F   UNL A   1      47.827  26.492  28.152  1.00  0.00    -0.206 F 
ATOM     74  C   UNL A   1      49.311  26.648  24.857  1.00  0.00     0.022 A 
BRANCH  71  75
ATOM     75  S   UNL A   1      48.495  27.646  22.386  1.00  0.00     0.124 S 
ATOM     76  O   UNL A   1      49.649  28.538  22.355  1.00  0.00    -0.237 OA
ATOM     77  O   UNL A   1      48.709  26.301  21.863  1.00  0.00    -0.237 OA
ATOM     78  O   UNL A   1      47.221  28.259  22.014  1.00  0.00    -0.744 OA
ENDBRANCH  71  75
ENDBRANCH  44  68
BRANCH  56  79
ATOM     79  C   UNL A   1      45.059  33.431  29.252  1.00  0.00     0.023 A 
ATOM     80  C   UNL A   1      44.964  34.444  28.283  1.00  0.00     0.031 A 
ATOM     81  C   UNL A   1      45.877  33.650  30.373  1.00  0.00     0.131 A 
ATOM     82  C   UNL A   1      45.713  35.620  28.432  1.00  0.00     0.055 A 
ATOM     83  C   UNL A   1      46.590  34.839  30.534  1.00  0.00     0.041 A 
ATOM     84  F   UNL A   1      46.000  32.710  31.322  1.00  0.00    -0.206 F 
ATOM     85  C   UNL A   1      46.518  35.827  29.555  1.00  0.00     0.022 A 
BRANCH  82  86
ATOM     86  S   UNL A   1      45.675  36.852  27.100  1.00  0.00     0.124 S 
ATOM     87  O   UNL A   1      46.534  37.904  27.634  1.00  0.00    -0.237 OA
ATOM     88  O   UNL A   1      46.213  36.104  25.967  1.00  0.00    -0.237 OA
ATOM     89  O   UNL A   1      44.259  37.200  26.995  1.00  0.00    -0.744 OA
ENDBRANCH  82  86
ENDBRANCH  56  79
ENDBRANCH  30  31
ENDBRANCH  23  25
ENDBRANCH  22  23
ENDBRANCH   1  22
TORSDOF 16
ENDMDL
MODEL 3
REMARK VINA RESULT:     -11.5      1.495      1.869
REMARK SMILES C[C@H]1SCCC[C@]1(Nc1ccc(Cl)cc1)C(=O)OCCOC(=O)c1ccc(-c2c3nc(c(-c4cc(S(=O)(=O)[O-])ccc4F)c4ccc([nH]4)c(-c4cc(S(=O)(=O)[O-])ccc4F)c4nc(c(-c5cc(S(=O)(=O)[O-])ccc5F)c5ccc2[nH]5)C=C4)C=C3)cc1
REMARK SMILES IDX 20 1 19 2 18 3 16 4 17 5 7 6 1 7 2 8 3 9 4 10 6 11 5 12 8 13
REMARK SMILES IDX 9 15 10 16 15 17 11 18 14 19 12 20 13 21 21 22 22 23 23 24
REMARK SMILES IDX 24 25 25 26 86 27 26 28 85 29 27 30 28 31 29 32 79 33 30 34
REMARK SMILES IDX 84 35 78 36 80 37 31 38 83 39 77 40 76 41 32 43 64 44 44 45
REMARK SMILES IDX 63 46 45 47 48 48 62 49 81 50 46 51 47 52 61 54 82 55 49 56
REMARK SMILES IDX 33 57 34 58 42 59 35 60 41 61 43 62 40 63 36 64 37 65 38 66
REMARK SMILES IDX 39 67 65 68 66 69 74 70 67 71 73 72 75 73 72 74 68 75 69 76
REMARK SMILES IDX 70 77 71 78 50 79 51 80 59 81 52 82 58 83 60 84 57 85 53 86
REMARK SMILES IDX 54 87 55 88 56 89
REMARK H PARENT 8 14 80 42 48 53
REMARK Flexibility Score: inf
ROOT
ATOM      1  C   UNL A   1      31.759  29.872  26.548  1.00  0.00     0.275 C 
ENDROOT
BRANCH   1   2
ATOM      2  C   UNL A   1      31.792  28.469  27.161  1.00  0.00     0.274 C 
BRANCH   2   3
ATOM      3  O   UNL A   1      32.271  27.471  26.236  1.00  0.00    -0.460 OA
BRANCH   3   4
ATOM      4  C   UNL A   1      31.484  26.375  26.075  1.00  0.00     0.333 C 
ATOM      5  O   UNL A   1      30.544  26.130  26.828  1.00  0.00    -0.249 OA
BRANCH   4   6
ATOM      6  C   UNL A   1      31.922  25.430  24.896  1.00  0.00     0.147 C 
ATOM      7  C   UNL A   1      30.751  23.208  25.690  1.00  0.00     0.022 C 
ATOM      8  C   UNL A   1      32.062  23.928  25.333  1.00  0.00     0.080 C 
ATOM      9  S   UNL A   1      32.780  22.866  23.983  1.00  0.00    -0.156 SA
ATOM     10  C   UNL A   1      34.317  23.772  23.680  1.00  0.00     0.070 C 
ATOM     11  C   UNL A   1      33.318  25.960  24.446  1.00  0.00     0.042 C 
ATOM     12  C   UNL A   1      34.016  25.213  23.316  1.00  0.00     0.014 C 
BRANCH   6  13
ATOM     13  N   UNL A   1      31.006  25.512  23.719  1.00  0.00    -0.369 N 
ATOM     14  H   UNL A   1      30.952  24.724  23.130  1.00  0.00     0.161 HD
BRANCH  13  15
ATOM     15  C   UNL A   1      30.229  26.602  23.394  1.00  0.00     0.035 A 
ATOM     16  C   UNL A   1      30.755  27.745  22.783  1.00  0.00     0.027 A 
ATOM     17  C   UNL A   1      28.879  26.616  23.761  1.00  0.00     0.027 A 
ATOM     18  C   UNL A   1      29.972  28.884  22.575  1.00  0.00     0.022 A 
ATOM     19  C   UNL A   1      28.086  27.749  23.558  1.00  0.00     0.022 A 
ATOM     20  C   UNL A   1      28.641  28.884  22.974  1.00  0.00     0.041 A 
ATOM     21  Cl  UNL A   1      27.676  30.292  22.756  1.00  0.00    -0.084 Cl
ENDBRANCH  13  15
ENDBRANCH   6  13
ENDBRANCH   4   6
ENDBRANCH   3   4
ENDBRANCH   2   3
ENDBRANCH   1   2
BRANCH   1  22
ATOM     22  O   UNL A   1      33.080  30.395  26.319  1.00  0.00    -0.458 OA
BRANCH  22  23
ATOM     23  C   UNL A   1      33.451  31.390  27.158  1.00  0.00     0.338 C 
ATOM     24  O   UNL A   1      32.764  32.323  27.540  1.00  0.00    -0.246 OA
BRANCH  23  25
ATOM     25  C   UNL A   1      34.798  31.129  27.686  1.00  0.00     0.060 A 
ATOM     26  C   UNL A   1      35.090  29.824  28.067  1.00  0.00     0.016 A 
ATOM     27  C   UNL A   1      35.697  32.156  27.965  1.00  0.00     0.016 A 
ATOM     28  C   UNL A   1      36.223  29.541  28.814  1.00  0.00     0.010 A 
ATOM     29  C   UNL A   1      36.885  31.859  28.648  1.00  0.00     0.010 A 
ATOM     30  C   UNL A   1      37.139  30.553  29.112  1.00  0.00    -0.014 A 
BRANCH  30  31
ATOM     31  C   UNL A   1      38.300  30.233  29.984  1.00  0.00     0.031 A 
ATOM     32  C   UNL A   1      39.427  29.392  29.449  1.00  0.00     0.074 A 
ATOM     33  C   UNL A   1      38.399  30.775  31.214  1.00  0.00     0.049 A 
ATOM     34  N   UNL A   1      40.461  28.893  30.074  1.00  0.00    -0.248 NA
ATOM     35  C   UNL A   1      39.372  29.062  28.017  1.00  0.00     0.031 C 
ATOM     36  C   UNL A   1      37.423  31.687  31.819  1.00  0.00     0.029 A 
ATOM     37  N   UNL A   1      39.384  30.672  32.162  1.00  0.00    -0.354 N 
ATOM     38  C   UNL A   1      41.152  28.141  29.129  1.00  0.00     0.074 A 
ATOM     39  C   UNL A   1      40.413  28.252  27.888  1.00  0.00     0.031 C 
ATOM     40  C   UNL A   1      37.891  32.108  33.004  1.00  0.00     0.029 A 
ATOM     41  C   UNL A   1      39.149  31.429  33.286  1.00  0.00     0.049 A 
ATOM     42  H   UNL A   1      40.183  30.109  32.049  1.00  0.00     0.167 HD
ATOM     43  C   UNL A   1      42.289  27.420  29.288  1.00  0.00     0.034 A 
ATOM     44  C   UNL A   1      39.852  31.536  34.430  1.00  0.00     0.034 A 
ATOM     45  C   UNL A   1      43.033  27.356  30.523  1.00  0.00     0.049 A 
ATOM     46  C   UNL A   1      41.081  30.688  34.606  1.00  0.00     0.074 A 
ATOM     47  C   UNL A   1      44.175  26.630  30.814  1.00  0.00     0.029 A 
ATOM     48  N   UNL A   1      42.713  28.066  31.674  1.00  0.00    -0.354 N 
ATOM     49  N   UNL A   1      41.642  29.865  33.753  1.00  0.00    -0.248 NA
ATOM     50  C   UNL A   1      41.747  30.758  35.912  1.00  0.00     0.031 C 
ATOM     51  C   UNL A   1      44.521  26.869  32.151  1.00  0.00     0.029 A 
ATOM     52  C   UNL A   1      43.624  27.784  32.679  1.00  0.00     0.049 A 
ATOM     53  H   UNL A   1      41.949  28.680  31.762  1.00  0.00     0.167 HD
ATOM     54  C   UNL A   1      42.721  29.304  34.427  1.00  0.00     0.074 A 
ATOM     55  C   UNL A   1      42.747  29.906  35.744  1.00  0.00     0.031 C 
ATOM     56  C   UNL A   1      43.606  28.369  33.998  1.00  0.00     0.034 A 
BRANCH  43  57
ATOM     57  C   UNL A   1      42.731  26.581  28.114  1.00  0.00     0.023 A 
ATOM     58  C   UNL A   1      42.334  25.242  27.960  1.00  0.00     0.031 A 
ATOM     59  C   UNL A   1      43.638  27.112  27.179  1.00  0.00     0.131 A 
ATOM     60  C   UNL A   1      42.908  24.455  26.949  1.00  0.00     0.055 A 
ATOM     61  C   UNL A   1      44.147  26.345  26.129  1.00  0.00     0.041 A 
ATOM     62  F   UNL A   1      44.073  28.377  27.290  1.00  0.00    -0.206 F 
ATOM     63  C   UNL A   1      43.796  25.002  26.021  1.00  0.00     0.022 A 
BRANCH  60  64
ATOM     64  S   UNL A   1      42.613  22.665  26.972  1.00  0.00     0.124 S 
ATOM     65  O   UNL A   1      41.467  22.539  26.076  1.00  0.00    -0.237 OA
ATOM     66  O   UNL A   1      43.876  22.133  26.475  1.00  0.00    -0.237 OA
ATOM     67  O   UNL A   1      42.326  22.383  28.378  1.00  0.00    -0.744 OA
ENDBRANCH  60  64
ENDBRANCH  43  57
BRANCH  44  68
ATOM     68  C   UNL A   1      39.365  32.414  35.529  1.00  0.00     0.023 A 
ATOM     69  C   UNL A   1      39.858  33.718  35.684  1.00  0.00     0.031 A 
ATOM     70  C   UNL A   1      38.409  31.950  36.450  1.00  0.00     0.131 A 
ATOM     71  C   UNL A   1      39.401  34.512  36.748  1.00  0.00     0.055 A 
ATOM     72  C   UNL A   1      37.932  32.755  37.483  1.00  0.00     0.041 A 
ATOM     73  F   UNL A   1      37.909  30.709  36.340  1.00  0.00    -0.206 F 
ATOM     74  C   UNL A   1      38.432  34.044  37.640  1.00  0.00     0.022 A 
BRANCH  71  75
ATOM     75  S   UNL A   1      40.114  36.164  36.973  1.00  0.00     0.124 S 
ATOM     76  O   UNL A   1      39.832  36.788  35.685  1.00  0.00    -0.237 OA
ATOM     77  O   UNL A   1      39.357  36.672  38.111  1.00  0.00    -0.237 OA
ATOM     78  O   UNL A   1      41.526  35.893  37.240  1.00  0.00    -0.744 OA
ENDBRANCH  71  75
ENDBRANCH  44  68
BRANCH  56  79
ATOM     79  C   UNL A   1      44.667  27.957  34.982  1.00  0.00     0.023 A 
ATOM     80  C   UNL A   1      44.389  27.044  36.013  1.00  0.00     0.031 A 
ATOM     81  C   UNL A   1      45.954  28.514  34.910  1.00  0.00     0.131 A 
ATOM     82  C   UNL A   1      45.377  26.744  36.961  1.00  0.00     0.055 A 
ATOM     83  C   UNL A   1      46.945  28.183  35.835  1.00  0.00     0.041 A 
ATOM     84  F   UNL A   1      46.265  29.394  33.944  1.00  0.00    -0.206 F 
ATOM     85  C   UNL A   1      46.655  27.302  36.874  1.00  0.00     0.022 A 
BRANCH  82  86
ATOM     86  S   UNL A   1      44.947  25.668  38.357  1.00  0.00     0.124 S 
ATOM     87  O   UNL A   1      43.925  26.451  39.043  1.00  0.00    -0.237 OA
ATOM     88  O   UNL A   1      44.481  24.457  37.688  1.00  0.00    -0.237 OA
ATOM     89  O   UNL A   1      46.209  25.527  39.082  1.00  0.00    -0.744 OA
ENDBRANCH  82  86
ENDBRANCH  56  79
ENDBRANCH  30  31
ENDBRANCH  23  25
ENDBRANCH  22  23
ENDBRANCH   1  22
TORSDOF 16
ENDMDL
