MODEL 1
REMARK VINA RESULT:     -12.8      0.000      0.000
REMARK SMILES C[C@@H](NC(=O)[C@H]1CC=CC[C@@H]1C(=O)OCCOC(=O)c1ccc(-c2c3nc(c(-c4cc(S(=O)(=O)[O-])ccc4F)c4ccc([nH]4)c(-c4cc(S(=O)(=O)[O-])ccc4F)c4nc(c(-c5cc(S(=O)(=O)[O-])ccc5F)c5ccc2[nH]5)C=C4)C=C3)cc1)c1ccc(-n2ccnc2)cc1
REMARK SMILES IDX 15 1 14 2 12 3 13 4 11 5 6 6 7 7 8 8 10 9 9 10 4 11 3 12
REMARK SMILES IDX 5 14 2 15 1 16 83 17 84 18 93 19 85 20 92 21 86 22 87 23
REMARK SMILES IDX 88 24 91 25 89 26 90 27 16 28 17 29 18 30 19 31 20 32 21 33
REMARK SMILES IDX 82 34 22 35 81 36 23 37 24 38 25 39 75 40 26 41 80 42 74 43
REMARK SMILES IDX 76 44 27 45 79 46 73 47 72 48 28 50 60 51 40 52 59 53 41 54
REMARK SMILES IDX 44 55 58 56 77 57 42 58 43 59 57 61 78 62 45 63 29 64 30 65
REMARK SMILES IDX 38 66 31 67 37 68 39 69 36 70 32 71 33 72 34 73 35 74 61 75
REMARK SMILES IDX 62 76 70 77 63 78 69 79 71 80 68 81 64 82 65 83 66 84 67 85
REMARK SMILES IDX 46 86 47 87 55 88 48 89 54 90 56 91 53 92 49 93 50 94 51 95
REMARK SMILES IDX 52 96
REMARK H PARENT 3 13 76 49 44 60
REMARK Flexibility Score: inf
ROOT
ATOM      1  C   UNL A   1      30.990  29.773  24.629  1.00  0.00     0.274 C 
ENDROOT
BRANCH   1   2
ATOM      2  O   UNL A   1      30.698  28.435  24.156  1.00  0.00    -0.462 OA
BRANCH   2   3
ATOM      3  C   UNL A   1      30.861  28.224  22.820  1.00  0.00     0.310 C 
ATOM      4  O   UNL A   1      30.033  28.555  21.976  1.00  0.00    -0.252 OA
BRANCH   3   5
ATOM      5  C   UNL A   1      32.122  27.442  22.457  1.00  0.00     0.115 C 
ATOM      6  C   UNL A   1      32.411  26.179  23.305  1.00  0.00     0.097 C 
ATOM      7  C   UNL A   1      33.030  26.531  24.670  1.00  0.00     0.041 C 
ATOM      8  C   UNL A   1      34.080  27.591  24.609  1.00  0.00    -0.030 C 
ATOM      9  C   UNL A   1      33.340  28.390  22.357  1.00  0.00     0.043 C 
ATOM     10  C   UNL A   1      34.240  28.397  23.556  1.00  0.00    -0.030 C 
BRANCH   6  11
ATOM     11  C   UNL A   1      33.331  25.231  22.529  1.00  0.00     0.224 C 
ATOM     12  N   UNL A   1      34.265  24.446  23.118  1.00  0.00    -0.349 N 
ATOM     13  H   UNL A   1      35.063  24.342  22.550  1.00  0.00     0.164 HD
ATOM     14  O   UNL A   1      33.299  25.164  21.295  1.00  0.00    -0.275 OA
BRANCH  12  15
ATOM     15  C   UNL A   1      34.397  23.712  24.379  1.00  0.00     0.109 C 
ATOM     16  C   UNL A   1      35.761  24.071  24.993  1.00  0.00     0.036 C 
BRANCH  15  17
ATOM     17  C   UNL A   1      34.151  22.221  24.336  1.00  0.00    -0.026 A 
ATOM     18  C   UNL A   1      35.148  21.338  24.779  1.00  0.00     0.008 A 
ATOM     19  C   UNL A   1      32.935  21.679  23.898  1.00  0.00     0.008 A 
ATOM     20  C   UNL A   1      34.906  19.963  24.874  1.00  0.00     0.027 A 
ATOM     21  C   UNL A   1      32.687  20.307  23.988  1.00  0.00     0.027 A 
ATOM     22  C   UNL A   1      33.658  19.446  24.512  1.00  0.00     0.046 A 
BRANCH  22  23
ATOM     23  N   UNL A   1      33.357  18.074  24.721  1.00  0.00    -0.306 N 
ATOM     24  C   UNL A   1      33.751  16.997  23.957  1.00  0.00     0.113 A 
ATOM     25  C   UNL A   1      32.643  17.536  25.772  1.00  0.00     0.204 A 
ATOM     26  C   UNL A   1      33.257  15.881  24.591  1.00  0.00     0.131 A 
ATOM     27  N   UNL A   1      32.569  16.224  25.720  1.00  0.00    -0.245 NA
ENDBRANCH  22  23
ENDBRANCH  15  17
ENDBRANCH  12  15
ENDBRANCH   6  11
ENDBRANCH   3   5
ENDBRANCH   2   3
ENDBRANCH   1   2
BRANCH   1  28
ATOM     28  C   UNL A   1      31.524  29.745  26.058  1.00  0.00     0.275 C 
BRANCH  28  29
ATOM     29  O   UNL A   1      32.854  30.279  26.051  1.00  0.00    -0.458 OA
BRANCH  29  30
ATOM     30  C   UNL A   1      33.110  31.271  26.935  1.00  0.00     0.338 C 
ATOM     31  O   UNL A   1      32.391  32.211  27.222  1.00  0.00    -0.246 OA
BRANCH  30  32
ATOM     32  C   UNL A   1      34.428  31.017  27.548  1.00  0.00     0.060 A 
ATOM     33  C   UNL A   1      34.799  29.713  27.875  1.00  0.00     0.016 A 
ATOM     34  C   UNL A   1      35.267  32.080  27.877  1.00  0.00     0.016 A 
ATOM     35  C   UNL A   1      35.966  29.476  28.594  1.00  0.00     0.010 A 
ATOM     36  C   UNL A   1      36.492  31.825  28.506  1.00  0.00     0.010 A 
ATOM     37  C   UNL A   1      36.848  30.520  28.895  1.00  0.00    -0.014 A 
BRANCH  37  38
ATOM     38  C   UNL A   1      38.121  30.250  29.626  1.00  0.00     0.031 A 
ATOM     39  C   UNL A   1      39.184  29.388  28.997  1.00  0.00     0.074 A 
ATOM     40  C   UNL A   1      38.331  30.774  30.851  1.00  0.00     0.049 A 
ATOM     41  N   UNL A   1      40.230  28.826  29.546  1.00  0.00    -0.248 NA
ATOM     42  C   UNL A   1      39.031  29.097  27.564  1.00  0.00     0.031 C 
ATOM     43  C   UNL A   1      37.419  31.680  31.557  1.00  0.00     0.029 A 
ATOM     44  N   UNL A   1      39.384  30.633  31.721  1.00  0.00    -0.354 N 
ATOM     45  C   UNL A   1      40.811  28.044  28.550  1.00  0.00     0.074 A 
ATOM     46  C   UNL A   1      40.000  28.216  27.363  1.00  0.00     0.031 C 
ATOM     47  C   UNL A   1      37.978  32.060  32.714  1.00  0.00     0.029 A 
ATOM     48  C   UNL A   1      39.225  31.330  32.898  1.00  0.00     0.049 A 
ATOM     49  H   UNL A   1      40.178  30.086  31.522  1.00  0.00     0.167 HD
ATOM     50  C   UNL A   1      41.908  27.250  28.633  1.00  0.00     0.034 A 
ATOM     51  C   UNL A   1      39.962  31.337  34.025  1.00  0.00     0.034 A 
ATOM     52  C   UNL A   1      42.737  27.155  29.815  1.00  0.00     0.049 A 
ATOM     53  C   UNL A   1      41.158  30.429  34.107  1.00  0.00     0.074 A 
ATOM     54  C   UNL A   1      43.890  26.411  30.006  1.00  0.00     0.029 A 
ATOM     55  N   UNL A   1      42.510  27.838  31.005  1.00  0.00    -0.354 N 
ATOM     56  N   UNL A   1      41.640  29.616  33.196  1.00  0.00    -0.248 NA
ATOM     57  C   UNL A   1      41.888  30.417  35.380  1.00  0.00     0.031 C 
ATOM     58  C   UNL A   1      44.322  26.597  31.324  1.00  0.00     0.029 A 
ATOM     59  C   UNL A   1      43.483  27.513  31.938  1.00  0.00     0.049 A 
ATOM     60  H   UNL A   1      41.765  28.462  31.162  1.00  0.00     0.167 HD
ATOM     61  C   UNL A   1      42.738  28.998  33.786  1.00  0.00     0.074 A 
ATOM     62  C   UNL A   1      42.857  29.552  35.121  1.00  0.00     0.031 C 
ATOM     63  C   UNL A   1      43.570  28.056  33.273  1.00  0.00     0.034 A 
BRANCH  50  64
ATOM     64  C   UNL A   1      42.221  26.362  27.449  1.00  0.00     0.023 A 
ATOM     65  C   UNL A   1      41.768  25.034  27.354  1.00  0.00     0.031 A 
ATOM     66  C   UNL A   1      43.034  26.850  26.408  1.00  0.00     0.131 A 
ATOM     67  C   UNL A   1      42.197  24.221  26.292  1.00  0.00     0.055 A 
ATOM     68  C   UNL A   1      43.387  26.063  25.310  1.00  0.00     0.041 A 
ATOM     69  F   UNL A   1      43.518  28.102  26.449  1.00  0.00    -0.206 F 
ATOM     70  C   UNL A   1      42.983  24.733  25.256  1.00  0.00     0.022 A 
BRANCH  67  71
ATOM     71  S   UNL A   1      41.849  22.441  26.364  1.00  0.00     0.124 S 
ATOM     72  O   UNL A   1      42.592  21.946  25.207  1.00  0.00    -0.237 OA
ATOM     73  O   UNL A   1      42.380  22.070  27.670  1.00  0.00    -0.237 OA
ATOM     74  O   UNL A   1      40.396  22.369  26.236  1.00  0.00    -0.744 OA
ENDBRANCH  67  71
ENDBRANCH  50  64
BRANCH  51  75
ATOM     75  C   UNL A   1      39.546  32.170  35.191  1.00  0.00     0.023 A 
ATOM     76  C   UNL A   1      40.043  33.472  35.362  1.00  0.00     0.031 A 
ATOM     77  C   UNL A   1      38.649  31.675  36.155  1.00  0.00     0.131 A 
ATOM     78  C   UNL A   1      39.654  34.227  36.480  1.00  0.00     0.055 A 
ATOM     79  C   UNL A   1      38.223  32.449  37.235  1.00  0.00     0.041 A 
ATOM     80  F   UNL A   1      38.148  30.434  36.043  1.00  0.00    -0.206 F 
ATOM     81  C   UNL A   1      38.733  33.732  37.407  1.00  0.00     0.022 A 
BRANCH  78  82
ATOM     82  S   UNL A   1      40.416  35.851  36.741  1.00  0.00     0.124 S 
ATOM     83  O   UNL A   1      39.650  36.691  35.827  1.00  0.00    -0.237 OA
ATOM     84  O   UNL A   1      40.181  36.073  38.164  1.00  0.00    -0.237 OA
ATOM     85  O   UNL A   1      41.814  35.636  36.370  1.00  0.00    -0.744 OA
ENDBRANCH  78  82
ENDBRANCH  51  75
BRANCH  63  86
ATOM     86  C   UNL A   1      44.698  27.602  34.165  1.00  0.00     0.023 A 
ATOM     87  C   UNL A   1      44.544  26.527  35.057  1.00  0.00     0.031 A 
ATOM     88  C   UNL A   1      45.927  28.283  34.149  1.00  0.00     0.131 A 
ATOM     89  C   UNL A   1      45.584  26.202  35.942  1.00  0.00     0.055 A 
ATOM     90  C   UNL A   1      46.977  27.918  34.992  1.00  0.00     0.041 A 
ATOM     91  F   UNL A   1      46.125  29.319  33.319  1.00  0.00    -0.206 F 
ATOM     92  C   UNL A   1      46.804  26.882  35.905  1.00  0.00     0.022 A 
BRANCH  89  93
ATOM     93  S   UNL A   1      45.285  24.940  37.210  1.00  0.00     0.124 S 
ATOM     94  O   UNL A   1      45.846  25.569  38.402  1.00  0.00    -0.237 OA
ATOM     95  O   UNL A   1      43.832  24.807  37.184  1.00  0.00    -0.237 OA
ATOM     96  O   UNL A   1      46.022  23.778  36.717  1.00  0.00    -0.744 OA
ENDBRANCH  89  93
ENDBRANCH  63  86
ENDBRANCH  37  38
ENDBRANCH  30  32
ENDBRANCH  29  30
ENDBRANCH  28  29
ENDBRANCH   1  28
TORSDOF 18
ENDMDL
MODEL 2
REMARK VINA RESULT:     -12.8      1.567      2.057
REMARK SMILES C[C@@H](NC(=O)[C@H]1CC=CC[C@@H]1C(=O)OCCOC(=O)c1ccc(-c2c3nc(c(-c4cc(S(=O)(=O)[O-])ccc4F)c4ccc([nH]4)c(-c4cc(S(=O)(=O)[O-])ccc4F)c4nc(c(-c5cc(S(=O)(=O)[O-])ccc5F)c5ccc2[nH]5)C=C4)C=C3)cc1)c1ccc(-n2ccnc2)cc1
REMARK SMILES IDX 15 1 14 2 12 3 13 4 11 5 6 6 7 7 8 8 10 9 9 10 4 11 3 12
REMARK SMILES IDX 5 14 2 15 1 16 83 17 84 18 93 19 85 20 92 21 86 22 87 23
REMARK SMILES IDX 88 24 91 25 89 26 90 27 16 28 17 29 18 30 19 31 20 32 21 33
REMARK SMILES IDX 82 34 22 35 81 36 23 37 24 38 25 39 75 40 26 41 80 42 74 43
REMARK SMILES IDX 76 44 27 45 79 46 73 47 72 48 28 50 60 51 40 52 59 53 41 54
REMARK SMILES IDX 44 55 58 56 77 57 42 58 43 59 57 61 78 62 45 63 29 64 30 65
REMARK SMILES IDX 38 66 31 67 37 68 39 69 36 70 32 71 33 72 34 73 35 74 61 75
REMARK SMILES IDX 62 76 70 77 63 78 69 79 71 80 68 81 64 82 65 83 66 84 67 85
REMARK SMILES IDX 46 86 47 87 55 88 48 89 54 90 56 91 53 92 49 93 50 94 51 95
REMARK SMILES IDX 52 96
REMARK H PARENT 3 13 76 49 44 60
REMARK Flexibility Score: inf
ROOT
ATOM      1  C   UNL A   1      31.803  28.984  27.110  1.00  0.00     0.274 C 
ENDROOT
BRANCH   1   2
ATOM      2  O   UNL A   1      32.391  27.880  26.379  1.00  0.00    -0.462 OA
BRANCH   2   3
ATOM      3  C   UNL A   1      31.567  26.827  26.120  1.00  0.00     0.310 C 
ATOM      4  O   UNL A   1      30.633  26.504  26.849  1.00  0.00    -0.252 OA
BRANCH   3   5
ATOM      5  C   UNL A   1      31.962  26.006  24.895  1.00  0.00     0.115 C 
ATOM      6  C   UNL A   1      33.006  26.649  23.948  1.00  0.00     0.097 C 
ATOM      7  C   UNL A   1      32.373  27.708  23.028  1.00  0.00     0.041 C 
ATOM      8  C   UNL A   1      31.056  27.306  22.450  1.00  0.00    -0.030 C 
ATOM      9  C   UNL A   1      30.704  25.503  24.149  1.00  0.00     0.043 C 
ATOM     10  C   UNL A   1      30.329  26.293  22.931  1.00  0.00    -0.030 C 
BRANCH   6  11
ATOM     11  C   UNL A   1      33.695  25.562  23.118  1.00  0.00     0.224 C 
ATOM     12  N   UNL A   1      34.416  24.551  23.659  1.00  0.00    -0.349 N 
ATOM     13  H   UNL A   1      35.177  24.299  23.087  1.00  0.00     0.164 HD
ATOM     14  O   UNL A   1      33.665  25.574  21.882  1.00  0.00    -0.275 OA
BRANCH  12  15
ATOM     15  C   UNL A   1      34.359  23.735  24.876  1.00  0.00     0.109 C 
ATOM     16  C   UNL A   1      35.584  24.086  25.736  1.00  0.00     0.036 C 
BRANCH  15  17
ATOM     17  C   UNL A   1      34.179  22.244  24.695  1.00  0.00    -0.026 A 
ATOM     18  C   UNL A   1      35.223  21.371  25.039  1.00  0.00     0.008 A 
ATOM     19  C   UNL A   1      32.980  21.689  24.227  1.00  0.00     0.008 A 
ATOM     20  C   UNL A   1      35.046  19.984  25.007  1.00  0.00     0.027 A 
ATOM     21  C   UNL A   1      32.796  20.305  24.191  1.00  0.00     0.027 A 
ATOM     22  C   UNL A   1      33.815  19.445  24.617  1.00  0.00     0.046 A 
BRANCH  22  23
ATOM     23  N   UNL A   1      33.581  18.047  24.700  1.00  0.00    -0.306 N 
ATOM     24  C   UNL A   1      32.611  17.395  25.431  1.00  0.00     0.113 A 
ATOM     25  C   UNL A   1      34.255  17.054  24.019  1.00  0.00     0.204 A 
ATOM     26  C   UNL A   1      32.755  16.058  25.145  1.00  0.00     0.131 A 
ATOM     27  N   UNL A   1      33.780  15.854  24.265  1.00  0.00    -0.245 NA
ENDBRANCH  22  23
ENDBRANCH  15  17
ENDBRANCH  12  15
ENDBRANCH   6  11
ENDBRANCH   3   5
ENDBRANCH   2   3
ENDBRANCH   1   2
BRANCH   1  28
ATOM     28  C   UNL A   1      31.923  30.287  26.326  1.00  0.00     0.275 C 
BRANCH  28  29
ATOM     29  O   UNL A   1      33.297  30.695  26.345  1.00  0.00    -0.458 OA
BRANCH  29  30
ATOM     30  C   UNL A   1      33.636  31.632  27.261  1.00  0.00     0.338 C 
ATOM     31  O   UNL A   1      32.993  32.613  27.590  1.00  0.00    -0.246 OA
BRANCH  30  32
ATOM     32  C   UNL A   1      34.935  31.255  27.851  1.00  0.00     0.060 A 
ATOM     33  C   UNL A   1      35.133  29.955  28.315  1.00  0.00     0.016 A 
ATOM     34  C   UNL A   1      35.934  32.213  28.022  1.00  0.00     0.016 A 
ATOM     35  C   UNL A   1      36.292  29.629  29.013  1.00  0.00     0.010 A 
ATOM     36  C   UNL A   1      37.142  31.850  28.630  1.00  0.00     0.010 A 
ATOM     37  C   UNL A   1      37.329  30.559  29.156  1.00  0.00    -0.014 A 
BRANCH  37  38
ATOM     38  C   UNL A   1      38.587  30.186  29.867  1.00  0.00     0.031 A 
ATOM     39  C   UNL A   1      39.584  29.270  29.205  1.00  0.00     0.074 A 
ATOM     40  C   UNL A   1      38.844  30.665  31.101  1.00  0.00     0.049 A 
ATOM     41  N   UNL A   1      40.595  28.626  29.729  1.00  0.00    -0.248 NA
ATOM     42  C   UNL A   1      39.398  29.025  27.768  1.00  0.00     0.031 C 
ATOM     43  C   UNL A   1      38.002  31.612  31.838  1.00  0.00     0.029 A 
ATOM     44  N   UNL A   1      39.894  30.432  31.956  1.00  0.00    -0.354 N 
ATOM     45  C   UNL A   1      41.113  27.832  28.708  1.00  0.00     0.074 A 
ATOM     46  C   UNL A   1      40.303  28.087  27.534  1.00  0.00     0.031 C 
ATOM     47  C   UNL A   1      38.597  31.925  32.998  1.00  0.00     0.029 A 
ATOM     48  C   UNL A   1      39.793  31.109  33.150  1.00  0.00     0.049 A 
ATOM     49  H   UNL A   1      40.647  29.837  31.735  1.00  0.00     0.167 HD
ATOM     50  C   UNL A   1      42.155  26.964  28.760  1.00  0.00     0.034 A 
ATOM     51  C   UNL A   1      40.540  31.039  34.269  1.00  0.00     0.034 A 
ATOM     52  C   UNL A   1      42.987  26.785  29.930  1.00  0.00     0.049 A 
ATOM     53  C   UNL A   1      41.673  30.051  34.316  1.00  0.00     0.074 A 
ATOM     54  C   UNL A   1      44.089  25.961  30.090  1.00  0.00     0.029 A 
ATOM     55  N   UNL A   1      42.817  27.452  31.138  1.00  0.00    -0.354 N 
ATOM     56  N   UNL A   1      42.091  29.230  33.381  1.00  0.00    -0.248 NA
ATOM     57  C   UNL A   1      42.412  29.959  35.580  1.00  0.00     0.031 C 
ATOM     58  C   UNL A   1      44.545  26.085  31.408  1.00  0.00     0.029 A 
ATOM     59  C   UNL A   1      43.775  27.040  32.052  1.00  0.00     0.049 A 
ATOM     60  H   UNL A   1      42.118  28.121  31.318  1.00  0.00     0.167 HD
ATOM     61  C   UNL A   1      43.150  28.526  33.943  1.00  0.00     0.074 A 
ATOM     62  C   UNL A   1      43.318  29.037  35.289  1.00  0.00     0.031 C 
ATOM     63  C   UNL A   1      43.912  27.543  33.399  1.00  0.00     0.034 A 
BRANCH  50  64
ATOM     64  C   UNL A   1      42.395  26.086  27.552  1.00  0.00     0.023 A 
ATOM     65  C   UNL A   1      41.920  24.766  27.465  1.00  0.00     0.031 A 
ATOM     66  C   UNL A   1      43.162  26.576  26.477  1.00  0.00     0.131 A 
ATOM     67  C   UNL A   1      42.285  23.959  26.373  1.00  0.00     0.055 A 
ATOM     68  C   UNL A   1      43.448  25.798  25.354  1.00  0.00     0.041 A 
ATOM     69  F   UNL A   1      43.664  27.822  26.507  1.00  0.00    -0.206 F 
ATOM     70  C   UNL A   1      43.025  24.474  25.305  1.00  0.00     0.022 A 
BRANCH  67  71
ATOM     71  S   UNL A   1      41.917  22.184  26.442  1.00  0.00     0.124 S 
ATOM     72  O   UNL A   1      40.479  22.167  26.184  1.00  0.00    -0.237 OA
ATOM     73  O   UNL A   1      42.762  21.646  25.383  1.00  0.00    -0.237 OA
ATOM     74  O   UNL A   1      42.301  21.806  27.800  1.00  0.00    -0.744 OA
ENDBRANCH  67  71
ENDBRANCH  50  64
BRANCH  51  75
ATOM     75  C   UNL A   1      40.192  31.870  35.459  1.00  0.00     0.023 A 
ATOM     76  C   UNL A   1      39.174  31.476  36.341  1.00  0.00     0.031 A 
ATOM     77  C   UNL A   1      40.870  33.073  35.730  1.00  0.00     0.131 A 
ATOM     78  C   UNL A   1      38.850  32.287  37.440  1.00  0.00     0.055 A 
ATOM     79  C   UNL A   1      40.582  33.847  36.854  1.00  0.00     0.041 A 
ATOM     80  F   UNL A   1      41.849  33.499  34.915  1.00  0.00    -0.206 F 
ATOM     81  C   UNL A   1      39.561  33.459  37.714  1.00  0.00     0.022 A 
BRANCH  78  82
ATOM     82  S   UNL A   1      37.443  31.818  38.483  1.00  0.00     0.124 S 
ATOM     83  O   UNL A   1      36.451  32.822  38.115  1.00  0.00    -0.237 OA
ATOM     84  O   UNL A   1      37.172  30.456  38.035  1.00  0.00    -0.237 OA
ATOM     85  O   UNL A   1      37.972  31.930  39.841  1.00  0.00    -0.744 OA
ENDBRANCH  78  82
ENDBRANCH  51  75
BRANCH  63  86
ATOM     86  C   UNL A   1      45.015  26.993  34.266  1.00  0.00     0.023 A 
ATOM     87  C   UNL A   1      44.823  25.855  35.069  1.00  0.00     0.031 A 
ATOM     88  C   UNL A   1      46.260  27.642  34.321  1.00  0.00     0.131 A 
ATOM     89  C   UNL A   1      45.841  25.436  35.939  1.00  0.00     0.055 A 
ATOM     90  C   UNL A   1      47.289  27.187  35.146  1.00  0.00     0.041 A 
ATOM     91  F   UNL A   1      46.494  28.736  33.578  1.00  0.00    -0.206 F 
ATOM     92  C   UNL A   1      47.077  26.087  35.972  1.00  0.00     0.022 A 
BRANCH  89  93
ATOM     93  S   UNL A   1      45.493  24.086  37.100  1.00  0.00     0.124 S 
ATOM     94  O   UNL A   1      44.840  23.106  36.238  1.00  0.00    -0.237 OA
ATOM     95  O   UNL A   1      46.826  23.730  37.575  1.00  0.00    -0.237 OA
ATOM     96  O   UNL A   1      44.626  24.708  38.099  1.00  0.00    -0.744 OA
ENDBRANCH  89  93
ENDBRANCH  63  86
ENDBRANCH  37  38
ENDBRANCH  30  32
ENDBRANCH  29  30
ENDBRANCH  28  29
ENDBRANCH   1  28
TORSDOF 18
ENDMDL
MODEL 3
REMARK VINA RESULT:     -12.7      5.153     10.451
REMARK SMILES C[C@@H](NC(=O)[C@H]1CC=CC[C@@H]1C(=O)OCCOC(=O)c1ccc(-c2c3nc(c(-c4cc(S(=O)(=O)[O-])ccc4F)c4ccc([nH]4)c(-c4cc(S(=O)(=O)[O-])ccc4F)c4nc(c(-c5cc(S(=O)(=O)[O-])ccc5F)c5ccc2[nH]5)C=C4)C=C3)cc1)c1ccc(-n2ccnc2)cc1
REMARK SMILES IDX 15 1 14 2 12 3 13 4 11 5 6 6 7 7 8 8 10 9 9 10 4 11 3 12
REMARK SMILES IDX 5 14 2 15 1 16 83 17 84 18 93 19 85 20 92 21 86 22 87 23
REMARK SMILES IDX 88 24 91 25 89 26 90 27 16 28 17 29 18 30 19 31 20 32 21 33
REMARK SMILES IDX 82 34 22 35 81 36 23 37 24 38 25 39 75 40 26 41 80 42 74 43
REMARK SMILES IDX 76 44 27 45 79 46 73 47 72 48 28 50 60 51 40 52 59 53 41 54
REMARK SMILES IDX 44 55 58 56 77 57 42 58 43 59 57 61 78 62 45 63 29 64 30 65
REMARK SMILES IDX 38 66 31 67 37 68 39 69 36 70 32 71 33 72 34 73 35 74 61 75
REMARK SMILES IDX 62 76 70 77 63 78 69 79 71 80 68 81 64 82 65 83 66 84 67 85
REMARK SMILES IDX 46 86 47 87 55 88 48 89 54 90 56 91 53 92 49 93 50 94 51 95
REMARK SMILES IDX 52 96
REMARK H PARENT 3 13 76 49 44 60
REMARK Flexibility Score: inf
ROOT
ATOM      1  C   UNL A   1      34.861  20.479  25.008  1.00  0.00     0.274 C 
ENDROOT
BRANCH   1   2
ATOM      2  O   UNL A   1      33.714  21.188  24.478  1.00  0.00    -0.462 OA
BRANCH   2   3
ATOM      3  C   UNL A   1      32.558  21.073  25.190  1.00  0.00     0.310 C 
ATOM      4  O   UNL A   1      31.783  20.128  25.074  1.00  0.00    -0.252 OA
BRANCH   3   5
ATOM      5  C   UNL A   1      32.247  22.274  26.080  1.00  0.00     0.115 C 
ATOM      6  C   UNL A   1      32.288  23.662  25.394  1.00  0.00     0.097 C 
ATOM      7  C   UNL A   1      33.729  24.175  25.216  1.00  0.00     0.041 C 
ATOM      8  C   UNL A   1      34.606  23.953  26.404  1.00  0.00    -0.030 C 
ATOM      9  C   UNL A   1      33.086  22.221  27.378  1.00  0.00     0.043 C 
ATOM     10  C   UNL A   1      34.297  23.105  27.389  1.00  0.00    -0.030 C 
BRANCH   6  11
ATOM     11  C   UNL A   1      31.459  24.666  26.201  1.00  0.00     0.224 C 
ATOM     12  N   UNL A   1      31.856  25.937  26.450  1.00  0.00    -0.349 N 
ATOM     13  H   UNL A   1      31.556  26.245  27.335  1.00  0.00     0.164 HD
ATOM     14  O   UNL A   1      30.381  24.349  26.716  1.00  0.00    -0.275 OA
BRANCH  12  15
ATOM     15  C   UNL A   1      32.617  26.972  25.743  1.00  0.00     0.109 C 
ATOM     16  C   UNL A   1      33.544  27.653  26.763  1.00  0.00     0.036 C 
BRANCH  15  17
ATOM     17  C   UNL A   1      31.826  27.964  24.919  1.00  0.00    -0.026 A 
ATOM     18  C   UNL A   1      31.157  27.532  23.764  1.00  0.00     0.008 A 
ATOM     19  C   UNL A   1      31.703  29.310  25.291  1.00  0.00     0.008 A 
ATOM     20  C   UNL A   1      30.313  28.391  23.053  1.00  0.00     0.027 A 
ATOM     21  C   UNL A   1      30.863  30.175  24.584  1.00  0.00     0.027 A 
ATOM     22  C   UNL A   1      30.134  29.710  23.484  1.00  0.00     0.046 A 
BRANCH  22  23
ATOM     23  N   UNL A   1      29.187  30.555  22.847  1.00  0.00    -0.306 N 
ATOM     24  C   UNL A   1      28.704  30.463  21.560  1.00  0.00     0.113 A 
ATOM     25  C   UNL A   1      28.517  31.619  23.414  1.00  0.00     0.204 A 
ATOM     26  C   UNL A   1      27.775  31.468  21.430  1.00  0.00     0.131 A 
ATOM     27  N   UNL A   1      27.663  32.183  22.589  1.00  0.00    -0.245 NA
ENDBRANCH  22  23
ENDBRANCH  15  17
ENDBRANCH  12  15
ENDBRANCH   6  11
ENDBRANCH   3   5
ENDBRANCH   2   3
ENDBRANCH   1   2
BRANCH   1  28
ATOM     28  C   UNL A   1      36.164  21.152  24.588  1.00  0.00     0.275 C 
BRANCH  28  29
ATOM     29  O   UNL A   1      36.890  21.502  25.773  1.00  0.00    -0.458 OA
BRANCH  29  30
ATOM     30  C   UNL A   1      38.210  21.202  25.783  1.00  0.00     0.338 C 
ATOM     31  O   UNL A   1      38.739  20.178  25.388  1.00  0.00    -0.246 OA
BRANCH  30  32
ATOM     32  C   UNL A   1      38.945  22.357  26.333  1.00  0.00     0.060 A 
ATOM     33  C   UNL A   1      38.499  23.651  26.065  1.00  0.00     0.016 A 
ATOM     34  C   UNL A   1      40.127  22.163  27.046  1.00  0.00     0.016 A 
ATOM     35  C   UNL A   1      39.267  24.748  26.444  1.00  0.00     0.010 A 
ATOM     36  C   UNL A   1      40.840  23.272  27.517  1.00  0.00     0.010 A 
ATOM     37  C   UNL A   1      40.432  24.582  27.202  1.00  0.00    -0.014 A 
BRANCH  37  38
ATOM     38  C   UNL A   1      41.225  25.767  27.643  1.00  0.00     0.031 A 
ATOM     39  C   UNL A   1      40.610  26.784  28.569  1.00  0.00     0.074 A 
ATOM     40  C   UNL A   1      42.494  25.938  27.219  1.00  0.00     0.049 A 
ATOM     41  N   UNL A   1      41.017  27.992  28.865  1.00  0.00    -0.248 NA
ATOM     42  C   UNL A   1      39.352  26.399  29.225  1.00  0.00     0.031 C 
ATOM     43  C   UNL A   1      43.242  25.002  26.374  1.00  0.00     0.029 A 
ATOM     44  N   UNL A   1      43.391  26.953  27.450  1.00  0.00    -0.354 N 
ATOM     45  C   UNL A   1      40.024  28.543  29.671  1.00  0.00     0.074 A 
ATOM     46  C   UNL A   1      39.001  27.529  29.820  1.00  0.00     0.031 C 
ATOM     47  C   UNL A   1      44.493  25.453  26.211  1.00  0.00     0.029 A 
ATOM     48  C   UNL A   1      44.604  26.768  26.828  1.00  0.00     0.049 A 
ATOM     49  H   UNL A   1      43.184  27.738  28.007  1.00  0.00     0.167 HD
ATOM     50  C   UNL A   1      39.973  29.785  30.217  1.00  0.00     0.034 A 
ATOM     51  C   UNL A   1      45.668  27.586  26.710  1.00  0.00     0.034 A 
ATOM     52  C   UNL A   1      41.045  30.750  30.106  1.00  0.00     0.049 A 
ATOM     53  C   UNL A   1      45.581  28.967  27.298  1.00  0.00     0.074 A 
ATOM     54  C   UNL A   1      41.121  32.024  30.644  1.00  0.00     0.029 A 
ATOM     55  N   UNL A   1      42.237  30.541  29.421  1.00  0.00    -0.354 N 
ATOM     56  N   UNL A   1      44.596  29.517  27.970  1.00  0.00    -0.248 NA
ATOM     57  C   UNL A   1      46.735  29.847  27.082  1.00  0.00     0.031 C 
ATOM     58  C   UNL A   1      42.328  32.605  30.234  1.00  0.00     0.029 A 
ATOM     59  C   UNL A   1      43.040  31.670  29.501  1.00  0.00     0.049 A 
ATOM     60  H   UNL A   1      42.477  29.712  28.948  1.00  0.00     0.167 HD
ATOM     61  C   UNL A   1      45.017  30.810  28.265  1.00  0.00     0.074 A 
ATOM     62  C   UNL A   1      46.352  30.946  27.716  1.00  0.00     0.031 C 
ATOM     63  C   UNL A   1      44.358  31.796  28.925  1.00  0.00     0.034 A 
BRANCH  50  64
ATOM     64  C   UNL A   1      38.690  30.196  30.903  1.00  0.00     0.023 A 
ATOM     65  C   UNL A   1      37.644  30.850  30.230  1.00  0.00     0.031 A 
ATOM     66  C   UNL A   1      38.532  29.962  32.283  1.00  0.00     0.131 A 
ATOM     67  C   UNL A   1      36.531  31.320  30.950  1.00  0.00     0.055 A 
ATOM     68  C   UNL A   1      37.386  30.354  32.977  1.00  0.00     0.041 A 
ATOM     69  F   UNL A   1      39.504  29.360  32.989  1.00  0.00    -0.206 F 
ATOM     70  C   UNL A   1      36.384  31.054  32.314  1.00  0.00     0.022 A 
BRANCH  67  71
ATOM     71  S   UNL A   1      35.357  32.422  30.114  1.00  0.00     0.124 S 
ATOM     72  O   UNL A   1      34.279  32.509  31.097  1.00  0.00    -0.237 OA
ATOM     73  O   UNL A   1      36.145  33.634  29.922  1.00  0.00    -0.237 OA
ATOM     74  O   UNL A   1      35.016  31.699  28.891  1.00  0.00    -0.744 OA
ENDBRANCH  67  71
ENDBRANCH  50  64
BRANCH  51  75
ATOM     75  C   UNL A   1      46.871  27.151  25.941  1.00  0.00     0.023 A 
ATOM     76  C   UNL A   1      47.084  27.591  24.625  1.00  0.00     0.031 A 
ATOM     77  C   UNL A   1      47.823  26.283  26.508  1.00  0.00     0.131 A 
ATOM     78  C   UNL A   1      48.211  27.148  23.915  1.00  0.00     0.055 A 
ATOM     79  C   UNL A   1      48.969  25.890  25.818  1.00  0.00     0.041 A 
ATOM     80  F   UNL A   1      47.664  25.827  27.762  1.00  0.00    -0.206 F 
ATOM     81  C   UNL A   1      49.165  26.317  24.509  1.00  0.00     0.022 A 
BRANCH  78  82
ATOM     82  S   UNL A   1      48.388  27.628  22.175  1.00  0.00     0.124 S 
ATOM     83  O   UNL A   1      48.439  26.331  21.512  1.00  0.00    -0.237 OA
ATOM     84  O   UNL A   1      47.179  28.415  21.952  1.00  0.00    -0.237 OA
ATOM     85  O   UNL A   1      49.635  28.390  22.157  1.00  0.00    -0.744 OA
ENDBRANCH  78  82
ENDBRANCH  51  75
BRANCH  63  86
ATOM     86  C   UNL A   1      45.105  33.092  29.109  1.00  0.00     0.023 A 
ATOM     87  C   UNL A   1      44.989  34.147  28.186  1.00  0.00     0.031 A 
ATOM     88  C   UNL A   1      45.975  33.257  30.200  1.00  0.00     0.131 A 
ATOM     89  C   UNL A   1      45.779  35.296  28.339  1.00  0.00     0.055 A 
ATOM     90  C   UNL A   1      46.716  34.426  30.377  1.00  0.00     0.041 A 
ATOM     91  F   UNL A   1      46.126  32.279  31.108  1.00  0.00    -0.206 F 
ATOM     92  C   UNL A   1      46.631  35.447  29.436  1.00  0.00     0.022 A 
BRANCH  89  93
ATOM     93  S   UNL A   1      45.751  36.552  27.030  1.00  0.00     0.124 S 
ATOM     94  O   UNL A   1      46.496  37.646  27.644  1.00  0.00    -0.237 OA
ATOM     95  O   UNL A   1      46.417  35.869  25.926  1.00  0.00    -0.237 OA
ATOM     96  O   UNL A   1      44.326  36.807  26.831  1.00  0.00    -0.744 OA
ENDBRANCH  89  93
ENDBRANCH  63  86
ENDBRANCH  37  38
ENDBRANCH  30  32
ENDBRANCH  29  30
ENDBRANCH  28  29
ENDBRANCH   1  28
TORSDOF 18
ENDMDL
