MODEL 1
REMARK VINA RESULT:     -14.9      0.000      0.000
REMARK SMILES Cc1c(NC(=O)c2cccc(-c3cc4ccccc4oc3=O)c2)cccc1C(=O)OCCOC(=O)c1ccc(-c2c3nc(c(-c4cc(S(=O)(=O)[O-])ccc4F)c4ccc([nH]4)c(-c4cc(S(=O)(=O)[O-])ccc4F)c4nc(c(-c5cc(S(=O)(=O)[O-])ccc5F)c5ccc2[nH]5)C=C4)C=C3)cc1
REMARK SMILES IDX 31 1 30 2 28 3 29 4 27 5 1 6 2 7 3 8 24 9 26 10 25 11 4 12
REMARK SMILES IDX 5 13 6 15 7 16 8 17 23 18 9 19 11 20 10 21 12 22 13 23 21 24
REMARK SMILES IDX 14 25 20 26 22 27 15 28 19 29 16 30 18 31 17 32 32 33 33 34
REMARK SMILES IDX 34 35 35 36 36 37 37 38 98 39 38 40 97 41 39 42 40 43 41 44
REMARK SMILES IDX 91 45 42 46 96 47 90 48 92 49 43 50 95 51 89 52 88 53 44 55
REMARK SMILES IDX 76 56 56 57 75 58 57 59 60 60 74 61 93 62 58 63 59 64 73 66
REMARK SMILES IDX 94 67 61 68 45 69 46 70 54 71 47 72 53 73 55 74 52 75 48 76
REMARK SMILES IDX 49 77 50 78 51 79 77 80 78 81 86 82 79 83 85 84 87 85 84 86
REMARK SMILES IDX 80 87 81 88 82 89 83 90 62 91 63 92 71 93 64 94 70 95 72 96
REMARK SMILES IDX 69 97 65 98 66 99 67 100 68 101
REMARK H PARENT 4 14 92 54 60 65
REMARK Flexibility Score: inf
ROOT
ATOM      1  C   UNL A   1      36.043  23.000  26.510  1.00  0.00     0.275 C 
ENDROOT
BRANCH   1   2
ATOM      2  O   UNL A   1      34.798  23.738  26.305  1.00  0.00    -0.458 OA
BRANCH   2   3
ATOM      3  C   UNL A   1      33.666  23.038  26.266  1.00  0.00     0.338 C 
ATOM      4  O   UNL A   1      33.417  22.160  27.102  1.00  0.00    -0.246 OA
BRANCH   3   5
ATOM      5  C   UNL A   1      32.718  23.237  25.151  1.00  0.00     0.065 A 
ATOM      6  C   UNL A   1      34.386  22.600  23.358  1.00  0.00     0.047 C 
ATOM      7  C   UNL A   1      33.052  23.138  23.790  1.00  0.00    -0.013 A 
ATOM      8  C   UNL A   1      32.153  23.733  22.868  1.00  0.00     0.045 A 
ATOM      9  C   UNL A   1      30.844  24.056  23.246  1.00  0.00     0.026 A 
ATOM     10  C   UNL A   1      31.487  23.815  25.518  1.00  0.00     0.016 A 
ATOM     11  C   UNL A   1      30.510  24.113  24.584  1.00  0.00     0.003 A 
BRANCH   8  12
ATOM     12  N   UNL A   1      32.615  24.124  21.600  1.00  0.00    -0.322 N 
ATOM     13  C   UNL A   1      32.710  25.376  21.018  1.00  0.00     0.255 C 
ATOM     14  H   UNL A   1      32.923  23.382  21.029  1.00  0.00     0.170 HD
ATOM     15  O   UNL A   1      33.021  25.429  19.823  1.00  0.00    -0.269 OA
BRANCH  13  16
ATOM     16  C   UNL A   1      32.581  26.680  21.757  1.00  0.00     0.040 A 
ATOM     17  C   UNL A   1      33.770  27.337  22.109  1.00  0.00     0.014 A 
ATOM     18  C   UNL A   1      31.373  27.193  22.256  1.00  0.00     0.022 A 
ATOM     19  C   UNL A   1      33.749  28.498  22.887  1.00  0.00     0.001 A 
ATOM     20  C   UNL A   1      31.335  28.370  23.039  1.00  0.00    -0.010 A 
ATOM     21  C   UNL A   1      32.537  29.018  23.338  1.00  0.00     0.009 A 
BRANCH  20  22
ATOM     22  C   UNL A   1      30.127  28.819  23.802  1.00  0.00     0.068 A 
ATOM     23  C   UNL A   1      29.949  30.114  24.143  1.00  0.00     0.028 A 
ATOM     24  C   UNL A   1      28.881  28.303  23.137  1.00  0.00     0.344 A 
ATOM     25  C   UNL A   1      29.170  30.933  23.197  1.00  0.00     0.018 A 
ATOM     26  O   UNL A   1      28.638  28.927  21.922  1.00  0.00    -0.422 OA
ATOM     27  O   UNL A   1      28.251  27.344  23.561  1.00  0.00    -0.246 OA
ATOM     28  C   UNL A   1      28.924  32.282  23.388  1.00  0.00     0.012 A 
ATOM     29  C   UNL A   1      28.729  30.325  22.013  1.00  0.00     0.138 A 
ATOM     30  C   UNL A   1      28.320  33.002  22.357  1.00  0.00     0.001 A 
ATOM     31  C   UNL A   1      28.312  31.067  20.920  1.00  0.00     0.048 A 
ATOM     32  C   UNL A   1      28.125  32.429  21.093  1.00  0.00     0.004 A 
ENDBRANCH  20  22
ENDBRANCH  13  16
ENDBRANCH   8  12
ENDBRANCH   3   5
ENDBRANCH   2   3
ENDBRANCH   1   2
BRANCH   1  33
ATOM     33  C   UNL A   1      37.314  23.127  25.579  1.00  0.00     0.275 C 
BRANCH  33  34
ATOM     34  O   UNL A   1      38.452  24.018  25.790  1.00  0.00    -0.458 OA
BRANCH  34  35
ATOM     35  C   UNL A   1      39.437  23.783  26.699  1.00  0.00     0.338 C 
ATOM     36  O   UNL A   1      39.957  22.694  26.911  1.00  0.00    -0.246 OA
BRANCH  35  37
ATOM     37  C   UNL A   1      39.859  25.047  27.324  1.00  0.00     0.060 A 
ATOM     38  C   UNL A   1      40.430  26.076  26.563  1.00  0.00     0.016 A 
ATOM     39  C   UNL A   1      39.364  25.286  28.596  1.00  0.00     0.016 A 
ATOM     40  C   UNL A   1      40.313  27.390  26.998  1.00  0.00     0.010 A 
ATOM     41  C   UNL A   1      39.035  26.566  28.916  1.00  0.00     0.010 A 
ATOM     42  C   UNL A   1      39.568  27.610  28.152  1.00  0.00    -0.014 A 
BRANCH  42  43
ATOM     43  C   UNL A   1      39.662  28.800  28.964  1.00  0.00     0.031 A 
ATOM     44  C   UNL A   1      38.667  29.865  28.845  1.00  0.00     0.074 A 
ATOM     45  C   UNL A   1      40.576  28.580  29.937  1.00  0.00     0.049 A 
ATOM     46  N   UNL A   1      38.892  31.103  29.095  1.00  0.00    -0.248 NA
ATOM     47  C   UNL A   1      37.305  29.634  28.361  1.00  0.00     0.031 C 
ATOM     48  C   UNL A   1      40.858  29.208  31.208  1.00  0.00     0.029 A 
ATOM     49  N   UNL A   1      41.586  27.620  29.838  1.00  0.00    -0.354 N 
ATOM     50  C   UNL A   1      37.655  31.700  29.250  1.00  0.00     0.074 A 
ATOM     51  C   UNL A   1      36.735  30.829  28.565  1.00  0.00     0.031 C 
ATOM     52  C   UNL A   1      42.112  28.857  31.578  1.00  0.00     0.029 A 
ATOM     53  C   UNL A   1      42.708  28.062  30.500  1.00  0.00     0.049 A 
ATOM     54  H   UNL A   1      41.506  26.759  29.368  1.00  0.00     0.167 HD
ATOM     55  C   UNL A   1      37.530  32.699  30.173  1.00  0.00     0.034 A 
ATOM     56  C   UNL A   1      43.734  28.428  29.673  1.00  0.00     0.034 A 
ATOM     57  C   UNL A   1      38.813  32.865  30.867  1.00  0.00     0.049 A 
ATOM     58  C   UNL A   1      43.799  29.938  29.627  1.00  0.00     0.074 A 
ATOM     59  C   UNL A   1      39.262  32.381  32.085  1.00  0.00     0.029 A 
ATOM     60  N   UNL A   1      39.943  33.236  30.150  1.00  0.00    -0.354 N 
ATOM     61  N   UNL A   1      42.768  30.732  29.766  1.00  0.00    -0.248 NA
ATOM     62  C   UNL A   1      45.065  30.648  29.563  1.00  0.00     0.031 C 
ATOM     63  C   UNL A   1      40.684  32.355  32.039  1.00  0.00     0.029 A 
ATOM     64  C   UNL A   1      41.093  32.820  30.799  1.00  0.00     0.049 A 
ATOM     65  H   UNL A   1      39.930  33.727  29.297  1.00  0.00     0.167 HD
ATOM     66  C   UNL A   1      43.210  32.016  29.928  1.00  0.00     0.074 A 
ATOM     67  C   UNL A   1      44.657  31.909  29.776  1.00  0.00     0.031 C 
ATOM     68  C   UNL A   1      42.395  33.080  30.208  1.00  0.00     0.034 A 
BRANCH  55  69
ATOM     69  C   UNL A   1      36.243  33.283  30.728  1.00  0.00     0.023 A 
ATOM     70  C   UNL A   1      35.430  34.052  29.864  1.00  0.00     0.031 A 
ATOM     71  C   UNL A   1      35.748  33.142  32.040  1.00  0.00     0.131 A 
ATOM     72  C   UNL A   1      34.253  34.684  30.307  1.00  0.00     0.055 A 
ATOM     73  C   UNL A   1      34.585  33.791  32.491  1.00  0.00     0.041 A 
ATOM     74  F   UNL A   1      36.331  32.340  32.938  1.00  0.00    -0.206 F 
ATOM     75  C   UNL A   1      33.833  34.572  31.627  1.00  0.00     0.022 A 
BRANCH  72  76
ATOM     76  S   UNL A   1      33.277  35.652  29.122  1.00  0.00     0.124 S 
ATOM     77  O   UNL A   1      32.460  34.623  28.486  1.00  0.00    -0.237 OA
ATOM     78  O   UNL A   1      32.578  36.591  29.991  1.00  0.00    -0.237 OA
ATOM     79  O   UNL A   1      34.294  36.253  28.259  1.00  0.00    -0.744 OA
ENDBRANCH  72  76
ENDBRANCH  55  69
BRANCH  56  80
ATOM     80  C   UNL A   1      43.971  27.485  28.506  1.00  0.00     0.023 A 
ATOM     81  C   UNL A   1      44.138  26.103  28.792  1.00  0.00     0.031 A 
ATOM     82  C   UNL A   1      43.803  27.821  27.155  1.00  0.00     0.131 A 
ATOM     83  C   UNL A   1      44.016  25.121  27.792  1.00  0.00     0.055 A 
ATOM     84  C   UNL A   1      43.740  26.838  26.145  1.00  0.00     0.041 A 
ATOM     85  F   UNL A   1      43.615  29.094  26.783  1.00  0.00    -0.206 F 
ATOM     86  C   UNL A   1      43.818  25.480  26.462  1.00  0.00     0.022 A 
BRANCH  83  87
ATOM     87  S   UNL A   1      43.889  23.377  28.300  1.00  0.00     0.124 S 
ATOM     88  O   UNL A   1      44.294  22.675  27.087  1.00  0.00    -0.237 OA
ATOM     89  O   UNL A   1      44.826  23.311  29.421  1.00  0.00    -0.237 OA
ATOM     90  O   UNL A   1      42.485  23.230  28.671  1.00  0.00    -0.744 OA
ENDBRANCH  83  87
ENDBRANCH  56  80
BRANCH  68  91
ATOM     91  C   UNL A   1      42.815  34.513  30.017  1.00  0.00     0.023 A 
ATOM     92  C   UNL A   1      42.540  35.201  28.834  1.00  0.00     0.031 A 
ATOM     93  C   UNL A   1      43.416  35.271  31.049  1.00  0.00     0.131 A 
ATOM     94  C   UNL A   1      42.996  36.505  28.638  1.00  0.00     0.055 A 
ATOM     95  C   UNL A   1      43.735  36.621  30.903  1.00  0.00     0.041 A 
ATOM     96  F   UNL A   1      43.711  34.739  32.246  1.00  0.00    -0.206 F 
ATOM     97  C   UNL A   1      43.559  37.239  29.676  1.00  0.00     0.022 A 
BRANCH  94  98
ATOM     98  S   UNL A   1      42.972  37.132  26.944  1.00  0.00     0.124 S 
ATOM     99  O   UNL A   1      44.324  37.674  26.813  1.00  0.00    -0.237 OA
ATOM    100  O   UNL A   1      42.699  35.928  26.166  1.00  0.00    -0.237 OA
ATOM    101  O   UNL A   1      41.903  38.125  26.963  1.00  0.00    -0.744 OA
ENDBRANCH  94  98
ENDBRANCH  68  91
ENDBRANCH  42  43
ENDBRANCH  35  37
ENDBRANCH  34  35
ENDBRANCH  33  34
ENDBRANCH   1  33
TORSDOF 17
ENDMDL
MODEL 2
REMARK VINA RESULT:     -14.7      3.645      9.996
REMARK SMILES Cc1c(NC(=O)c2cccc(-c3cc4ccccc4oc3=O)c2)cccc1C(=O)OCCOC(=O)c1ccc(-c2c3nc(c(-c4cc(S(=O)(=O)[O-])ccc4F)c4ccc([nH]4)c(-c4cc(S(=O)(=O)[O-])ccc4F)c4nc(c(-c5cc(S(=O)(=O)[O-])ccc5F)c5ccc2[nH]5)C=C4)C=C3)cc1
REMARK SMILES IDX 31 1 30 2 28 3 29 4 27 5 1 6 2 7 3 8 24 9 26 10 25 11 4 12
REMARK SMILES IDX 5 13 6 15 7 16 8 17 23 18 9 19 11 20 10 21 12 22 13 23 21 24
REMARK SMILES IDX 14 25 20 26 22 27 15 28 19 29 16 30 18 31 17 32 32 33 33 34
REMARK SMILES IDX 34 35 35 36 36 37 37 38 98 39 38 40 97 41 39 42 40 43 41 44
REMARK SMILES IDX 91 45 42 46 96 47 90 48 92 49 43 50 95 51 89 52 88 53 44 55
REMARK SMILES IDX 76 56 56 57 75 58 57 59 60 60 74 61 93 62 58 63 59 64 73 66
REMARK SMILES IDX 94 67 61 68 45 69 46 70 54 71 47 72 53 73 55 74 52 75 48 76
REMARK SMILES IDX 49 77 50 78 51 79 77 80 78 81 86 82 79 83 85 84 87 85 84 86
REMARK SMILES IDX 80 87 81 88 82 89 83 90 62 91 63 92 71 93 64 94 70 95 72 96
REMARK SMILES IDX 69 97 65 98 66 99 67 100 68 101
REMARK H PARENT 4 14 92 54 60 65
REMARK Flexibility Score: inf
ROOT
ATOM      1  C   UNL A   1      32.648  29.934  26.248  1.00  0.00     0.275 C 
ENDROOT
BRANCH   1   2
ATOM      2  O   UNL A   1      33.264  29.175  25.159  1.00  0.00    -0.458 OA
BRANCH   2   3
ATOM      3  C   UNL A   1      33.355  27.854  25.303  1.00  0.00     0.338 C 
ATOM      4  O   UNL A   1      34.405  27.313  25.674  1.00  0.00    -0.246 OA
BRANCH   3   5
ATOM      5  C   UNL A   1      32.216  26.995  24.925  1.00  0.00     0.065 A 
ATOM      6  C   UNL A   1      31.117  27.110  27.202  1.00  0.00     0.047 C 
ATOM      7  C   UNL A   1      31.218  26.553  25.811  1.00  0.00    -0.013 A 
ATOM      8  C   UNL A   1      30.442  25.441  25.394  1.00  0.00     0.045 A 
ATOM      9  C   UNL A   1      30.406  25.053  24.049  1.00  0.00     0.026 A 
ATOM     10  C   UNL A   1      32.324  26.394  23.656  1.00  0.00     0.016 A 
ATOM     11  C   UNL A   1      31.365  25.522  23.173  1.00  0.00     0.003 A 
BRANCH   8  12
ATOM     12  N   UNL A   1      29.804  24.639  26.355  1.00  0.00    -0.322 N 
ATOM     13  C   UNL A   1      30.157  23.410  26.887  1.00  0.00     0.255 C 
ATOM     14  H   UNL A   1      28.965  25.014  26.710  1.00  0.00     0.170 HD
ATOM     15  O   UNL A   1      29.337  22.849  27.621  1.00  0.00    -0.269 OA
BRANCH  13  16
ATOM     16  C   UNL A   1      31.506  22.763  26.736  1.00  0.00     0.040 A 
ATOM     17  C   UNL A   1      32.529  23.208  27.587  1.00  0.00     0.014 A 
ATOM     18  C   UNL A   1      31.849  21.874  25.703  1.00  0.00     0.022 A 
ATOM     19  C   UNL A   1      33.838  22.740  27.447  1.00  0.00     0.001 A 
ATOM     20  C   UNL A   1      33.167  21.387  25.553  1.00  0.00    -0.010 A 
ATOM     21  C   UNL A   1      34.152  21.825  26.445  1.00  0.00     0.009 A 
BRANCH  20  22
ATOM     22  C   UNL A   1      33.646  20.649  24.340  1.00  0.00     0.068 A 
ATOM     23  C   UNL A   1      34.654  19.753  24.412  1.00  0.00     0.028 A 
ATOM     24  C   UNL A   1      32.477  20.029  23.626  1.00  0.00     0.344 A 
ATOM     25  C   UNL A   1      34.260  18.349  24.627  1.00  0.00     0.018 A 
ATOM     26  O   UNL A   1      31.925  18.975  24.340  1.00  0.00    -0.422 OA
ATOM     27  O   UNL A   1      31.993  20.504  22.608  1.00  0.00    -0.246 OA
ATOM     28  C   UNL A   1      35.175  17.316  24.750  1.00  0.00     0.012 A 
ATOM     29  C   UNL A   1      32.896  18.069  24.791  1.00  0.00     0.138 A 
ATOM     30  C   UNL A   1      34.709  16.054  25.114  1.00  0.00     0.001 A 
ATOM     31  C   UNL A   1      32.454  16.876  25.340  1.00  0.00     0.048 A 
ATOM     32  C   UNL A   1      33.382  15.863  25.521  1.00  0.00     0.004 A 
ENDBRANCH  20  22
ENDBRANCH  13  16
ENDBRANCH   8  12
ENDBRANCH   3   5
ENDBRANCH   2   3
ENDBRANCH   1   2
BRANCH   1  33
ATOM     33  C   UNL A   1      33.290  31.217  26.909  1.00  0.00     0.275 C 
BRANCH  33  34
ATOM     34  O   UNL A   1      32.612  32.161  27.795  1.00  0.00    -0.458 OA
BRANCH  34  35
ATOM     35  C   UNL A   1      33.119  33.377  28.133  1.00  0.00     0.338 C 
ATOM     36  O   UNL A   1      32.570  34.453  27.924  1.00  0.00    -0.246 OA
BRANCH  35  37
ATOM     37  C   UNL A   1      34.380  33.211  28.873  1.00  0.00     0.060 A 
ATOM     38  C   UNL A   1      34.452  32.385  30.004  1.00  0.00     0.016 A 
ATOM     39  C   UNL A   1      35.526  33.628  28.216  1.00  0.00     0.016 A 
ATOM     40  C   UNL A   1      35.667  31.807  30.349  1.00  0.00     0.010 A 
ATOM     41  C   UNL A   1      36.658  32.896  28.393  1.00  0.00     0.010 A 
ATOM     42  C   UNL A   1      36.742  32.040  29.496  1.00  0.00    -0.014 A 
BRANCH  42  43
ATOM     43  C   UNL A   1      38.127  31.877  29.874  1.00  0.00     0.031 A 
ATOM     44  C   UNL A   1      38.890  30.712  29.427  1.00  0.00     0.074 A 
ATOM     45  C   UNL A   1      38.566  33.046  30.396  1.00  0.00     0.049 A 
ATOM     46  N   UNL A   1      39.883  30.207  30.061  1.00  0.00    -0.248 NA
ATOM     47  C   UNL A   1      38.553  29.952  28.222  1.00  0.00     0.031 C 
ATOM     48  C   UNL A   1      39.875  33.613  30.622  1.00  0.00     0.029 A 
ATOM     49  N   UNL A   1      37.714  34.009  30.943  1.00  0.00    -0.354 N 
ATOM     50  C   UNL A   1      40.556  29.408  29.156  1.00  0.00     0.074 A 
ATOM     51  C   UNL A   1      39.584  29.102  28.137  1.00  0.00     0.031 C 
ATOM     52  C   UNL A   1      39.746  34.613  31.527  1.00  0.00     0.029 A 
ATOM     53  C   UNL A   1      38.352  34.652  31.979  1.00  0.00     0.049 A 
ATOM     54  H   UNL A   1      36.799  34.199  30.635  1.00  0.00     0.167 HD
ATOM     55  C   UNL A   1      41.918  29.342  29.238  1.00  0.00     0.034 A 
ATOM     56  C   UNL A   1      37.875  34.322  33.218  1.00  0.00     0.034 A 
ATOM     57  C   UNL A   1      42.372  30.247  30.302  1.00  0.00     0.049 A 
ATOM     58  C   UNL A   1      38.861  33.385  33.878  1.00  0.00     0.074 A 
ATOM     59  C   UNL A   1      42.866  31.540  30.252  1.00  0.00     0.029 A 
ATOM     60  N   UNL A   1      41.964  30.030  31.613  1.00  0.00    -0.354 N 
ATOM     61  N   UNL A   1      39.631  32.542  33.238  1.00  0.00    -0.248 NA
ATOM     62  C   UNL A   1      39.139  33.447  35.303  1.00  0.00     0.031 C 
ATOM     63  C   UNL A   1      42.637  32.137  31.524  1.00  0.00     0.029 A 
ATOM     64  C   UNL A   1      42.007  31.208  32.338  1.00  0.00     0.049 A 
ATOM     65  H   UNL A   1      41.683  29.160  31.976  1.00  0.00     0.167 HD
ATOM     66  C   UNL A   1      40.565  32.043  34.103  1.00  0.00     0.074 A 
ATOM     67  C   UNL A   1      40.201  32.631  35.388  1.00  0.00     0.031 C 
ATOM     68  C   UNL A   1      41.593  31.218  33.731  1.00  0.00     0.034 A 
BRANCH  55  69
ATOM     69  C   UNL A   1      42.878  28.793  28.197  1.00  0.00     0.023 A 
ATOM     70  C   UNL A   1      43.900  29.642  27.716  1.00  0.00     0.031 A 
ATOM     71  C   UNL A   1      42.871  27.498  27.642  1.00  0.00     0.131 A 
ATOM     72  C   UNL A   1      44.795  29.241  26.707  1.00  0.00     0.055 A 
ATOM     73  C   UNL A   1      43.749  27.102  26.617  1.00  0.00     0.041 A 
ATOM     74  F   UNL A   1      42.052  26.537  28.085  1.00  0.00    -0.206 F 
ATOM     75  C   UNL A   1      44.714  27.976  26.139  1.00  0.00     0.022 A 
BRANCH  72  76
ATOM     76  S   UNL A   1      46.073  30.405  26.154  1.00  0.00     0.124 S 
ATOM     77  O   UNL A   1      46.757  29.640  25.117  1.00  0.00    -0.237 OA
ATOM     78  O   UNL A   1      45.281  31.544  25.704  1.00  0.00    -0.237 OA
ATOM     79  O   UNL A   1      46.859  30.643  27.365  1.00  0.00    -0.744 OA
ENDBRANCH  72  76
ENDBRANCH  55  69
BRANCH  56  80
ATOM     80  C   UNL A   1      36.361  34.241  33.310  1.00  0.00     0.023 A 
ATOM     81  C   UNL A   1      35.615  35.417  33.030  1.00  0.00     0.031 A 
ATOM     82  C   UNL A   1      35.626  33.052  33.413  1.00  0.00     0.131 A 
ATOM     83  C   UNL A   1      34.236  35.369  32.749  1.00  0.00     0.055 A 
ATOM     84  C   UNL A   1      34.233  33.014  33.190  1.00  0.00     0.041 A 
ATOM     85  F   UNL A   1      36.239  31.884  33.652  1.00  0.00    -0.206 F 
ATOM     86  C   UNL A   1      33.535  34.169  32.828  1.00  0.00     0.022 A 
BRANCH  83  87
ATOM     87  S   UNL A   1      33.440  36.853  32.057  1.00  0.00     0.124 S 
ATOM     88  O   UNL A   1      34.347  37.913  32.485  1.00  0.00    -0.237 OA
ATOM     89  O   UNL A   1      33.428  36.561  30.625  1.00  0.00    -0.237 OA
ATOM     90  O   UNL A   1      32.124  36.861  32.690  1.00  0.00    -0.744 OA
ENDBRANCH  83  87
ENDBRANCH  56  80
BRANCH  68  91
ATOM     91  C   UNL A   1      42.377  30.386  34.711  1.00  0.00     0.023 A 
ATOM     92  C   UNL A   1      41.986  29.087  35.038  1.00  0.00     0.031 A 
ATOM     93  C   UNL A   1      43.597  30.826  35.273  1.00  0.00     0.131 A 
ATOM     94  C   UNL A   1      42.677  28.349  36.001  1.00  0.00     0.055 A 
ATOM     95  C   UNL A   1      44.367  30.028  36.119  1.00  0.00     0.041 A 
ATOM     96  F   UNL A   1      44.102  32.044  35.021  1.00  0.00    -0.206 F 
ATOM     97  C   UNL A   1      43.889  28.790  36.519  1.00  0.00     0.022 A 
BRANCH  94  98
ATOM     98  S   UNL A   1      41.847  26.885  36.657  1.00  0.00     0.124 S 
ATOM     99  O   UNL A   1      41.714  26.060  35.457  1.00  0.00    -0.237 OA
ATOM    100  O   UNL A   1      42.800  26.401  37.651  1.00  0.00    -0.237 OA
ATOM    101  O   UNL A   1      40.595  27.413  37.190  1.00  0.00    -0.744 OA
ENDBRANCH  94  98
ENDBRANCH  68  91
ENDBRANCH  42  43
ENDBRANCH  35  37
ENDBRANCH  34  35
ENDBRANCH  33  34
ENDBRANCH   1  33
TORSDOF 17
ENDMDL
MODEL 3
REMARK VINA RESULT:     -14.5      2.458      3.004
REMARK SMILES Cc1c(NC(=O)c2cccc(-c3cc4ccccc4oc3=O)c2)cccc1C(=O)OCCOC(=O)c1ccc(-c2c3nc(c(-c4cc(S(=O)(=O)[O-])ccc4F)c4ccc([nH]4)c(-c4cc(S(=O)(=O)[O-])ccc4F)c4nc(c(-c5cc(S(=O)(=O)[O-])ccc5F)c5ccc2[nH]5)C=C4)C=C3)cc1
REMARK SMILES IDX 31 1 30 2 28 3 29 4 27 5 1 6 2 7 3 8 24 9 26 10 25 11 4 12
REMARK SMILES IDX 5 13 6 15 7 16 8 17 23 18 9 19 11 20 10 21 12 22 13 23 21 24
REMARK SMILES IDX 14 25 20 26 22 27 15 28 19 29 16 30 18 31 17 32 32 33 33 34
REMARK SMILES IDX 34 35 35 36 36 37 37 38 98 39 38 40 97 41 39 42 40 43 41 44
REMARK SMILES IDX 91 45 42 46 96 47 90 48 92 49 43 50 95 51 89 52 88 53 44 55
REMARK SMILES IDX 76 56 56 57 75 58 57 59 60 60 74 61 93 62 58 63 59 64 73 66
REMARK SMILES IDX 94 67 61 68 45 69 46 70 54 71 47 72 53 73 55 74 52 75 48 76
REMARK SMILES IDX 49 77 50 78 51 79 77 80 78 81 86 82 79 83 85 84 87 85 84 86
REMARK SMILES IDX 80 87 81 88 82 89 83 90 62 91 63 92 71 93 64 94 70 95 72 96
REMARK SMILES IDX 69 97 65 98 66 99 67 100 68 101
REMARK H PARENT 4 14 92 54 60 65
REMARK Flexibility Score: inf
ROOT
ATOM      1  C   UNL A   1      36.673  23.080  26.174  1.00  0.00     0.275 C 
ENDROOT
BRANCH   1   2
ATOM      2  O   UNL A   1      35.330  23.657  26.208  1.00  0.00    -0.458 OA
BRANCH   2   3
ATOM      3  C   UNL A   1      34.299  22.817  26.269  1.00  0.00     0.338 C 
ATOM      4  O   UNL A   1      34.261  21.894  27.094  1.00  0.00    -0.246 OA
BRANCH   3   5
ATOM      5  C   UNL A   1      33.211  22.916  25.276  1.00  0.00     0.065 A 
ATOM      6  C   UNL A   1      34.736  22.604  23.281  1.00  0.00     0.047 C 
ATOM      7  C   UNL A   1      33.397  22.921  23.883  1.00  0.00    -0.013 A 
ATOM      8  C   UNL A   1      32.323  23.412  23.098  1.00  0.00     0.045 A 
ATOM      9  C   UNL A   1      31.033  23.522  23.632  1.00  0.00     0.026 A 
ATOM     10  C   UNL A   1      31.960  23.291  25.805  1.00  0.00     0.016 A 
ATOM     11  C   UNL A   1      30.850  23.477  25.000  1.00  0.00     0.003 A 
BRANCH   8  12
ATOM     12  N   UNL A   1      32.575  23.915  21.811  1.00  0.00    -0.322 N 
ATOM     13  C   UNL A   1      32.815  25.208  21.376  1.00  0.00     0.255 C 
ATOM     14  H   UNL A   1      32.583  23.235  21.099  1.00  0.00     0.170 HD
ATOM     15  O   UNL A   1      32.866  25.400  20.156  1.00  0.00    -0.269 OA
BRANCH  13  16
ATOM     16  C   UNL A   1      33.137  26.371  22.273  1.00  0.00     0.040 A 
ATOM     17  C   UNL A   1      33.810  27.459  21.695  1.00  0.00     0.014 A 
ATOM     18  C   UNL A   1      32.960  26.372  23.666  1.00  0.00     0.022 A 
ATOM     19  C   UNL A   1      34.242  28.536  22.473  1.00  0.00     0.001 A 
ATOM     20  C   UNL A   1      33.386  27.457  24.466  1.00  0.00    -0.010 A 
ATOM     21  C   UNL A   1      34.019  28.541  23.849  1.00  0.00     0.009 A 
BRANCH  20  22
ATOM     22  C   UNL A   1      33.456  27.407  25.962  1.00  0.00     0.068 A 
ATOM     23  C   UNL A   1      34.323  28.177  26.653  1.00  0.00     0.028 A 
ATOM     24  C   UNL A   1      32.078  27.563  26.543  1.00  0.00     0.344 A 
ATOM     25  C   UNL A   1      33.810  29.481  27.113  1.00  0.00     0.018 A 
ATOM     26  O   UNL A   1      31.579  28.846  26.373  1.00  0.00    -0.422 OA
ATOM     27  O   UNL A   1      31.431  26.620  26.978  1.00  0.00    -0.246 OA
ATOM     28  C   UNL A   1      34.582  30.395  27.810  1.00  0.00     0.012 A 
ATOM     29  C   UNL A   1      32.501  29.832  26.755  1.00  0.00     0.138 A 
ATOM     30  C   UNL A   1      34.055  31.663  28.055  1.00  0.00     0.001 A 
ATOM     31  C   UNL A   1      32.050  31.141  26.822  1.00  0.00     0.048 A 
ATOM     32  C   UNL A   1      32.851  32.071  27.464  1.00  0.00     0.004 A 
ENDBRANCH  20  22
ENDBRANCH  13  16
ENDBRANCH   8  12
ENDBRANCH   3   5
ENDBRANCH   2   3
ENDBRANCH   1   2
BRANCH   1  33
ATOM     33  C   UNL A   1      38.001  23.928  26.067  1.00  0.00     0.275 C 
BRANCH  33  34
ATOM     34  O   UNL A   1      38.755  24.494  27.183  1.00  0.00    -0.458 OA
BRANCH  34  35
ATOM     35  C   UNL A   1      39.822  25.324  27.030  1.00  0.00     0.338 C 
ATOM     36  O   UNL A   1      40.774  25.121  26.286  1.00  0.00    -0.246 OA
BRANCH  35  37
ATOM     37  C   UNL A   1      39.623  26.552  27.818  1.00  0.00     0.060 A 
ATOM     38  C   UNL A   1      39.435  26.499  29.206  1.00  0.00     0.016 A 
ATOM     39  C   UNL A   1      39.961  27.737  27.186  1.00  0.00     0.016 A 
ATOM     40  C   UNL A   1      39.793  27.592  29.984  1.00  0.00     0.010 A 
ATOM     41  C   UNL A   1      40.531  28.715  27.938  1.00  0.00     0.010 A 
ATOM     42  C   UNL A   1      40.385  28.668  29.329  1.00  0.00    -0.014 A 
BRANCH  42  43
ATOM     43  C   UNL A   1      40.454  30.006  29.865  1.00  0.00     0.031 A 
ATOM     44  C   UNL A   1      39.261  30.852  29.916  1.00  0.00     0.074 A 
ATOM     45  C   UNL A   1      41.639  30.149  30.502  1.00  0.00     0.049 A 
ATOM     46  N   UNL A   1      39.276  32.134  29.878  1.00  0.00    -0.248 NA
ATOM     47  C   UNL A   1      37.901  30.311  29.953  1.00  0.00     0.031 C 
ATOM     48  C   UNL A   1      42.139  31.076  31.492  1.00  0.00     0.029 A 
ATOM     49  N   UNL A   1      42.758  29.359  30.227  1.00  0.00    -0.354 N 
ATOM     50  C   UNL A   1      38.041  32.550  30.338  1.00  0.00     0.074 A 
ATOM     51  C   UNL A   1      37.171  31.418  30.143  1.00  0.00     0.031 C 
ATOM     52  C   UNL A   1      43.492  31.013  31.476  1.00  0.00     0.029 A 
ATOM     53  C   UNL A   1      43.901  30.104  30.401  1.00  0.00     0.049 A 
ATOM     54  H   UNL A   1      42.732  28.415  29.952  1.00  0.00     0.167 HD
ATOM     55  C   UNL A   1      37.979  33.696  31.081  1.00  0.00     0.034 A 
ATOM     56  C   UNL A   1      44.533  30.435  29.234  1.00  0.00     0.034 A 
ATOM     57  C   UNL A   1      39.343  34.206  31.275  1.00  0.00     0.049 A 
ATOM     58  C   UNL A   1      44.252  31.890  28.932  1.00  0.00     0.074 A 
ATOM     59  C   UNL A   1      40.224  34.076  32.336  1.00  0.00     0.029 A 
ATOM     60  N   UNL A   1      40.102  34.583  30.175  1.00  0.00    -0.354 N 
ATOM     61  N   UNL A   1      43.161  32.526  29.278  1.00  0.00    -0.248 NA
ATOM     62  C   UNL A   1      45.258  32.757  28.341  1.00  0.00     0.031 C 
ATOM     63  C   UNL A   1      41.539  34.262  31.826  1.00  0.00     0.029 A 
ATOM     64  C   UNL A   1      41.453  34.503  30.464  1.00  0.00     0.049 A 
ATOM     65  H   UNL A   1      39.732  34.867  29.309  1.00  0.00     0.167 HD
ATOM     66  C   UNL A   1      43.342  33.867  29.079  1.00  0.00     0.074 A 
ATOM     67  C   UNL A   1      44.667  33.955  28.475  1.00  0.00     0.031 C 
ATOM     68  C   UNL A   1      42.435  34.826  29.442  1.00  0.00     0.034 A 
BRANCH  55  69
ATOM     69  C   UNL A   1      36.818  34.180  31.932  1.00  0.00     0.023 A 
ATOM     70  C   UNL A   1      35.639  34.601  31.276  1.00  0.00     0.031 A 
ATOM     71  C   UNL A   1      36.776  34.256  33.338  1.00  0.00     0.131 A 
ATOM     72  C   UNL A   1      34.537  35.125  31.978  1.00  0.00     0.055 A 
ATOM     73  C   UNL A   1      35.686  34.799  34.041  1.00  0.00     0.041 A 
ATOM     74  F   UNL A   1      37.759  33.774  34.107  1.00  0.00    -0.206 F 
ATOM     75  C   UNL A   1      34.561  35.243  33.362  1.00  0.00     0.022 A 
BRANCH  72  76
ATOM     76  S   UNL A   1      33.069  35.641  31.046  1.00  0.00     0.124 S 
ATOM     77  O   UNL A   1      33.038  34.669  29.959  1.00  0.00    -0.237 OA
ATOM     78  O   UNL A   1      32.013  35.530  32.046  1.00  0.00    -0.237 OA
ATOM     79  O   UNL A   1      33.389  37.009  30.641  1.00  0.00    -0.744 OA
ENDBRANCH  72  76
ENDBRANCH  55  69
BRANCH  56  80
ATOM     80  C   UNL A   1      44.614  29.308  28.219  1.00  0.00     0.023 A 
ATOM     81  C   UNL A   1      45.289  28.118  28.600  1.00  0.00     0.031 A 
ATOM     82  C   UNL A   1      43.879  29.247  27.027  1.00  0.00     0.131 A 
ATOM     83  C   UNL A   1      45.126  26.915  27.890  1.00  0.00     0.055 A 
ATOM     84  C   UNL A   1      43.764  28.054  26.282  1.00  0.00     0.041 A 
ATOM     85  F   UNL A   1      43.188  30.309  26.591  1.00  0.00    -0.206 F 
ATOM     86  C   UNL A   1      44.364  26.873  26.726  1.00  0.00     0.022 A 
BRANCH  83  87
ATOM     87  S   UNL A   1      45.733  25.372  28.644  1.00  0.00     0.124 S 
ATOM     88  O   UNL A   1      46.981  25.150  27.922  1.00  0.00    -0.237 OA
ATOM     89  O   UNL A   1      45.865  25.746  30.051  1.00  0.00    -0.237 OA
ATOM     90  O   UNL A   1      44.668  24.413  28.366  1.00  0.00    -0.744 OA
ENDBRANCH  83  87
ENDBRANCH  56  80
BRANCH  68  91
ATOM     91  C   UNL A   1      42.459  36.230  28.899  1.00  0.00     0.023 A 
ATOM     92  C   UNL A   1      43.158  37.250  29.545  1.00  0.00     0.031 A 
ATOM     93  C   UNL A   1      41.866  36.573  27.661  1.00  0.00     0.131 A 
ATOM     94  C   UNL A   1      43.116  38.562  29.074  1.00  0.00     0.055 A 
ATOM     95  C   UNL A   1      41.954  37.854  27.115  1.00  0.00     0.041 A 
ATOM     96  F   UNL A   1      41.186  35.682  26.923  1.00  0.00    -0.206 F 
ATOM     97  C   UNL A   1      42.552  38.871  27.842  1.00  0.00     0.022 A 
BRANCH  94  98
ATOM     98  S   UNL A   1      43.676  39.854  30.205  1.00  0.00     0.124 S 
ATOM     99  O   UNL A   1      43.915  39.089  31.429  1.00  0.00    -0.237 OA
ATOM    100  O   UNL A   1      44.870  40.363  29.537  1.00  0.00    -0.237 OA
ATOM    101  O   UNL A   1      42.544  40.775  30.259  1.00  0.00    -0.744 OA
ENDBRANCH  94  98
ENDBRANCH  68  91
ENDBRANCH  42  43
ENDBRANCH  35  37
ENDBRANCH  34  35
ENDBRANCH  33  34
ENDBRANCH   1  33
TORSDOF 17
ENDMDL
