MODEL 1
REMARK VINA RESULT:     -12.8      0.000      0.000
REMARK SMILES Cc1c(CC(=O)OCCOC(=O)c2ccc(-c3c4nc(c(-c5cc(S(=O)(=O)[O-])ccc5F)c5ccc([nH]5)c(-c5cc(S(=O)(=O)[O-])ccc5F)c5nc(c(-c6cc(S(=O)(=O)[O-])ccc6F)c6ccc3[nH]6)C=C5)C=C4)cc2)cc(-c2ccc(S(C)(=O)=O)cc2)n1-c1ccccc1
REMARK SMILES IDX 8 1 7 2 5 3 6 4 4 5 3 6 1 7 2 8 88 9 76 10 77 11 89 12 90 13
REMARK SMILES IDX 94 14 91 15 93 16 92 17 78 18 79 19 87 20 80 21 86 22 81 23
REMARK SMILES IDX 82 24 83 25 84 26 85 27 9 28 10 29 11 30 12 31 13 32 14 33
REMARK SMILES IDX 75 34 15 35 74 36 16 37 17 38 18 39 68 40 19 41 73 42 67 43
REMARK SMILES IDX 69 44 20 45 72 46 66 47 65 48 21 50 53 51 33 52 52 53 34 54
REMARK SMILES IDX 37 55 51 56 70 57 35 58 36 59 50 61 71 62 38 63 22 64 23 65
REMARK SMILES IDX 31 66 24 67 30 68 32 69 29 70 25 71 26 72 27 73 28 74 54 75
REMARK SMILES IDX 55 76 63 77 56 78 62 79 64 80 61 81 57 82 58 83 59 84 60 85
REMARK SMILES IDX 39 86 40 87 48 88 41 89 47 90 49 91 46 92 42 93 43 94 44 95
REMARK SMILES IDX 45 96
REMARK H PARENT 69 49 37 60
REMARK Flexibility Score: inf
ROOT
ATOM      1  C   UNL A   1      33.215  29.405  27.601  1.00  0.00     0.274 C 
ENDROOT
BRANCH   1   2
ATOM      2  O   UNL A   1      31.874  29.108  27.114  1.00  0.00    -0.462 OA
BRANCH   2   3
ATOM      3  C   UNL A   1      31.759  28.393  25.959  1.00  0.00     0.310 C 
ATOM      4  O   UNL A   1      32.181  28.787  24.873  1.00  0.00    -0.252 OA
BRANCH   3   5
ATOM      5  C   UNL A   1      31.145  27.002  26.119  1.00  0.00     0.160 C 
BRANCH   5   6
ATOM      6  C   UNL A   1      32.009  25.792  25.865  1.00  0.00    -0.015 A 
ATOM      7  C   UNL A   1      34.350  26.908  25.750  1.00  0.00     0.065 C 
ATOM      8  C   UNL A   1      33.388  25.761  25.715  1.00  0.00     0.024 A 
ATOM      9  N   UNL A   1      33.781  24.466  25.405  1.00  0.00    -0.314 N 
ATOM     10  C   UNL A   1      31.553  24.473  25.549  1.00  0.00     0.033 A 
ATOM     11  C   UNL A   1      32.646  23.672  25.246  1.00  0.00     0.053 A 
BRANCH   9  12
ATOM     12  C   UNL A   1      35.121  24.048  25.221  1.00  0.00     0.046 A 
ATOM     13  C   UNL A   1      35.974  23.941  26.324  1.00  0.00     0.026 A 
ATOM     14  C   UNL A   1      35.568  23.723  23.935  1.00  0.00     0.026 A 
ATOM     15  C   UNL A   1      37.280  23.494  26.137  1.00  0.00     0.002 A 
ATOM     16  C   UNL A   1      36.882  23.301  23.755  1.00  0.00     0.002 A 
ATOM     17  C   UNL A   1      37.734  23.181  24.855  1.00  0.00     0.000 A 
ENDBRANCH   9  12
BRANCH  11  18
ATOM     18  C   UNL A   1      32.676  22.247  24.880  1.00  0.00    -0.001 A 
ATOM     19  C   UNL A   1      32.332  21.833  23.582  1.00  0.00     0.011 A 
ATOM     20  C   UNL A   1      33.006  21.274  25.835  1.00  0.00     0.011 A 
ATOM     21  C   UNL A   1      32.288  20.475  23.250  1.00  0.00     0.021 A 
ATOM     22  C   UNL A   1      32.962  19.912  25.511  1.00  0.00     0.021 A 
ATOM     23  C   UNL A   1      32.592  19.520  24.224  1.00  0.00     0.067 A 
BRANCH  23  24
ATOM     24  S   UNL A   1      32.543  17.800  23.777  1.00  0.00     0.175 S 
ATOM     25  C   UNL A   1      34.224  17.251  23.932  1.00  0.00     0.163 C 
ATOM     26  O   UNL A   1      31.747  17.121  24.760  1.00  0.00    -0.224 OA
ATOM     27  O   UNL A   1      32.196  17.722  22.355  1.00  0.00    -0.224 OA
ENDBRANCH  23  24
ENDBRANCH  11  18
ENDBRANCH   5   6
ENDBRANCH   3   5
ENDBRANCH   2   3
ENDBRANCH   1   2
BRANCH   1  28
ATOM     28  C   UNL A   1      33.514  30.937  27.546  1.00  0.00     0.275 C 
BRANCH  28  29
ATOM     29  O   UNL A   1      34.411  31.592  28.530  1.00  0.00    -0.458 OA
BRANCH  29  30
ATOM     30  C   UNL A   1      35.609  32.104  28.109  1.00  0.00     0.338 C 
ATOM     31  O   UNL A   1      35.690  33.232  27.638  1.00  0.00    -0.246 OA
BRANCH  30  32
ATOM     32  C   UNL A   1      36.871  31.218  28.354  1.00  0.00     0.060 A 
ATOM     33  C   UNL A   1      37.322  30.453  27.290  1.00  0.00     0.016 A 
ATOM     34  C   UNL A   1      37.580  30.963  29.553  1.00  0.00     0.016 A 
ATOM     35  C   UNL A   1      38.441  29.547  27.413  1.00  0.00     0.010 A 
ATOM     36  C   UNL A   1      38.689  29.947  29.687  1.00  0.00     0.010 A 
ATOM     37  C   UNL A   1      39.178  29.180  28.611  1.00  0.00    -0.014 A 
BRANCH  37  38
ATOM     38  C   UNL A   1      40.169  27.794  28.522  1.00  0.00     0.031 A 
ATOM     39  C   UNL A   1      41.113  28.052  29.651  1.00  0.00     0.074 A 
ATOM     40  C   UNL A   1      40.558  26.624  27.809  1.00  0.00     0.049 A 
ATOM     41  N   UNL A   1      41.811  29.154  29.651  1.00  0.00    -0.248 NA
ATOM     42  C   UNL A   1      41.003  27.404  30.961  1.00  0.00     0.031 C 
ATOM     43  C   UNL A   1      40.110  26.157  26.480  1.00  0.00     0.029 A 
ATOM     44  N   UNL A   1      41.495  25.528  28.095  1.00  0.00    -0.354 N 
ATOM     45  C   UNL A   1      42.488  29.188  30.840  1.00  0.00     0.074 A 
ATOM     46  C   UNL A   1      41.776  28.229  31.680  1.00  0.00     0.031 C 
ATOM     47  C   UNL A   1      40.589  24.911  26.157  1.00  0.00     0.029 A 
ATOM     48  C   UNL A   1      41.482  24.366  27.189  1.00  0.00     0.049 A 
ATOM     49  H   UNL A   1      42.110  25.570  28.863  1.00  0.00     0.167 HD
ATOM     50  C   UNL A   1      43.831  29.405  30.744  1.00  0.00     0.034 A 
ATOM     51  C   UNL A   1      42.179  23.128  27.191  1.00  0.00     0.034 A 
ATOM     52  C   UNL A   1      44.571  28.177  30.859  1.00  0.00     0.049 A 
ATOM     53  C   UNL A   1      43.459  23.383  27.843  1.00  0.00     0.074 A 
ATOM     54  C   UNL A   1      44.437  27.076  31.681  1.00  0.00     0.029 A 
ATOM     55  N   UNL A   1      45.252  27.754  29.735  1.00  0.00    -0.354 N 
ATOM     56  N   UNL A   1      44.426  23.986  27.227  1.00  0.00    -0.248 NA
ATOM     57  C   UNL A   1      43.771  22.875  29.174  1.00  0.00     0.031 C 
ATOM     58  C   UNL A   1      44.502  25.981  30.793  1.00  0.00     0.029 A 
ATOM     59  C   UNL A   1      45.094  26.394  29.604  1.00  0.00     0.049 A 
ATOM     60  H   UNL A   1      45.767  28.332  29.127  1.00  0.00     0.167 HD
ATOM     61  C   UNL A   1      45.186  24.429  28.262  1.00  0.00     0.074 A 
ATOM     62  C   UNL A   1      44.938  23.498  29.350  1.00  0.00     0.031 C 
ATOM     63  C   UNL A   1      45.362  25.771  28.328  1.00  0.00     0.034 A 
BRANCH  50  64
ATOM     64  C   UNL A   1      44.220  30.525  29.813  1.00  0.00     0.023 A 
ATOM     65  C   UNL A   1      45.323  30.351  28.970  1.00  0.00     0.031 A 
ATOM     66  C   UNL A   1      43.572  31.780  29.796  1.00  0.00     0.131 A 
ATOM     67  C   UNL A   1      45.788  31.432  28.204  1.00  0.00     0.055 A 
ATOM     68  C   UNL A   1      44.076  32.867  29.088  1.00  0.00     0.041 A 
ATOM     69  F   UNL A   1      42.416  31.969  30.455  1.00  0.00    -0.206 F 
ATOM     70  C   UNL A   1      45.200  32.698  28.289  1.00  0.00     0.022 A 
BRANCH  67  71
ATOM     71  S   UNL A   1      47.158  31.149  27.052  1.00  0.00     0.124 S 
ATOM     72  O   UNL A   1      46.512  31.311  25.753  1.00  0.00    -0.237 OA
ATOM     73  O   UNL A   1      48.098  32.201  27.424  1.00  0.00    -0.237 OA
ATOM     74  O   UNL A   1      47.599  29.790  27.360  1.00  0.00    -0.744 OA
ENDBRANCH  67  71
ENDBRANCH  50  64
BRANCH  51  75
ATOM     75  C   UNL A   1      42.274  21.632  26.618  1.00  0.00     0.023 A 
ATOM     76  C   UNL A   1      43.355  21.166  25.734  1.00  0.00     0.031 A 
ATOM     77  C   UNL A   1      41.602  20.582  27.260  1.00  0.00     0.131 A 
ATOM     78  C   UNL A   1      43.717  19.783  25.580  1.00  0.00     0.055 A 
ATOM     79  C   UNL A   1      41.964  19.214  27.098  1.00  0.00     0.041 A 
ATOM     80  F   UNL A   1      40.644  20.847  28.158  1.00  0.00    -0.206 F 
ATOM     81  C   UNL A   1      43.022  18.811  26.282  1.00  0.00     0.022 A 
BRANCH  78  82
ATOM     82  S   UNL A   1      45.208  19.205  24.625  1.00  0.00     0.124 S 
ATOM     83  O   UNL A   1      44.672  18.956  23.293  1.00  0.00    -0.237 OA
ATOM     84  O   UNL A   1      46.139  20.321  24.757  1.00  0.00    -0.237 OA
ATOM     85  O   UNL A   1      45.628  17.995  25.340  1.00  0.00    -0.744 OA
ENDBRANCH  78  82
ENDBRANCH  51  75
BRANCH  63  86
ATOM     86  C   UNL A   1      45.645  26.495  27.015  1.00  0.00     0.023 A 
ATOM     87  C   UNL A   1      46.843  26.425  26.252  1.00  0.00     0.031 A 
ATOM     88  C   UNL A   1      44.669  27.397  26.566  1.00  0.00     0.131 A 
ATOM     89  C   UNL A   1      47.041  27.264  25.134  1.00  0.00     0.055 A 
ATOM     90  C   UNL A   1      44.848  28.198  25.437  1.00  0.00     0.041 A 
ATOM     91  F   UNL A   1      43.513  27.525  27.237  1.00  0.00    -0.206 F 
ATOM     92  C   UNL A   1      46.040  28.146  24.725  1.00  0.00     0.022 A 
BRANCH  89  93
ATOM     93  S   UNL A   1      48.633  27.262  24.237  1.00  0.00     0.124 S 
ATOM     94  O   UNL A   1      48.323  27.968  22.999  1.00  0.00    -0.237 OA
ATOM     95  O   UNL A   1      49.527  27.958  25.158  1.00  0.00    -0.237 OA
ATOM     96  O   UNL A   1      48.928  25.837  24.064  1.00  0.00    -0.744 OA
ENDBRANCH  89  93
ENDBRANCH  63  86
ENDBRANCH  37  38
ENDBRANCH  30  32
ENDBRANCH  29  30
ENDBRANCH  28  29
ENDBRANCH   1  28
TORSDOF 18
ENDMDL
MODEL 2
REMARK VINA RESULT:     -12.3      5.267     13.171
REMARK SMILES Cc1c(CC(=O)OCCOC(=O)c2ccc(-c3c4nc(c(-c5cc(S(=O)(=O)[O-])ccc5F)c5ccc([nH]5)c(-c5cc(S(=O)(=O)[O-])ccc5F)c5nc(c(-c6cc(S(=O)(=O)[O-])ccc6F)c6ccc3[nH]6)C=C5)C=C4)cc2)cc(-c2ccc(S(C)(=O)=O)cc2)n1-c1ccccc1
REMARK SMILES IDX 8 1 7 2 5 3 6 4 4 5 3 6 1 7 2 8 88 9 76 10 77 11 89 12 90 13
REMARK SMILES IDX 94 14 91 15 93 16 92 17 78 18 79 19 87 20 80 21 86 22 81 23
REMARK SMILES IDX 82 24 83 25 84 26 85 27 9 28 10 29 11 30 12 31 13 32 14 33
REMARK SMILES IDX 75 34 15 35 74 36 16 37 17 38 18 39 68 40 19 41 73 42 67 43
REMARK SMILES IDX 69 44 20 45 72 46 66 47 65 48 21 50 53 51 33 52 52 53 34 54
REMARK SMILES IDX 37 55 51 56 70 57 35 58 36 59 50 61 71 62 38 63 22 64 23 65
REMARK SMILES IDX 31 66 24 67 30 68 32 69 29 70 25 71 26 72 27 73 28 74 54 75
REMARK SMILES IDX 55 76 63 77 56 78 62 79 64 80 61 81 57 82 58 83 59 84 60 85
REMARK SMILES IDX 39 86 40 87 48 88 41 89 47 90 49 91 46 92 42 93 43 94 44 95
REMARK SMILES IDX 45 96
REMARK H PARENT 69 49 37 60
REMARK Flexibility Score: inf
ROOT
ATOM      1  C   UNL A   1      42.931  20.119  25.828  1.00  0.00     0.274 C 
ENDROOT
BRANCH   1   2
ATOM      2  O   UNL A   1      43.193  21.317  25.042  1.00  0.00    -0.462 OA
BRANCH   2   3
ATOM      3  C   UNL A   1      44.491  21.619  24.753  1.00  0.00     0.310 C 
ATOM      4  O   UNL A   1      45.429  20.854  24.970  1.00  0.00    -0.252 OA
BRANCH   3   5
ATOM      5  C   UNL A   1      44.700  22.954  24.039  1.00  0.00     0.160 C 
BRANCH   5   6
ATOM      6  C   UNL A   1      45.566  24.001  24.693  1.00  0.00    -0.015 A 
ATOM      7  C   UNL A   1      43.773  25.778  25.294  1.00  0.00     0.065 C 
ATOM      8  C   UNL A   1      45.156  25.210  25.236  1.00  0.00     0.024 A 
ATOM      9  N   UNL A   1      46.274  25.921  25.654  1.00  0.00    -0.314 N 
ATOM     10  C   UNL A   1      46.996  24.030  24.713  1.00  0.00     0.033 A 
ATOM     11  C   UNL A   1      47.422  25.221  25.284  1.00  0.00     0.053 A 
BRANCH   9  12
ATOM     12  C   UNL A   1      46.239  27.183  26.295  1.00  0.00     0.046 A 
ATOM     13  C   UNL A   1      46.334  28.352  25.534  1.00  0.00     0.026 A 
ATOM     14  C   UNL A   1      46.085  27.242  27.685  1.00  0.00     0.026 A 
ATOM     15  C   UNL A   1      46.262  29.589  26.170  1.00  0.00     0.002 A 
ATOM     16  C   UNL A   1      46.039  28.483  28.315  1.00  0.00     0.002 A 
ATOM     17  C   UNL A   1      46.121  29.654  27.558  1.00  0.00     0.000 A 
ENDBRANCH   9  12
BRANCH  11  18
ATOM     18  C   UNL A   1      48.794  25.691  25.533  1.00  0.00    -0.001 A 
ATOM     19  C   UNL A   1      49.433  25.423  26.754  1.00  0.00     0.011 A 
ATOM     20  C   UNL A   1      49.470  26.455  24.569  1.00  0.00     0.011 A 
ATOM     21  C   UNL A   1      50.709  25.930  27.024  1.00  0.00     0.021 A 
ATOM     22  C   UNL A   1      50.746  26.969  24.833  1.00  0.00     0.021 A 
ATOM     23  C   UNL A   1      51.353  26.714  26.063  1.00  0.00     0.067 A 
BRANCH  23  24
ATOM     24  S   UNL A   1      52.979  27.338  26.420  1.00  0.00     0.175 S 
ATOM     25  C   UNL A   1      53.619  26.234  27.652  1.00  0.00     0.163 C 
ATOM     26  O   UNL A   1      53.766  27.200  25.228  1.00  0.00    -0.224 OA
ATOM     27  O   UNL A   1      52.819  28.647  27.059  1.00  0.00    -0.224 OA
ENDBRANCH  23  24
ENDBRANCH  11  18
ENDBRANCH   5   6
ENDBRANCH   3   5
ENDBRANCH   2   3
ENDBRANCH   1   2
BRANCH   1  28
ATOM     28  C   UNL A   1      42.007  20.430  27.050  1.00  0.00     0.275 C 
BRANCH  28  29
ATOM     29  O   UNL A   1      41.880  21.801  27.601  1.00  0.00    -0.458 OA
BRANCH  29  30
ATOM     30  C   UNL A   1      40.847  22.598  27.187  1.00  0.00     0.338 C 
ATOM     31  O   UNL A   1      40.008  22.192  26.391  1.00  0.00    -0.246 OA
BRANCH  30  32
ATOM     32  C   UNL A   1      40.738  24.004  27.858  1.00  0.00     0.060 A 
ATOM     33  C   UNL A   1      39.464  24.509  28.061  1.00  0.00     0.016 A 
ATOM     34  C   UNL A   1      41.756  24.930  28.191  1.00  0.00     0.016 A 
ATOM     35  C   UNL A   1      39.237  25.825  28.614  1.00  0.00     0.010 A 
ATOM     36  C   UNL A   1      41.502  26.334  28.686  1.00  0.00     0.010 A 
ATOM     37  C   UNL A   1      40.214  26.856  28.922  1.00  0.00    -0.014 A 
BRANCH  37  38
ATOM     38  C   UNL A   1      39.626  28.437  29.175  1.00  0.00     0.031 A 
ATOM     39  C   UNL A   1      40.906  29.196  29.298  1.00  0.00     0.074 A 
ATOM     40  C   UNL A   1      38.516  29.292  29.436  1.00  0.00     0.049 A 
ATOM     41  N   UNL A   1      41.766  28.841  30.213  1.00  0.00    -0.248 NA
ATOM     42  C   UNL A   1      41.473  30.006  28.216  1.00  0.00     0.031 C 
ATOM     43  C   UNL A   1      37.110  28.927  29.712  1.00  0.00     0.029 A 
ATOM     44  N   UNL A   1      38.364  30.750  29.542  1.00  0.00    -0.354 N 
ATOM     45  C   UNL A   1      42.880  29.613  30.024  1.00  0.00     0.074 A 
ATOM     46  C   UNL A   1      42.730  30.123  28.664  1.00  0.00     0.031 C 
ATOM     47  C   UNL A   1      36.276  30.016  29.783  1.00  0.00     0.029 A 
ATOM     48  C   UNL A   1      36.995  31.288  29.627  1.00  0.00     0.049 A 
ATOM     49  H   UNL A   1      39.148  31.345  29.556  1.00  0.00     0.167 HD
ATOM     50  C   UNL A   1      43.338  30.263  31.132  1.00  0.00     0.034 A 
ATOM     51  C   UNL A   1      36.474  32.609  29.669  1.00  0.00     0.034 A 
ATOM     52  C   UNL A   1      42.919  31.639  31.145  1.00  0.00     0.049 A 
ATOM     53  C   UNL A   1      37.496  33.429  30.312  1.00  0.00     0.074 A 
ATOM     54  C   UNL A   1      42.846  32.605  30.161  1.00  0.00     0.029 A 
ATOM     55  N   UNL A   1      42.031  32.010  32.134  1.00  0.00    -0.354 N 
ATOM     56  N   UNL A   1      37.679  33.403  31.594  1.00  0.00    -0.248 NA
ATOM     57  C   UNL A   1      38.287  34.408  29.575  1.00  0.00     0.031 C 
ATOM     58  C   UNL A   1      41.553  33.149  30.317  1.00  0.00     0.029 A 
ATOM     59  C   UNL A   1      41.083  32.845  31.590  1.00  0.00     0.049 A 
ATOM     60  H   UNL A   1      42.070  31.725  33.075  1.00  0.00     0.167 HD
ATOM     61  C   UNL A   1      38.943  33.886  31.707  1.00  0.00     0.074 A 
ATOM     62  C   UNL A   1      39.136  34.742  30.549  1.00  0.00     0.031 C 
ATOM     63  C   UNL A   1      39.838  33.054  32.295  1.00  0.00     0.034 A 
BRANCH  50  64
ATOM     64  C   UNL A   1      43.417  29.408  32.372  1.00  0.00     0.023 A 
ATOM     65  C   UNL A   1      42.972  29.938  33.588  1.00  0.00     0.031 A 
ATOM     66  C   UNL A   1      43.989  28.117  32.387  1.00  0.00     0.131 A 
ATOM     67  C   UNL A   1      43.172  29.214  34.775  1.00  0.00     0.055 A 
ATOM     68  C   UNL A   1      44.248  27.433  33.573  1.00  0.00     0.041 A 
ATOM     69  F   UNL A   1      44.291  27.481  31.243  1.00  0.00    -0.206 F 
ATOM     70  C   UNL A   1      43.844  27.987  34.780  1.00  0.00     0.022 A 
BRANCH  67  71
ATOM     71  S   UNL A   1      42.500  29.882  36.319  1.00  0.00     0.124 S 
ATOM     72  O   UNL A   1      43.652  29.826  37.211  1.00  0.00    -0.237 OA
ATOM     73  O   UNL A   1      42.077  31.221  35.919  1.00  0.00    -0.237 OA
ATOM     74  O   UNL A   1      41.411  28.966  36.652  1.00  0.00    -0.744 OA
ENDBRANCH  67  71
ENDBRANCH  50  64
BRANCH  51  75
ATOM     75  C   UNL A   1      35.189  33.558  29.516  1.00  0.00     0.023 A 
ATOM     76  C   UNL A   1      34.460  34.132  30.658  1.00  0.00     0.031 A 
ATOM     77  C   UNL A   1      34.954  34.245  28.317  1.00  0.00     0.131 A 
ATOM     78  C   UNL A   1      33.630  35.304  30.566  1.00  0.00     0.055 A 
ATOM     79  C   UNL A   1      34.126  35.401  28.232  1.00  0.00     0.041 A 
ATOM     80  F   UNL A   1      35.607  33.892  27.201  1.00  0.00    -0.206 F 
ATOM     81  C   UNL A   1      33.482  35.942  29.345  1.00  0.00     0.022 A 
BRANCH  78  82
ATOM     82  S   UNL A   1      32.871  36.151  32.040  1.00  0.00     0.124 S 
ATOM     83  O   UNL A   1      32.643  37.508  31.560  1.00  0.00    -0.237 OA
ATOM     84  O   UNL A   1      31.685  35.345  32.311  1.00  0.00    -0.237 OA
ATOM     85  O   UNL A   1      33.908  36.045  33.072  1.00  0.00    -0.744 OA
ENDBRANCH  78  82
ENDBRANCH  51  75
BRANCH  63  86
ATOM     86  C   UNL A   1      39.366  32.296  33.532  1.00  0.00     0.023 A 
ATOM     87  C   UNL A   1      39.046  32.860  34.798  1.00  0.00     0.031 A 
ATOM     88  C   UNL A   1      39.341  30.897  33.446  1.00  0.00     0.131 A 
ATOM     89  C   UNL A   1      38.770  32.036  35.910  1.00  0.00     0.055 A 
ATOM     90  C   UNL A   1      39.028  30.081  34.535  1.00  0.00     0.041 A 
ATOM     91  F   UNL A   1      39.636  30.290  32.286  1.00  0.00    -0.206 F 
ATOM     92  C   UNL A   1      38.757  30.647  35.776  1.00  0.00     0.022 A 
BRANCH  89  93
ATOM     93  S   UNL A   1      38.489  32.762  37.563  1.00  0.00     0.124 S 
ATOM     94  O   UNL A   1      37.300  32.065  38.040  1.00  0.00    -0.237 OA
ATOM     95  O   UNL A   1      39.731  32.458  38.269  1.00  0.00    -0.237 OA
ATOM     96  O   UNL A   1      38.284  34.186  37.282  1.00  0.00    -0.744 OA
ENDBRANCH  89  93
ENDBRANCH  63  86
ENDBRANCH  37  38
ENDBRANCH  30  32
ENDBRANCH  29  30
ENDBRANCH  28  29
ENDBRANCH   1  28
TORSDOF 18
ENDMDL
MODEL 3
REMARK VINA RESULT:     -12.2      5.255     12.528
REMARK SMILES Cc1c(CC(=O)OCCOC(=O)c2ccc(-c3c4nc(c(-c5cc(S(=O)(=O)[O-])ccc5F)c5ccc([nH]5)c(-c5cc(S(=O)(=O)[O-])ccc5F)c5nc(c(-c6cc(S(=O)(=O)[O-])ccc6F)c6ccc3[nH]6)C=C5)C=C4)cc2)cc(-c2ccc(S(C)(=O)=O)cc2)n1-c1ccccc1
REMARK SMILES IDX 8 1 7 2 5 3 6 4 4 5 3 6 1 7 2 8 88 9 76 10 77 11 89 12 90 13
REMARK SMILES IDX 94 14 91 15 93 16 92 17 78 18 79 19 87 20 80 21 86 22 81 23
REMARK SMILES IDX 82 24 83 25 84 26 85 27 9 28 10 29 11 30 12 31 13 32 14 33
REMARK SMILES IDX 75 34 15 35 74 36 16 37 17 38 18 39 68 40 19 41 73 42 67 43
REMARK SMILES IDX 69 44 20 45 72 46 66 47 65 48 21 50 53 51 33 52 52 53 34 54
REMARK SMILES IDX 37 55 51 56 70 57 35 58 36 59 50 61 71 62 38 63 22 64 23 65
REMARK SMILES IDX 31 66 24 67 30 68 32 69 29 70 25 71 26 72 27 73 28 74 54 75
REMARK SMILES IDX 55 76 63 77 56 78 62 79 64 80 61 81 57 82 58 83 59 84 60 85
REMARK SMILES IDX 39 86 40 87 48 88 41 89 47 90 49 91 46 92 42 93 43 94 44 95
REMARK SMILES IDX 45 96
REMARK H PARENT 69 49 37 60
REMARK Flexibility Score: inf
ROOT
ATOM      1  C   UNL A   1      42.246  19.194  26.607  1.00  0.00     0.274 C 
ENDROOT
BRANCH   1   2
ATOM      2  O   UNL A   1      42.983  19.869  25.547  1.00  0.00    -0.462 OA
BRANCH   2   3
ATOM      3  C   UNL A   1      44.155  19.311  25.129  1.00  0.00     0.310 C 
ATOM      4  O   UNL A   1      44.318  18.099  24.997  1.00  0.00    -0.252 OA
BRANCH   3   5
ATOM      5  C   UNL A   1      45.242  20.310  24.736  1.00  0.00     0.160 C 
BRANCH   5   6
ATOM      6  C   UNL A   1      45.234  21.681  25.364  1.00  0.00    -0.015 A 
ATOM      7  C   UNL A   1      43.866  22.995  23.592  1.00  0.00     0.065 C 
ATOM      8  C   UNL A   1      44.632  22.828  24.867  1.00  0.00     0.024 A 
ATOM      9  N   UNL A   1      44.936  23.896  25.701  1.00  0.00    -0.314 N 
ATOM     10  C   UNL A   1      45.997  22.101  26.499  1.00  0.00     0.033 A 
ATOM     11  C   UNL A   1      45.826  23.466  26.685  1.00  0.00     0.053 A 
BRANCH   9  12
ATOM     12  C   UNL A   1      44.460  25.219  25.530  1.00  0.00     0.046 A 
ATOM     13  C   UNL A   1      43.086  25.475  25.577  1.00  0.00     0.026 A 
ATOM     14  C   UNL A   1      45.377  26.259  25.340  1.00  0.00     0.026 A 
ATOM     15  C   UNL A   1      42.630  26.784  25.444  1.00  0.00     0.002 A 
ATOM     16  C   UNL A   1      44.910  27.561  25.184  1.00  0.00     0.002 A 
ATOM     17  C   UNL A   1      43.540  27.824  25.242  1.00  0.00     0.000 A 
ENDBRANCH   9  12
BRANCH  11  18
ATOM     18  C   UNL A   1      46.394  24.338  27.726  1.00  0.00    -0.001 A 
ATOM     19  C   UNL A   1      47.714  24.808  27.625  1.00  0.00     0.011 A 
ATOM     20  C   UNL A   1      45.640  24.677  28.859  1.00  0.00     0.011 A 
ATOM     21  C   UNL A   1      48.283  25.576  28.647  1.00  0.00     0.021 A 
ATOM     22  C   UNL A   1      46.204  25.442  29.888  1.00  0.00     0.021 A 
ATOM     23  C   UNL A   1      47.525  25.877  29.781  1.00  0.00     0.067 A 
BRANCH  23  24
ATOM     24  S   UNL A   1      48.262  26.865  31.063  1.00  0.00     0.175 S 
ATOM     25  C   UNL A   1      48.459  25.749  32.428  1.00  0.00     0.163 C 
ATOM     26  O   UNL A   1      49.563  27.264  30.606  1.00  0.00    -0.224 OA
ATOM     27  O   UNL A   1      47.275  27.869  31.469  1.00  0.00    -0.224 OA
ENDBRANCH  23  24
ENDBRANCH  11  18
ENDBRANCH   5   6
ENDBRANCH   3   5
ENDBRANCH   2   3
ENDBRANCH   1   2
BRANCH   1  28
ATOM     28  C   UNL A   1      41.400  20.206  27.445  1.00  0.00     0.275 C 
BRANCH  28  29
ATOM     29  O   UNL A   1      41.839  21.608  27.651  1.00  0.00    -0.458 OA
BRANCH  29  30
ATOM     30  C   UNL A   1      41.231  22.611  26.946  1.00  0.00     0.338 C 
ATOM     31  O   UNL A   1      40.853  22.442  25.793  1.00  0.00    -0.246 OA
BRANCH  30  32
ATOM     32  C   UNL A   1      40.956  23.939  27.720  1.00  0.00     0.060 A 
ATOM     33  C   UNL A   1      39.719  24.534  27.532  1.00  0.00     0.016 A 
ATOM     34  C   UNL A   1      41.830  24.725  28.511  1.00  0.00     0.016 A 
ATOM     35  C   UNL A   1      39.372  25.797  28.144  1.00  0.00     0.010 A 
ATOM     36  C   UNL A   1      41.482  26.083  29.070  1.00  0.00     0.010 A 
ATOM     37  C   UNL A   1      40.221  26.693  28.911  1.00  0.00    -0.014 A 
BRANCH  37  38
ATOM     38  C   UNL A   1      39.657  28.284  29.154  1.00  0.00     0.031 A 
ATOM     39  C   UNL A   1      40.949  29.025  29.277  1.00  0.00     0.074 A 
ATOM     40  C   UNL A   1      38.560  29.157  29.408  1.00  0.00     0.049 A 
ATOM     41  N   UNL A   1      41.799  28.661  30.197  1.00  0.00    -0.248 NA
ATOM     42  C   UNL A   1      41.531  29.820  28.193  1.00  0.00     0.031 C 
ATOM     43  C   UNL A   1      37.147  28.816  29.681  1.00  0.00     0.029 A 
ATOM     44  N   UNL A   1      38.430  30.618  29.505  1.00  0.00    -0.354 N 
ATOM     45  C   UNL A   1      42.926  29.415  30.007  1.00  0.00     0.074 A 
ATOM     46  C   UNL A   1      42.788  29.920  28.644  1.00  0.00     0.031 C 
ATOM     47  C   UNL A   1      36.330  29.918  29.744  1.00  0.00     0.029 A 
ATOM     48  C   UNL A   1      37.069  31.178  29.583  1.00  0.00     0.049 A 
ATOM     49  H   UNL A   1      39.223  31.201  29.519  1.00  0.00     0.167 HD
ATOM     50  C   UNL A   1      43.390  30.063  31.114  1.00  0.00     0.034 A 
ATOM     51  C   UNL A   1      36.568  32.506  29.618  1.00  0.00     0.034 A 
ATOM     52  C   UNL A   1      42.993  31.445  31.118  1.00  0.00     0.049 A 
ATOM     53  C   UNL A   1      37.600  33.314  30.260  1.00  0.00     0.074 A 
ATOM     54  C   UNL A   1      42.937  32.407  30.129  1.00  0.00     0.029 A 
ATOM     55  N   UNL A   1      42.108  31.835  32.103  1.00  0.00    -0.354 N 
ATOM     56  N   UNL A   1      37.780  33.292  31.543  1.00  0.00    -0.248 NA
ATOM     57  C   UNL A   1      38.409  34.277  29.520  1.00  0.00     0.031 C 
ATOM     58  C   UNL A   1      41.653  32.972  30.279  1.00  0.00     0.029 A 
ATOM     59  C   UNL A   1      41.174  32.681  31.552  1.00  0.00     0.049 A 
ATOM     60  H   UNL A   1      42.140  31.554  33.046  1.00  0.00     0.167 HD
ATOM     61  C   UNL A   1      39.051  33.755  31.657  1.00  0.00     0.074 A 
ATOM     62  C   UNL A   1      39.259  34.603  30.495  1.00  0.00     0.031 C 
ATOM     63  C   UNL A   1      39.931  32.913  32.252  1.00  0.00     0.034 A 
BRANCH  50  64
ATOM     64  C   UNL A   1      43.453  29.213  32.357  1.00  0.00     0.023 A 
ATOM     65  C   UNL A   1      43.041  29.766  33.575  1.00  0.00     0.031 A 
ATOM     66  C   UNL A   1      43.979  27.902  32.375  1.00  0.00     0.131 A 
ATOM     67  C   UNL A   1      43.228  29.043  34.764  1.00  0.00     0.055 A 
ATOM     68  C   UNL A   1      44.225  27.217  33.562  1.00  0.00     0.041 A 
ATOM     69  F   UNL A   1      44.244  27.249  31.231  1.00  0.00    -0.206 F 
ATOM     70  C   UNL A   1      43.856  27.792  34.770  1.00  0.00     0.022 A 
BRANCH  67  71
ATOM     71  S   UNL A   1      42.598  29.744  36.311  1.00  0.00     0.124 S 
ATOM     72  O   UNL A   1      42.220  31.095  35.911  1.00  0.00    -0.237 OA
ATOM     73  O   UNL A   1      41.490  28.847  36.629  1.00  0.00    -0.237 OA
ATOM     74  O   UNL A   1      43.738  29.662  37.222  1.00  0.00    -0.744 OA
ENDBRANCH  67  71
ENDBRANCH  50  64
BRANCH  51  75
ATOM     75  C   UNL A   1      35.299  33.474  29.456  1.00  0.00     0.023 A 
ATOM     76  C   UNL A   1      34.582  34.075  30.592  1.00  0.00     0.031 A 
ATOM     77  C   UNL A   1      35.071  34.150  28.249  1.00  0.00     0.131 A 
ATOM     78  C   UNL A   1      33.771  35.258  30.488  1.00  0.00     0.055 A 
ATOM     79  C   UNL A   1      34.262  35.318  28.151  1.00  0.00     0.041 A 
ATOM     80  F   UNL A   1      35.714  33.772  27.136  1.00  0.00    -0.206 F 
ATOM     81  C   UNL A   1      33.630  35.884  29.259  1.00  0.00     0.022 A 
BRANCH  78  82
ATOM     82  S   UNL A   1      33.030  36.137  31.953  1.00  0.00     0.124 S 
ATOM     83  O   UNL A   1      32.613  37.418  31.395  1.00  0.00    -0.237 OA
ATOM     84  O   UNL A   1      31.968  35.232  32.379  1.00  0.00    -0.237 OA
ATOM     85  O   UNL A   1      34.145  36.229  32.901  1.00  0.00    -0.744 OA
ENDBRANCH  78  82
ENDBRANCH  51  75
BRANCH  63  86
ATOM     86  C   UNL A   1      39.443  32.169  33.491  1.00  0.00     0.023 A 
ATOM     87  C   UNL A   1      39.200  32.732  34.774  1.00  0.00     0.031 A 
ATOM     88  C   UNL A   1      39.319  30.777  33.385  1.00  0.00     0.131 A 
ATOM     89  C   UNL A   1      38.899  31.910  35.882  1.00  0.00     0.055 A 
ATOM     90  C   UNL A   1      38.982  29.966  34.471  1.00  0.00     0.041 A 
ATOM     91  F   UNL A   1      39.538  30.170  32.208  1.00  0.00    -0.206 F 
ATOM     92  C   UNL A   1      38.786  30.528  35.727  1.00  0.00     0.022 A 
BRANCH  89  93
ATOM     93  S   UNL A   1      38.717  32.627  37.553  1.00  0.00     0.124 S 
ATOM     94  O   UNL A   1      40.072  32.571  38.093  1.00  0.00    -0.237 OA
ATOM     95  O   UNL A   1      38.196  33.964  37.280  1.00  0.00    -0.237 OA
ATOM     96  O   UNL A   1      37.766  31.727  38.211  1.00  0.00    -0.744 OA
ENDBRANCH  89  93
ENDBRANCH  63  86
ENDBRANCH  37  38
ENDBRANCH  30  32
ENDBRANCH  29  30
ENDBRANCH  28  29
ENDBRANCH   1  28
TORSDOF 18
ENDMDL
