MODEL 1
REMARK VINA RESULT:     -10.8      0.000      0.000
REMARK SMILES Cc1ccc(S(=O)(=O)n2cc(C(=O)C(=O)NCC(=O)N[C@@H](Cc3c[nH]c4ccccc34)C(=O)OCCOC(=O)c3ccc(-c4c5nc(c(-c6cc(S(=O)(=O)[O-])ccc6F)c6ccc([nH]6)c(-c6cc(S(=O)(=O)[O-])ccc6F)c6nc(c(-c7cc(S(=O)(=O)[O-])ccc7F)c7ccc4[nH]7)C=C6)C=C5)cc3)c3ccccc32)cc1
REMARK SMILES IDX 32 1 33 2 21 3 20 4 18 5 19 6 17 8 16 9 14 10 15 11 12 13
REMARK SMILES IDX 13 14 11 15 9 16 10 17 108 18 103 19 107 20 104 21 106 22
REMARK SMILES IDX 105 23 6 24 7 25 8 26 5 27 1 28 2 29 3 30 110 31 4 32 109 33
REMARK SMILES IDX 22 34 23 35 24 36 31 37 25 38 26 39 30 40 27 42 29 43 28 44
REMARK SMILES IDX 34 45 35 46 36 47 37 48 38 49 39 50 40 51 41 52 102 53 42 54
REMARK SMILES IDX 101 55 43 56 44 57 45 58 95 59 46 60 100 61 94 62 96 63
REMARK SMILES IDX 47 64 99 65 93 66 92 67 48 69 80 70 60 71 79 72 61 73 64 74
REMARK SMILES IDX 78 75 97 76 62 77 63 78 77 80 98 81 65 82 49 83 50 84 58 85
REMARK SMILES IDX 51 86 57 87 59 88 56 89 52 90 53 91 54 92 55 93 81 94 82 95
REMARK SMILES IDX 90 96 83 97 89 98 91 99 88 100 84 101 85 102 86 103 87 104
REMARK SMILES IDX 66 105 67 106 75 107 68 108 74 109 76 110 73 111 69 112
REMARK SMILES IDX 70 113 71 114 72 115
REMARK H PARENT 20 7 16 12 25 41 96 68 64 79
REMARK Flexibility Score: inf
ROOT
ATOM      1  C   UNL A   1      39.856  25.811  27.814  1.00  0.00     0.329 C 
ATOM      2  O   UNL A   1      39.285  25.500  28.834  1.00  0.00    -0.250 OA
ENDROOT
BRANCH   1   3
ATOM      3  C   UNL A   1      40.821  24.861  27.101  1.00  0.00     0.196 C 
BRANCH   3   4
ATOM      4  N   UNL A   1      40.394  23.467  27.007  1.00  0.00    -0.341 N 
ATOM      5  C   UNL A   1      39.231  22.941  26.522  1.00  0.00     0.240 C 
ATOM      6  O   UNL A   1      39.139  21.710  26.493  1.00  0.00    -0.273 OA
ATOM      7  H   UNL A   1      41.044  22.807  27.342  1.00  0.00     0.164 HD
BRANCH   5   8
ATOM      8  C   UNL A   1      38.111  23.833  25.936  1.00  0.00     0.216 C 
BRANCH   8   9
ATOM      9  N   UNL A   1      37.671  23.508  24.580  1.00  0.00    -0.340 N 
ATOM     10  C   UNL A   1      36.368  23.297  24.146  1.00  0.00     0.292 C 
ATOM     11  O   UNL A   1      36.155  23.091  22.956  1.00  0.00    -0.265 OA
ATOM     12  H   UNL A   1      38.377  23.430  23.898  1.00  0.00     0.164 HD
BRANCH  10  13
ATOM     13  C   UNL A   1      35.193  23.350  25.153  1.00  0.00     0.252 C 
ATOM     14  O   UNL A   1      35.170  22.472  26.016  1.00  0.00    -0.283 OA
BRANCH  13  15
ATOM     15  C   UNL A   1      34.164  24.407  25.105  1.00  0.00     0.054 A 
ATOM     16  N   UNL A   1      33.055  26.357  25.310  1.00  0.00    -0.240 N 
ATOM     17  C   UNL A   1      34.271  25.728  25.518  1.00  0.00     0.117 A 
ATOM     18  C   UNL A   1      32.171  25.501  24.672  1.00  0.00     0.065 A 
ATOM     19  C   UNL A   1      32.831  24.265  24.571  1.00  0.00     0.012 A 
ATOM     20  C   UNL A   1      30.899  25.707  24.104  1.00  0.00     0.028 A 
ATOM     21  C   UNL A   1      32.162  23.199  23.925  1.00  0.00     0.011 A 
ATOM     22  C   UNL A   1      30.294  24.649  23.418  1.00  0.00     0.002 A 
ATOM     23  C   UNL A   1      30.907  23.407  23.344  1.00  0.00     0.001 A 
BRANCH  16  24
ATOM     24  S   UNL A   1      32.816  28.001  25.748  1.00  0.00     0.268 S 
ATOM     25  O   UNL A   1      33.974  28.281  24.896  1.00  0.00    -0.201 OA
ATOM     26  O   UNL A   1      32.590  27.484  27.089  1.00  0.00    -0.201 OA
BRANCH  24  27
ATOM     27  C   UNL A   1      33.301  29.490  26.621  1.00  0.00     0.088 A 
ATOM     28  C   UNL A   1      34.692  33.008  28.691  1.00  0.00     0.044 C 
ATOM     29  C   UNL A   1      34.217  31.786  27.959  1.00  0.00    -0.051 A 
ATOM     30  C   UNL A   1      32.907  31.729  27.467  1.00  0.00     0.005 A 
ATOM     31  C   UNL A   1      35.076  30.702  27.742  1.00  0.00     0.005 A 
ATOM     32  C   UNL A   1      32.447  30.588  26.803  1.00  0.00     0.022 A 
ATOM     33  C   UNL A   1      34.625  29.559  27.075  1.00  0.00     0.022 A 
ENDBRANCH  24  27
ENDBRANCH  16  24
ENDBRANCH  13  15
ENDBRANCH  10  13
ENDBRANCH   8   9
ENDBRANCH   5   8
ENDBRANCH   3   4
BRANCH   3  34
ATOM     34  C   UNL A   1      41.271  25.427  25.738  1.00  0.00     0.074 C 
BRANCH  34  35
ATOM     35  C   UNL A   1      42.743  25.647  25.453  1.00  0.00    -0.020 A 
ATOM     36  C   UNL A   1      43.528  26.773  25.627  1.00  0.00     0.087 A 
ATOM     37  C   UNL A   1      43.652  24.603  25.059  1.00  0.00     0.003 A 
ATOM     38  N   UNL A   1      44.846  26.409  25.554  1.00  0.00    -0.361 N 
ATOM     39  C   UNL A   1      44.948  25.112  25.136  1.00  0.00     0.046 A 
ATOM     40  C   UNL A   1      43.492  23.249  24.697  1.00  0.00     0.010 A 
ATOM     41  H   UNL A   1      45.607  26.995  25.771  1.00  0.00     0.166 HD
ATOM     42  C   UNL A   1      46.090  24.350  24.871  1.00  0.00     0.026 A 
ATOM     43  C   UNL A   1      44.622  22.480  24.394  1.00  0.00     0.001 A 
ATOM     44  C   UNL A   1      45.901  23.025  24.482  1.00  0.00     0.002 A 
ENDBRANCH  34  35
ENDBRANCH   3  34
ENDBRANCH   1   3
BRANCH   1  45
ATOM     45  O   UNL A   1      39.647  27.006  27.188  1.00  0.00    -0.461 OA
BRANCH  45  46
ATOM     46  C   UNL A   1      39.484  28.098  28.112  1.00  0.00     0.274 C 
BRANCH  46  47
ATOM     47  C   UNL A   1      40.686  29.043  28.146  1.00  0.00     0.275 C 
BRANCH  47  48
ATOM     48  O   UNL A   1      42.005  28.453  28.308  1.00  0.00    -0.458 OA
BRANCH  48  49
ATOM     49  C   UNL A   1      42.532  27.808  29.380  1.00  0.00     0.338 C 
ATOM     50  O   UNL A   1      42.918  26.648  29.292  1.00  0.00    -0.246 OA
BRANCH  49  51
ATOM     51  C   UNL A   1      42.792  28.570  30.617  1.00  0.00     0.060 A 
ATOM     52  C   UNL A   1      43.868  29.480  30.652  1.00  0.00     0.016 A 
ATOM     53  C   UNL A   1      41.919  28.480  31.686  1.00  0.00     0.016 A 
ATOM     54  C   UNL A   1      43.981  30.402  31.698  1.00  0.00     0.010 A 
ATOM     55  C   UNL A   1      41.944  29.472  32.637  1.00  0.00     0.010 A 
ATOM     56  C   UNL A   1      42.985  30.412  32.676  1.00  0.00    -0.014 A 
BRANCH  56  57
ATOM     57  C   UNL A   1      42.989  31.273  33.856  1.00  0.00     0.031 A 
ATOM     58  C   UNL A   1      43.317  30.753  35.209  1.00  0.00     0.074 A 
ATOM     59  C   UNL A   1      42.702  32.576  33.601  1.00  0.00     0.049 A 
ATOM     60  N   UNL A   1      42.835  31.209  36.313  1.00  0.00    -0.248 NA
ATOM     61  C   UNL A   1      44.227  29.632  35.447  1.00  0.00     0.031 C 
ATOM     62  C   UNL A   1      42.712  33.730  34.482  1.00  0.00     0.029 A 
ATOM     63  N   UNL A   1      42.186  33.132  32.426  1.00  0.00    -0.354 N 
ATOM     64  C   UNL A   1      43.646  30.747  37.339  1.00  0.00     0.074 A 
ATOM     65  C   UNL A   1      44.364  29.640  36.778  1.00  0.00     0.031 C 
ATOM     66  C   UNL A   1      41.883  34.663  33.966  1.00  0.00     0.029 A 
ATOM     67  C   UNL A   1      41.228  34.062  32.814  1.00  0.00     0.049 A 
ATOM     68  H   UNL A   1      42.450  32.909  31.505  1.00  0.00     0.167 HD
ATOM     69  C   UNL A   1      43.787  31.509  38.464  1.00  0.00     0.034 A 
ATOM     70  C   UNL A   1      39.889  33.788  32.699  1.00  0.00     0.034 A 
ATOM     71  C   UNL A   1      42.913  32.673  38.370  1.00  0.00     0.049 A 
ATOM     72  C   UNL A   1      39.232  33.742  34.075  1.00  0.00     0.074 A 
ATOM     73  C   UNL A   1      43.153  33.983  37.991  1.00  0.00     0.029 A 
ATOM     74  N   UNL A   1      41.543  32.481  38.303  1.00  0.00    -0.354 N 
ATOM     75  N   UNL A   1      39.867  33.452  35.181  1.00  0.00    -0.248 NA
ATOM     76  C   UNL A   1      37.832  34.081  34.314  1.00  0.00     0.031 C 
ATOM     77  C   UNL A   1      41.915  34.545  37.585  1.00  0.00     0.029 A 
ATOM     78  C   UNL A   1      40.931  33.582  37.740  1.00  0.00     0.049 A 
ATOM     79  H   UNL A   1      41.072  31.674  38.611  1.00  0.00     0.167 HD
ATOM     80  C   UNL A   1      39.049  33.680  36.260  1.00  0.00     0.074 A 
ATOM     81  C   UNL A   1      37.778  34.051  35.657  1.00  0.00     0.031 C 
ATOM     82  C   UNL A   1      39.492  33.593  37.555  1.00  0.00     0.034 A 
BRANCH  69  83
ATOM     83  C   UNL A   1      44.922  31.438  39.470  1.00  0.00     0.023 A 
ATOM     84  C   UNL A   1      44.606  31.106  40.807  1.00  0.00     0.031 A 
ATOM     85  C   UNL A   1      46.282  31.707  39.232  1.00  0.00     0.131 A 
ATOM     86  C   UNL A   1      45.563  31.135  41.836  1.00  0.00     0.055 A 
ATOM     87  C   UNL A   1      47.241  31.753  40.260  1.00  0.00     0.041 A 
ATOM     88  F   UNL A   1      46.760  31.896  37.996  1.00  0.00    -0.206 F 
ATOM     89  C   UNL A   1      46.882  31.478  41.573  1.00  0.00     0.022 A 
BRANCH  86  90
ATOM     90  S   UNL A   1      45.040  30.728  43.525  1.00  0.00     0.124 S 
ATOM     91  O   UNL A   1      45.573  29.380  43.696  1.00  0.00    -0.237 OA
ATOM     92  O   UNL A   1      45.677  31.779  44.310  1.00  0.00    -0.237 OA
ATOM     93  O   UNL A   1      43.582  30.810  43.456  1.00  0.00    -0.744 OA
ENDBRANCH  86  90
ENDBRANCH  69  83
BRANCH  70  94
ATOM     94  C   UNL A   1      39.584  32.835  31.579  1.00  0.00     0.023 A 
ATOM     95  C   UNL A   1      39.155  31.515  31.879  1.00  0.00     0.031 A 
ATOM     96  C   UNL A   1      39.263  33.345  30.318  1.00  0.00     0.131 A 
ATOM     97  C   UNL A   1      38.308  30.820  30.994  1.00  0.00     0.055 A 
ATOM     98  C   UNL A   1      38.469  32.620  29.432  1.00  0.00     0.041 A 
ATOM     99  F   UNL A   1      39.586  34.600  29.970  1.00  0.00    -0.206 F 
ATOM    100  C   UNL A   1      37.947  31.381  29.778  1.00  0.00     0.022 A 
BRANCH  97 101
ATOM    101  S   UNL A   1      37.487  29.292  31.531  1.00  0.00     0.124 S 
ATOM    102  O   UNL A   1      36.386  29.176  30.580  1.00  0.00    -0.237 OA
ATOM    103  O   UNL A   1      38.563  28.313  31.395  1.00  0.00    -0.237 OA
ATOM    104  O   UNL A   1      37.091  29.563  32.912  1.00  0.00    -0.744 OA
ENDBRANCH  97 101
ENDBRANCH  70  94
BRANCH  82 105
ATOM    105  C   UNL A   1      38.637  33.625  38.801  1.00  0.00     0.023 A 
ATOM    106  C   UNL A   1      37.639  32.684  39.051  1.00  0.00     0.031 A 
ATOM    107  C   UNL A   1      38.846  34.585  39.828  1.00  0.00     0.131 A 
ATOM    108  C   UNL A   1      36.815  32.789  40.181  1.00  0.00     0.055 A 
ATOM    109  C   UNL A   1      38.107  34.610  41.012  1.00  0.00     0.041 A 
ATOM    110  F   UNL A   1      39.780  35.542  39.738  1.00  0.00    -0.206 F 
ATOM    111  C   UNL A   1      37.058  33.725  41.182  1.00  0.00     0.022 A 
BRANCH 108 112
ATOM    112  S   UNL A   1      35.338  31.749  40.228  1.00  0.00     0.124 S 
ATOM    113  O   UNL A   1      34.306  32.680  39.778  1.00  0.00    -0.237 OA
ATOM    114  O   UNL A   1      35.675  30.682  39.290  1.00  0.00    -0.237 OA
ATOM    115  O   UNL A   1      35.245  31.347  41.629  1.00  0.00    -0.744 OA
ENDBRANCH 108 112
ENDBRANCH  82 105
ENDBRANCH  56  57
ENDBRANCH  49  51
ENDBRANCH  48  49
ENDBRANCH  47  48
ENDBRANCH  46  47
ENDBRANCH  45  46
ENDBRANCH   1  45
TORSDOF 23
ENDMDL
MODEL 2
REMARK VINA RESULT:     -10.3      2.215      2.838
REMARK SMILES Cc1ccc(S(=O)(=O)n2cc(C(=O)C(=O)NCC(=O)N[C@@H](Cc3c[nH]c4ccccc34)C(=O)OCCOC(=O)c3ccc(-c4c5nc(c(-c6cc(S(=O)(=O)[O-])ccc6F)c6ccc([nH]6)c(-c6cc(S(=O)(=O)[O-])ccc6F)c6nc(c(-c7cc(S(=O)(=O)[O-])ccc7F)c7ccc4[nH]7)C=C6)C=C5)cc3)c3ccccc32)cc1
REMARK SMILES IDX 32 1 33 2 21 3 20 4 18 5 19 6 17 8 16 9 14 10 15 11 12 13
REMARK SMILES IDX 13 14 11 15 9 16 10 17 108 18 103 19 107 20 104 21 106 22
REMARK SMILES IDX 105 23 6 24 7 25 8 26 5 27 1 28 2 29 3 30 110 31 4 32 109 33
REMARK SMILES IDX 22 34 23 35 24 36 31 37 25 38 26 39 30 40 27 42 29 43 28 44
REMARK SMILES IDX 34 45 35 46 36 47 37 48 38 49 39 50 40 51 41 52 102 53 42 54
REMARK SMILES IDX 101 55 43 56 44 57 45 58 95 59 46 60 100 61 94 62 96 63
REMARK SMILES IDX 47 64 99 65 93 66 92 67 48 69 80 70 60 71 79 72 61 73 64 74
REMARK SMILES IDX 78 75 97 76 62 77 63 78 77 80 98 81 65 82 49 83 50 84 58 85
REMARK SMILES IDX 51 86 57 87 59 88 56 89 52 90 53 91 54 92 55 93 81 94 82 95
REMARK SMILES IDX 90 96 83 97 89 98 91 99 88 100 84 101 85 102 86 103 87 104
REMARK SMILES IDX 66 105 67 106 75 107 68 108 74 109 76 110 73 111 69 112
REMARK SMILES IDX 70 113 71 114 72 115
REMARK H PARENT 20 7 16 12 25 41 96 68 64 79
REMARK Flexibility Score: inf
ROOT
ATOM      1  C   UNL A   1      40.106  25.941  27.891  1.00  0.00     0.329 C 
ATOM      2  O   UNL A   1      39.539  25.653  28.920  1.00  0.00    -0.250 OA
ENDROOT
BRANCH   1   3
ATOM      3  C   UNL A   1      41.004  24.945  27.152  1.00  0.00     0.196 C 
BRANCH   3   4
ATOM      4  N   UNL A   1      40.532  23.563  27.114  1.00  0.00    -0.341 N 
ATOM      5  C   UNL A   1      39.356  23.055  26.641  1.00  0.00     0.240 C 
ATOM      6  O   UNL A   1      39.225  21.827  26.665  1.00  0.00    -0.273 OA
ATOM      7  H   UNL A   1      41.156  22.898  27.485  1.00  0.00     0.164 HD
BRANCH   5   8
ATOM      8  C   UNL A   1      38.272  23.956  26.004  1.00  0.00     0.216 C 
BRANCH   8   9
ATOM      9  N   UNL A   1      37.858  23.607  24.647  1.00  0.00    -0.340 N 
ATOM     10  C   UNL A   1      36.582  23.261  24.219  1.00  0.00     0.292 C 
ATOM     11  O   UNL A   1      36.383  23.052  23.027  1.00  0.00    -0.265 OA
ATOM     12  H   UNL A   1      38.562  23.618  23.958  1.00  0.00     0.164 HD
BRANCH  10  13
ATOM     13  C   UNL A   1      35.417  23.168  25.235  1.00  0.00     0.252 C 
ATOM     14  O   UNL A   1      35.569  22.387  26.174  1.00  0.00    -0.283 OA
BRANCH  13  15
ATOM     15  C   UNL A   1      34.196  23.988  25.108  1.00  0.00     0.054 A 
ATOM     16  N   UNL A   1      32.697  25.556  24.502  1.00  0.00    -0.240 N 
ATOM     17  C   UNL A   1      33.977  25.079  24.277  1.00  0.00     0.117 A 
ATOM     18  C   UNL A   1      32.026  24.738  25.397  1.00  0.00     0.065 A 
ATOM     19  C   UNL A   1      32.958  23.775  25.818  1.00  0.00     0.012 A 
ATOM     20  C   UNL A   1      30.682  24.696  25.815  1.00  0.00     0.028 A 
ATOM     21  C   UNL A   1      32.528  22.778  26.725  1.00  0.00     0.011 A 
ATOM     22  C   UNL A   1      30.277  23.660  26.661  1.00  0.00     0.002 A 
ATOM     23  C   UNL A   1      31.190  22.723  27.126  1.00  0.00     0.001 A 
BRANCH  16  24
ATOM     24  S   UNL A   1      32.101  26.935  23.667  1.00  0.00     0.268 S 
ATOM     25  O   UNL A   1      31.838  27.488  24.998  1.00  0.00    -0.201 OA
ATOM     26  O   UNL A   1      31.469  25.972  22.777  1.00  0.00    -0.201 OA
BRANCH  24  27
ATOM     27  C   UNL A   1      30.764  28.003  23.133  1.00  0.00     0.088 A 
ATOM     28  C   UNL A   1      27.694  30.665  21.690  1.00  0.00     0.044 C 
ATOM     29  C   UNL A   1      28.765  29.733  22.178  1.00  0.00    -0.051 A 
ATOM     30  C   UNL A   1      28.423  28.604  22.933  1.00  0.00     0.005 A 
ATOM     31  C   UNL A   1      30.112  29.968  21.872  1.00  0.00     0.005 A 
ATOM     32  C   UNL A   1      29.414  27.742  23.411  1.00  0.00     0.022 A 
ATOM     33  C   UNL A   1      31.109  29.108  22.343  1.00  0.00     0.022 A 
ENDBRANCH  24  27
ENDBRANCH  16  24
ENDBRANCH  13  15
ENDBRANCH  10  13
ENDBRANCH   8   9
ENDBRANCH   5   8
ENDBRANCH   3   4
BRANCH   3  34
ATOM     34  C   UNL A   1      41.398  25.466  25.755  1.00  0.00     0.074 C 
BRANCH  34  35
ATOM     35  C   UNL A   1      42.858  25.563  25.361  1.00  0.00    -0.020 A 
ATOM     36  C   UNL A   1      43.716  26.649  25.368  1.00  0.00     0.087 A 
ATOM     37  C   UNL A   1      43.678  24.428  25.026  1.00  0.00     0.003 A 
ATOM     38  N   UNL A   1      45.003  26.196  25.256  1.00  0.00    -0.361 N 
ATOM     39  C   UNL A   1      45.004  24.859  24.972  1.00  0.00     0.046 A 
ATOM     40  C   UNL A   1      43.418  23.058  24.820  1.00  0.00     0.010 A 
ATOM     41  H   UNL A   1      45.809  26.752  25.363  1.00  0.00     0.166 HD
ATOM     42  C   UNL A   1      46.080  24.003  24.722  1.00  0.00     0.026 A 
ATOM     43  C   UNL A   1      44.480  22.191  24.533  1.00  0.00     0.001 A 
ATOM     44  C   UNL A   1      45.791  22.660  24.486  1.00  0.00     0.002 A 
ENDBRANCH  34  35
ENDBRANCH   3  34
ENDBRANCH   1   3
BRANCH   1  45
ATOM     45  O   UNL A   1      39.950  27.150  27.278  1.00  0.00    -0.461 OA
BRANCH  45  46
ATOM     46  C   UNL A   1      39.220  28.093  28.085  1.00  0.00     0.274 C 
BRANCH  46  47
ATOM     47  C   UNL A   1      40.016  29.362  28.397  1.00  0.00     0.275 C 
BRANCH  47  48
ATOM     48  O   UNL A   1      41.449  29.336  28.156  1.00  0.00    -0.458 OA
BRANCH  48  49
ATOM     49  C   UNL A   1      42.448  28.881  28.957  1.00  0.00     0.338 C 
ATOM     50  O   UNL A   1      43.260  28.059  28.548  1.00  0.00    -0.246 OA
BRANCH  49  51
ATOM     51  C   UNL A   1      42.650  29.510  30.276  1.00  0.00     0.060 A 
ATOM     52  C   UNL A   1      43.640  30.502  30.422  1.00  0.00     0.016 A 
ATOM     53  C   UNL A   1      41.798  29.215  31.325  1.00  0.00     0.016 A 
ATOM     54  C   UNL A   1      43.680  31.299  31.571  1.00  0.00     0.010 A 
ATOM     55  C   UNL A   1      41.743  30.084  32.389  1.00  0.00     0.010 A 
ATOM     56  C   UNL A   1      42.697  31.103  32.542  1.00  0.00    -0.014 A 
BRANCH  56  57
ATOM     57  C   UNL A   1      42.634  31.814  33.816  1.00  0.00     0.031 A 
ATOM     58  C   UNL A   1      43.056  31.179  35.092  1.00  0.00     0.074 A 
ATOM     59  C   UNL A   1      42.194  33.095  33.723  1.00  0.00     0.049 A 
ATOM     60  N   UNL A   1      42.555  31.443  36.249  1.00  0.00    -0.248 NA
ATOM     61  C   UNL A   1      44.092  30.152  35.183  1.00  0.00     0.031 C 
ATOM     62  C   UNL A   1      42.097  34.131  34.736  1.00  0.00     0.029 A 
ATOM     63  N   UNL A   1      41.586  33.722  32.631  1.00  0.00    -0.354 N 
ATOM     64  C   UNL A   1      43.440  30.961  37.202  1.00  0.00     0.074 A 
ATOM     65  C   UNL A   1      44.264  30.018  36.502  1.00  0.00     0.031 C 
ATOM     66  C   UNL A   1      41.153  35.016  34.347  1.00  0.00     0.029 A 
ATOM     67  C   UNL A   1      40.540  34.482  33.139  1.00  0.00     0.049 A 
ATOM     68  H   UNL A   1      41.849  33.641  31.686  1.00  0.00     0.167 HD
ATOM     69  C   UNL A   1      43.524  31.596  38.408  1.00  0.00     0.034 A 
ATOM     70  C   UNL A   1      39.239  34.070  33.010  1.00  0.00     0.034 A 
ATOM     71  C   UNL A   1      42.521  32.654  38.466  1.00  0.00     0.049 A 
ATOM     72  C   UNL A   1      38.628  33.787  34.380  1.00  0.00     0.074 A 
ATOM     73  C   UNL A   1      42.600  34.018  38.244  1.00  0.00     0.029 A 
ATOM     74  N   UNL A   1      41.180  32.314  38.394  1.00  0.00    -0.354 N 
ATOM     75  N   UNL A   1      39.321  33.445  35.434  1.00  0.00    -0.248 NA
ATOM     76  C   UNL A   1      37.206  33.931  34.675  1.00  0.00     0.031 C 
ATOM     77  C   UNL A   1      41.296  34.477  37.925  1.00  0.00     0.029 A 
ATOM     78  C   UNL A   1      40.432  33.395  37.976  1.00  0.00     0.049 A 
ATOM     79  H   UNL A   1      40.812  31.427  38.610  1.00  0.00     0.167 HD
ATOM     80  C   UNL A   1      38.512  33.447  36.543  1.00  0.00     0.074 A 
ATOM     81  C   UNL A   1      37.191  33.737  36.006  1.00  0.00     0.031 C 
ATOM     82  C   UNL A   1      38.997  33.261  37.812  1.00  0.00     0.034 A 
BRANCH  69  83
ATOM     83  C   UNL A   1      44.686  31.540  39.383  1.00  0.00     0.023 A 
ATOM     84  C   UNL A   1      45.982  31.813  38.888  1.00  0.00     0.031 A 
ATOM     85  C   UNL A   1      44.632  31.202  40.747  1.00  0.00     0.131 A 
ATOM     86  C   UNL A   1      47.136  31.667  39.679  1.00  0.00     0.055 A 
ATOM     87  C   UNL A   1      45.784  31.039  41.538  1.00  0.00     0.041 A 
ATOM     88  F   UNL A   1      43.470  31.054  41.393  1.00  0.00    -0.206 F 
ATOM     89  C   UNL A   1      47.046  31.260  41.002  1.00  0.00     0.022 A 
BRANCH  86  90
ATOM     90  S   UNL A   1      48.753  32.009  38.931  1.00  0.00     0.124 S 
ATOM     91  O   UNL A   1      48.921  33.434  39.198  1.00  0.00    -0.237 OA
ATOM     92  O   UNL A   1      49.633  31.106  39.666  1.00  0.00    -0.237 OA
ATOM     93  O   UNL A   1      48.555  31.664  37.524  1.00  0.00    -0.744 OA
ENDBRANCH  86  90
ENDBRANCH  69  83
BRANCH  70  94
ATOM     94  C   UNL A   1      39.013  33.227  31.788  1.00  0.00     0.023 A 
ATOM     95  C   UNL A   1      38.699  31.850  31.935  1.00  0.00     0.031 A 
ATOM     96  C   UNL A   1      38.649  33.846  30.590  1.00  0.00     0.131 A 
ATOM     97  C   UNL A   1      37.912  31.190  30.970  1.00  0.00     0.055 A 
ATOM     98  C   UNL A   1      37.918  33.161  29.621  1.00  0.00     0.041 A 
ATOM     99  F   UNL A   1      38.864  35.155  30.387  1.00  0.00    -0.206 F 
ATOM    100  C   UNL A   1      37.503  31.851  29.822  1.00  0.00     0.022 A 
BRANCH  97 101
ATOM    101  S   UNL A   1      37.224  29.548  31.326  1.00  0.00     0.124 S 
ATOM    102  O   UNL A   1      36.470  29.782  32.554  1.00  0.00    -0.237 OA
ATOM    103  O   UNL A   1      36.435  29.289  30.124  1.00  0.00    -0.237 OA
ATOM    104  O   UNL A   1      38.398  28.690  31.472  1.00  0.00    -0.744 OA
ENDBRANCH  97 101
ENDBRANCH  70  94
BRANCH  82 105
ATOM    105  C   UNL A   1      38.178  33.046  39.064  1.00  0.00     0.023 A 
ATOM    106  C   UNL A   1      38.203  33.933  40.140  1.00  0.00     0.031 A 
ATOM    107  C   UNL A   1      37.277  31.954  39.193  1.00  0.00     0.131 A 
ATOM    108  C   UNL A   1      37.488  33.663  41.316  1.00  0.00     0.055 A 
ATOM    109  C   UNL A   1      36.471  31.755  40.315  1.00  0.00     0.041 A 
ATOM    110  F   UNL A   1      37.131  31.027  38.235  1.00  0.00    -0.206 F 
ATOM    111  C   UNL A   1      36.597  32.598  41.404  1.00  0.00     0.022 A 
BRANCH 108 112
ATOM    112  S   UNL A   1      37.869  34.672  42.766  1.00  0.00     0.124 S 
ATOM    113  O   UNL A   1      38.578  35.799  42.166  1.00  0.00    -0.237 OA
ATOM    114  O   UNL A   1      36.542  34.973  43.296  1.00  0.00    -0.237 OA
ATOM    115  O   UNL A   1      38.688  33.789  43.592  1.00  0.00    -0.744 OA
ENDBRANCH 108 112
ENDBRANCH  82 105
ENDBRANCH  56  57
ENDBRANCH  49  51
ENDBRANCH  48  49
ENDBRANCH  47  48
ENDBRANCH  46  47
ENDBRANCH  45  46
ENDBRANCH   1  45
TORSDOF 23
ENDMDL
MODEL 3
REMARK VINA RESULT:     -10.1      4.213     11.021
REMARK SMILES Cc1ccc(S(=O)(=O)n2cc(C(=O)C(=O)NCC(=O)N[C@@H](Cc3c[nH]c4ccccc34)C(=O)OCCOC(=O)c3ccc(-c4c5nc(c(-c6cc(S(=O)(=O)[O-])ccc6F)c6ccc([nH]6)c(-c6cc(S(=O)(=O)[O-])ccc6F)c6nc(c(-c7cc(S(=O)(=O)[O-])ccc7F)c7ccc4[nH]7)C=C6)C=C5)cc3)c3ccccc32)cc1
REMARK SMILES IDX 32 1 33 2 21 3 20 4 18 5 19 6 17 8 16 9 14 10 15 11 12 13
REMARK SMILES IDX 13 14 11 15 9 16 10 17 108 18 103 19 107 20 104 21 106 22
REMARK SMILES IDX 105 23 6 24 7 25 8 26 5 27 1 28 2 29 3 30 110 31 4 32 109 33
REMARK SMILES IDX 22 34 23 35 24 36 31 37 25 38 26 39 30 40 27 42 29 43 28 44
REMARK SMILES IDX 34 45 35 46 36 47 37 48 38 49 39 50 40 51 41 52 102 53 42 54
REMARK SMILES IDX 101 55 43 56 44 57 45 58 95 59 46 60 100 61 94 62 96 63
REMARK SMILES IDX 47 64 99 65 93 66 92 67 48 69 80 70 60 71 79 72 61 73 64 74
REMARK SMILES IDX 78 75 97 76 62 77 63 78 77 80 98 81 65 82 49 83 50 84 58 85
REMARK SMILES IDX 51 86 57 87 59 88 56 89 52 90 53 91 54 92 55 93 81 94 82 95
REMARK SMILES IDX 90 96 83 97 89 98 91 99 88 100 84 101 85 102 86 103 87 104
REMARK SMILES IDX 66 105 67 106 75 107 68 108 74 109 76 110 73 111 69 112
REMARK SMILES IDX 70 113 71 114 72 115
REMARK H PARENT 20 7 16 12 25 41 96 68 64 79
REMARK Flexibility Score: inf
ROOT
ATOM      1  C   UNL A   1      39.764  34.596  34.216  1.00  0.00     0.329 C 
ATOM      2  O   UNL A   1      40.883  35.016  34.030  1.00  0.00    -0.250 OA
ENDROOT
BRANCH   1   3
ATOM      3  C   UNL A   1      39.177  33.451  33.387  1.00  0.00     0.196 C 
BRANCH   3   4
ATOM      4  N   UNL A   1      39.044  33.701  31.954  1.00  0.00    -0.341 N 
ATOM      5  C   UNL A   1      38.041  34.321  31.265  1.00  0.00     0.240 C 
ATOM      6  O   UNL A   1      38.200  34.465  30.049  1.00  0.00    -0.273 OA
ATOM      7  H   UNL A   1      39.792  33.374  31.401  1.00  0.00     0.164 HD
BRANCH   5   8
ATOM      8  C   UNL A   1      36.803  34.913  31.978  1.00  0.00     0.216 C 
BRANCH   8   9
ATOM      9  N   UNL A   1      35.837  33.949  32.501  1.00  0.00    -0.340 N 
ATOM     10  C   UNL A   1      34.928  33.190  31.773  1.00  0.00     0.292 C 
ATOM     11  O   UNL A   1      34.220  32.376  32.356  1.00  0.00    -0.265 OA
ATOM     12  H   UNL A   1      35.828  33.823  33.477  1.00  0.00     0.164 HD
BRANCH  10  13
ATOM     13  C   UNL A   1      34.831  33.353  30.236  1.00  0.00     0.252 C 
ATOM     14  O   UNL A   1      34.784  34.506  29.808  1.00  0.00    -0.283 OA
BRANCH  13  15
ATOM     15  C   UNL A   1      34.821  32.193  29.323  1.00  0.00     0.054 A 
ATOM     16  N   UNL A   1      34.195  30.588  27.871  1.00  0.00    -0.240 N 
ATOM     17  C   UNL A   1      33.764  31.707  28.564  1.00  0.00     0.117 A 
ATOM     18  C   UNL A   1      35.548  30.381  28.080  1.00  0.00     0.065 A 
ATOM     19  C   UNL A   1      35.951  31.349  29.015  1.00  0.00     0.012 A 
ATOM     20  C   UNL A   1      36.473  29.501  27.485  1.00  0.00     0.028 A 
ATOM     21  C   UNL A   1      37.313  31.389  29.395  1.00  0.00     0.011 A 
ATOM     22  C   UNL A   1      37.822  29.611  27.837  1.00  0.00     0.002 A 
ATOM     23  C   UNL A   1      38.236  30.529  28.792  1.00  0.00     0.001 A 
BRANCH  16  24
ATOM     24  S   UNL A   1      33.126  29.704  26.856  1.00  0.00     0.268 S 
ATOM     25  O   UNL A   1      33.681  28.511  27.500  1.00  0.00    -0.201 OA
ATOM     26  O   UNL A   1      33.540  30.633  25.815  1.00  0.00    -0.201 OA
BRANCH  24  27
ATOM     27  C   UNL A   1      32.805  28.612  25.472  1.00  0.00     0.088 A 
ATOM     28  C   UNL A   1      31.900  26.154  22.046  1.00  0.00     0.044 C 
ATOM     29  C   UNL A   1      32.220  27.021  23.229  1.00  0.00    -0.051 A 
ATOM     30  C   UNL A   1      33.302  26.703  24.060  1.00  0.00     0.005 A 
ATOM     31  C   UNL A   1      31.457  28.162  23.507  1.00  0.00     0.005 A 
ATOM     32  C   UNL A   1      33.595  27.490  25.177  1.00  0.00     0.022 A 
ATOM     33  C   UNL A   1      31.746  28.957  24.621  1.00  0.00     0.022 A 
ENDBRANCH  24  27
ENDBRANCH  16  24
ENDBRANCH  13  15
ENDBRANCH  10  13
ENDBRANCH   8   9
ENDBRANCH   5   8
ENDBRANCH   3   4
BRANCH   3  34
ATOM     34  C   UNL A   1      39.887  32.115  33.683  1.00  0.00     0.074 C 
BRANCH  34  35
ATOM     35  C   UNL A   1      39.167  30.801  33.454  1.00  0.00    -0.020 A 
ATOM     36  C   UNL A   1      37.987  30.323  33.995  1.00  0.00     0.087 A 
ATOM     37  C   UNL A   1      39.553  29.834  32.460  1.00  0.00     0.003 A 
ATOM     38  N   UNL A   1      37.560  29.255  33.252  1.00  0.00    -0.361 N 
ATOM     39  C   UNL A   1      38.530  28.891  32.360  1.00  0.00     0.046 A 
ATOM     40  C   UNL A   1      40.658  29.707  31.593  1.00  0.00     0.010 A 
ATOM     41  H   UNL A   1      36.685  28.814  33.347  1.00  0.00     0.166 HD
ATOM     42  C   UNL A   1      38.549  27.831  31.450  1.00  0.00     0.026 A 
ATOM     43  C   UNL A   1      40.711  28.631  30.698  1.00  0.00     0.001 A 
ATOM     44  C   UNL A   1      39.669  27.709  30.629  1.00  0.00     0.002 A 
ENDBRANCH  34  35
ENDBRANCH   3  34
ENDBRANCH   1   3
BRANCH   1  45
ATOM     45  O   UNL A   1      38.957  35.067  35.211  1.00  0.00    -0.461 OA
BRANCH  45  46
ATOM     46  C   UNL A   1      38.780  34.119  36.280  1.00  0.00     0.274 C 
BRANCH  46  47
ATOM     47  C   UNL A   1      39.633  34.432  37.511  1.00  0.00     0.275 C 
BRANCH  47  48
ATOM     48  O   UNL A   1      41.013  33.975  37.509  1.00  0.00    -0.458 OA
BRANCH  48  49
ATOM     49  C   UNL A   1      41.505  32.724  37.705  1.00  0.00     0.338 C 
ATOM     50  O   UNL A   1      41.120  32.034  38.642  1.00  0.00    -0.246 OA
BRANCH  49  51
ATOM     51  C   UNL A   1      42.390  32.135  36.681  1.00  0.00     0.060 A 
ATOM     52  C   UNL A   1      42.109  30.844  36.190  1.00  0.00     0.016 A 
ATOM     53  C   UNL A   1      43.410  32.887  36.127  1.00  0.00     0.016 A 
ATOM     54  C   UNL A   1      42.756  30.367  35.045  1.00  0.00     0.010 A 
ATOM     55  C   UNL A   1      43.943  32.483  34.926  1.00  0.00     0.010 A 
ATOM     56  C   UNL A   1      43.654  31.216  34.396  1.00  0.00    -0.014 A 
BRANCH  56  57
ATOM     57  C   UNL A   1      44.447  30.848  33.225  1.00  0.00     0.031 A 
ATOM     58  C   UNL A   1      44.016  31.190  31.844  1.00  0.00     0.074 A 
ATOM     59  C   UNL A   1      45.608  30.205  33.512  1.00  0.00     0.049 A 
ATOM     60  N   UNL A   1      44.277  30.492  30.794  1.00  0.00    -0.248 NA
ATOM     61  C   UNL A   1      43.217  32.369  31.514  1.00  0.00     0.031 C 
ATOM     62  C   UNL A   1      46.689  29.783  32.640  1.00  0.00     0.029 A 
ATOM     63  N   UNL A   1      46.012  29.657  34.734  1.00  0.00    -0.354 N 
ATOM     64  C   UNL A   1      44.056  31.304  29.692  1.00  0.00     0.074 A 
ATOM     65  C   UNL A   1      43.232  32.373  30.176  1.00  0.00     0.031 C 
ATOM     66  C   UNL A   1      47.341  28.761  33.237  1.00  0.00     0.029 A 
ATOM     67  C   UNL A   1      46.599  28.431  34.445  1.00  0.00     0.049 A 
ATOM     68  H   UNL A   1      45.902  30.061  35.624  1.00  0.00     0.167 HD
ATOM     69  C   UNL A   1      44.796  31.102  28.562  1.00  0.00     0.034 A 
ATOM     70  C   UNL A   1      45.937  27.255  34.687  1.00  0.00     0.034 A 
ATOM     71  C   UNL A   1      45.644  29.929  28.746  1.00  0.00     0.049 A 
ATOM     72  C   UNL A   1      45.660  26.516  33.381  1.00  0.00     0.074 A 
ATOM     73  C   UNL A   1      46.975  29.796  29.105  1.00  0.00     0.029 A 
ATOM     74  N   UNL A   1      45.050  28.694  28.944  1.00  0.00    -0.354 N 
ATOM     75  N   UNL A   1      45.548  27.102  32.218  1.00  0.00    -0.248 NA
ATOM     76  C   UNL A   1      45.555  25.064  33.281  1.00  0.00     0.031 C 
ATOM     77  C   UNL A   1      47.147  28.489  29.632  1.00  0.00     0.029 A 
ATOM     78  C   UNL A   1      45.928  27.833  29.569  1.00  0.00     0.049 A 
ATOM     79  H   UNL A   1      44.130  28.463  28.680  1.00  0.00     0.167 HD
ATOM     80  C   UNL A   1      45.491  26.157  31.225  1.00  0.00     0.074 A 
ATOM     81  C   UNL A   1      45.476  24.895  31.949  1.00  0.00     0.031 C 
ATOM     82  C   UNL A   1      45.509  26.482  29.893  1.00  0.00     0.034 A 
BRANCH  69  83
ATOM     83  C   UNL A   1      45.046  32.106  27.451  1.00  0.00     0.023 A 
ATOM     84  C   UNL A   1      46.156  32.973  27.576  1.00  0.00     0.031 A 
ATOM     85  C   UNL A   1      44.264  32.308  26.300  1.00  0.00     0.131 A 
ATOM     86  C   UNL A   1      46.402  34.016  26.666  1.00  0.00     0.055 A 
ATOM     87  C   UNL A   1      44.496  33.360  25.396  1.00  0.00     0.041 A 
ATOM     88  F   UNL A   1      43.267  31.479  25.969  1.00  0.00    -0.206 F 
ATOM     89  C   UNL A   1      45.563  34.229  25.582  1.00  0.00     0.022 A 
BRANCH  86  90
ATOM     90  S   UNL A   1      47.835  35.094  26.943  1.00  0.00     0.124 S 
ATOM     91  O   UNL A   1      47.250  36.425  26.804  1.00  0.00    -0.237 OA
ATOM     92  O   UNL A   1      48.257  34.712  28.286  1.00  0.00    -0.237 OA
ATOM     93  O   UNL A   1      48.757  34.712  25.875  1.00  0.00    -0.744 OA
ENDBRANCH  86  90
ENDBRANCH  69  83
BRANCH  70  94
ATOM     94  C   UNL A   1      44.965  27.358  35.828  1.00  0.00     0.023 A 
ATOM     95  C   UNL A   1      43.607  26.992  35.627  1.00  0.00     0.031 A 
ATOM     96  C   UNL A   1      45.447  27.346  37.139  1.00  0.00     0.131 A 
ATOM     97  C   UNL A   1      42.838  26.488  36.695  1.00  0.00     0.055 A 
ATOM     98  C   UNL A   1      44.653  26.897  38.192  1.00  0.00     0.041 A 
ATOM     99  F   UNL A   1      46.730  27.632  37.413  1.00  0.00    -0.206 F 
ATOM    100  C   UNL A   1      43.367  26.421  37.975  1.00  0.00     0.022 A 
BRANCH  97 101
ATOM    101  S   UNL A   1      41.234  25.701  36.368  1.00  0.00     0.124 S 
ATOM    102  O   UNL A   1      40.471  26.033  37.567  1.00  0.00    -0.237 OA
ATOM    103  O   UNL A   1      40.822  26.369  35.136  1.00  0.00    -0.237 OA
ATOM    104  O   UNL A   1      41.555  24.284  36.207  1.00  0.00    -0.744 OA
ENDBRANCH  97 101
ENDBRANCH  70  94
BRANCH  82 105
ATOM    105  C   UNL A   1      45.250  25.545  28.735  1.00  0.00     0.023 A 
ATOM    106  C   UNL A   1      43.990  25.395  28.158  1.00  0.00     0.031 A 
ATOM    107  C   UNL A   1      46.297  24.805  28.121  1.00  0.00     0.131 A 
ATOM    108  C   UNL A   1      43.771  24.461  27.135  1.00  0.00     0.055 A 
ATOM    109  C   UNL A   1      46.099  23.970  27.020  1.00  0.00     0.041 A 
ATOM    110  F   UNL A   1      47.564  24.859  28.555  1.00  0.00    -0.206 F 
ATOM    111  C   UNL A   1      44.819  23.767  26.538  1.00  0.00     0.022 A 
BRANCH 108 112
ATOM    112  S   UNL A   1      42.055  24.086  26.710  1.00  0.00     0.124 S 
ATOM    113  O   UNL A   1      42.199  22.834  25.972  1.00  0.00    -0.237 OA
ATOM    114  O   UNL A   1      41.424  23.975  28.021  1.00  0.00    -0.237 OA
ATOM    115  O   UNL A   1      41.640  25.236  25.910  1.00  0.00    -0.744 OA
ENDBRANCH 108 112
ENDBRANCH  82 105
ENDBRANCH  56  57
ENDBRANCH  49  51
ENDBRANCH  48  49
ENDBRANCH  47  48
ENDBRANCH  46  47
ENDBRANCH  45  46
ENDBRANCH   1  45
TORSDOF 23
ENDMDL
