MODEL 1
REMARK VINA RESULT:     -12.4      0.000      0.000
REMARK SMILES Cc1cc(OC(F)(F)F)cc2c1O[C@H](C(F)(F)F)C(C(=O)OCCOC(=O)c1ccc(-c3c4nc(c(-c5cc(S(=O)(=O)[O-])ccc5F)c5ccc([nH]5)c(-c5cc(S(=O)(=O)[O-])ccc5F)c5nc(c(-c6cc(S(=O)(=O)[O-])ccc6F)c6ccc3[nH]6)C=C5)C=C4)cc1)=C2
REMARK SMILES IDX 24 1 23 2 22 3 20 4 21 5 19 6 1 7 2 8 3 9 12 10 4 11 11 12
REMARK SMILES IDX 13 13 10 14 91 15 14 16 5 17 6 18 7 19 8 20 9 21 15 22 16 23
REMARK SMILES IDX 17 24 18 25 25 26 26 27 27 28 28 29 29 30 90 31 30 32 89 33
REMARK SMILES IDX 31 34 32 35 33 36 83 37 34 38 88 39 82 40 84 41 35 42 87 43
REMARK SMILES IDX 81 44 80 45 36 47 68 48 48 49 67 50 49 51 52 52 66 53 85 54
REMARK SMILES IDX 50 55 51 56 65 58 86 59 53 60 37 61 38 62 46 63 39 64 45 65
REMARK SMILES IDX 47 66 44 67 40 68 41 69 42 70 43 71 69 72 70 73 78 74 71 75
REMARK SMILES IDX 77 76 79 77 76 78 72 79 73 80 74 81 75 82 54 83 55 84 63 85
REMARK SMILES IDX 56 86 62 87 64 88 61 89 57 90 58 91 59 92 60 93
REMARK H PARENT 84 46 52 57
REMARK Flexibility Score: inf
ROOT
ATOM      1  C   UNL A   1      37.530  20.150  24.954  1.00  0.00     0.275 C 
ENDROOT
BRANCH   1   2
ATOM      2  C   UNL A   1      36.019  20.361  25.038  1.00  0.00     0.275 C 
BRANCH   2   3
ATOM      3  O   UNL A   1      35.686  21.374  26.010  1.00  0.00    -0.459 OA
BRANCH   3   4
ATOM      4  C   UNL A   1      34.383  21.752  26.045  1.00  0.00     0.338 C 
ATOM      5  O   UNL A   1      33.473  21.162  26.595  1.00  0.00    -0.246 OA
BRANCH   4   6
ATOM      6  C   UNL A   1      34.207  23.035  25.334  1.00  0.00     0.087 C 
ATOM      7  C   UNL A   1      33.338  26.771  21.875  1.00  0.00     0.048 C 
ATOM      8  C   UNL A   1      33.504  26.667  23.366  1.00  0.00    -0.005 A 
ATOM      9  C   UNL A   1      33.368  27.840  24.136  1.00  0.00     0.054 A 
ATOM     10  C   UNL A   1      33.772  25.447  24.006  1.00  0.00     0.131 A 
ATOM     11  C   UNL A   1      33.498  27.805  25.525  1.00  0.00     0.130 A 
ATOM     12  C   UNL A   1      33.870  25.407  25.396  1.00  0.00     0.021 A 
ATOM     13  O   UNL A   1      33.942  24.340  23.220  1.00  0.00    -0.475 OA
ATOM     14  C   UNL A   1      33.751  26.583  26.147  1.00  0.00     0.058 A 
ATOM     15  C   UNL A   1      34.079  24.142  26.072  1.00  0.00     0.027 C 
ATOM     16  C   UNL A   1      34.090  23.032  23.839  1.00  0.00     0.316 C 
BRANCH  11  17
ATOM     17  O   UNL A   1      33.404  28.862  26.383  1.00  0.00    -0.406 OA
BRANCH  17  18
ATOM     18  C   UNL A   1      32.117  29.237  26.839  1.00  0.00     0.573 C 
ATOM     19  F   UNL A   1      31.205  29.159  25.847  1.00  0.00    -0.132 F 
ATOM     20  F   UNL A   1      31.722  28.451  27.866  1.00  0.00    -0.132 F 
ATOM     21  F   UNL A   1      32.157  30.513  27.279  1.00  0.00    -0.132 F 
ENDBRANCH  17  18
ENDBRANCH  11  17
BRANCH  16  22
ATOM     22  C   UNL A   1      32.916  22.151  23.380  1.00  0.00     0.430 C 
ATOM     23  F   UNL A   1      31.805  22.384  24.121  1.00  0.00    -0.167 F 
ATOM     24  F   UNL A   1      32.573  22.397  22.092  1.00  0.00    -0.167 F 
ATOM     25  F   UNL A   1      33.195  20.832  23.478  1.00  0.00    -0.167 F 
ENDBRANCH  16  22
ENDBRANCH   4   6
ENDBRANCH   3   4
ENDBRANCH   2   3
ENDBRANCH   1   2
BRANCH   1  26
ATOM     26  O   UNL A   1      38.229  21.342  25.347  1.00  0.00    -0.458 OA
BRANCH  26  27
ATOM     27  C   UNL A   1      39.343  21.132  26.081  1.00  0.00     0.338 C 
ATOM     28  O   UNL A   1      39.997  20.104  26.159  1.00  0.00    -0.246 OA
BRANCH  27  29
ATOM     29  C   UNL A   1      39.740  22.374  26.757  1.00  0.00     0.060 A 
ATOM     30  C   UNL A   1      39.169  23.571  26.337  1.00  0.00     0.016 A 
ATOM     31  C   UNL A   1      40.797  22.376  27.663  1.00  0.00     0.016 A 
ATOM     32  C   UNL A   1      39.749  24.782  26.698  1.00  0.00     0.010 A 
ATOM     33  C   UNL A   1      41.297  23.599  28.126  1.00  0.00     0.010 A 
ATOM     34  C   UNL A   1      40.818  24.813  27.603  1.00  0.00    -0.014 A 
BRANCH  34  35
ATOM     35  C   UNL A   1      41.449  26.108  27.982  1.00  0.00     0.031 A 
ATOM     36  C   UNL A   1      40.660  27.141  28.742  1.00  0.00     0.074 A 
ATOM     37  C   UNL A   1      42.732  26.354  27.650  1.00  0.00     0.049 A 
ATOM     38  N   UNL A   1      40.983  28.374  29.034  1.00  0.00    -0.248 NA
ATOM     39  C   UNL A   1      39.329  26.741  29.232  1.00  0.00     0.031 C 
ATOM     40  C   UNL A   1      43.617  25.419  26.954  1.00  0.00     0.029 A 
ATOM     41  N   UNL A   1      43.518  27.463  27.852  1.00  0.00    -0.354 N 
ATOM     42  C   UNL A   1      39.885  28.911  29.697  1.00  0.00     0.074 A 
ATOM     43  C   UNL A   1      38.877  27.875  29.753  1.00  0.00     0.031 C 
ATOM     44  C   UNL A   1      44.826  25.977  26.814  1.00  0.00     0.029 A 
ATOM     45  C   UNL A   1      44.783  27.343  27.323  1.00  0.00     0.049 A 
ATOM     46  H   UNL A   1      43.207  28.265  28.330  1.00  0.00     0.167 HD
ATOM     47  C   UNL A   1      39.735  30.153  30.216  1.00  0.00     0.034 A 
ATOM     48  C   UNL A   1      45.784  28.240  27.215  1.00  0.00     0.034 A 
ATOM     49  C   UNL A   1      40.765  31.159  30.194  1.00  0.00     0.049 A 
ATOM     50  C   UNL A   1      45.583  29.625  27.766  1.00  0.00     0.074 A 
ATOM     51  C   UNL A   1      40.718  32.439  30.716  1.00  0.00     0.029 A 
ATOM     52  N   UNL A   1      42.025  31.002  29.635  1.00  0.00    -0.354 N 
ATOM     53  N   UNL A   1      44.536  30.118  28.385  1.00  0.00    -0.248 NA
ATOM     54  C   UNL A   1      46.688  30.578  27.603  1.00  0.00     0.031 C 
ATOM     55  C   UNL A   1      41.926  33.074  30.427  1.00  0.00     0.029 A 
ATOM     56  C   UNL A   1      42.754  32.169  29.781  1.00  0.00     0.049 A 
ATOM     57  H   UNL A   1      42.352  30.181  29.199  1.00  0.00     0.167 HD
ATOM     58  C   UNL A   1      44.862  31.433  28.699  1.00  0.00     0.074 A 
ATOM     59  C   UNL A   1      46.213  31.651  28.223  1.00  0.00     0.031 C 
ATOM     60  C   UNL A   1      44.106  32.374  29.318  1.00  0.00     0.034 A 
BRANCH  47  61
ATOM     61  C   UNL A   1      38.421  30.521  30.855  1.00  0.00     0.023 A 
ATOM     62  C   UNL A   1      37.459  31.231  30.111  1.00  0.00     0.031 A 
ATOM     63  C   UNL A   1      38.171  30.292  32.219  1.00  0.00     0.131 A 
ATOM     64  C   UNL A   1      36.310  31.721  30.743  1.00  0.00     0.055 A 
ATOM     65  C   UNL A   1      37.006  30.750  32.836  1.00  0.00     0.041 A 
ATOM     66  F   UNL A   1      39.056  29.614  32.968  1.00  0.00    -0.206 F 
ATOM     67  C   UNL A   1      36.075  31.478  32.100  1.00  0.00     0.022 A 
BRANCH  64  68
ATOM     68  S   UNL A   1      35.103  32.728  29.840  1.00  0.00     0.124 S 
ATOM     69  O   UNL A   1      35.945  33.787  29.288  1.00  0.00    -0.237 OA
ATOM     70  O   UNL A   1      34.579  31.775  28.866  1.00  0.00    -0.237 OA
ATOM     71  O   UNL A   1      34.165  33.160  30.872  1.00  0.00    -0.744 OA
ENDBRANCH  64  68
ENDBRANCH  47  61
BRANCH  48  72
ATOM     72  C   UNL A   1      47.059  27.826  26.561  1.00  0.00     0.023 A 
ATOM     73  C   UNL A   1      47.263  28.033  25.183  1.00  0.00     0.031 A 
ATOM     74  C   UNL A   1      48.036  27.117  27.276  1.00  0.00     0.131 A 
ATOM     75  C   UNL A   1      48.378  27.468  24.552  1.00  0.00     0.055 A 
ATOM     76  C   UNL A   1      49.182  26.614  26.655  1.00  0.00     0.041 A 
ATOM     77  F   UNL A   1      47.881  26.889  28.590  1.00  0.00    -0.206 F 
ATOM     78  C   UNL A   1      49.348  26.775  25.283  1.00  0.00     0.022 A 
BRANCH  75  79
ATOM     79  S   UNL A   1      48.546  27.518  22.747  1.00  0.00     0.124 S 
ATOM     80  O   UNL A   1      48.521  26.100  22.397  1.00  0.00    -0.237 OA
ATOM     81  O   UNL A   1      47.364  28.284  22.361  1.00  0.00    -0.237 OA
ATOM     82  O   UNL A   1      49.821  28.195  22.537  1.00  0.00    -0.744 OA
ENDBRANCH  75  79
ENDBRANCH  48  72
BRANCH  60  83
ATOM     83  C   UNL A   1      44.702  33.740  29.544  1.00  0.00     0.023 A 
ATOM     84  C   UNL A   1      44.714  34.680  28.496  1.00  0.00     0.031 A 
ATOM     85  C   UNL A   1      45.386  34.052  30.730  1.00  0.00     0.131 A 
ATOM     86  C   UNL A   1      45.436  35.871  28.640  1.00  0.00     0.055 A 
ATOM     87  C   UNL A   1      46.066  35.260  30.886  1.00  0.00     0.041 A 
ATOM     88  F   UNL A   1      45.408  33.181  31.752  1.00  0.00    -0.206 F 
ATOM     89  C   UNL A   1      46.105  36.170  29.832  1.00  0.00     0.022 A 
BRANCH  86  90
ATOM     90  S   UNL A   1      45.594  37.041  27.263  1.00  0.00     0.124 S 
ATOM     91  O   UNL A   1      46.635  37.943  27.750  1.00  0.00    -0.237 OA
ATOM     92  O   UNL A   1      45.990  36.167  26.164  1.00  0.00    -0.237 OA
ATOM     93  O   UNL A   1      44.265  37.633  27.150  1.00  0.00    -0.744 OA
ENDBRANCH  86  90
ENDBRANCH  60  83
ENDBRANCH  34  35
ENDBRANCH  27  29
ENDBRANCH  26  27
ENDBRANCH   1  26
TORSDOF 17
ENDMDL
MODEL 2
REMARK VINA RESULT:     -12.2      4.884     10.068
REMARK SMILES Cc1cc(OC(F)(F)F)cc2c1O[C@H](C(F)(F)F)C(C(=O)OCCOC(=O)c1ccc(-c3c4nc(c(-c5cc(S(=O)(=O)[O-])ccc5F)c5ccc([nH]5)c(-c5cc(S(=O)(=O)[O-])ccc5F)c5nc(c(-c6cc(S(=O)(=O)[O-])ccc6F)c6ccc3[nH]6)C=C5)C=C4)cc1)=C2
REMARK SMILES IDX 24 1 23 2 22 3 20 4 21 5 19 6 1 7 2 8 3 9 12 10 4 11 11 12
REMARK SMILES IDX 13 13 10 14 91 15 14 16 5 17 6 18 7 19 8 20 9 21 15 22 16 23
REMARK SMILES IDX 17 24 18 25 25 26 26 27 27 28 28 29 29 30 90 31 30 32 89 33
REMARK SMILES IDX 31 34 32 35 33 36 83 37 34 38 88 39 82 40 84 41 35 42 87 43
REMARK SMILES IDX 81 44 80 45 36 47 68 48 48 49 67 50 49 51 52 52 66 53 85 54
REMARK SMILES IDX 50 55 51 56 65 58 86 59 53 60 37 61 38 62 46 63 39 64 45 65
REMARK SMILES IDX 47 66 44 67 40 68 41 69 42 70 43 71 69 72 70 73 78 74 71 75
REMARK SMILES IDX 77 76 79 77 76 78 72 79 73 80 74 81 75 82 54 83 55 84 63 85
REMARK SMILES IDX 56 86 62 87 64 88 61 89 57 90 58 91 59 92 60 93
REMARK H PARENT 84 46 52 57
REMARK Flexibility Score: inf
ROOT
ATOM      1  C   UNL A   1      31.773  31.253  26.669  1.00  0.00     0.275 C 
ENDROOT
BRANCH   1   2
ATOM      2  C   UNL A   1      31.548  30.293  25.501  1.00  0.00     0.275 C 
BRANCH   2   3
ATOM      3  O   UNL A   1      32.796  29.736  25.035  1.00  0.00    -0.459 OA
BRANCH   3   4
ATOM      4  C   UNL A   1      32.690  28.746  24.114  1.00  0.00     0.338 C 
ATOM      5  O   UNL A   1      32.640  28.881  22.907  1.00  0.00    -0.246 OA
BRANCH   4   6
ATOM      6  C   UNL A   1      32.680  27.428  24.784  1.00  0.00     0.087 C 
ATOM      7  C   UNL A   1      31.399  22.973  27.062  1.00  0.00     0.048 C 
ATOM      8  C   UNL A   1      32.640  23.604  26.496  1.00  0.00    -0.005 A 
ATOM      9  C   UNL A   1      33.833  22.851  26.500  1.00  0.00     0.054 A 
ATOM     10  C   UNL A   1      32.643  24.899  25.956  1.00  0.00     0.131 A 
ATOM     11  C   UNL A   1      35.015  23.376  25.977  1.00  0.00     0.130 A 
ATOM     12  C   UNL A   1      33.817  25.412  25.405  1.00  0.00     0.021 A 
ATOM     13  O   UNL A   1      31.478  25.614  26.012  1.00  0.00    -0.475 OA
ATOM     14  C   UNL A   1      34.998  24.660  25.432  1.00  0.00     0.058 A 
ATOM     15  C   UNL A   1      33.814  26.722  24.783  1.00  0.00     0.027 C 
ATOM     16  C   UNL A   1      31.393  26.906  25.350  1.00  0.00     0.316 C 
BRANCH  11  17
ATOM     17  O   UNL A   1      36.233  22.764  25.931  1.00  0.00    -0.406 OA
BRANCH  17  18
ATOM     18  C   UNL A   1      36.453  21.792  24.925  1.00  0.00     0.573 C 
ATOM     19  F   UNL A   1      37.721  21.846  24.463  1.00  0.00    -0.132 F 
ATOM     20  F   UNL A   1      36.206  20.548  25.395  1.00  0.00    -0.132 F 
ATOM     21  F   UNL A   1      35.615  22.024  23.893  1.00  0.00    -0.132 F 
ENDBRANCH  17  18
ENDBRANCH  11  17
BRANCH  16  22
ATOM     22  C   UNL A   1      30.309  26.815  24.263  1.00  0.00     0.430 C 
ATOM     23  F   UNL A   1      29.292  26.005  24.647  1.00  0.00    -0.167 F 
ATOM     24  F   UNL A   1      29.756  28.023  23.998  1.00  0.00    -0.167 F 
ATOM     25  F   UNL A   1      30.792  26.328  23.097  1.00  0.00    -0.167 F 
ENDBRANCH  16  22
ENDBRANCH   4   6
ENDBRANCH   3   4
ENDBRANCH   2   3
ENDBRANCH   1   2
BRANCH   1  26
ATOM     26  O   UNL A   1      32.974  30.912  27.380  1.00  0.00    -0.458 OA
BRANCH  26  27
ATOM     27  C   UNL A   1      33.779  31.957  27.673  1.00  0.00     0.338 C 
ATOM     28  O   UNL A   1      33.466  33.135  27.746  1.00  0.00    -0.246 OA
BRANCH  27  29
ATOM     29  C   UNL A   1      35.131  31.478  27.981  1.00  0.00     0.060 A 
ATOM     30  C   UNL A   1      35.318  30.119  28.218  1.00  0.00     0.016 A 
ATOM     31  C   UNL A   1      36.163  32.383  28.216  1.00  0.00     0.016 A 
ATOM     32  C   UNL A   1      36.481  29.675  28.837  1.00  0.00     0.010 A 
ATOM     33  C   UNL A   1      37.381  31.914  28.718  1.00  0.00     0.010 A 
ATOM     34  C   UNL A   1      37.533  30.566  29.090  1.00  0.00    -0.014 A 
BRANCH  34  35
ATOM     35  C   UNL A   1      38.775  30.096  29.764  1.00  0.00     0.031 A 
ATOM     36  C   UNL A   1      39.666  29.086  29.090  1.00  0.00     0.074 A 
ATOM     37  C   UNL A   1      39.108  30.579  30.977  1.00  0.00     0.049 A 
ATOM     38  N   UNL A   1      40.703  28.451  29.571  1.00  0.00    -0.248 NA
ATOM     39  C   UNL A   1      39.346  28.735  27.695  1.00  0.00     0.031 C 
ATOM     40  C   UNL A   1      38.353  31.594  31.716  1.00  0.00     0.029 A 
ATOM     41  N   UNL A   1      40.163  30.287  31.806  1.00  0.00    -0.354 N 
ATOM     42  C   UNL A   1      41.130  27.596  28.561  1.00  0.00     0.074 A 
ATOM     43  C   UNL A   1      40.232  27.781  27.443  1.00  0.00     0.031 C 
ATOM     44  C   UNL A   1      38.982  31.859  32.868  1.00  0.00     0.029 A 
ATOM     45  C   UNL A   1      40.132  30.972  32.999  1.00  0.00     0.049 A 
ATOM     46  H   UNL A   1      40.874  29.648  31.568  1.00  0.00     0.167 HD
ATOM     47  C   UNL A   1      42.180  26.740  28.566  1.00  0.00     0.034 A 
ATOM     48  C   UNL A   1      40.910  30.872  34.096  1.00  0.00     0.034 A 
ATOM     49  C   UNL A   1      43.094  26.602  29.671  1.00  0.00     0.049 A 
ATOM     50  C   UNL A   1      42.049  29.888  34.093  1.00  0.00     0.074 A 
ATOM     51  C   UNL A   1      44.204  25.780  29.761  1.00  0.00     0.029 A 
ATOM     52  N   UNL A   1      43.018  27.303  30.865  1.00  0.00    -0.354 N 
ATOM     53  N   UNL A   1      42.436  29.083  33.132  1.00  0.00    -0.248 NA
ATOM     54  C   UNL A   1      42.853  29.791  35.318  1.00  0.00     0.031 C 
ATOM     55  C   UNL A   1      44.766  25.943  31.027  1.00  0.00     0.029 A 
ATOM     56  C   UNL A   1      44.047  26.915  31.706  1.00  0.00     0.049 A 
ATOM     57  H   UNL A   1      42.333  27.977  31.082  1.00  0.00     0.167 HD
ATOM     58  C   UNL A   1      43.538  28.396  33.630  1.00  0.00     0.074 A 
ATOM     59  C   UNL A   1      43.769  28.898  34.969  1.00  0.00     0.031 C 
ATOM     60  C   UNL A   1      44.281  27.432  33.033  1.00  0.00     0.034 A 
BRANCH  47  61
ATOM     61  C   UNL A   1      42.419  25.874  27.356  1.00  0.00     0.023 A 
ATOM     62  C   UNL A   1      41.992  24.532  27.365  1.00  0.00     0.031 A 
ATOM     63  C   UNL A   1      43.174  26.326  26.260  1.00  0.00     0.131 A 
ATOM     64  C   UNL A   1      42.357  23.677  26.318  1.00  0.00     0.055 A 
ATOM     65  C   UNL A   1      43.502  25.479  25.200  1.00  0.00     0.041 A 
ATOM     66  F   UNL A   1      43.598  27.599  26.204  1.00  0.00    -0.206 F 
ATOM     67  C   UNL A   1      43.104  24.145  25.232  1.00  0.00     0.022 A 
BRANCH  64  68
ATOM     68  S   UNL A   1      41.915  21.919  26.348  1.00  0.00     0.124 S 
ATOM     69  O   UNL A   1      40.477  21.965  26.093  1.00  0.00    -0.237 OA
ATOM     70  O   UNL A   1      42.725  21.383  25.257  1.00  0.00    -0.237 OA
ATOM     71  O   UNL A   1      42.291  21.486  27.689  1.00  0.00    -0.744 OA
ENDBRANCH  64  68
ENDBRANCH  47  61
BRANCH  48  72
ATOM     72  C   UNL A   1      40.620  31.744  35.270  1.00  0.00     0.023 A 
ATOM     73  C   UNL A   1      39.519  31.482  36.108  1.00  0.00     0.031 A 
ATOM     74  C   UNL A   1      41.365  32.910  35.500  1.00  0.00     0.131 A 
ATOM     75  C   UNL A   1      39.151  32.415  37.085  1.00  0.00     0.055 A 
ATOM     76  C   UNL A   1      41.036  33.804  36.522  1.00  0.00     0.041 A 
ATOM     77  F   UNL A   1      42.419  33.204  34.722  1.00  0.00    -0.206 F 
ATOM     78  C   UNL A   1      39.913  33.566  37.308  1.00  0.00     0.022 A 
BRANCH  75  79
ATOM     79  S   UNL A   1      37.609  32.221  38.019  1.00  0.00     0.124 S 
ATOM     80  O   UNL A   1      36.694  33.091  37.286  1.00  0.00    -0.237 OA
ATOM     81  O   UNL A   1      37.360  30.788  37.884  1.00  0.00    -0.237 OA
ATOM     82  O   UNL A   1      37.959  32.667  39.363  1.00  0.00    -0.744 OA
ENDBRANCH  75  79
ENDBRANCH  48  72
BRANCH  60  83
ATOM     83  C   UNL A   1      45.439  26.841  33.797  1.00  0.00     0.023 A 
ATOM     84  C   UNL A   1      45.229  25.732  34.638  1.00  0.00     0.031 A 
ATOM     85  C   UNL A   1      46.698  27.463  33.811  1.00  0.00     0.131 A 
ATOM     86  C   UNL A   1      46.253  25.306  35.493  1.00  0.00     0.055 A 
ATOM     87  C   UNL A   1      47.730  27.006  34.631  1.00  0.00     0.041 A 
ATOM     88  F   UNL A   1      46.940  28.529  33.031  1.00  0.00    -0.206 F 
ATOM     89  C   UNL A   1      47.505  25.931  35.488  1.00  0.00     0.022 A 
BRANCH  86  90
ATOM     90  S   UNL A   1      45.975  23.974  36.692  1.00  0.00     0.124 S 
ATOM     91  O   UNL A   1      45.585  24.719  37.888  1.00  0.00    -0.237 OA
ATOM     92  O   UNL A   1      44.906  23.209  36.057  1.00  0.00    -0.237 OA
ATOM     93  O   UNL A   1      47.267  23.301  36.777  1.00  0.00    -0.744 OA
ENDBRANCH  86  90
ENDBRANCH  60  83
ENDBRANCH  34  35
ENDBRANCH  27  29
ENDBRANCH  26  27
ENDBRANCH   1  26
TORSDOF 17
ENDMDL
MODEL 3
REMARK VINA RESULT:     -12.1      1.671      2.060
REMARK SMILES Cc1cc(OC(F)(F)F)cc2c1O[C@H](C(F)(F)F)C(C(=O)OCCOC(=O)c1ccc(-c3c4nc(c(-c5cc(S(=O)(=O)[O-])ccc5F)c5ccc([nH]5)c(-c5cc(S(=O)(=O)[O-])ccc5F)c5nc(c(-c6cc(S(=O)(=O)[O-])ccc6F)c6ccc3[nH]6)C=C5)C=C4)cc1)=C2
REMARK SMILES IDX 24 1 23 2 22 3 20 4 21 5 19 6 1 7 2 8 3 9 12 10 4 11 11 12
REMARK SMILES IDX 13 13 10 14 91 15 14 16 5 17 6 18 7 19 8 20 9 21 15 22 16 23
REMARK SMILES IDX 17 24 18 25 25 26 26 27 27 28 28 29 29 30 90 31 30 32 89 33
REMARK SMILES IDX 31 34 32 35 33 36 83 37 34 38 88 39 82 40 84 41 35 42 87 43
REMARK SMILES IDX 81 44 80 45 36 47 68 48 48 49 67 50 49 51 52 52 66 53 85 54
REMARK SMILES IDX 50 55 51 56 65 58 86 59 53 60 37 61 38 62 46 63 39 64 45 65
REMARK SMILES IDX 47 66 44 67 40 68 41 69 42 70 43 71 69 72 70 73 78 74 71 75
REMARK SMILES IDX 77 76 79 77 76 78 72 79 73 80 74 81 75 82 54 83 55 84 63 85
REMARK SMILES IDX 56 86 62 87 64 88 61 89 57 90 58 91 59 92 60 93
REMARK H PARENT 84 46 52 57
REMARK Flexibility Score: inf
ROOT
ATOM      1  C   UNL A   1      36.596  20.421  24.967  1.00  0.00     0.275 C 
ENDROOT
BRANCH   1   2
ATOM      2  C   UNL A   1      35.251  21.135  24.832  1.00  0.00     0.275 C 
BRANCH   2   3
ATOM      3  O   UNL A   1      35.410  22.567  24.904  1.00  0.00    -0.459 OA
BRANCH   3   4
ATOM      4  C   UNL A   1      35.201  23.241  23.744  1.00  0.00     0.338 C 
ATOM      5  O   UNL A   1      35.733  23.022  22.673  1.00  0.00    -0.246 OA
BRANCH   4   6
ATOM      6  C   UNL A   1      34.182  24.292  23.944  1.00  0.00     0.087 C 
ATOM      7  C   UNL A   1      29.933  27.228  23.896  1.00  0.00     0.048 C 
ATOM      8  C   UNL A   1      31.218  27.163  24.673  1.00  0.00    -0.005 A 
ATOM      9  C   UNL A   1      31.409  28.082  25.725  1.00  0.00     0.054 A 
ATOM     10  C   UNL A   1      32.215  26.215  24.394  1.00  0.00     0.131 A 
ATOM     11  C   UNL A   1      32.575  28.063  26.492  1.00  0.00     0.130 A 
ATOM     12  C   UNL A   1      33.366  26.177  25.180  1.00  0.00     0.021 A 
ATOM     13  O   UNL A   1      32.012  25.372  23.336  1.00  0.00    -0.475 OA
ATOM     14  C   UNL A   1      33.550  27.107  26.210  1.00  0.00     0.058 A 
ATOM     15  C   UNL A   1      34.371  25.158  24.944  1.00  0.00     0.027 C 
ATOM     16  C   UNL A   1      32.951  24.288  23.088  1.00  0.00     0.316 C 
BRANCH  11  17
ATOM     17  O   UNL A   1      32.890  28.899  27.523  1.00  0.00    -0.406 OA
BRANCH  17  18
ATOM     18  C   UNL A   1      33.704  30.024  27.245  1.00  0.00     0.573 C 
ATOM     19  F   UNL A   1      33.330  31.092  27.981  1.00  0.00    -0.132 F 
ATOM     20  F   UNL A   1      35.005  29.749  27.492  1.00  0.00    -0.132 F 
ATOM     21  F   UNL A   1      33.585  30.346  25.939  1.00  0.00    -0.132 F 
ENDBRANCH  17  18
ENDBRANCH  11  17
BRANCH  16  22
ATOM     22  C   UNL A   1      32.191  22.958  23.220  1.00  0.00     0.430 C 
ATOM     23  F   UNL A   1      30.873  23.114  22.942  1.00  0.00    -0.167 F 
ATOM     24  F   UNL A   1      32.655  22.023  22.357  1.00  0.00    -0.167 F 
ATOM     25  F   UNL A   1      32.280  22.438  24.466  1.00  0.00    -0.167 F 
ENDBRANCH  16  22
ENDBRANCH   4   6
ENDBRANCH   3   4
ENDBRANCH   2   3
ENDBRANCH   1   2
BRANCH   1  26
ATOM     26  O   UNL A   1      37.673  21.372  24.971  1.00  0.00    -0.458 OA
BRANCH  26  27
ATOM     27  C   UNL A   1      38.745  21.014  25.712  1.00  0.00     0.338 C 
ATOM     28  O   UNL A   1      39.274  19.915  25.768  1.00  0.00    -0.246 OA
BRANCH  27  29
ATOM     29  C   UNL A   1      39.274  22.183  26.425  1.00  0.00     0.060 A 
ATOM     30  C   UNL A   1      38.775  23.441  26.102  1.00  0.00     0.016 A 
ATOM     31  C   UNL A   1      40.377  22.055  27.266  1.00  0.00     0.016 A 
ATOM     32  C   UNL A   1      39.467  24.583  26.490  1.00  0.00     0.010 A 
ATOM     33  C   UNL A   1      40.995  23.209  27.760  1.00  0.00     0.010 A 
ATOM     34  C   UNL A   1      40.584  24.483  27.330  1.00  0.00    -0.014 A 
BRANCH  34  35
ATOM     35  C   UNL A   1      41.334  25.704  27.737  1.00  0.00     0.031 A 
ATOM     36  C   UNL A   1      40.663  26.762  28.573  1.00  0.00     0.074 A 
ATOM     37  C   UNL A   1      42.619  25.861  27.363  1.00  0.00     0.049 A 
ATOM     38  N   UNL A   1      41.098  27.950  28.903  1.00  0.00    -0.248 NA
ATOM     39  C   UNL A   1      39.323  26.449  29.101  1.00  0.00     0.031 C 
ATOM     40  C   UNL A   1      43.397  24.889  26.591  1.00  0.00     0.029 A 
ATOM     41  N   UNL A   1      43.502  26.891  27.578  1.00  0.00    -0.354 N 
ATOM     42  C   UNL A   1      40.074  28.543  29.634  1.00  0.00     0.074 A 
ATOM     43  C   UNL A   1      38.987  27.590  29.688  1.00  0.00     0.031 C 
ATOM     44  C   UNL A   1      44.642  25.354  26.424  1.00  0.00     0.029 A 
ATOM     45  C   UNL A   1      44.731  26.694  26.992  1.00  0.00     0.049 A 
ATOM     46  H   UNL A   1      43.276  27.694  28.102  1.00  0.00     0.167 HD
ATOM     47  C   UNL A   1      40.047  29.768  30.211  1.00  0.00     0.034 A 
ATOM     48  C   UNL A   1      45.798  27.511  26.880  1.00  0.00     0.034 A 
ATOM     49  C   UNL A   1      41.156  30.687  30.189  1.00  0.00     0.049 A 
ATOM     50  C   UNL A   1      45.733  28.881  27.498  1.00  0.00     0.074 A 
ATOM     51  C   UNL A   1      41.235  31.942  30.767  1.00  0.00     0.029 A 
ATOM     52  N   UNL A   1      42.376  30.454  29.571  1.00  0.00    -0.354 N 
ATOM     53  N   UNL A   1      44.756  29.428  28.181  1.00  0.00    -0.248 NA
ATOM     54  C   UNL A   1      46.906  29.748  27.329  1.00  0.00     0.031 C 
ATOM     55  C   UNL A   1      42.479  32.489  30.454  1.00  0.00     0.029 A 
ATOM     56  C   UNL A   1      43.204  31.551  29.736  1.00  0.00     0.049 A 
ATOM     57  H   UNL A   1      42.617  29.630  29.088  1.00  0.00     0.167 HD
ATOM     58  C   UNL A   1      45.201  30.697  28.537  1.00  0.00     0.074 A 
ATOM     59  C   UNL A   1      46.546  30.826  28.013  1.00  0.00     0.031 C 
ATOM     60  C   UNL A   1      44.549  31.666  29.226  1.00  0.00     0.034 A 
BRANCH  47  61
ATOM     61  C   UNL A   1      38.793  30.211  30.920  1.00  0.00     0.023 A 
ATOM     62  C   UNL A   1      37.890  31.071  30.266  1.00  0.00     0.031 A 
ATOM     63  C   UNL A   1      38.555  29.897  32.269  1.00  0.00     0.131 A 
ATOM     64  C   UNL A   1      36.814  31.620  30.972  1.00  0.00     0.055 A 
ATOM     65  C   UNL A   1      37.458  30.417  32.958  1.00  0.00     0.041 A 
ATOM     66  F   UNL A   1      39.385  29.077  32.933  1.00  0.00    -0.206 F 
ATOM     67  C   UNL A   1      36.589  31.292  32.313  1.00  0.00     0.022 A 
BRANCH  64  68
ATOM     68  S   UNL A   1      35.693  32.813  30.191  1.00  0.00     0.124 S 
ATOM     69  O   UNL A   1      35.903  32.540  28.771  1.00  0.00    -0.237 OA
ATOM     70  O   UNL A   1      34.395  32.403  30.720  1.00  0.00    -0.237 OA
ATOM     71  O   UNL A   1      36.184  34.107  30.651  1.00  0.00    -0.744 OA
ENDBRANCH  64  68
ENDBRANCH  47  61
BRANCH  48  72
ATOM     72  C   UNL A   1      47.009  27.026  26.157  1.00  0.00     0.023 A 
ATOM     73  C   UNL A   1      48.017  26.315  26.835  1.00  0.00     0.031 A 
ATOM     74  C   UNL A   1      47.227  27.365  24.813  1.00  0.00     0.131 A 
ATOM     75  C   UNL A   1      49.228  26.037  26.190  1.00  0.00     0.055 A 
ATOM     76  C   UNL A   1      48.409  27.024  24.151  1.00  0.00     0.041 A 
ATOM     77  F   UNL A   1      46.297  28.048  24.128  1.00  0.00    -0.206 F 
ATOM     78  C   UNL A   1      49.423  26.372  24.846  1.00  0.00     0.022 A 
BRANCH  75  79
ATOM     79  S   UNL A   1      50.628  25.335  27.103  1.00  0.00     0.124 S 
ATOM     80  O   UNL A   1      51.532  24.942  26.027  1.00  0.00    -0.237 OA
ATOM     81  O   UNL A   1      51.060  26.477  27.905  1.00  0.00    -0.237 OA
ATOM     82  O   UNL A   1      50.033  24.236  27.858  1.00  0.00    -0.744 OA
ENDBRANCH  75  79
ENDBRANCH  48  72
BRANCH  60  83
ATOM     83  C   UNL A   1      45.265  32.968  29.484  1.00  0.00     0.023 A 
ATOM     84  C   UNL A   1      45.162  34.020  28.554  1.00  0.00     0.031 A 
ATOM     85  C   UNL A   1      46.159  33.110  30.558  1.00  0.00     0.131 A 
ATOM     86  C   UNL A   1      45.975  35.151  28.693  1.00  0.00     0.055 A 
ATOM     87  C   UNL A   1      46.934  34.258  30.717  1.00  0.00     0.041 A 
ATOM     88  F   UNL A   1      46.296  32.128  31.464  1.00  0.00    -0.206 F 
ATOM     89  C   UNL A   1      46.854  35.280  29.774  1.00  0.00     0.022 A 
BRANCH  86  90
ATOM     90  S   UNL A   1      45.975  36.461  27.439  1.00  0.00     0.124 S 
ATOM     91  O   UNL A   1      44.799  36.118  26.642  1.00  0.00    -0.237 OA
ATOM     92  O   UNL A   1      45.847  37.665  28.254  1.00  0.00    -0.237 OA
ATOM     93  O   UNL A   1      47.254  36.295  26.756  1.00  0.00    -0.744 OA
ENDBRANCH  86  90
ENDBRANCH  60  83
ENDBRANCH  34  35
ENDBRANCH  27  29
ENDBRANCH  26  27
ENDBRANCH   1  26
TORSDOF 17
ENDMDL
