MODEL 1
REMARK VINA RESULT:     -11.8      0.000      0.000
REMARK SMILES CC1(C)CCSC[C@]1(Nc1ccccc1Br)C(=O)OCCOC(=O)c1ccc(-c2c3nc(c(-c4cc(S(=O)(=O)[O-])ccc4F)c4ccc([nH]4)c(-c4cc(S(=O)(=O)[O-])ccc4F)c4nc(c(-c5cc(S(=O)(=O)[O-])ccc5F)c5ccc2[nH]5)C=C4)C=C3)cc1
REMARK SMILES IDX 21 1 20 2 19 3 17 4 18 5 8 6 1 7 2 8 3 9 4 10 5 11 7 12 6 13
REMARK SMILES IDX 9 14 10 16 11 17 15 18 12 19 14 20 16 21 13 22 22 23 23 24
REMARK SMILES IDX 24 25 25 26 26 27 87 28 27 29 86 30 28 31 29 32 30 33 80 34
REMARK SMILES IDX 31 35 85 36 79 37 81 38 32 39 84 40 78 41 77 42 33 44 65 45
REMARK SMILES IDX 45 46 64 47 46 48 49 49 63 50 82 51 47 52 48 53 62 55 83 56
REMARK SMILES IDX 50 57 34 58 35 59 43 60 36 61 42 62 44 63 41 64 37 65 38 66
REMARK SMILES IDX 39 67 40 68 66 69 67 70 75 71 68 72 74 73 76 74 73 75 69 76
REMARK SMILES IDX 70 77 71 78 72 79 51 80 52 81 60 82 53 83 59 84 61 85 58 86
REMARK SMILES IDX 54 87 55 88 56 89 57 90
REMARK H PARENT 9 15 81 43 49 54
REMARK Flexibility Score: inf
ROOT
ATOM      1  C   UNL A   1      31.797  29.867  26.658  1.00  0.00     0.275 C 
ENDROOT
BRANCH   1   2
ATOM      2  C   UNL A   1      31.859  28.573  27.466  1.00  0.00     0.274 C 
BRANCH   2   3
ATOM      3  O   UNL A   1      32.703  27.589  26.830  1.00  0.00    -0.460 OA
BRANCH   3   4
ATOM      4  C   UNL A   1      32.061  26.506  26.310  1.00  0.00     0.333 C 
ATOM      5  O   UNL A   1      31.120  25.967  26.887  1.00  0.00    -0.249 OA
BRANCH   4   6
ATOM      6  C   UNL A   1      32.749  25.919  25.014  1.00  0.00     0.150 C 
ATOM      7  C   UNL A   1      33.601  26.244  22.565  1.00  0.00     0.014 C 
ATOM      8  C   UNL A   1      33.003  26.947  23.824  1.00  0.00     0.000 C 
ATOM      9  C   UNL A   1      34.023  28.061  24.161  1.00  0.00     0.014 C 
ATOM     10  C   UNL A   1      31.670  27.631  23.414  1.00  0.00     0.020 C 
ATOM     11  C   UNL A   1      30.660  26.726  22.730  1.00  0.00     0.070 C 
ATOM     12  C   UNL A   1      31.813  24.780  24.501  1.00  0.00     0.110 C 
ATOM     13  S   UNL A   1      30.272  25.194  23.600  1.00  0.00    -0.159 SA
BRANCH   6  14
ATOM     14  N   UNL A   1      34.062  25.273  25.406  1.00  0.00    -0.368 N 
ATOM     15  H   UNL A   1      34.887  25.811  25.380  1.00  0.00     0.161 HD
BRANCH  14  16
ATOM     16  C   UNL A   1      34.137  23.938  25.802  1.00  0.00     0.049 A 
ATOM     17  C   UNL A   1      33.520  23.559  27.002  1.00  0.00     0.027 A 
ATOM     18  C   UNL A   1      34.758  22.926  25.044  1.00  0.00     0.041 A 
ATOM     19  C   UNL A   1      33.433  22.217  27.388  1.00  0.00     0.002 A 
ATOM     20  C   UNL A   1      34.648  21.578  25.414  1.00  0.00     0.018 A 
ATOM     21  Br  UNL A   1      35.829  23.304  23.521  1.00  0.00    -0.049 Br
ATOM     22  C   UNL A   1      33.973  21.224  26.579  1.00  0.00     0.001 A 
ENDBRANCH  14  16
ENDBRANCH   6  14
ENDBRANCH   4   6
ENDBRANCH   3   4
ENDBRANCH   2   3
ENDBRANCH   1   2
BRANCH   1  23
ATOM     23  O   UNL A   1      33.127  30.343  26.402  1.00  0.00    -0.458 OA
BRANCH  23  24
ATOM     24  C   UNL A   1      33.593  31.302  27.236  1.00  0.00     0.338 C 
ATOM     25  O   UNL A   1      32.992  32.300  27.596  1.00  0.00    -0.246 OA
BRANCH  24  26
ATOM     26  C   UNL A   1      34.969  30.971  27.678  1.00  0.00     0.060 A 
ATOM     27  C   UNL A   1      35.333  29.654  27.945  1.00  0.00     0.016 A 
ATOM     28  C   UNL A   1      35.875  31.995  27.947  1.00  0.00     0.016 A 
ATOM     29  C   UNL A   1      36.534  29.366  28.588  1.00  0.00     0.010 A 
ATOM     30  C   UNL A   1      37.132  31.692  28.490  1.00  0.00     0.010 A 
ATOM     31  C   UNL A   1      37.461  30.374  28.859  1.00  0.00    -0.014 A 
BRANCH  31  32
ATOM     32  C   UNL A   1      38.727  30.070  29.588  1.00  0.00     0.031 A 
ATOM     33  C   UNL A   1      39.744  29.151  28.962  1.00  0.00     0.074 A 
ATOM     34  C   UNL A   1      38.994  30.625  30.788  1.00  0.00     0.049 A 
ATOM     35  N   UNL A   1      40.745  28.516  29.515  1.00  0.00    -0.248 NA
ATOM     36  C   UNL A   1      39.595  28.896  27.521  1.00  0.00     0.031 C 
ATOM     37  C   UNL A   1      38.159  31.611  31.479  1.00  0.00     0.029 A 
ATOM     38  N   UNL A   1      40.055  30.444  31.643  1.00  0.00    -0.354 N 
ATOM     39  C   UNL A   1      41.291  27.719  28.513  1.00  0.00     0.074 A 
ATOM     40  C   UNL A   1      40.514  27.962  27.315  1.00  0.00     0.031 C 
ATOM     41  C   UNL A   1      38.759  31.980  32.620  1.00  0.00     0.029 A 
ATOM     42  C   UNL A   1      39.955  31.170  32.807  1.00  0.00     0.049 A 
ATOM     43  H   UNL A   1      40.815  29.851  31.440  1.00  0.00     0.167 HD
ATOM     44  C   UNL A   1      42.334  26.855  28.598  1.00  0.00     0.034 A 
ATOM     45  C   UNL A   1      40.695  31.140  33.932  1.00  0.00     0.034 A 
ATOM     46  C   UNL A   1      43.135  26.686  29.789  1.00  0.00     0.049 A 
ATOM     47  C   UNL A   1      41.827  30.151  34.023  1.00  0.00     0.074 A 
ATOM     48  C   UNL A   1      44.203  25.833  30.003  1.00  0.00     0.029 A 
ATOM     49  N   UNL A   1      42.967  27.410  30.965  1.00  0.00    -0.354 N 
ATOM     50  N   UNL A   1      42.241  29.287  33.126  1.00  0.00    -0.248 NA
ATOM     51  C   UNL A   1      42.568  30.113  35.289  1.00  0.00     0.031 C 
ATOM     52  C   UNL A   1      44.653  26.008  31.319  1.00  0.00     0.029 A 
ATOM     53  C   UNL A   1      43.904  27.015  31.908  1.00  0.00     0.049 A 
ATOM     54  H   UNL A   1      42.282  28.102  31.107  1.00  0.00     0.167 HD
ATOM     55  C   UNL A   1      43.292  28.598  33.723  1.00  0.00     0.074 A 
ATOM     56  C   UNL A   1      43.465  29.169  35.044  1.00  0.00     0.031 C 
ATOM     57  C   UNL A   1      44.042  27.580  33.228  1.00  0.00     0.034 A 
BRANCH  44  58
ATOM     58  C   UNL A   1      42.606  25.972  27.403  1.00  0.00     0.023 A 
ATOM     59  C   UNL A   1      42.104  24.663  27.298  1.00  0.00     0.031 A 
ATOM     60  C   UNL A   1      43.426  26.446  26.361  1.00  0.00     0.131 A 
ATOM     61  C   UNL A   1      42.484  23.853  26.216  1.00  0.00     0.055 A 
ATOM     62  C   UNL A   1      43.738  25.661  25.250  1.00  0.00     0.041 A 
ATOM     63  F   UNL A   1      43.953  27.679  26.415  1.00  0.00    -0.206 F 
ATOM     64  C   UNL A   1      43.277  24.351  25.179  1.00  0.00     0.022 A 
BRANCH  61  65
ATOM     65  S   UNL A   1      42.040  22.093  26.245  1.00  0.00     0.124 S 
ATOM     66  O   UNL A   1      42.875  21.559  25.172  1.00  0.00    -0.237 OA
ATOM     67  O   UNL A   1      42.408  21.697  27.599  1.00  0.00    -0.237 OA
ATOM     68  O   UNL A   1      40.606  22.095  25.965  1.00  0.00    -0.744 OA
ENDBRANCH  61  65
ENDBRANCH  44  58
BRANCH  45  69
ATOM     69  C   UNL A   1      40.329  31.995  35.098  1.00  0.00     0.023 A 
ATOM     70  C   UNL A   1      39.330  31.603  36.003  1.00  0.00     0.031 A 
ATOM     71  C   UNL A   1      40.963  33.234  35.310  1.00  0.00     0.131 A 
ATOM     72  C   UNL A   1      38.981  32.450  37.067  1.00  0.00     0.055 A 
ATOM     73  C   UNL A   1      40.649  34.047  36.400  1.00  0.00     0.041 A 
ATOM     74  F   UNL A   1      41.920  33.660  34.471  1.00  0.00    -0.206 F 
ATOM     75  C   UNL A   1      39.646  33.660  37.281  1.00  0.00     0.022 A 
BRANCH  72  76
ATOM     76  S   UNL A   1      37.593  31.980  38.137  1.00  0.00     0.124 S 
ATOM     77  O   UNL A   1      37.320  30.619  37.690  1.00  0.00    -0.237 OA
ATOM     78  O   UNL A   1      38.175  32.114  39.468  1.00  0.00    -0.237 OA
ATOM     79  O   UNL A   1      36.562  32.962  37.809  1.00  0.00    -0.744 OA
ENDBRANCH  72  76
ENDBRANCH  45  69
BRANCH  57  80
ATOM     80  C   UNL A   1      45.131  27.055  34.126  1.00  0.00     0.023 A 
ATOM     81  C   UNL A   1      44.943  25.903  34.909  1.00  0.00     0.031 A 
ATOM     82  C   UNL A   1      46.355  27.737  34.224  1.00  0.00     0.131 A 
ATOM     83  C   UNL A   1      45.947  25.497  35.801  1.00  0.00     0.055 A 
ATOM     84  C   UNL A   1      47.369  27.300  35.077  1.00  0.00     0.041 A 
ATOM     85  F   UNL A   1      46.581  28.843  33.498  1.00  0.00    -0.206 F 
ATOM     86  C   UNL A   1      47.163  26.182  35.880  1.00  0.00     0.022 A 
BRANCH  83  87
ATOM     87  S   UNL A   1      45.611  24.109  36.919  1.00  0.00     0.124 S 
ATOM     88  O   UNL A   1      44.586  23.371  36.188  1.00  0.00    -0.237 OA
ATOM     89  O   UNL A   1      46.915  23.463  37.017  1.00  0.00    -0.237 OA
ATOM     90  O   UNL A   1      45.150  24.760  38.144  1.00  0.00    -0.744 OA
ENDBRANCH  83  87
ENDBRANCH  57  80
ENDBRANCH  31  32
ENDBRANCH  24  26
ENDBRANCH  23  24
ENDBRANCH   1  23
TORSDOF 16
ENDMDL
MODEL 2
REMARK VINA RESULT:     -11.6      1.656      2.036
REMARK SMILES CC1(C)CCSC[C@]1(Nc1ccccc1Br)C(=O)OCCOC(=O)c1ccc(-c2c3nc(c(-c4cc(S(=O)(=O)[O-])ccc4F)c4ccc([nH]4)c(-c4cc(S(=O)(=O)[O-])ccc4F)c4nc(c(-c5cc(S(=O)(=O)[O-])ccc5F)c5ccc2[nH]5)C=C4)C=C3)cc1
REMARK SMILES IDX 21 1 20 2 19 3 17 4 18 5 8 6 1 7 2 8 3 9 4 10 5 11 7 12 6 13
REMARK SMILES IDX 9 14 10 16 11 17 15 18 12 19 14 20 16 21 13 22 22 23 23 24
REMARK SMILES IDX 24 25 25 26 26 27 87 28 27 29 86 30 28 31 29 32 30 33 80 34
REMARK SMILES IDX 31 35 85 36 79 37 81 38 32 39 84 40 78 41 77 42 33 44 65 45
REMARK SMILES IDX 45 46 64 47 46 48 49 49 63 50 82 51 47 52 48 53 62 55 83 56
REMARK SMILES IDX 50 57 34 58 35 59 43 60 36 61 42 62 44 63 41 64 37 65 38 66
REMARK SMILES IDX 39 67 40 68 66 69 67 70 75 71 68 72 74 73 76 74 73 75 69 76
REMARK SMILES IDX 70 77 71 78 72 79 51 80 52 81 60 82 53 83 59 84 61 85 58 86
REMARK SMILES IDX 54 87 55 88 56 89 57 90
REMARK H PARENT 9 15 81 43 49 54
REMARK Flexibility Score: inf
ROOT
ATOM      1  C   UNL A   1      31.664  29.316  26.300  1.00  0.00     0.275 C 
ENDROOT
BRANCH   1   2
ATOM      2  C   UNL A   1      32.056  27.990  26.948  1.00  0.00     0.274 C 
BRANCH   2   3
ATOM      3  O   UNL A   1      31.803  26.874  26.069  1.00  0.00    -0.460 OA
BRANCH   3   4
ATOM      4  C   UNL A   1      32.865  26.452  25.328  1.00  0.00     0.333 C 
ATOM      5  O   UNL A   1      34.024  26.700  25.650  1.00  0.00    -0.249 OA
BRANCH   4   6
ATOM      6  C   UNL A   1      32.459  25.787  23.953  1.00  0.00     0.150 C 
ATOM      7  C   UNL A   1      31.890  26.018  21.413  1.00  0.00     0.014 C 
ATOM      8  C   UNL A   1      32.388  26.759  22.694  1.00  0.00     0.000 C 
ATOM      9  C   UNL A   1      33.755  27.358  22.283  1.00  0.00     0.014 C 
ATOM     10  C   UNL A   1      31.420  27.939  22.982  1.00  0.00     0.020 C 
ATOM     11  C   UNL A   1      29.950  27.565  23.072  1.00  0.00     0.070 C 
ATOM     12  C   UNL A   1      31.050  25.151  24.176  1.00  0.00     0.110 C 
ATOM     13  S   UNL A   1      29.558  26.215  24.202  1.00  0.00    -0.159 SA
BRANCH   6  14
ATOM     14  N   UNL A   1      33.416  24.651  23.656  1.00  0.00    -0.368 N 
ATOM     15  H   UNL A   1      34.337  24.862  23.375  1.00  0.00     0.161 HD
BRANCH  14  16
ATOM     16  C   UNL A   1      33.034  23.315  23.769  1.00  0.00     0.049 A 
ATOM     17  C   UNL A   1      32.393  22.707  22.680  1.00  0.00     0.027 A 
ATOM     18  C   UNL A   1      33.293  22.514  24.898  1.00  0.00     0.041 A 
ATOM     19  C   UNL A   1      32.110  21.337  22.669  1.00  0.00     0.002 A 
ATOM     20  C   UNL A   1      33.037  21.136  24.879  1.00  0.00     0.018 A 
ATOM     21  Br  UNL A   1      33.942  23.234  26.532  1.00  0.00    -0.049 Br
ATOM     22  C   UNL A   1      32.458  20.546  23.758  1.00  0.00     0.001 A 
ENDBRANCH  14  16
ENDBRANCH   6  14
ENDBRANCH   4   6
ENDBRANCH   3   4
ENDBRANCH   2   3
ENDBRANCH   1   2
BRANCH   1  23
ATOM     23  O   UNL A   1      32.842  30.085  26.017  1.00  0.00    -0.458 OA
BRANCH  23  24
ATOM     24  C   UNL A   1      33.164  31.044  26.917  1.00  0.00     0.338 C 
ATOM     25  O   UNL A   1      32.446  31.959  27.286  1.00  0.00    -0.246 OA
BRANCH  24  26
ATOM     26  C   UNL A   1      34.541  30.830  27.423  1.00  0.00     0.060 A 
ATOM     27  C   UNL A   1      35.027  29.545  27.642  1.00  0.00     0.016 A 
ATOM     28  C   UNL A   1      35.319  31.924  27.797  1.00  0.00     0.016 A 
ATOM     29  C   UNL A   1      36.216  29.344  28.339  1.00  0.00     0.010 A 
ATOM     30  C   UNL A   1      36.570  31.720  28.397  1.00  0.00     0.010 A 
ATOM     31  C   UNL A   1      37.015  30.424  28.716  1.00  0.00    -0.014 A 
BRANCH  31  32
ATOM     32  C   UNL A   1      38.266  30.209  29.502  1.00  0.00     0.031 A 
ATOM     33  C   UNL A   1      39.377  29.376  28.919  1.00  0.00     0.074 A 
ATOM     34  C   UNL A   1      38.434  30.772  30.716  1.00  0.00     0.049 A 
ATOM     35  N   UNL A   1      40.396  28.812  29.515  1.00  0.00    -0.248 NA
ATOM     36  C   UNL A   1      39.315  29.123  27.472  1.00  0.00     0.031 C 
ATOM     37  C   UNL A   1      37.496  31.686  31.373  1.00  0.00     0.029 A 
ATOM     38  N   UNL A   1      39.465  30.663  31.619  1.00  0.00    -0.354 N 
ATOM     39  C   UNL A   1      41.047  28.068  28.535  1.00  0.00     0.074 A 
ATOM     40  C   UNL A   1      40.310  28.263  27.303  1.00  0.00     0.031 C 
ATOM     41  C   UNL A   1      38.012  32.087  32.543  1.00  0.00     0.029 A 
ATOM     42  C   UNL A   1      39.256  31.368  32.782  1.00  0.00     0.049 A 
ATOM     43  H   UNL A   1      40.277  30.131  31.449  1.00  0.00     0.167 HD
ATOM     44  C   UNL A   1      42.148  27.285  28.664  1.00  0.00     0.034 A 
ATOM     45  C   UNL A   1      39.944  31.383  33.940  1.00  0.00     0.034 A 
ATOM     46  C   UNL A   1      42.902  27.165  29.890  1.00  0.00     0.049 A 
ATOM     47  C   UNL A   1      41.141  30.482  34.078  1.00  0.00     0.074 A 
ATOM     48  C   UNL A   1      44.022  26.393  30.149  1.00  0.00     0.029 A 
ATOM     49  N   UNL A   1      42.626  27.863  31.061  1.00  0.00    -0.354 N 
ATOM     50  N   UNL A   1      41.661  29.660  33.196  1.00  0.00    -0.248 NA
ATOM     51  C   UNL A   1      41.824  30.488  35.377  1.00  0.00     0.031 C 
ATOM     52  C   UNL A   1      44.395  26.589  31.485  1.00  0.00     0.029 A 
ATOM     53  C   UNL A   1      43.546  27.531  32.044  1.00  0.00     0.049 A 
ATOM     54  H   UNL A   1      41.885  28.501  31.175  1.00  0.00     0.167 HD
ATOM     55  C   UNL A   1      42.732  29.046  33.838  1.00  0.00     0.074 A 
ATOM     56  C   UNL A   1      42.800  29.616  35.169  1.00  0.00     0.031 C 
ATOM     57  C   UNL A   1      43.579  28.093  33.373  1.00  0.00     0.034 A 
BRANCH  44  58
ATOM     58  C   UNL A   1      42.541  26.436  27.477  1.00  0.00     0.023 A 
ATOM     59  C   UNL A   1      42.085  25.117  27.306  1.00  0.00     0.031 A 
ATOM     60  C   UNL A   1      43.430  26.954  26.516  1.00  0.00     0.131 A 
ATOM     61  C   UNL A   1      42.575  24.341  26.242  1.00  0.00     0.055 A 
ATOM     62  C   UNL A   1      43.853  26.203  25.419  1.00  0.00     0.041 A 
ATOM     63  F   UNL A   1      43.917  28.199  26.638  1.00  0.00    -0.206 F 
ATOM     64  C   UNL A   1      43.436  24.883  25.285  1.00  0.00     0.022 A 
BRANCH  61  65
ATOM     65  S   UNL A   1      42.179  22.570  26.199  1.00  0.00     0.124 S 
ATOM     66  O   UNL A   1      42.806  22.096  27.430  1.00  0.00    -0.237 OA
ATOM     67  O   UNL A   1      40.721  22.573  26.185  1.00  0.00    -0.237 OA
ATOM     68  O   UNL A   1      42.813  22.106  24.967  1.00  0.00    -0.744 OA
ENDBRANCH  61  65
ENDBRANCH  44  58
BRANCH  45  69
ATOM     69  C   UNL A   1      39.460  32.197  35.092  1.00  0.00     0.023 A 
ATOM     70  C   UNL A   1      39.961  33.486  35.335  1.00  0.00     0.031 A 
ATOM     71  C   UNL A   1      38.498  31.685  35.983  1.00  0.00     0.131 A 
ATOM     72  C   UNL A   1      39.513  34.210  36.451  1.00  0.00     0.055 A 
ATOM     73  C   UNL A   1      38.018  32.430  37.060  1.00  0.00     0.041 A 
ATOM     74  F   UNL A   1      37.991  30.455  35.801  1.00  0.00    -0.206 F 
ATOM     75  C   UNL A   1      38.533  33.698  37.305  1.00  0.00     0.022 A 
BRANCH  72  76
ATOM     76  S   UNL A   1      40.281  35.814  36.816  1.00  0.00     0.124 S 
ATOM     77  O   UNL A   1      39.677  36.670  35.802  1.00  0.00    -0.237 OA
ATOM     78  O   UNL A   1      39.856  36.049  38.191  1.00  0.00    -0.237 OA
ATOM     79  O   UNL A   1      41.709  35.555  36.644  1.00  0.00    -0.744 OA
ENDBRANCH  72  76
ENDBRANCH  45  69
BRANCH  57  80
ATOM     80  C   UNL A   1      44.662  27.643  34.318  1.00  0.00     0.023 A 
ATOM     81  C   UNL A   1      44.460  26.574  35.208  1.00  0.00     0.031 A 
ATOM     82  C   UNL A   1      45.895  28.314  34.350  1.00  0.00     0.131 A 
ATOM     83  C   UNL A   1      45.459  26.243  36.136  1.00  0.00     0.055 A 
ATOM     84  C   UNL A   1      46.904  27.949  35.242  1.00  0.00     0.041 A 
ATOM     85  F   UNL A   1      46.135  29.342  33.521  1.00  0.00    -0.206 F 
ATOM     86  C   UNL A   1      46.684  26.917  36.150  1.00  0.00     0.022 A 
BRANCH  83  87
ATOM     87  S   UNL A   1      45.106  24.975  37.383  1.00  0.00     0.124 S 
ATOM     88  O   UNL A   1      46.100  25.271  38.409  1.00  0.00    -0.237 OA
ATOM     89  O   UNL A   1      43.720  25.260  37.736  1.00  0.00    -0.237 OA
ATOM     90  O   UNL A   1      45.315  23.719  36.664  1.00  0.00    -0.744 OA
ENDBRANCH  83  87
ENDBRANCH  57  80
ENDBRANCH  31  32
ENDBRANCH  24  26
ENDBRANCH  23  24
ENDBRANCH   1  23
TORSDOF 16
ENDMDL
MODEL 3
REMARK VINA RESULT:     -11.4      1.904      3.101
REMARK SMILES CC1(C)CCSC[C@]1(Nc1ccccc1Br)C(=O)OCCOC(=O)c1ccc(-c2c3nc(c(-c4cc(S(=O)(=O)[O-])ccc4F)c4ccc([nH]4)c(-c4cc(S(=O)(=O)[O-])ccc4F)c4nc(c(-c5cc(S(=O)(=O)[O-])ccc5F)c5ccc2[nH]5)C=C4)C=C3)cc1
REMARK SMILES IDX 21 1 20 2 19 3 17 4 18 5 8 6 1 7 2 8 3 9 4 10 5 11 7 12 6 13
REMARK SMILES IDX 9 14 10 16 11 17 15 18 12 19 14 20 16 21 13 22 22 23 23 24
REMARK SMILES IDX 24 25 25 26 26 27 87 28 27 29 86 30 28 31 29 32 30 33 80 34
REMARK SMILES IDX 31 35 85 36 79 37 81 38 32 39 84 40 78 41 77 42 33 44 65 45
REMARK SMILES IDX 45 46 64 47 46 48 49 49 63 50 82 51 47 52 48 53 62 55 83 56
REMARK SMILES IDX 50 57 34 58 35 59 43 60 36 61 42 62 44 63 41 64 37 65 38 66
REMARK SMILES IDX 39 67 40 68 66 69 67 70 75 71 68 72 74 73 76 74 73 75 69 76
REMARK SMILES IDX 70 77 71 78 72 79 51 80 52 81 60 82 53 83 59 84 61 85 58 86
REMARK SMILES IDX 54 87 55 88 56 89 57 90
REMARK H PARENT 9 15 81 43 49 54
REMARK Flexibility Score: inf
ROOT
ATOM      1  C   UNL A   1      31.686  29.129  26.266  1.00  0.00     0.275 C 
ENDROOT
BRANCH   1   2
ATOM      2  C   UNL A   1      31.972  27.871  27.083  1.00  0.00     0.274 C 
BRANCH   2   3
ATOM      3  O   UNL A   1      32.618  26.856  26.287  1.00  0.00    -0.460 OA
BRANCH   3   4
ATOM      4  C   UNL A   1      31.881  25.736  26.044  1.00  0.00     0.333 C 
ATOM      5  O   UNL A   1      31.006  25.352  26.815  1.00  0.00    -0.249 OA
BRANCH   4   6
ATOM      6  C   UNL A   1      32.380  24.902  24.797  1.00  0.00     0.150 C 
ATOM      7  C   UNL A   1      32.908  22.597  23.686  1.00  0.00     0.014 C 
ATOM      8  C   UNL A   1      32.308  23.317  24.935  1.00  0.00     0.000 C 
ATOM      9  C   UNL A   1      30.868  22.760  25.044  1.00  0.00     0.014 C 
ATOM     10  C   UNL A   1      33.094  22.852  26.191  1.00  0.00     0.020 C 
ATOM     11  C   UNL A   1      34.603  23.012  26.109  1.00  0.00     0.070 C 
ATOM     12  C   UNL A   1      33.866  25.318  24.561  1.00  0.00     0.110 C 
ATOM     13  S   UNL A   1      35.187  24.653  25.643  1.00  0.00    -0.159 SA
BRANCH   6  14
ATOM     14  N   UNL A   1      31.598  25.336  23.574  1.00  0.00    -0.368 N 
ATOM     15  H   UNL A   1      31.283  24.650  22.940  1.00  0.00     0.161 HD
BRANCH  14  16
ATOM     16  C   UNL A   1      31.312  26.676  23.319  1.00  0.00     0.049 A 
ATOM     17  C   UNL A   1      32.359  27.523  22.929  1.00  0.00     0.027 A 
ATOM     18  C   UNL A   1      30.018  27.231  23.381  1.00  0.00     0.041 A 
ATOM     19  C   UNL A   1      32.121  28.840  22.520  1.00  0.00     0.002 A 
ATOM     20  C   UNL A   1      29.773  28.540  22.945  1.00  0.00     0.018 A 
ATOM     21  Br  UNL A   1      28.538  26.286  24.106  1.00  0.00    -0.049 Br
ATOM     22  C   UNL A   1      30.824  29.339  22.502  1.00  0.00     0.001 A 
ENDBRANCH  14  16
ENDBRANCH   6  14
ENDBRANCH   4   6
ENDBRANCH   3   4
ENDBRANCH   2   3
ENDBRANCH   1   2
BRANCH   1  23
ATOM     23  O   UNL A   1      32.910  29.837  26.020  1.00  0.00    -0.458 OA
BRANCH  23  24
ATOM     24  C   UNL A   1      33.198  30.853  26.868  1.00  0.00     0.338 C 
ATOM     25  O   UNL A   1      32.455  31.770  27.173  1.00  0.00    -0.246 OA
BRANCH  24  26
ATOM     26  C   UNL A   1      34.572  30.699  27.403  1.00  0.00     0.060 A 
ATOM     27  C   UNL A   1      35.125  29.436  27.593  1.00  0.00     0.016 A 
ATOM     28  C   UNL A   1      35.276  31.821  27.835  1.00  0.00     0.016 A 
ATOM     29  C   UNL A   1      36.305  29.278  28.315  1.00  0.00     0.010 A 
ATOM     30  C   UNL A   1      36.521  31.667  28.462  1.00  0.00     0.010 A 
ATOM     31  C   UNL A   1      37.032  30.388  28.750  1.00  0.00    -0.014 A 
BRANCH  31  32
ATOM     32  C   UNL A   1      38.272  30.216  29.562  1.00  0.00     0.031 A 
ATOM     33  C   UNL A   1      39.408  29.388  29.020  1.00  0.00     0.074 A 
ATOM     34  C   UNL A   1      38.409  30.814  30.763  1.00  0.00     0.049 A 
ATOM     35  N   UNL A   1      40.426  28.859  29.648  1.00  0.00    -0.248 NA
ATOM     36  C   UNL A   1      39.375  29.096  27.579  1.00  0.00     0.031 C 
ATOM     37  C   UNL A   1      37.443  31.727  31.380  1.00  0.00     0.029 A 
ATOM     38  N   UNL A   1      39.426  30.747  31.686  1.00  0.00    -0.354 N 
ATOM     39  C   UNL A   1      41.107  28.102  28.699  1.00  0.00     0.074 A 
ATOM     40  C   UNL A   1      40.388  28.250  27.450  1.00  0.00     0.031 C 
ATOM     41  C   UNL A   1      37.933  32.169  32.547  1.00  0.00     0.029 A 
ATOM     42  C   UNL A   1      39.185  31.479  32.826  1.00  0.00     0.049 A 
ATOM     43  H   UNL A   1      40.250  30.226  31.544  1.00  0.00     0.167 HD
ATOM     44  C   UNL A   1      42.219  27.342  28.867  1.00  0.00     0.034 A 
ATOM     45  C   UNL A   1      39.852  31.537  33.995  1.00  0.00     0.034 A 
ATOM     46  C   UNL A   1      42.954  27.268  30.109  1.00  0.00     0.049 A 
ATOM     47  C   UNL A   1      41.063  30.661  34.177  1.00  0.00     0.074 A 
ATOM     48  C   UNL A   1      44.082  26.523  30.407  1.00  0.00     0.029 A 
ATOM     49  N   UNL A   1      42.645  27.991  31.256  1.00  0.00    -0.354 N 
ATOM     50  N   UNL A   1      41.612  29.826  33.326  1.00  0.00    -0.248 NA
ATOM     51  C   UNL A   1      41.722  30.714  35.487  1.00  0.00     0.031 C 
ATOM     52  C   UNL A   1      44.429  26.761  31.743  1.00  0.00     0.029 A 
ATOM     53  C   UNL A   1      43.554  27.702  32.263  1.00  0.00     0.049 A 
ATOM     54  H   UNL A   1      41.892  28.618  31.340  1.00  0.00     0.167 HD
ATOM     55  C   UNL A   1      42.682  29.249  34.002  1.00  0.00     0.074 A 
ATOM     56  C   UNL A   1      42.717  29.855  35.318  1.00  0.00     0.031 C 
ATOM     57  C   UNL A   1      43.554  28.299  33.576  1.00  0.00     0.034 A 
BRANCH  44  58
ATOM     58  C   UNL A   1      42.647  26.469  27.710  1.00  0.00     0.023 A 
ATOM     59  C   UNL A   1      42.123  25.182  27.498  1.00  0.00     0.031 A 
ATOM     60  C   UNL A   1      43.639  26.929  26.823  1.00  0.00     0.131 A 
ATOM     61  C   UNL A   1      42.642  24.376  26.471  1.00  0.00     0.055 A 
ATOM     62  C   UNL A   1      44.097  26.152  25.758  1.00  0.00     0.041 A 
ATOM     63  F   UNL A   1      44.194  28.140  26.988  1.00  0.00    -0.206 F 
ATOM     64  C   UNL A   1      43.608  24.861  25.586  1.00  0.00     0.022 A 
BRANCH  61  65
ATOM     65  S   UNL A   1      42.139  22.634  26.390  1.00  0.00     0.124 S 
ATOM     66  O   UNL A   1      42.778  22.085  27.583  1.00  0.00    -0.237 OA
ATOM     67  O   UNL A   1      40.684  22.724  26.428  1.00  0.00    -0.237 OA
ATOM     68  O   UNL A   1      42.702  22.173  25.123  1.00  0.00    -0.744 OA
ENDBRANCH  61  65
ENDBRANCH  44  58
BRANCH  45  69
ATOM     69  C   UNL A   1      39.334  32.372  35.116  1.00  0.00     0.023 A 
ATOM     70  C   UNL A   1      39.822  33.668  35.345  1.00  0.00     0.031 A 
ATOM     71  C   UNL A   1      38.351  31.873  35.992  1.00  0.00     0.131 A 
ATOM     72  C   UNL A   1      39.342  34.413  36.434  1.00  0.00     0.055 A 
ATOM     73  C   UNL A   1      37.839  32.638  37.041  1.00  0.00     0.041 A 
ATOM     74  F   UNL A   1      37.855  30.637  35.823  1.00  0.00    -0.206 F 
ATOM     75  C   UNL A   1      38.342  33.914  37.272  1.00  0.00     0.022 A 
BRANCH  72  76
ATOM     76  S   UNL A   1      40.092  36.028  36.785  1.00  0.00     0.124 S 
ATOM     77  O   UNL A   1      39.336  36.459  37.955  1.00  0.00    -0.237 OA
ATOM     78  O   UNL A   1      41.487  35.672  37.018  1.00  0.00    -0.237 OA
ATOM     79  O   UNL A   1      39.842  36.792  35.565  1.00  0.00    -0.744 OA
ENDBRANCH  72  76
ENDBRANCH  45  69
BRANCH  57  80
ATOM     80  C   UNL A   1      44.628  27.894  34.551  1.00  0.00     0.023 A 
ATOM     81  C   UNL A   1      44.373  26.974  35.582  1.00  0.00     0.031 A 
ATOM     82  C   UNL A   1      45.910  28.462  34.467  1.00  0.00     0.131 A 
ATOM     83  C   UNL A   1      45.372  26.690  36.525  1.00  0.00     0.055 A 
ATOM     84  C   UNL A   1      46.915  28.140  35.379  1.00  0.00     0.041 A 
ATOM     85  F   UNL A   1      46.202  29.348  33.500  1.00  0.00    -0.206 F 
ATOM     86  C   UNL A   1      46.645  27.259  36.422  1.00  0.00     0.022 A 
BRANCH  83  87
ATOM     87  S   UNL A   1      44.962  25.632  37.940  1.00  0.00     0.124 S 
ATOM     88  O   UNL A   1      44.414  24.448  37.286  1.00  0.00    -0.237 OA
ATOM     89  O   UNL A   1      46.257  25.461  38.589  1.00  0.00    -0.237 OA
ATOM     90  O   UNL A   1      43.992  26.426  38.693  1.00  0.00    -0.744 OA
ENDBRANCH  83  87
ENDBRANCH  57  80
ENDBRANCH  31  32
ENDBRANCH  24  26
ENDBRANCH  23  24
ENDBRANCH   1  23
TORSDOF 16
ENDMDL
