MODEL 1
REMARK VINA RESULT:     -12.1      0.000      0.000
REMARK SMILES COc1ccc(C2=NN(C(=O)CCC(=O)OCCOC(=O)c3ccc(-c4c5nc(c(-c6cc(S(=O)(=O)[O-])ccc6F)c6ccc([nH]6)c(-c6cc(S(=O)(=O)[O-])ccc6F)c6nc(c(-c7cc(S(=O)(=O)[O-])ccc7F)c7ccc4[nH]7)C=C6)C=C5)cc3)[C@H](c3ccc(Cl)cc3Cl)C2)cc1
REMARK SMILES IDX 17 1 16 2 14 3 15 4 13 5 12 6 10 7 11 8 9 9 7 10 8 11 94 12
REMARK SMILES IDX 85 13 6 14 3 15 4 16 96 17 5 18 95 19 2 20 1 21 86 22 87 23
REMARK SMILES IDX 92 24 88 25 91 26 93 27 89 28 90 29 18 30 19 31 20 32 21 33
REMARK SMILES IDX 22 34 23 35 84 36 24 37 83 38 25 39 26 40 27 41 77 42 28 43
REMARK SMILES IDX 82 44 76 45 78 46 29 47 81 48 75 49 74 50 30 52 62 53 42 54
REMARK SMILES IDX 61 55 43 56 46 57 60 58 79 59 44 60 45 61 59 63 80 64 47 65
REMARK SMILES IDX 31 66 32 67 40 68 33 69 39 70 41 71 38 72 34 73 35 74 36 75
REMARK SMILES IDX 37 76 63 77 64 78 72 79 65 80 71 81 73 82 70 83 66 84 67 85
REMARK SMILES IDX 68 86 69 87 48 88 49 89 57 90 50 91 56 92 58 93 55 94 51 95
REMARK SMILES IDX 52 96 53 97 54 98
REMARK H PARENT 78 51 46 62
REMARK Flexibility Score: inf
ROOT
ATOM      1  C   UNL A   1      37.780  20.646  24.721  1.00  0.00     0.274 C 
ENDROOT
BRANCH   1   2
ATOM      2  O   UNL A   1      36.395  20.701  25.127  1.00  0.00    -0.462 OA
BRANCH   2   3
ATOM      3  C   UNL A   1      36.050  21.739  25.935  1.00  0.00     0.306 C 
ATOM      4  O   UNL A   1      35.270  21.653  26.875  1.00  0.00    -0.252 OA
BRANCH   3   5
ATOM      5  C   UNL A   1      36.681  23.041  25.501  1.00  0.00     0.132 C 
BRANCH   5   6
ATOM      6  C   UNL A   1      35.736  23.988  24.765  1.00  0.00     0.114 C 
BRANCH   6   7
ATOM      7  C   UNL A   1      35.105  23.314  23.559  1.00  0.00     0.243 C 
ATOM      8  O   UNL A   1      35.854  22.950  22.642  1.00  0.00    -0.273 OA
BRANCH   7   9
ATOM      9  N   UNL A   1      33.713  23.198  23.491  1.00  0.00    -0.225 N 
ATOM     10  C   UNL A   1      31.911  24.380  23.457  1.00  0.00     0.071 C 
ATOM     11  N   UNL A   1      33.069  24.282  22.896  1.00  0.00    -0.174 NA
ATOM     12  C   UNL A   1      31.532  23.296  24.397  1.00  0.00     0.091 C 
ATOM     13  C   UNL A   1      32.811  22.464  24.398  1.00  0.00     0.149 C 
BRANCH  10  14
ATOM     14  C   UNL A   1      30.977  25.482  23.265  1.00  0.00    -0.002 A 
ATOM     15  C   UNL A   1      29.347  27.710  23.086  1.00  0.00     0.118 A 
ATOM     16  C   UNL A   1      28.965  26.627  23.883  1.00  0.00     0.047 A 
ATOM     17  C   UNL A   1      30.556  27.688  22.386  1.00  0.00     0.047 A 
ATOM     18  C   UNL A   1      29.775  25.495  23.964  1.00  0.00     0.014 A 
ATOM     19  C   UNL A   1      31.376  26.566  22.474  1.00  0.00     0.014 A 
BRANCH  15  20
ATOM     20  O   UNL A   1      28.515  28.796  23.087  1.00  0.00    -0.497 OA
ATOM     21  C   UNL A   1      29.074  29.904  22.386  1.00  0.00     0.278 C 
ENDBRANCH  15  20
ENDBRANCH  10  14
BRANCH  13  22
ATOM     22  C   UNL A   1      32.516  20.962  24.283  1.00  0.00    -0.004 A 
ATOM     23  C   UNL A   1      32.756  20.198  25.464  1.00  0.00     0.009 A 
ATOM     24  C   UNL A   1      32.289  20.227  23.107  1.00  0.00     0.047 A 
ATOM     25  C   UNL A   1      32.853  18.806  25.458  1.00  0.00     0.021 A 
ATOM     26  C   UNL A   1      32.427  18.824  23.095  1.00  0.00     0.041 A 
ATOM     27  Cl  UNL A   1      31.815  20.936  21.611  1.00  0.00    -0.084 Cl
ATOM     28  C   UNL A   1      32.728  18.128  24.259  1.00  0.00     0.042 A 
ATOM     29  Cl  UNL A   1      32.966  16.426  24.222  1.00  0.00    -0.084 Cl
ENDBRANCH  13  22
ENDBRANCH   7   9
ENDBRANCH   6   7
ENDBRANCH   5   6
ENDBRANCH   3   5
ENDBRANCH   2   3
ENDBRANCH   1   2
BRANCH   1  30
ATOM     30  C   UNL A   1      38.651  19.799  25.658  1.00  0.00     0.275 C 
BRANCH  30  31
ATOM     31  O   UNL A   1      40.028  20.216  25.674  1.00  0.00    -0.458 OA
BRANCH  31  32
ATOM     32  C   UNL A   1      40.517  20.453  26.907  1.00  0.00     0.338 C 
ATOM     33  O   UNL A   1      40.795  19.626  27.749  1.00  0.00    -0.246 OA
BRANCH  32  34
ATOM     34  C   UNL A   1      40.770  21.858  27.166  1.00  0.00     0.060 A 
ATOM     35  C   UNL A   1      41.640  22.180  28.211  1.00  0.00     0.016 A 
ATOM     36  C   UNL A   1      40.052  22.830  26.472  1.00  0.00     0.016 A 
ATOM     37  C   UNL A   1      41.876  23.512  28.505  1.00  0.00     0.010 A 
ATOM     38  C   UNL A   1      40.301  24.164  26.757  1.00  0.00     0.010 A 
ATOM     39  C   UNL A   1      41.249  24.502  27.738  1.00  0.00    -0.014 A 
BRANCH  39  40
ATOM     40  C   UNL A   1      41.753  25.885  27.788  1.00  0.00     0.031 A 
ATOM     41  C   UNL A   1      43.113  26.229  27.284  1.00  0.00     0.074 A 
ATOM     42  C   UNL A   1      40.953  26.790  28.383  1.00  0.00     0.049 A 
ATOM     43  N   UNL A   1      43.753  27.363  27.373  1.00  0.00    -0.248 NA
ATOM     44  C   UNL A   1      43.853  25.160  26.600  1.00  0.00     0.031 C 
ATOM     45  C   UNL A   1      39.607  26.508  28.894  1.00  0.00     0.029 A 
ATOM     46  N   UNL A   1      41.152  28.107  28.682  1.00  0.00    -0.354 N 
ATOM     47  C   UNL A   1      44.978  27.154  26.756  1.00  0.00     0.074 A 
ATOM     48  C   UNL A   1      44.998  25.771  26.321  1.00  0.00     0.031 C 
ATOM     49  C   UNL A   1      39.107  27.618  29.454  1.00  0.00     0.029 A 
ATOM     50  C   UNL A   1      40.116  28.665  29.392  1.00  0.00     0.049 A 
ATOM     51  H   UNL A   1      41.958  28.609  28.415  1.00  0.00     0.167 HD
ATOM     52  C   UNL A   1      45.982  28.046  26.579  1.00  0.00     0.034 A 
ATOM     53  C   UNL A   1      40.013  29.875  29.968  1.00  0.00     0.034 A 
ATOM     54  C   UNL A   1      45.924  29.405  27.067  1.00  0.00     0.049 A 
ATOM     55  C   UNL A   1      41.173  30.817  29.824  1.00  0.00     0.074 A 
ATOM     56  C   UNL A   1      46.860  30.415  26.933  1.00  0.00     0.029 A 
ATOM     57  N   UNL A   1      44.871  29.939  27.807  1.00  0.00    -0.354 N 
ATOM     58  N   UNL A   1      42.320  30.620  29.214  1.00  0.00    -0.248 NA
ATOM     59  C   UNL A   1      41.029  32.137  30.443  1.00  0.00     0.031 C 
ATOM     60  C   UNL A   1      46.405  31.532  27.647  1.00  0.00     0.029 A 
ATOM     61  C   UNL A   1      45.154  31.246  28.171  1.00  0.00     0.049 A 
ATOM     62  H   UNL A   1      44.045  29.457  28.037  1.00  0.00     0.167 HD
ATOM     63  C   UNL A   1      43.036  31.800  29.369  1.00  0.00     0.074 A 
ATOM     64  C   UNL A   1      42.177  32.707  30.108  1.00  0.00     0.031 C 
ATOM     65  C   UNL A   1      44.288  32.109  28.944  1.00  0.00     0.034 A 
BRANCH  52  66
ATOM     66  C   UNL A   1      47.232  27.557  25.889  1.00  0.00     0.023 A 
ATOM     67  C   UNL A   1      48.309  27.009  26.608  1.00  0.00     0.031 A 
ATOM     68  C   UNL A   1      47.363  27.670  24.494  1.00  0.00     0.131 A 
ATOM     69  C   UNL A   1      49.492  26.655  25.939  1.00  0.00     0.055 A 
ATOM     70  C   UNL A   1      48.515  27.251  23.825  1.00  0.00     0.041 A 
ATOM     71  F   UNL A   1      46.378  28.206  23.756  1.00  0.00    -0.206 F 
ATOM     72  C   UNL A   1      49.594  26.753  24.549  1.00  0.00     0.022 A 
BRANCH  69  73
ATOM     73  S   UNL A   1      50.943  26.186  26.924  1.00  0.00     0.124 S 
ATOM     74  O   UNL A   1      50.853  27.119  28.044  1.00  0.00    -0.237 OA
ATOM     75  O   UNL A   1      50.674  24.787  27.233  1.00  0.00    -0.237 OA
ATOM     76  O   UNL A   1      52.063  26.420  26.015  1.00  0.00    -0.744 OA
ENDBRANCH  69  73
ENDBRANCH  52  66
BRANCH  53  77
ATOM     77  C   UNL A   1      38.802  30.228  30.757  1.00  0.00     0.023 A 
ATOM     78  C   UNL A   1      37.758  30.968  30.186  1.00  0.00     0.031 A 
ATOM     79  C   UNL A   1      38.668  29.819  32.097  1.00  0.00     0.131 A 
ATOM     80  C   UNL A   1      36.637  31.304  30.961  1.00  0.00     0.055 A 
ATOM     81  C   UNL A   1      37.531  30.115  32.849  1.00  0.00     0.041 A 
ATOM     82  F   UNL A   1      39.635  29.097  32.689  1.00  0.00    -0.206 F 
ATOM     83  C   UNL A   1      36.510  30.872  32.283  1.00  0.00     0.022 A 
BRANCH  80  84
ATOM     84  S   UNL A   1      35.370  32.376  30.230  1.00  0.00     0.124 S 
ATOM     85  O   UNL A   1      34.433  32.528  31.336  1.00  0.00    -0.237 OA
ATOM     86  O   UNL A   1      36.144  33.560  29.875  1.00  0.00    -0.237 OA
ATOM     87  O   UNL A   1      34.877  31.593  29.097  1.00  0.00    -0.744 OA
ENDBRANCH  80  84
ENDBRANCH  53  77
BRANCH  65  88
ATOM     88  C   UNL A   1      44.774  33.494  29.279  1.00  0.00     0.023 A 
ATOM     89  C   UNL A   1      44.452  34.594  28.467  1.00  0.00     0.031 A 
ATOM     90  C   UNL A   1      45.600  33.707  30.395  1.00  0.00     0.131 A 
ATOM     91  C   UNL A   1      45.003  35.851  28.748  1.00  0.00     0.055 A 
ATOM     92  C   UNL A   1      46.097  34.972  30.705  1.00  0.00     0.041 A 
ATOM     93  F   UNL A   1      45.941  32.686  31.198  1.00  0.00    -0.206 F 
ATOM     94  C   UNL A   1      45.809  36.051  29.872  1.00  0.00     0.022 A 
BRANCH  91  95
ATOM     95  S   UNL A   1      44.723  37.205  27.574  1.00  0.00     0.124 S 
ATOM     96  O   UNL A   1      46.002  37.266  26.875  1.00  0.00    -0.237 OA
ATOM     97  O   UNL A   1      43.592  36.714  26.794  1.00  0.00    -0.237 OA
ATOM     98  O   UNL A   1      44.431  38.350  28.435  1.00  0.00    -0.744 OA
ENDBRANCH  91  95
ENDBRANCH  65  88
ENDBRANCH  39  40
ENDBRANCH  32  34
ENDBRANCH  31  32
ENDBRANCH  30  31
ENDBRANCH   1  30
TORSDOF 20
ENDMDL
MODEL 2
REMARK VINA RESULT:     -11.7      1.183      7.615
REMARK SMILES COc1ccc(C2=NN(C(=O)CCC(=O)OCCOC(=O)c3ccc(-c4c5nc(c(-c6cc(S(=O)(=O)[O-])ccc6F)c6ccc([nH]6)c(-c6cc(S(=O)(=O)[O-])ccc6F)c6nc(c(-c7cc(S(=O)(=O)[O-])ccc7F)c7ccc4[nH]7)C=C6)C=C5)cc3)[C@H](c3ccc(Cl)cc3Cl)C2)cc1
REMARK SMILES IDX 17 1 16 2 14 3 15 4 13 5 12 6 10 7 11 8 9 9 7 10 8 11 94 12
REMARK SMILES IDX 85 13 6 14 3 15 4 16 96 17 5 18 95 19 2 20 1 21 86 22 87 23
REMARK SMILES IDX 92 24 88 25 91 26 93 27 89 28 90 29 18 30 19 31 20 32 21 33
REMARK SMILES IDX 22 34 23 35 84 36 24 37 83 38 25 39 26 40 27 41 77 42 28 43
REMARK SMILES IDX 82 44 76 45 78 46 29 47 81 48 75 49 74 50 30 52 62 53 42 54
REMARK SMILES IDX 61 55 43 56 46 57 60 58 79 59 44 60 45 61 59 63 80 64 47 65
REMARK SMILES IDX 31 66 32 67 40 68 33 69 39 70 41 71 38 72 34 73 35 74 36 75
REMARK SMILES IDX 37 76 63 77 64 78 72 79 65 80 71 81 73 82 70 83 66 84 67 85
REMARK SMILES IDX 68 86 69 87 48 88 49 89 57 90 50 91 56 92 58 93 55 94 51 95
REMARK SMILES IDX 52 96 53 97 54 98
REMARK H PARENT 78 51 46 62
REMARK Flexibility Score: inf
ROOT
ATOM      1  C   UNL A   1      37.718  20.902  24.828  1.00  0.00     0.274 C 
ENDROOT
BRANCH   1   2
ATOM      2  O   UNL A   1      36.433  20.758  25.469  1.00  0.00    -0.462 OA
BRANCH   2   3
ATOM      3  C   UNL A   1      35.953  21.863  26.102  1.00  0.00     0.306 C 
ATOM      4  O   UNL A   1      35.055  21.847  26.934  1.00  0.00    -0.252 OA
BRANCH   3   5
ATOM      5  C   UNL A   1      36.603  23.134  25.612  1.00  0.00     0.132 C 
BRANCH   5   6
ATOM      6  C   UNL A   1      35.664  24.078  24.863  1.00  0.00     0.114 C 
BRANCH   6   7
ATOM      7  C   UNL A   1      35.074  23.408  23.634  1.00  0.00     0.243 C 
ATOM      8  O   UNL A   1      35.851  23.057  22.736  1.00  0.00    -0.273 OA
BRANCH   7   9
ATOM      9  N   UNL A   1      33.685  23.285  23.525  1.00  0.00    -0.225 N 
ATOM     10  C   UNL A   1      31.876  24.454  23.466  1.00  0.00     0.071 C 
ATOM     11  N   UNL A   1      33.049  24.377  22.935  1.00  0.00    -0.174 NA
ATOM     12  C   UNL A   1      31.479  23.346  24.371  1.00  0.00     0.091 C 
ATOM     13  C   UNL A   1      32.764  22.524  24.390  1.00  0.00     0.149 C 
BRANCH  10  14
ATOM     14  C   UNL A   1      30.938  25.553  23.272  1.00  0.00    -0.002 A 
ATOM     15  C   UNL A   1      29.297  27.773  23.095  1.00  0.00     0.118 A 
ATOM     16  C   UNL A   1      28.905  26.673  23.863  1.00  0.00     0.047 A 
ATOM     17  C   UNL A   1      30.522  27.772  22.425  1.00  0.00     0.047 A 
ATOM     18  C   UNL A   1      29.720  25.545  23.942  1.00  0.00     0.014 A 
ATOM     19  C   UNL A   1      31.349  26.653  22.511  1.00  0.00     0.014 A 
BRANCH  15  20
ATOM     20  O   UNL A   1      28.458  28.853  23.097  1.00  0.00    -0.497 OA
ATOM     21  C   UNL A   1      29.165  30.085  22.970  1.00  0.00     0.278 C 
ENDBRANCH  15  20
ENDBRANCH  10  14
BRANCH  13  22
ATOM     22  C   UNL A   1      32.483  21.022  24.233  1.00  0.00    -0.004 A 
ATOM     23  C   UNL A   1      32.718  20.231  25.398  1.00  0.00     0.009 A 
ATOM     24  C   UNL A   1      32.277  20.316  23.037  1.00  0.00     0.047 A 
ATOM     25  C   UNL A   1      32.827  18.841  25.357  1.00  0.00     0.021 A 
ATOM     26  C   UNL A   1      32.427  18.915  22.990  1.00  0.00     0.041 A 
ATOM     27  Cl  UNL A   1      31.813  21.058  21.554  1.00  0.00    -0.084 Cl
ATOM     28  C   UNL A   1      32.722  18.192  24.141  1.00  0.00     0.042 A 
ATOM     29  Cl  UNL A   1      32.976  16.493  24.064  1.00  0.00    -0.084 Cl
ENDBRANCH  13  22
ENDBRANCH   7   9
ENDBRANCH   6   7
ENDBRANCH   5   6
ENDBRANCH   3   5
ENDBRANCH   2   3
ENDBRANCH   1   2
BRANCH   1  30
ATOM     30  C   UNL A   1      38.798  19.992  25.427  1.00  0.00     0.275 C 
BRANCH  30  31
ATOM     31  O   UNL A   1      40.072  20.646  25.564  1.00  0.00    -0.458 OA
BRANCH  31  32
ATOM     32  C   UNL A   1      40.518  20.724  26.833  1.00  0.00     0.338 C 
ATOM     33  O   UNL A   1      40.716  19.798  27.591  1.00  0.00    -0.246 OA
BRANCH  32  34
ATOM     34  C   UNL A   1      40.829  22.077  27.252  1.00  0.00     0.060 A 
ATOM     35  C   UNL A   1      41.614  22.239  28.397  1.00  0.00     0.016 A 
ATOM     36  C   UNL A   1      40.241  23.157  26.597  1.00  0.00     0.016 A 
ATOM     37  C   UNL A   1      41.902  23.518  28.842  1.00  0.00     0.010 A 
ATOM     38  C   UNL A   1      40.541  24.439  27.035  1.00  0.00     0.010 A 
ATOM     39  C   UNL A   1      41.411  24.617  28.125  1.00  0.00    -0.014 A 
BRANCH  39  40
ATOM     40  C   UNL A   1      41.991  25.950  28.356  1.00  0.00     0.031 A 
ATOM     41  C   UNL A   1      41.202  27.033  29.009  1.00  0.00     0.074 A 
ATOM     42  C   UNL A   1      43.232  26.152  27.876  1.00  0.00     0.049 A 
ATOM     43  N   UNL A   1      41.516  28.290  29.168  1.00  0.00    -0.248 NA
ATOM     44  C   UNL A   1      39.885  26.658  29.544  1.00  0.00     0.031 C 
ATOM     45  C   UNL A   1      44.056  25.124  27.228  1.00  0.00     0.029 A 
ATOM     46  N   UNL A   1      44.008  27.275  27.830  1.00  0.00    -0.354 N 
ATOM     47  C   UNL A   1      40.439  28.868  29.823  1.00  0.00     0.074 A 
ATOM     48  C   UNL A   1      39.449  27.823  30.008  1.00  0.00     0.031 C 
ATOM     49  C   UNL A   1      45.217  25.670  26.840  1.00  0.00     0.029 A 
ATOM     50  C   UNL A   1      45.193  27.089  27.157  1.00  0.00     0.049 A 
ATOM     51  H   UNL A   1      43.745  28.133  28.237  1.00  0.00     0.167 HD
ATOM     52  C   UNL A   1      40.304  30.154  30.226  1.00  0.00     0.034 A 
ATOM     53  C   UNL A   1      46.133  27.979  26.799  1.00  0.00     0.034 A 
ATOM     54  C   UNL A   1      41.308  31.165  29.984  1.00  0.00     0.049 A 
ATOM     55  C   UNL A   1      45.922  29.413  27.189  1.00  0.00     0.074 A 
ATOM     56  C   UNL A   1      41.307  32.497  30.361  1.00  0.00     0.029 A 
ATOM     57  N   UNL A   1      42.490  30.956  29.277  1.00  0.00    -0.354 N 
ATOM     58  N   UNL A   1      44.911  29.949  27.835  1.00  0.00    -0.248 NA
ATOM     59  C   UNL A   1      46.971  30.361  26.805  1.00  0.00     0.031 C 
ATOM     60  C   UNL A   1      42.450  33.104  29.825  1.00  0.00     0.029 A 
ATOM     61  C   UNL A   1      43.203  32.141  29.171  1.00  0.00     0.049 A 
ATOM     62  H   UNL A   1      42.779  30.092  28.907  1.00  0.00     0.167 HD
ATOM     63  C   UNL A   1      45.205  31.301  27.942  1.00  0.00     0.074 A 
ATOM     64  C   UNL A   1      46.501  31.489  27.316  1.00  0.00     0.031 C 
ATOM     65  C   UNL A   1      44.476  32.299  28.504  1.00  0.00     0.034 A 
BRANCH  52  66
ATOM     66  C   UNL A   1      39.013  30.538  30.906  1.00  0.00     0.023 A 
ATOM     67  C   UNL A   1      37.977  31.190  30.214  1.00  0.00     0.031 A 
ATOM     68  C   UNL A   1      38.827  30.277  32.275  1.00  0.00     0.131 A 
ATOM     69  C   UNL A   1      36.831  31.616  30.906  1.00  0.00     0.055 A 
ATOM     70  C   UNL A   1      37.655  30.641  32.942  1.00  0.00     0.041 A 
ATOM     71  F   UNL A   1      39.789  29.678  32.994  1.00  0.00    -0.206 F 
ATOM     72  C   UNL A   1      36.654  31.327  32.261  1.00  0.00     0.022 A 
BRANCH  69  73
ATOM     73  S   UNL A   1      35.632  32.668  30.039  1.00  0.00     0.124 S 
ATOM     74  O   UNL A   1      34.418  32.433  30.816  1.00  0.00    -0.237 OA
ATOM     75  O   UNL A   1      36.226  33.993  30.165  1.00  0.00    -0.237 OA
ATOM     76  O   UNL A   1      35.613  32.120  28.684  1.00  0.00    -0.744 OA
ENDBRANCH  69  73
ENDBRANCH  52  66
BRANCH  53  77
ATOM     77  C   UNL A   1      47.311  27.543  26.000  1.00  0.00     0.023 A 
ATOM     78  C   UNL A   1      48.495  27.130  26.626  1.00  0.00     0.031 A 
ATOM     79  C   UNL A   1      47.264  27.525  24.594  1.00  0.00     0.131 A 
ATOM     80  C   UNL A   1      49.597  26.744  25.847  1.00  0.00     0.055 A 
ATOM     81  C   UNL A   1      48.346  27.095  23.824  1.00  0.00     0.041 A 
ATOM     82  F   UNL A   1      46.149  27.900  23.945  1.00  0.00    -0.206 F 
ATOM     83  C   UNL A   1      49.526  26.711  24.452  1.00  0.00     0.022 A 
BRANCH  80  84
ATOM     84  S   UNL A   1      51.153  26.344  26.688  1.00  0.00     0.124 S 
ATOM     85  O   UNL A   1      52.108  27.169  25.957  1.00  0.00    -0.237 OA
ATOM     86  O   UNL A   1      50.869  26.753  28.059  1.00  0.00    -0.237 OA
ATOM     87  O   UNL A   1      51.289  24.903  26.483  1.00  0.00    -0.744 OA
ENDBRANCH  80  84
ENDBRANCH  53  77
BRANCH  65  88
ATOM     88  C   UNL A   1      45.091  33.672  28.454  1.00  0.00     0.023 A 
ATOM     89  C   UNL A   1      45.947  34.122  29.473  1.00  0.00     0.031 A 
ATOM     90  C   UNL A   1      44.784  34.551  27.403  1.00  0.00     0.131 A 
ATOM     91  C   UNL A   1      46.423  35.441  29.450  1.00  0.00     0.055 A 
ATOM     92  C   UNL A   1      45.307  35.843  27.354  1.00  0.00     0.041 A 
ATOM     93  F   UNL A   1      43.965  34.170  26.409  1.00  0.00    -0.206 F 
ATOM     94  C   UNL A   1      46.122  36.298  28.388  1.00  0.00     0.022 A 
BRANCH  91  95
ATOM     95  S   UNL A   1      47.367  36.048  30.874  1.00  0.00     0.124 S 
ATOM     96  O   UNL A   1      48.476  36.742  30.226  1.00  0.00    -0.237 OA
ATOM     97  O   UNL A   1      46.396  36.895  31.557  1.00  0.00    -0.237 OA
ATOM     98  O   UNL A   1      47.733  34.825  31.588  1.00  0.00    -0.744 OA
ENDBRANCH  91  95
ENDBRANCH  65  88
ENDBRANCH  39  40
ENDBRANCH  32  34
ENDBRANCH  31  32
ENDBRANCH  30  31
ENDBRANCH   1  30
TORSDOF 20
ENDMDL
MODEL 3
REMARK VINA RESULT:     -11.4      5.163      9.197
REMARK SMILES COc1ccc(C2=NN(C(=O)CCC(=O)OCCOC(=O)c3ccc(-c4c5nc(c(-c6cc(S(=O)(=O)[O-])ccc6F)c6ccc([nH]6)c(-c6cc(S(=O)(=O)[O-])ccc6F)c6nc(c(-c7cc(S(=O)(=O)[O-])ccc7F)c7ccc4[nH]7)C=C6)C=C5)cc3)[C@H](c3ccc(Cl)cc3Cl)C2)cc1
REMARK SMILES IDX 17 1 16 2 14 3 15 4 13 5 12 6 10 7 11 8 9 9 7 10 8 11 94 12
REMARK SMILES IDX 85 13 6 14 3 15 4 16 96 17 5 18 95 19 2 20 1 21 86 22 87 23
REMARK SMILES IDX 92 24 88 25 91 26 93 27 89 28 90 29 18 30 19 31 20 32 21 33
REMARK SMILES IDX 22 34 23 35 84 36 24 37 83 38 25 39 26 40 27 41 77 42 28 43
REMARK SMILES IDX 82 44 76 45 78 46 29 47 81 48 75 49 74 50 30 52 62 53 42 54
REMARK SMILES IDX 61 55 43 56 46 57 60 58 79 59 44 60 45 61 59 63 80 64 47 65
REMARK SMILES IDX 31 66 32 67 40 68 33 69 39 70 41 71 38 72 34 73 35 74 36 75
REMARK SMILES IDX 37 76 63 77 64 78 72 79 65 80 71 81 73 82 70 83 66 84 67 85
REMARK SMILES IDX 68 86 69 87 48 88 49 89 57 90 50 91 56 92 58 93 55 94 51 95
REMARK SMILES IDX 52 96 53 97 54 98
REMARK H PARENT 78 51 46 62
REMARK Flexibility Score: inf
ROOT
ATOM      1  C   UNL A   1      31.766  32.574  27.021  1.00  0.00     0.274 C 
ENDROOT
BRANCH   1   2
ATOM      2  O   UNL A   1      32.428  31.299  26.879  1.00  0.00    -0.462 OA
BRANCH   2   3
ATOM      3  C   UNL A   1      31.716  30.321  26.258  1.00  0.00     0.306 C 
ATOM      4  O   UNL A   1      31.049  30.489  25.245  1.00  0.00    -0.252 OA
BRANCH   3   5
ATOM      5  C   UNL A   1      31.779  29.006  26.997  1.00  0.00     0.132 C 
BRANCH   5   6
ATOM      6  C   UNL A   1      33.021  28.170  26.699  1.00  0.00     0.114 C 
BRANCH   6   7
ATOM      7  C   UNL A   1      33.144  27.873  25.213  1.00  0.00     0.243 C 
ATOM      8  O   UNL A   1      34.020  28.471  24.575  1.00  0.00    -0.273 OA
BRANCH   7   9
ATOM      9  N   UNL A   1      32.225  27.008  24.612  1.00  0.00    -0.225 N 
ATOM     10  C   UNL A   1      31.908  24.929  24.141  1.00  0.00     0.071 C 
ATOM     11  N   UNL A   1      32.235  25.708  25.117  1.00  0.00    -0.174 NA
ATOM     12  C   UNL A   1      31.475  25.583  22.882  1.00  0.00     0.091 C 
ATOM     13  C   UNL A   1      31.693  27.050  23.236  1.00  0.00     0.149 C 
BRANCH  10  14
ATOM     14  C   UNL A   1      31.964  23.473  24.177  1.00  0.00    -0.002 A 
ATOM     15  C   UNL A   1      32.343  20.733  24.228  1.00  0.00     0.118 A 
ATOM     16  C   UNL A   1      32.021  21.372  23.027  1.00  0.00     0.047 A 
ATOM     17  C   UNL A   1      32.493  21.468  25.406  1.00  0.00     0.047 A 
ATOM     18  C   UNL A   1      31.812  22.749  22.998  1.00  0.00     0.014 A 
ATOM     19  C   UNL A   1      32.300  22.847  25.383  1.00  0.00     0.014 A 
BRANCH  15  20
ATOM     20  O   UNL A   1      32.565  19.385  24.165  1.00  0.00    -0.497 OA
ATOM     21  C   UNL A   1      32.924  18.838  25.432  1.00  0.00     0.278 C 
ENDBRANCH  15  20
ENDBRANCH  10  14
BRANCH  13  22
ATOM     22  C   UNL A   1      30.509  27.926  22.802  1.00  0.00    -0.004 A 
ATOM     23  C   UNL A   1      30.853  29.102  22.070  1.00  0.00     0.009 A 
ATOM     24  C   UNL A   1      29.180  27.843  23.250  1.00  0.00     0.047 A 
ATOM     25  C   UNL A   1      29.963  30.159  21.877  1.00  0.00     0.021 A 
ATOM     26  C   UNL A   1      28.295  28.928  23.088  1.00  0.00     0.041 A 
ATOM     27  Cl  UNL A   1      28.507  26.447  24.001  1.00  0.00    -0.084 Cl
ATOM     28  C   UNL A   1      28.697  30.082  22.426  1.00  0.00     0.042 A 
ATOM     29  Cl  UNL A   1      27.636  31.429  22.296  1.00  0.00    -0.084 Cl
ENDBRANCH  13  22
ENDBRANCH   7   9
ENDBRANCH   6   7
ENDBRANCH   5   6
ENDBRANCH   3   5
ENDBRANCH   2   3
ENDBRANCH   1   2
BRANCH   1  30
ATOM     30  C   UNL A   1      32.714  33.705  27.439  1.00  0.00     0.275 C 
BRANCH  30  31
ATOM     31  O   UNL A   1      32.424  34.224  28.750  1.00  0.00    -0.458 OA
BRANCH  31  32
ATOM     32  C   UNL A   1      33.422  34.954  29.286  1.00  0.00     0.338 C 
ATOM     33  O   UNL A   1      33.416  36.150  29.493  1.00  0.00    -0.246 OA
BRANCH  32  34
ATOM     34  C   UNL A   1      34.566  34.159  29.688  1.00  0.00     0.060 A 
ATOM     35  C   UNL A   1      35.806  34.473  29.124  1.00  0.00     0.016 A 
ATOM     36  C   UNL A   1      34.382  33.044  30.503  1.00  0.00     0.016 A 
ATOM     37  C   UNL A   1      36.912  33.711  29.462  1.00  0.00     0.010 A 
ATOM     38  C   UNL A   1      35.494  32.291  30.852  1.00  0.00     0.010 A 
ATOM     39  C   UNL A   1      36.763  32.657  30.371  1.00  0.00    -0.014 A 
BRANCH  39  40
ATOM     40  C   UNL A   1      37.956  32.080  31.013  1.00  0.00     0.031 A 
ATOM     41  C   UNL A   1      38.679  30.927  30.405  1.00  0.00     0.074 A 
ATOM     42  C   UNL A   1      38.301  32.600  32.206  1.00  0.00     0.049 A 
ATOM     43  N   UNL A   1      39.659  30.224  30.904  1.00  0.00    -0.248 NA
ATOM     44  C   UNL A   1      38.236  30.501  29.070  1.00  0.00     0.031 C 
ATOM     45  C   UNL A   1      37.630  33.736  32.850  1.00  0.00     0.029 A 
ATOM     46  N   UNL A   1      39.270  32.240  33.098  1.00  0.00    -0.354 N 
ATOM     47  C   UNL A   1      39.960  29.266  29.946  1.00  0.00     0.074 A 
ATOM     48  C   UNL A   1      39.036  29.465  28.847  1.00  0.00     0.031 C 
ATOM     49  C   UNL A   1      38.201  33.969  34.039  1.00  0.00     0.029 A 
ATOM     50  C   UNL A   1      39.234  32.969  34.263  1.00  0.00     0.049 A 
ATOM     51  H   UNL A   1      39.930  31.529  32.925  1.00  0.00     0.167 HD
ATOM     52  C   UNL A   1      40.924  28.315  29.997  1.00  0.00     0.034 A 
ATOM     53  C   UNL A   1      39.928  32.814  35.403  1.00  0.00     0.034 A 
ATOM     54  C   UNL A   1      41.797  28.137  31.136  1.00  0.00     0.049 A 
ATOM     55  C   UNL A   1      40.935  31.703  35.462  1.00  0.00     0.074 A 
ATOM     56  C   UNL A   1      42.828  27.231  31.305  1.00  0.00     0.029 A 
ATOM     57  N   UNL A   1      41.722  28.874  32.316  1.00  0.00    -0.354 N 
ATOM     58  N   UNL A   1      41.235  30.816  34.540  1.00  0.00    -0.248 NA
ATOM     59  C   UNL A   1      41.694  31.568  36.708  1.00  0.00     0.031 C 
ATOM     60  C   UNL A   1      43.328  27.373  32.605  1.00  0.00     0.029 A 
ATOM     61  C   UNL A   1      42.658  28.415  33.229  1.00  0.00     0.049 A 
ATOM     62  H   UNL A   1      41.095  29.615  32.477  1.00  0.00     0.167 HD
ATOM     63  C   UNL A   1      42.227  30.018  35.092  1.00  0.00     0.074 A 
ATOM     64  C   UNL A   1      42.490  30.549  36.417  1.00  0.00     0.031 C 
ATOM     65  C   UNL A   1      42.864  28.944  34.559  1.00  0.00     0.034 A 
BRANCH  52  66
ATOM     66  C   UNL A   1      41.034  27.374  28.823  1.00  0.00     0.023 A 
ATOM     67  C   UNL A   1      42.016  27.540  27.830  1.00  0.00     0.031 A 
ATOM     68  C   UNL A   1      40.122  26.314  28.676  1.00  0.00     0.131 A 
ATOM     69  C   UNL A   1      42.023  26.701  26.703  1.00  0.00     0.055 A 
ATOM     70  C   UNL A   1      40.178  25.440  27.588  1.00  0.00     0.041 A 
ATOM     71  F   UNL A   1      39.149  26.119  29.579  1.00  0.00    -0.206 F 
ATOM     72  C   UNL A   1      41.123  25.639  26.586  1.00  0.00     0.022 A 
BRANCH  69  73
ATOM     73  S   UNL A   1      43.141  27.098  25.330  1.00  0.00     0.124 S 
ATOM     74  O   UNL A   1      43.258  25.805  24.661  1.00  0.00    -0.237 OA
ATOM     75  O   UNL A   1      42.402  28.127  24.609  1.00  0.00    -0.237 OA
ATOM     76  O   UNL A   1      44.356  27.557  26.000  1.00  0.00    -0.744 OA
ENDBRANCH  69  73
ENDBRANCH  52  66
BRANCH  53  77
ATOM     77  C   UNL A   1      39.657  33.697  36.570  1.00  0.00     0.023 A 
ATOM     78  C   UNL A   1      39.045  33.197  37.727  1.00  0.00     0.031 A 
ATOM     79  C   UNL A   1      40.017  35.058  36.546  1.00  0.00     0.131 A 
ATOM     80  C   UNL A   1      38.782  34.058  38.804  1.00  0.00     0.055 A 
ATOM     81  C   UNL A   1      39.797  35.899  37.637  1.00  0.00     0.041 A 
ATOM     82  F   UNL A   1      40.618  35.584  35.466  1.00  0.00    -0.206 F 
ATOM     83  C   UNL A   1      39.166  35.401  38.773  1.00  0.00     0.022 A 
BRANCH  80  84
ATOM     84  S   UNL A   1      37.869  33.408  40.229  1.00  0.00     0.124 S 
ATOM     85  O   UNL A   1      38.713  32.293  40.642  1.00  0.00    -0.237 OA
ATOM     86  O   UNL A   1      37.843  34.560  41.123  1.00  0.00    -0.237 OA
ATOM     87  O   UNL A   1      36.575  33.033  39.660  1.00  0.00    -0.744 OA
ENDBRANCH  80  84
ENDBRANCH  53  77
BRANCH  65  88
ATOM     88  C   UNL A   1      43.906  28.296  35.432  1.00  0.00     0.023 A 
ATOM     89  C   UNL A   1      45.255  28.682  35.364  1.00  0.00     0.031 A 
ATOM     90  C   UNL A   1      43.552  27.256  36.308  1.00  0.00     0.131 A 
ATOM     91  C   UNL A   1      46.215  27.991  36.115  1.00  0.00     0.055 A 
ATOM     92  C   UNL A   1      44.503  26.611  37.098  1.00  0.00     0.041 A 
ATOM     93  F   UNL A   1      42.277  26.847  36.404  1.00  0.00    -0.206 F 
ATOM     94  C   UNL A   1      45.846  26.969  36.995  1.00  0.00     0.022 A 
BRANCH  91  95
ATOM     95  S   UNL A   1      47.966  28.386  35.860  1.00  0.00     0.124 S 
ATOM     96  O   UNL A   1      48.420  28.638  37.224  1.00  0.00    -0.237 OA
ATOM     97  O   UNL A   1      48.474  27.171  35.233  1.00  0.00    -0.237 OA
ATOM     98  O   UNL A   1      47.928  29.562  34.992  1.00  0.00    -0.744 OA
ENDBRANCH  91  95
ENDBRANCH  65  88
ENDBRANCH  39  40
ENDBRANCH  32  34
ENDBRANCH  31  32
ENDBRANCH  30  31
ENDBRANCH   1  30
TORSDOF 20
ENDMDL
