MODEL 1
REMARK VINA RESULT:     -10.7      0.000      0.000
REMARK SMILES CC(C)([NH2+]C[C@@H]1CCCO1)C(=O)OCCOC(=O)c1ccc(-c2c3nc(c(-c4cc(S(=O)(=O)[O-])ccc4F)c4ccc([nH]4)c(-c4cc(S(=O)(=O)[O-])ccc4F)c4nc(c(-c5cc(S(=O)(=O)[O-])ccc5F)c5ccc2[nH]5)C=C4)C=C3)cc1
REMARK SMILES IDX 14 1 13 2 11 3 12 4 2 5 1 6 3 7 4 8 5 11 6 12 7 13 10 14
REMARK SMILES IDX 8 15 9 16 15 17 16 18 17 19 18 20 19 21 20 22 81 23 21 24
REMARK SMILES IDX 80 25 22 26 23 27 24 28 74 29 25 30 79 31 73 32 75 33 26 34
REMARK SMILES IDX 78 35 72 36 71 37 27 39 59 40 39 41 58 42 40 43 43 44 57 45
REMARK SMILES IDX 76 46 41 47 42 48 56 50 77 51 44 52 28 53 29 54 37 55 30 56
REMARK SMILES IDX 36 57 38 58 35 59 31 60 32 61 33 62 34 63 60 64 61 65 69 66
REMARK SMILES IDX 62 67 68 68 70 69 67 70 63 71 64 72 65 73 66 74 45 75 46 76
REMARK SMILES IDX 54 77 47 78 53 79 55 80 52 81 48 82 49 83 50 84 51 85
REMARK H PARENT 4 9 4 10 75 38 43 49
REMARK Flexibility Score: inf
ROOT
ATOM      1  C   UNL A   1      32.836  29.122  24.758  1.00  0.00     0.274 C 
ENDROOT
BRANCH   1   2
ATOM      2  O   UNL A   1      32.737  27.712  25.047  1.00  0.00    -0.457 OA
BRANCH   2   3
ATOM      3  C   UNL A   1      32.300  26.897  24.047  1.00  0.00     0.367 C 
ATOM      4  O   UNL A   1      32.987  26.600  23.074  1.00  0.00    -0.245 OA
BRANCH   3   5
ATOM      5  C   UNL A   1      30.854  26.366  24.266  1.00  0.00     0.188 C 
ATOM      6  C   UNL A   1      30.682  26.157  25.782  1.00  0.00     0.092 C 
ATOM      7  C   UNL A   1      30.653  24.992  23.591  1.00  0.00     0.092 C 
BRANCH   5   8
ATOM      8  N   UNL A   1      29.767  27.300  23.892  1.00  0.00    -0.330 N 
ATOM      9  H   UNL A   1      29.690  27.970  24.658  1.00  0.00     0.347 HD
ATOM     10  H   UNL A   1      28.989  26.665  23.713  1.00  0.00     0.347 HD
BRANCH   8  11
ATOM     11  C   UNL A   1      29.817  28.086  22.662  1.00  0.00     0.293 C 
BRANCH  11  12
ATOM     12  C   UNL A   1      29.412  29.567  22.666  1.00  0.00     0.173 C 
ATOM     13  C   UNL A   1      27.993  29.865  23.133  1.00  0.00     0.040 C 
ATOM     14  O   UNL A   1      29.485  30.069  21.308  1.00  0.00    -0.372 OA
ATOM     15  C   UNL A   1      27.669  31.125  22.373  1.00  0.00     0.031 C 
ATOM     16  C   UNL A   1      28.307  30.837  21.036  1.00  0.00     0.161 C 
ENDBRANCH  11  12
ENDBRANCH   8  11
ENDBRANCH   5   8
ENDBRANCH   3   5
ENDBRANCH   2   3
ENDBRANCH   1   2
BRANCH   1  17
ATOM     17  C   UNL A   1      31.804  29.878  25.582  1.00  0.00     0.275 C 
BRANCH  17  18
ATOM     18  O   UNL A   1      32.371  30.074  26.885  1.00  0.00    -0.458 OA
BRANCH  18  19
ATOM     19  C   UNL A   1      32.968  31.265  27.101  1.00  0.00     0.338 C 
ATOM     20  O   UNL A   1      32.500  32.378  26.908  1.00  0.00    -0.246 OA
BRANCH  19  21
ATOM     21  C   UNL A   1      34.309  31.013  27.653  1.00  0.00     0.060 A 
ATOM     22  C   UNL A   1      34.713  29.703  27.913  1.00  0.00     0.016 A 
ATOM     23  C   UNL A   1      35.133  32.081  27.996  1.00  0.00     0.016 A 
ATOM     24  C   UNL A   1      35.896  29.460  28.606  1.00  0.00     0.010 A 
ATOM     25  C   UNL A   1      36.374  31.826  28.588  1.00  0.00     0.010 A 
ATOM     26  C   UNL A   1      36.757  30.515  28.933  1.00  0.00    -0.014 A 
BRANCH  26  27
ATOM     27  C   UNL A   1      38.026  30.270  29.678  1.00  0.00     0.031 A 
ATOM     28  C   UNL A   1      39.078  29.368  29.082  1.00  0.00     0.074 A 
ATOM     29  C   UNL A   1      38.247  30.838  30.881  1.00  0.00     0.049 A 
ATOM     30  N   UNL A   1      40.111  28.805  29.652  1.00  0.00    -0.248 NA
ATOM     31  C   UNL A   1      38.925  29.039  27.657  1.00  0.00     0.031 C 
ATOM     32  C   UNL A   1      37.352  31.783  31.554  1.00  0.00     0.029 A 
ATOM     33  N   UNL A   1      39.297  30.702  31.757  1.00  0.00    -0.354 N 
ATOM     34  C   UNL A   1      40.689  27.996  28.677  1.00  0.00     0.074 A 
ATOM     35  C   UNL A   1      39.886  28.145  27.480  1.00  0.00     0.031 C 
ATOM     36  C   UNL A   1      37.907  32.170  32.712  1.00  0.00     0.029 A 
ATOM     37  C   UNL A   1      39.140  31.420  32.922  1.00  0.00     0.049 A 
ATOM     38  H   UNL A   1      40.086  30.145  31.570  1.00  0.00     0.167 HD
ATOM     39  C   UNL A   1      41.782  27.199  28.778  1.00  0.00     0.034 A 
ATOM     40  C   UNL A   1      39.867  31.430  34.056  1.00  0.00     0.034 A 
ATOM     41  C   UNL A   1      42.602  27.112  29.964  1.00  0.00     0.049 A 
ATOM     42  C   UNL A   1      41.057  30.513  34.161  1.00  0.00     0.074 A 
ATOM     43  C   UNL A   1      43.733  26.343  30.180  1.00  0.00     0.029 A 
ATOM     44  N   UNL A   1      42.386  27.833  31.132  1.00  0.00    -0.354 N 
ATOM     45  N   UNL A   1      41.532  29.673  33.272  1.00  0.00    -0.248 NA
ATOM     46  C   UNL A   1      41.792  30.531  35.432  1.00  0.00     0.031 C 
ATOM     47  C   UNL A   1      44.172  26.563  31.491  1.00  0.00     0.029 A 
ATOM     48  C   UNL A   1      43.353  27.517  32.074  1.00  0.00     0.049 A 
ATOM     49  H   UNL A   1      41.655  28.476  31.270  1.00  0.00     0.167 HD
ATOM     50  C   UNL A   1      42.628  29.065  33.876  1.00  0.00     0.074 A 
ATOM     51  C   UNL A   1      42.757  29.653  35.193  1.00  0.00     0.031 C 
ATOM     52  C   UNL A   1      43.452  28.102  33.390  1.00  0.00     0.034 A 
BRANCH  39  53
ATOM     53  C   UNL A   1      42.108  26.312  27.600  1.00  0.00     0.023 A 
ATOM     54  C   UNL A   1      41.691  24.973  27.529  1.00  0.00     0.031 A 
ATOM     55  C   UNL A   1      42.891  26.813  26.542  1.00  0.00     0.131 A 
ATOM     56  C   UNL A   1      42.115  24.162  26.464  1.00  0.00     0.055 A 
ATOM     57  C   UNL A   1      43.246  26.024  25.447  1.00  0.00     0.041 A 
ATOM     58  F   UNL A   1      43.338  28.079  26.564  1.00  0.00    -0.206 F 
ATOM     59  C   UNL A   1      42.871  24.684  25.410  1.00  0.00     0.022 A 
BRANCH  56  60
ATOM     60  S   UNL A   1      41.786  22.380  26.543  1.00  0.00     0.124 S 
ATOM     61  O   UNL A   1      40.326  22.348  26.513  1.00  0.00    -0.237 OA
ATOM     62  O   UNL A   1      42.461  21.882  25.349  1.00  0.00    -0.237 OA
ATOM     63  O   UNL A   1      42.386  21.975  27.812  1.00  0.00    -0.744 OA
ENDBRANCH  56  60
ENDBRANCH  39  53
BRANCH  40  64
ATOM     64  C   UNL A   1      39.444  32.267  35.216  1.00  0.00     0.023 A 
ATOM     65  C   UNL A   1      38.719  31.715  36.282  1.00  0.00     0.031 A 
ATOM     66  C   UNL A   1      39.738  33.643  35.260  1.00  0.00     0.131 A 
ATOM     67  C   UNL A   1      38.284  32.540  37.333  1.00  0.00     0.055 A 
ATOM     68  C   UNL A   1      39.351  34.448  36.332  1.00  0.00     0.041 A 
ATOM     69  F   UNL A   1      40.426  34.222  34.264  1.00  0.00    -0.206 F 
ATOM     70  C   UNL A   1      38.610  33.897  37.373  1.00  0.00     0.022 A 
BRANCH  67  71
ATOM     71  S   UNL A   1      37.221  31.826  38.618  1.00  0.00     0.124 S 
ATOM     72  O   UNL A   1      37.030  30.467  38.125  1.00  0.00    -0.237 OA
ATOM     73  O   UNL A   1      38.052  31.965  39.810  1.00  0.00    -0.237 OA
ATOM     74  O   UNL A   1      36.033  32.676  38.588  1.00  0.00    -0.744 OA
ENDBRANCH  67  71
ENDBRANCH  40  64
BRANCH  52  75
ATOM     75  C   UNL A   1      44.579  27.662  34.288  1.00  0.00     0.023 A 
ATOM     76  C   UNL A   1      44.430  26.586  35.180  1.00  0.00     0.031 A 
ATOM     77  C   UNL A   1      45.804  28.349  34.270  1.00  0.00     0.131 A 
ATOM     78  C   UNL A   1      45.474  26.262  36.059  1.00  0.00     0.055 A 
ATOM     79  C   UNL A   1      46.858  27.989  35.112  1.00  0.00     0.041 A 
ATOM     80  F   UNL A   1      45.995  29.385  33.438  1.00  0.00    -0.206 F 
ATOM     81  C   UNL A   1      46.692  26.948  36.021  1.00  0.00     0.022 A 
BRANCH  78  82
ATOM     82  S   UNL A   1      45.190  24.984  37.315  1.00  0.00     0.124 S 
ATOM     83  O   UNL A   1      46.189  25.322  38.324  1.00  0.00    -0.237 OA
ATOM     84  O   UNL A   1      43.799  25.219  37.691  1.00  0.00    -0.237 OA
ATOM     85  O   UNL A   1      45.433  23.735  36.595  1.00  0.00    -0.744 OA
ENDBRANCH  78  82
ENDBRANCH  52  75
ENDBRANCH  26  27
ENDBRANCH  19  21
ENDBRANCH  18  19
ENDBRANCH  17  18
ENDBRANCH   1  17
TORSDOF 17
ENDMDL
MODEL 2
REMARK VINA RESULT:     -10.4      5.461     10.249
REMARK SMILES CC(C)([NH2+]C[C@@H]1CCCO1)C(=O)OCCOC(=O)c1ccc(-c2c3nc(c(-c4cc(S(=O)(=O)[O-])ccc4F)c4ccc([nH]4)c(-c4cc(S(=O)(=O)[O-])ccc4F)c4nc(c(-c5cc(S(=O)(=O)[O-])ccc5F)c5ccc2[nH]5)C=C4)C=C3)cc1
REMARK SMILES IDX 14 1 13 2 11 3 12 4 2 5 1 6 3 7 4 8 5 11 6 12 7 13 10 14
REMARK SMILES IDX 8 15 9 16 15 17 16 18 17 19 18 20 19 21 20 22 81 23 21 24
REMARK SMILES IDX 80 25 22 26 23 27 24 28 74 29 25 30 79 31 73 32 75 33 26 34
REMARK SMILES IDX 78 35 72 36 71 37 27 39 59 40 39 41 58 42 40 43 43 44 57 45
REMARK SMILES IDX 76 46 41 47 42 48 56 50 77 51 44 52 28 53 29 54 37 55 30 56
REMARK SMILES IDX 36 57 38 58 35 59 31 60 32 61 33 62 34 63 60 64 61 65 69 66
REMARK SMILES IDX 62 67 68 68 70 69 67 70 63 71 64 72 65 73 66 74 45 75 46 76
REMARK SMILES IDX 54 77 47 78 53 79 55 80 52 81 48 82 49 83 50 84 51 85
REMARK H PARENT 4 9 4 10 75 38 43 49
REMARK Flexibility Score: inf
ROOT
ATOM      1  C   UNL A   1      36.505  22.763  23.526  1.00  0.00     0.274 C 
ENDROOT
BRANCH   1   2
ATOM      2  O   UNL A   1      35.585  23.710  24.109  1.00  0.00    -0.457 OA
BRANCH   2   3
ATOM      3  C   UNL A   1      34.328  23.763  23.586  1.00  0.00     0.367 C 
ATOM      4  O   UNL A   1      34.087  23.572  22.398  1.00  0.00    -0.245 OA
BRANCH   3   5
ATOM      5  C   UNL A   1      33.229  24.067  24.644  1.00  0.00     0.188 C 
ATOM      6  C   UNL A   1      33.826  23.717  26.020  1.00  0.00     0.092 C 
ATOM      7  C   UNL A   1      31.991  23.167  24.441  1.00  0.00     0.092 C 
BRANCH   5   8
ATOM      8  N   UNL A   1      32.831  25.489  24.761  1.00  0.00    -0.330 N 
ATOM      9  H   UNL A   1      32.123  25.528  25.495  1.00  0.00     0.347 HD
ATOM     10  H   UNL A   1      32.562  25.718  23.804  1.00  0.00     0.347 HD
BRANCH   8  11
ATOM     11  C   UNL A   1      33.800  26.537  25.070  1.00  0.00     0.293 C 
BRANCH  11  12
ATOM     12  C   UNL A   1      33.503  27.578  26.159  1.00  0.00     0.173 C 
ATOM     13  C   UNL A   1      32.156  27.444  26.855  1.00  0.00     0.040 C 
ATOM     14  O   UNL A   1      33.494  28.894  25.549  1.00  0.00    -0.372 OA
ATOM     15  C   UNL A   1      31.857  28.869  27.243  1.00  0.00     0.031 C 
ATOM     16  C   UNL A   1      32.354  29.616  26.029  1.00  0.00     0.161 C 
ENDBRANCH  11  12
ENDBRANCH   8  11
ENDBRANCH   5   8
ENDBRANCH   3   5
ENDBRANCH   2   3
ENDBRANCH   1   2
BRANCH   1  17
ATOM     17  C   UNL A   1      36.474  21.472  24.331  1.00  0.00     0.275 C 
BRANCH  17  18
ATOM     18  O   UNL A   1      37.038  21.766  25.617  1.00  0.00    -0.458 OA
BRANCH  18  19
ATOM     19  C   UNL A   1      38.340  21.450  25.782  1.00  0.00     0.338 C 
ATOM     20  O   UNL A   1      38.899  20.411  25.464  1.00  0.00    -0.246 OA
BRANCH  19  21
ATOM     21  C   UNL A   1      39.017  22.602  26.399  1.00  0.00     0.060 A 
ATOM     22  C   UNL A   1      38.550  23.893  26.148  1.00  0.00     0.016 A 
ATOM     23  C   UNL A   1      40.168  22.409  27.157  1.00  0.00     0.016 A 
ATOM     24  C   UNL A   1      39.287  24.998  26.567  1.00  0.00     0.010 A 
ATOM     25  C   UNL A   1      40.841  23.520  27.675  1.00  0.00     0.010 A 
ATOM     26  C   UNL A   1      40.430  24.830  27.358  1.00  0.00    -0.014 A 
BRANCH  26  27
ATOM     27  C   UNL A   1      41.231  26.004  27.812  1.00  0.00     0.031 A 
ATOM     28  C   UNL A   1      40.583  27.059  28.673  1.00  0.00     0.074 A 
ATOM     29  C   UNL A   1      42.526  26.141  27.460  1.00  0.00     0.049 A 
ATOM     30  N   UNL A   1      40.990  28.270  28.952  1.00  0.00    -0.248 NA
ATOM     31  C   UNL A   1      39.291  26.706  29.278  1.00  0.00     0.031 C 
ATOM     32  C   UNL A   1      43.306  25.171  26.687  1.00  0.00     0.029 A 
ATOM     33  N   UNL A   1      43.420  27.155  27.707  1.00  0.00    -0.354 N 
ATOM     34  C   UNL A   1      39.971  28.851  29.702  1.00  0.00     0.074 A 
ATOM     35  C   UNL A   1      38.927  27.854  29.831  1.00  0.00     0.031 C 
ATOM     36  C   UNL A   1      44.564  25.616  26.558  1.00  0.00     0.029 A 
ATOM     37  C   UNL A   1      44.657  26.951  27.137  1.00  0.00     0.049 A 
ATOM     38  H   UNL A   1      43.197  27.951  28.240  1.00  0.00     0.167 HD
ATOM     39  C   UNL A   1      39.912  30.101  30.225  1.00  0.00     0.034 A 
ATOM     40  C   UNL A   1      45.725  27.765  27.036  1.00  0.00     0.034 A 
ATOM     41  C   UNL A   1      40.989  31.059  30.133  1.00  0.00     0.049 A 
ATOM     42  C   UNL A   1      45.628  29.161  27.592  1.00  0.00     0.074 A 
ATOM     43  C   UNL A   1      41.043  32.351  30.627  1.00  0.00     0.029 A 
ATOM     44  N   UNL A   1      42.212  30.819  29.518  1.00  0.00    -0.354 N 
ATOM     45  N   UNL A   1      44.620  29.736  28.206  1.00  0.00    -0.248 NA
ATOM     46  C   UNL A   1      46.804  30.023  27.420  1.00  0.00     0.031 C 
ATOM     47  C   UNL A   1      42.277  32.908  30.270  1.00  0.00     0.029 A 
ATOM     48  C   UNL A   1      43.019  31.943  29.608  1.00  0.00     0.049 A 
ATOM     49  H   UNL A   1      42.469  29.975  29.084  1.00  0.00     0.167 HD
ATOM     50  C   UNL A   1      45.045  31.028  28.498  1.00  0.00     0.074 A 
ATOM     51  C   UNL A   1      46.406  31.138  28.017  1.00  0.00     0.031 C 
ATOM     52  C   UNL A   1      44.369  32.037  29.104  1.00  0.00     0.034 A 
BRANCH  39  53
ATOM     53  C   UNL A   1      38.616  30.522  30.877  1.00  0.00     0.023 A 
ATOM     54  C   UNL A   1      37.579  31.141  30.159  1.00  0.00     0.031 A 
ATOM     55  C   UNL A   1      38.436  30.333  32.261  1.00  0.00     0.131 A 
ATOM     56  C   UNL A   1      36.443  31.611  30.837  1.00  0.00     0.055 A 
ATOM     57  C   UNL A   1      37.271  30.734  32.916  1.00  0.00     0.041 A 
ATOM     58  F   UNL A   1      39.401  29.767  33.004  1.00  0.00    -0.206 F 
ATOM     59  C   UNL A   1      36.270  31.392  32.206  1.00  0.00     0.022 A 
BRANCH  56  60
ATOM     60  S   UNL A   1      35.254  32.640  29.930  1.00  0.00     0.124 S 
ATOM     61  O   UNL A   1      34.766  31.705  28.920  1.00  0.00    -0.237 OA
ATOM     62  O   UNL A   1      34.301  33.011  30.970  1.00  0.00    -0.237 OA
ATOM     63  O   UNL A   1      36.072  33.736  29.414  1.00  0.00    -0.744 OA
ENDBRANCH  56  60
ENDBRANCH  39  53
BRANCH  40  64
ATOM     64  C   UNL A   1      46.947  27.319  26.304  1.00  0.00     0.023 A 
ATOM     65  C   UNL A   1      47.171  27.692  24.971  1.00  0.00     0.031 A 
ATOM     66  C   UNL A   1      47.897  26.487  26.925  1.00  0.00     0.131 A 
ATOM     67  C   UNL A   1      48.301  27.210  24.291  1.00  0.00     0.055 A 
ATOM     68  C   UNL A   1      49.046  26.054  26.262  1.00  0.00     0.041 A 
ATOM     69  F   UNL A   1      47.730  26.097  28.199  1.00  0.00    -0.206 F 
ATOM     70  C   UNL A   1      49.247  26.408  24.933  1.00  0.00     0.022 A 
BRANCH  67  71
ATOM     71  S   UNL A   1      48.482  27.587  22.526  1.00  0.00     0.124 S 
ATOM     72  O   UNL A   1      49.705  28.380  22.514  1.00  0.00    -0.237 OA
ATOM     73  O   UNL A   1      48.576  26.253  21.940  1.00  0.00    -0.237 OA
ATOM     74  O   UNL A   1      47.258  28.319  22.206  1.00  0.00    -0.744 OA
ENDBRANCH  67  71
ENDBRANCH  40  64
BRANCH  52  75
ATOM     75  C   UNL A   1      45.120  33.328  29.303  1.00  0.00     0.023 A 
ATOM     76  C   UNL A   1      45.144  34.325  28.311  1.00  0.00     0.031 A 
ATOM     77  C   UNL A   1      45.845  33.548  30.486  1.00  0.00     0.131 A 
ATOM     78  C   UNL A   1      45.924  35.474  28.499  1.00  0.00     0.055 A 
ATOM     79  C   UNL A   1      46.578  34.718  30.689  1.00  0.00     0.041 A 
ATOM     80  F   UNL A   1      45.856  32.626  31.462  1.00  0.00    -0.206 F 
ATOM     81  C   UNL A   1      46.631  35.684  29.687  1.00  0.00     0.022 A 
BRANCH  78  82
ATOM     82  S   UNL A   1      46.074  36.658  27.133  1.00  0.00     0.124 S 
ATOM     83  O   UNL A   1      46.049  35.782  25.967  1.00  0.00    -0.237 OA
ATOM     84  O   UNL A   1      44.898  37.503  27.321  1.00  0.00    -0.237 OA
ATOM     85  O   UNL A   1      47.354  37.316  27.388  1.00  0.00    -0.744 OA
ENDBRANCH  78  82
ENDBRANCH  52  75
ENDBRANCH  26  27
ENDBRANCH  19  21
ENDBRANCH  18  19
ENDBRANCH  17  18
ENDBRANCH   1  17
TORSDOF 17
ENDMDL
MODEL 3
REMARK VINA RESULT:     -10.4      5.994     10.883
REMARK SMILES CC(C)([NH2+]C[C@@H]1CCCO1)C(=O)OCCOC(=O)c1ccc(-c2c3nc(c(-c4cc(S(=O)(=O)[O-])ccc4F)c4ccc([nH]4)c(-c4cc(S(=O)(=O)[O-])ccc4F)c4nc(c(-c5cc(S(=O)(=O)[O-])ccc5F)c5ccc2[nH]5)C=C4)C=C3)cc1
REMARK SMILES IDX 14 1 13 2 11 3 12 4 2 5 1 6 3 7 4 8 5 11 6 12 7 13 10 14
REMARK SMILES IDX 8 15 9 16 15 17 16 18 17 19 18 20 19 21 20 22 81 23 21 24
REMARK SMILES IDX 80 25 22 26 23 27 24 28 74 29 25 30 79 31 73 32 75 33 26 34
REMARK SMILES IDX 78 35 72 36 71 37 27 39 59 40 39 41 58 42 40 43 43 44 57 45
REMARK SMILES IDX 76 46 41 47 42 48 56 50 77 51 44 52 28 53 29 54 37 55 30 56
REMARK SMILES IDX 36 57 38 58 35 59 31 60 32 61 33 62 34 63 60 64 61 65 69 66
REMARK SMILES IDX 62 67 68 68 70 69 67 70 63 71 64 72 65 73 66 74 45 75 46 76
REMARK SMILES IDX 54 77 47 78 53 79 55 80 52 81 48 82 49 83 50 84 51 85
REMARK H PARENT 4 9 4 10 75 38 43 49
REMARK Flexibility Score: inf
ROOT
ATOM      1  C   UNL A   1      36.205  22.743  24.086  1.00  0.00     0.274 C 
ENDROOT
BRANCH   1   2
ATOM      2  O   UNL A   1      34.980  22.017  23.850  1.00  0.00    -0.457 OA
BRANCH   2   3
ATOM      3  C   UNL A   1      33.874  22.418  24.537  1.00  0.00     0.367 C 
ATOM      4  O   UNL A   1      33.301  23.483  24.326  1.00  0.00    -0.245 OA
BRANCH   3   5
ATOM      5  C   UNL A   1      33.396  21.386  25.599  1.00  0.00     0.188 C 
ATOM      6  C   UNL A   1      31.858  21.453  25.624  1.00  0.00     0.092 C 
ATOM      7  C   UNL A   1      33.893  21.765  27.012  1.00  0.00     0.092 C 
BRANCH   5   8
ATOM      8  N   UNL A   1      33.704  19.970  25.296  1.00  0.00    -0.330 N 
ATOM      9  H   UNL A   1      33.525  19.448  26.156  1.00  0.00     0.347 HD
ATOM     10  H   UNL A   1      34.659  20.026  24.944  1.00  0.00     0.347 HD
BRANCH   8  11
ATOM     11  C   UNL A   1      33.022  19.245  24.228  1.00  0.00     0.293 C 
BRANCH  11  12
ATOM     12  C   UNL A   1      33.066  17.710  24.173  1.00  0.00     0.173 C 
ATOM     13  C   UNL A   1      32.528  16.987  25.401  1.00  0.00     0.040 C 
ATOM     14  O   UNL A   1      34.450  17.293  24.054  1.00  0.00    -0.372 OA
ATOM     15  C   UNL A   1      33.329  15.711  25.391  1.00  0.00     0.031 C 
ATOM     16  C   UNL A   1      34.686  16.215  24.968  1.00  0.00     0.161 C 
ENDBRANCH  11  12
ENDBRANCH   8  11
ENDBRANCH   5   8
ENDBRANCH   3   5
ENDBRANCH   2   3
ENDBRANCH   1   2
BRANCH   1  17
ATOM     17  C   UNL A   1      37.328  21.754  24.368  1.00  0.00     0.275 C 
BRANCH  17  18
ATOM     18  O   UNL A   1      37.625  21.847  25.768  1.00  0.00    -0.458 OA
BRANCH  18  19
ATOM     19  C   UNL A   1      38.899  21.577  26.125  1.00  0.00     0.338 C 
ATOM     20  O   UNL A   1      39.509  20.529  25.972  1.00  0.00    -0.246 OA
BRANCH  19  21
ATOM     21  C   UNL A   1      39.475  22.792  26.723  1.00  0.00     0.060 A 
ATOM     22  C   UNL A   1      38.952  24.042  26.386  1.00  0.00     0.016 A 
ATOM     23  C   UNL A   1      40.592  22.700  27.549  1.00  0.00     0.016 A 
ATOM     24  C   UNL A   1      39.602  25.205  26.792  1.00  0.00     0.010 A 
ATOM     25  C   UNL A   1      41.172  23.870  28.050  1.00  0.00     0.010 A 
ATOM     26  C   UNL A   1      40.707  25.138  27.650  1.00  0.00    -0.014 A 
BRANCH  26  27
ATOM     27  C   UNL A   1      41.414  26.376  28.091  1.00  0.00     0.031 A 
ATOM     28  C   UNL A   1      40.669  27.415  28.891  1.00  0.00     0.074 A 
ATOM     29  C   UNL A   1      42.710  26.584  27.779  1.00  0.00     0.049 A 
ATOM     30  N   UNL A   1      40.988  28.658  29.141  1.00  0.00    -0.248 NA
ATOM     31  C   UNL A   1      39.380  26.999  29.462  1.00  0.00     0.031 C 
ATOM     32  C   UNL A   1      43.578  25.642  27.069  1.00  0.00     0.029 A 
ATOM     33  N   UNL A   1      43.528  27.661  28.022  1.00  0.00    -0.354 N 
ATOM     34  C   UNL A   1      39.907  29.196  29.834  1.00  0.00     0.074 A 
ATOM     35  C   UNL A   1      38.924  28.139  29.961  1.00  0.00     0.031 C 
ATOM     36  C   UNL A   1      44.810  26.163  26.969  1.00  0.00     0.029 A 
ATOM     37  C   UNL A   1      44.796  27.519  27.504  1.00  0.00     0.049 A 
ATOM     38  H   UNL A   1      43.236  28.459  28.519  1.00  0.00     0.167 HD
ATOM     39  C   UNL A   1      39.749  30.456  30.310  1.00  0.00     0.034 A 
ATOM     40  C   UNL A   1      45.814  28.397  27.412  1.00  0.00     0.034 A 
ATOM     41  C   UNL A   1      40.766  31.478  30.223  1.00  0.00     0.049 A 
ATOM     42  C   UNL A   1      45.608  29.801  27.915  1.00  0.00     0.074 A 
ATOM     43  C   UNL A   1      40.720  32.787  30.672  1.00  0.00     0.029 A 
ATOM     44  N   UNL A   1      42.024  31.298  29.660  1.00  0.00    -0.354 N 
ATOM     45  N   UNL A   1      44.543  30.329  28.472  1.00  0.00    -0.248 NA
ATOM     46  C   UNL A   1      46.733  30.731  27.755  1.00  0.00     0.031 C 
ATOM     47  C   UNL A   1      41.929  33.410  30.340  1.00  0.00     0.029 A 
ATOM     48  C   UNL A   1      42.755  32.473  29.739  1.00  0.00     0.049 A 
ATOM     49  H   UNL A   1      42.350  30.458  29.265  1.00  0.00     0.167 HD
ATOM     50  C   UNL A   1      44.874  31.655  28.734  1.00  0.00     0.074 A 
ATOM     51  C   UNL A   1      46.243  31.837  28.297  1.00  0.00     0.031 C 
ATOM     52  C   UNL A   1      44.114  32.638  29.280  1.00  0.00     0.034 A 
BRANCH  39  53
ATOM     53  C   UNL A   1      38.406  30.814  30.901  1.00  0.00     0.023 A 
ATOM     54  C   UNL A   1      37.383  31.406  30.141  1.00  0.00     0.031 A 
ATOM     55  C   UNL A   1      38.163  30.592  32.270  1.00  0.00     0.131 A 
ATOM     56  C   UNL A   1      36.196  31.819  30.766  1.00  0.00     0.055 A 
ATOM     57  C   UNL A   1      36.950  30.935  32.870  1.00  0.00     0.041 A 
ATOM     58  F   UNL A   1      39.110  30.049  33.052  1.00  0.00    -0.206 F 
ATOM     59  C   UNL A   1      35.963  31.567  32.121  1.00  0.00     0.022 A 
BRANCH  56  60
ATOM     60  S   UNL A   1      35.016  32.818  29.817  1.00  0.00     0.124 S 
ATOM     61  O   UNL A   1      35.871  33.893  29.322  1.00  0.00    -0.237 OA
ATOM     62  O   UNL A   1      34.536  31.871  28.816  1.00  0.00    -0.237 OA
ATOM     63  O   UNL A   1      34.029  33.224  30.815  1.00  0.00    -0.744 OA
ENDBRANCH  56  60
ENDBRANCH  39  53
BRANCH  40  64
ATOM     64  C   UNL A   1      47.088  28.006  26.740  1.00  0.00     0.023 A 
ATOM     65  C   UNL A   1      47.209  28.032  25.343  1.00  0.00     0.031 A 
ATOM     66  C   UNL A   1      48.198  27.574  27.490  1.00  0.00     0.131 A 
ATOM     67  C   UNL A   1      48.401  27.605  24.737  1.00  0.00     0.055 A 
ATOM     68  C   UNL A   1      49.399  27.201  26.886  1.00  0.00     0.041 A 
ATOM     69  F   UNL A   1      48.134  27.526  28.831  1.00  0.00    -0.206 F 
ATOM     70  C   UNL A   1      49.501  27.206  25.499  1.00  0.00     0.022 A 
BRANCH  67  71
ATOM     71  S   UNL A   1      48.472  27.508  22.927  1.00  0.00     0.124 S 
ATOM     72  O   UNL A   1      47.249  28.203  22.543  1.00  0.00    -0.237 OA
ATOM     73  O   UNL A   1      49.723  28.202  22.635  1.00  0.00    -0.237 OA
ATOM     74  O   UNL A   1      48.483  26.070  22.663  1.00  0.00    -0.744 OA
ENDBRANCH  67  71
ENDBRANCH  40  64
BRANCH  52  75
ATOM     75  C   UNL A   1      44.774  33.980  29.460  1.00  0.00     0.023 A 
ATOM     76  C   UNL A   1      44.607  35.013  28.520  1.00  0.00     0.031 A 
ATOM     77  C   UNL A   1      45.604  34.216  30.569  1.00  0.00     0.131 A 
ATOM     78  C   UNL A   1      45.306  36.218  28.679  1.00  0.00     0.055 A 
ATOM     79  C   UNL A   1      46.257  35.436  30.748  1.00  0.00     0.041 A 
ATOM     80  F   UNL A   1      45.798  33.261  31.492  1.00  0.00    -0.206 F 
ATOM     81  C   UNL A   1      46.120  36.441  29.794  1.00  0.00     0.022 A 
BRANCH  78  82
ATOM     82  S   UNL A   1      45.207  37.463  27.364  1.00  0.00     0.124 S 
ATOM     83  O   UNL A   1      45.499  38.695  28.089  1.00  0.00    -0.237 OA
ATOM     84  O   UNL A   1      46.234  37.014  26.430  1.00  0.00    -0.237 OA
ATOM     85  O   UNL A   1      43.834  37.340  26.878  1.00  0.00    -0.744 OA
ENDBRANCH  78  82
ENDBRANCH  52  75
ENDBRANCH  26  27
ENDBRANCH  19  21
ENDBRANCH  18  19
ENDBRANCH  17  18
ENDBRANCH   1  17
TORSDOF 17
ENDMDL
