MODEL 1
REMARK VINA RESULT:     -12.3      0.000      0.000
REMARK SMILES COc1ccc2c(c1)[C@H]([NH2+][C@H]1CCC[C@H](C(=O)OCCOC(=O)c3ccc(-c4c5nc(c(-c6cc(S(=O)(=O)[O-])ccc6F)c6ccc([nH]6)c(-c6cc(S(=O)(=O)[O-])ccc6F)c6nc(c(-c7cc(S(=O)(=O)[O-])ccc7F)c7ccc4[nH]7)C=C6)C=C5)cc3)C1)CC2
REMARK SMILES IDX 19 1 18 2 16 3 17 4 15 5 11 6 12 7 87 8 13 9 14 10 10 11
REMARK SMILES IDX 9 14 3 15 4 16 8 17 5 18 7 19 6 20 89 21 88 22 2 23 1 24
REMARK SMILES IDX 20 25 21 26 22 27 23 28 24 29 25 30 86 31 26 32 85 33 27 34
REMARK SMILES IDX 28 35 29 36 79 37 30 38 84 39 78 40 80 41 31 42 83 43 77 44
REMARK SMILES IDX 76 45 32 47 64 48 44 49 63 50 45 51 48 52 62 53 81 54 46 55
REMARK SMILES IDX 47 56 61 58 82 59 49 60 33 61 34 62 42 63 35 64 41 65 43 66
REMARK SMILES IDX 40 67 36 68 37 69 38 70 39 71 65 72 66 73 74 74 67 75 73 76
REMARK SMILES IDX 75 77 72 78 68 79 69 80 70 81 71 82 50 83 51 84 59 85 52 86
REMARK SMILES IDX 58 87 60 88 57 89 53 90 54 91 55 92 56 93
REMARK H PARENT 10 12 10 13 80 46 48 57
REMARK Flexibility Score: inf
ROOT
ATOM      1  C   UNL A   1      34.848  21.539  24.662  1.00  0.00     0.274 C 
ENDROOT
BRANCH   1   2
ATOM      2  O   UNL A   1      34.722  22.968  24.751  1.00  0.00    -0.462 OA
BRANCH   2   3
ATOM      3  C   UNL A   1      34.490  23.643  23.595  1.00  0.00     0.309 C 
ATOM      4  O   UNL A   1      34.811  23.243  22.484  1.00  0.00    -0.252 OA
BRANCH   3   5
ATOM      5  C   UNL A   1      33.699  24.928  23.828  1.00  0.00     0.105 C 
ATOM      6  C   UNL A   1      33.489  27.374  22.919  1.00  0.00     0.183 C 
ATOM      7  C   UNL A   1      33.744  27.829  24.363  1.00  0.00     0.065 C 
ATOM      8  C   UNL A   1      34.026  25.941  22.717  1.00  0.00     0.080 C 
ATOM      9  C   UNL A   1      33.233  26.850  25.411  1.00  0.00     0.007 C 
ATOM     10  C   UNL A   1      33.893  25.495  25.239  1.00  0.00     0.016 C 
BRANCH   6  11
ATOM     11  N   UNL A   1      32.163  27.659  22.347  1.00  0.00    -0.338 N 
ATOM     12  H   UNL A   1      32.236  28.561  21.878  1.00  0.00     0.347 HD
ATOM     13  H   UNL A   1      31.982  26.834  21.776  1.00  0.00     0.347 HD
BRANCH  11  14
ATOM     14  C   UNL A   1      30.988  27.728  23.195  1.00  0.00     0.214 C 
ATOM     15  C   UNL A   1      28.728  30.639  22.134  1.00  0.00     0.119 A 
ATOM     16  C   UNL A   1      27.524  30.155  22.654  1.00  0.00     0.047 A 
ATOM     17  C   UNL A   1      29.881  29.859  22.128  1.00  0.00     0.056 A 
ATOM     18  C   UNL A   1      27.470  28.867  23.193  1.00  0.00     0.008 A 
ATOM     19  C   UNL A   1      29.856  28.628  22.757  1.00  0.00     0.016 A 
ATOM     20  C   UNL A   1      28.638  28.116  23.231  1.00  0.00    -0.038 A 
ATOM     21  C   UNL A   1      28.827  26.744  23.804  1.00  0.00     0.042 C 
ATOM     22  C   UNL A   1      30.219  26.388  23.246  1.00  0.00     0.075 C 
BRANCH  15  23
ATOM     23  O   UNL A   1      28.818  31.918  21.649  1.00  0.00    -0.497 OA
ATOM     24  C   UNL A   1      28.773  32.843  22.741  1.00  0.00     0.278 C 
ENDBRANCH  15  23
ENDBRANCH  11  14
ENDBRANCH   6  11
ENDBRANCH   3   5
ENDBRANCH   2   3
ENDBRANCH   1   2
BRANCH   1  25
ATOM     25  C   UNL A   1      36.110  21.072  25.392  1.00  0.00     0.275 C 
BRANCH  25  26
ATOM     26  O   UNL A   1      37.182  22.024  25.266  1.00  0.00    -0.458 OA
BRANCH  26  27
ATOM     27  C   UNL A   1      38.370  21.636  25.787  1.00  0.00     0.338 C 
ATOM     28  O   UNL A   1      38.884  20.533  25.710  1.00  0.00    -0.246 OA
BRANCH  27  29
ATOM     29  C   UNL A   1      39.037  22.791  26.404  1.00  0.00     0.060 A 
ATOM     30  C   UNL A   1      38.593  24.076  26.080  1.00  0.00     0.016 A 
ATOM     31  C   UNL A   1      40.144  22.610  27.233  1.00  0.00     0.016 A 
ATOM     32  C   UNL A   1      39.273  25.192  26.561  1.00  0.00     0.010 A 
ATOM     33  C   UNL A   1      40.808  23.731  27.736  1.00  0.00     0.010 A 
ATOM     34  C   UNL A   1      40.386  25.029  27.394  1.00  0.00    -0.014 A 
BRANCH  34  35
ATOM     35  C   UNL A   1      41.135  26.210  27.889  1.00  0.00     0.031 A 
ATOM     36  C   UNL A   1      40.410  27.277  28.660  1.00  0.00     0.074 A 
ATOM     37  C   UNL A   1      42.449  26.332  27.625  1.00  0.00     0.049 A 
ATOM     38  N   UNL A   1      40.821  28.465  29.016  1.00  0.00    -0.248 NA
ATOM     39  C   UNL A   1      39.033  26.965  29.074  1.00  0.00     0.031 C 
ATOM     40  C   UNL A   1      43.270  25.332  26.939  1.00  0.00     0.029 A 
ATOM     41  N   UNL A   1      43.324  27.357  27.887  1.00  0.00    -0.354 N 
ATOM     42  C   UNL A   1      39.743  29.062  29.661  1.00  0.00     0.074 A 
ATOM     43  C   UNL A   1      38.658  28.103  29.641  1.00  0.00     0.031 C 
ATOM     44  C   UNL A   1      44.526  25.796  26.829  1.00  0.00     0.029 A 
ATOM     45  C   UNL A   1      44.583  27.150  27.370  1.00  0.00     0.049 A 
ATOM     46  H   UNL A   1      43.075  28.162  28.396  1.00  0.00     0.167 HD
ATOM     47  C   UNL A   1      39.670  30.301  30.207  1.00  0.00     0.034 A 
ATOM     48  C   UNL A   1      45.644  27.979  27.295  1.00  0.00     0.034 A 
ATOM     49  C   UNL A   1      40.774  31.230  30.236  1.00  0.00     0.049 A 
ATOM     50  C   UNL A   1      45.514  29.375  27.853  1.00  0.00     0.074 A 
ATOM     51  C   UNL A   1      40.819  32.496  30.792  1.00  0.00     0.029 A 
ATOM     52  N   UNL A   1      42.025  30.993  29.683  1.00  0.00    -0.354 N 
ATOM     53  N   UNL A   1      44.482  29.937  28.440  1.00  0.00    -0.248 NA
ATOM     54  C   UNL A   1      46.688  30.249  27.733  1.00  0.00     0.031 C 
ATOM     55  C   UNL A   1      42.076  33.049  30.522  1.00  0.00     0.029 A 
ATOM     56  C   UNL A   1      42.839  32.101  29.859  1.00  0.00     0.049 A 
ATOM     57  H   UNL A   1      42.296  30.161  29.233  1.00  0.00     0.167 HD
ATOM     58  C   UNL A   1      44.899  31.218  28.791  1.00  0.00     0.074 A 
ATOM     59  C   UNL A   1      46.274  31.343  28.355  1.00  0.00     0.031 C 
ATOM     60  C   UNL A   1      44.211  32.202  29.423  1.00  0.00     0.034 A 
BRANCH  47  61
ATOM     61  C   UNL A   1      38.340  30.746  30.758  1.00  0.00     0.023 A 
ATOM     62  C   UNL A   1      37.376  31.388  29.962  1.00  0.00     0.031 A 
ATOM     63  C   UNL A   1      38.035  30.523  32.114  1.00  0.00     0.131 A 
ATOM     64  C   UNL A   1      36.175  31.829  30.541  1.00  0.00     0.055 A 
ATOM     65  C   UNL A   1      36.811  30.902  32.666  1.00  0.00     0.041 A 
ATOM     66  F   UNL A   1      38.928  29.934  32.925  1.00  0.00    -0.206 F 
ATOM     67  C   UNL A   1      35.876  31.569  31.881  1.00  0.00     0.022 A 
BRANCH  64  68
ATOM     68  S   UNL A   1      35.049  32.841  29.542  1.00  0.00     0.124 S 
ATOM     69  O   UNL A   1      34.427  31.835  28.685  1.00  0.00    -0.237 OA
ATOM     70  O   UNL A   1      34.184  33.442  30.551  1.00  0.00    -0.237 OA
ATOM     71  O   UNL A   1      35.942  33.771  28.854  1.00  0.00    -0.744 OA
ENDBRANCH  64  68
ENDBRANCH  47  61
BRANCH  48  72
ATOM     72  C   UNL A   1      46.900  27.548  26.616  1.00  0.00     0.023 A 
ATOM     73  C   UNL A   1      47.110  27.808  25.252  1.00  0.00     0.031 A 
ATOM     74  C   UNL A   1      47.879  26.808  27.303  1.00  0.00     0.131 A 
ATOM     75  C   UNL A   1      48.241  27.286  24.607  1.00  0.00     0.055 A 
ATOM     76  C   UNL A   1      49.032  26.342  26.670  1.00  0.00     0.041 A 
ATOM     77  F   UNL A   1      47.729  26.525  28.606  1.00  0.00    -0.206 F 
ATOM     78  C   UNL A   1      49.211  26.567  25.308  1.00  0.00     0.022 A 
BRANCH  75  79
ATOM     79  S   UNL A   1      48.370  27.467  22.806  1.00  0.00     0.124 S 
ATOM     80  O   UNL A   1      47.153  28.209  22.494  1.00  0.00    -0.237 OA
ATOM     81  O   UNL A   1      49.623  28.198  22.664  1.00  0.00    -0.237 OA
ATOM     82  O   UNL A   1      48.396  26.085  22.328  1.00  0.00    -0.744 OA
ENDBRANCH  75  79
ENDBRANCH  48  72
BRANCH  60  83
ATOM     83  C   UNL A   1      44.964  33.469  29.738  1.00  0.00     0.023 A 
ATOM     84  C   UNL A   1      45.657  33.640  30.949  1.00  0.00     0.031 A 
ATOM     85  C   UNL A   1      44.980  34.523  28.808  1.00  0.00     0.131 A 
ATOM     86  C   UNL A   1      46.300  34.857  31.216  1.00  0.00     0.055 A 
ATOM     87  C   UNL A   1      45.665  35.711  29.057  1.00  0.00     0.041 A 
ATOM     88  F   UNL A   1      44.333  34.409  27.637  1.00  0.00    -0.206 F 
ATOM     89  C   UNL A   1      46.321  35.887  30.273  1.00  0.00     0.022 A 
BRANCH  86  90
ATOM     90  S   UNL A   1      47.055  35.104  32.847  1.00  0.00     0.124 S 
ATOM     91  O   UNL A   1      45.897  35.040  33.732  1.00  0.00    -0.237 OA
ATOM     92  O   UNL A   1      47.986  33.984  32.934  1.00  0.00    -0.237 OA
ATOM     93  O   UNL A   1      47.681  36.421  32.739  1.00  0.00    -0.744 OA
ENDBRANCH  86  90
ENDBRANCH  60  83
ENDBRANCH  34  35
ENDBRANCH  27  29
ENDBRANCH  26  27
ENDBRANCH  25  26
ENDBRANCH   1  25
TORSDOF 17
ENDMDL
MODEL 2
REMARK VINA RESULT:     -12.2      1.890      2.208
REMARK SMILES COc1ccc2c(c1)[C@H]([NH2+][C@H]1CCC[C@H](C(=O)OCCOC(=O)c3ccc(-c4c5nc(c(-c6cc(S(=O)(=O)[O-])ccc6F)c6ccc([nH]6)c(-c6cc(S(=O)(=O)[O-])ccc6F)c6nc(c(-c7cc(S(=O)(=O)[O-])ccc7F)c7ccc4[nH]7)C=C6)C=C5)cc3)C1)CC2
REMARK SMILES IDX 19 1 18 2 16 3 17 4 15 5 11 6 12 7 87 8 13 9 14 10 10 11
REMARK SMILES IDX 9 14 3 15 4 16 8 17 5 18 7 19 6 20 89 21 88 22 2 23 1 24
REMARK SMILES IDX 20 25 21 26 22 27 23 28 24 29 25 30 86 31 26 32 85 33 27 34
REMARK SMILES IDX 28 35 29 36 79 37 30 38 84 39 78 40 80 41 31 42 83 43 77 44
REMARK SMILES IDX 76 45 32 47 64 48 44 49 63 50 45 51 48 52 62 53 81 54 46 55
REMARK SMILES IDX 47 56 61 58 82 59 49 60 33 61 34 62 42 63 35 64 41 65 43 66
REMARK SMILES IDX 40 67 36 68 37 69 38 70 39 71 65 72 66 73 74 74 67 75 73 76
REMARK SMILES IDX 75 77 72 78 68 79 69 80 70 81 71 82 50 83 51 84 59 85 52 86
REMARK SMILES IDX 58 87 60 88 57 89 53 90 54 91 55 92 56 93
REMARK H PARENT 10 12 10 13 80 46 48 57
REMARK Flexibility Score: inf
ROOT
ATOM      1  C   UNL A   1      34.837  21.324  24.646  1.00  0.00     0.274 C 
ENDROOT
BRANCH   1   2
ATOM      2  O   UNL A   1      34.474  22.709  24.770  1.00  0.00    -0.462 OA
BRANCH   2   3
ATOM      3  C   UNL A   1      34.301  23.411  23.620  1.00  0.00     0.309 C 
ATOM      4  O   UNL A   1      34.605  23.000  22.507  1.00  0.00    -0.252 OA
BRANCH   3   5
ATOM      5  C   UNL A   1      33.600  24.745  23.858  1.00  0.00     0.105 C 
ATOM      6  C   UNL A   1      33.555  27.204  22.959  1.00  0.00     0.183 C 
ATOM      7  C   UNL A   1      33.842  27.634  24.404  1.00  0.00     0.065 C 
ATOM      8  C   UNL A   1      33.993  25.738  22.751  1.00  0.00     0.080 C 
ATOM      9  C   UNL A   1      33.267  26.688  25.450  1.00  0.00     0.007 C 
ATOM     10  C   UNL A   1      33.833  25.292  25.271  1.00  0.00     0.016 C 
BRANCH   6  11
ATOM     11  N   UNL A   1      32.250  27.580  22.391  1.00  0.00    -0.338 N 
ATOM     12  H   UNL A   1      32.367  28.507  21.983  1.00  0.00     0.347 HD
ATOM     13  H   UNL A   1      32.044  26.803  21.765  1.00  0.00     0.347 HD
BRANCH  11  14
ATOM     14  C   UNL A   1      31.066  27.643  23.227  1.00  0.00     0.214 C 
ATOM     15  C   UNL A   1      28.788  30.524  22.126  1.00  0.00     0.119 A 
ATOM     16  C   UNL A   1      27.584  30.031  22.636  1.00  0.00     0.047 A 
ATOM     17  C   UNL A   1      29.948  29.755  22.136  1.00  0.00     0.056 A 
ATOM     18  C   UNL A   1      27.537  28.746  23.182  1.00  0.00     0.008 A 
ATOM     19  C   UNL A   1      29.929  28.528  22.772  1.00  0.00     0.016 A 
ATOM     20  C   UNL A   1      28.712  28.007  23.237  1.00  0.00    -0.038 A 
ATOM     21  C   UNL A   1      28.909  26.640  23.821  1.00  0.00     0.042 C 
ATOM     22  C   UNL A   1      30.310  26.295  23.279  1.00  0.00     0.075 C 
BRANCH  15  23
ATOM     23  O   UNL A   1      28.869  31.801  21.633  1.00  0.00    -0.497 OA
ATOM     24  C   UNL A   1      28.546  32.731  22.672  1.00  0.00     0.278 C 
ENDBRANCH  15  23
ENDBRANCH  11  14
ENDBRANCH   6  11
ENDBRANCH   3   5
ENDBRANCH   2   3
ENDBRANCH   1   2
BRANCH   1  25
ATOM     25  C   UNL A   1      36.015  21.000  25.568  1.00  0.00     0.275 C 
BRANCH  25  26
ATOM     26  O   UNL A   1      37.209  21.700  25.173  1.00  0.00    -0.458 OA
BRANCH  26  27
ATOM     27  C   UNL A   1      38.358  21.254  25.736  1.00  0.00     0.338 C 
ATOM     28  O   UNL A   1      38.804  20.121  25.702  1.00  0.00    -0.246 OA
BRANCH  27  29
ATOM     29  C   UNL A   1      39.080  22.384  26.338  1.00  0.00     0.060 A 
ATOM     30  C   UNL A   1      38.632  23.682  26.083  1.00  0.00     0.016 A 
ATOM     31  C   UNL A   1      40.239  22.166  27.083  1.00  0.00     0.016 A 
ATOM     32  C   UNL A   1      39.356  24.776  26.548  1.00  0.00     0.010 A 
ATOM     33  C   UNL A   1      40.950  23.265  27.571  1.00  0.00     0.010 A 
ATOM     34  C   UNL A   1      40.521  24.577  27.297  1.00  0.00    -0.014 A 
BRANCH  34  35
ATOM     35  C   UNL A   1      41.317  25.734  27.774  1.00  0.00     0.031 A 
ATOM     36  C   UNL A   1      40.654  26.799  28.601  1.00  0.00     0.074 A 
ATOM     37  C   UNL A   1      42.618  25.839  27.443  1.00  0.00     0.049 A 
ATOM     38  N   UNL A   1      41.106  27.973  28.957  1.00  0.00    -0.248 NA
ATOM     39  C   UNL A   1      39.295  26.504  29.082  1.00  0.00     0.031 C 
ATOM     40  C   UNL A   1      43.383  24.837  26.696  1.00  0.00     0.029 A 
ATOM     41  N   UNL A   1      43.525  26.843  27.677  1.00  0.00    -0.354 N 
ATOM     42  C   UNL A   1      40.074  28.577  29.668  1.00  0.00     0.074 A 
ATOM     43  C   UNL A   1      38.972  27.638  29.689  1.00  0.00     0.031 C 
ATOM     44  C   UNL A   1      44.640  25.281  26.529  1.00  0.00     0.029 A 
ATOM     45  C   UNL A   1      44.751  26.623  27.090  1.00  0.00     0.049 A 
ATOM     46  H   UNL A   1      43.318  27.642  28.213  1.00  0.00     0.167 HD
ATOM     47  C   UNL A   1      40.053  29.806  30.240  1.00  0.00     0.034 A 
ATOM     48  C   UNL A   1      45.822  27.434  26.974  1.00  0.00     0.034 A 
ATOM     49  C   UNL A   1      41.175  30.714  30.228  1.00  0.00     0.049 A 
ATOM     50  C   UNL A   1      45.748  28.821  27.563  1.00  0.00     0.074 A 
ATOM     51  C   UNL A   1      41.273  31.969  30.803  1.00  0.00     0.029 A 
ATOM     52  N   UNL A   1      42.391  30.466  29.605  1.00  0.00    -0.354 N 
ATOM     53  N   UNL A   1      44.759  29.390  28.215  1.00  0.00    -0.248 NA
ATOM     54  C   UNL A   1      46.930  29.677  27.398  1.00  0.00     0.031 C 
ATOM     55  C   UNL A   1      42.524  32.504  30.477  1.00  0.00     0.029 A 
ATOM     56  C   UNL A   1      43.233  31.556  29.758  1.00  0.00     0.049 A 
ATOM     57  H   UNL A   1      42.622  29.638  29.126  1.00  0.00     0.167 HD
ATOM     58  C   UNL A   1      45.217  30.657  28.567  1.00  0.00     0.074 A 
ATOM     59  C   UNL A   1      46.569  30.766  28.061  1.00  0.00     0.031 C 
ATOM     60  C   UNL A   1      44.582  31.640  29.252  1.00  0.00     0.034 A 
BRANCH  47  61
ATOM     61  C   UNL A   1      38.762  30.264  30.868  1.00  0.00     0.023 A 
ATOM     62  C   UNL A   1      37.783  30.963  30.143  1.00  0.00     0.031 A 
ATOM     63  C   UNL A   1      38.512  29.994  32.227  1.00  0.00     0.131 A 
ATOM     64  C   UNL A   1      36.623  31.412  30.794  1.00  0.00     0.055 A 
ATOM     65  C   UNL A   1      37.326  30.383  32.849  1.00  0.00     0.041 A 
ATOM     66  F   UNL A   1      39.424  29.348  32.972  1.00  0.00    -0.206 F 
ATOM     67  C   UNL A   1      36.377  31.107  32.134  1.00  0.00     0.022 A 
BRANCH  64  68
ATOM     68  S   UNL A   1      35.482  32.495  29.889  1.00  0.00     0.124 S 
ATOM     69  O   UNL A   1      36.277  33.712  29.750  1.00  0.00    -0.237 OA
ATOM     70  O   UNL A   1      35.242  31.746  28.661  1.00  0.00    -0.237 OA
ATOM     71  O   UNL A   1      34.333  32.608  30.785  1.00  0.00    -0.744 OA
ENDBRANCH  64  68
ENDBRANCH  47  61
BRANCH  48  72
ATOM     72  C   UNL A   1      47.032  26.994  26.222  1.00  0.00     0.023 A 
ATOM     73  C   UNL A   1      48.087  26.334  26.873  1.00  0.00     0.031 A 
ATOM     74  C   UNL A   1      47.184  27.289  24.855  1.00  0.00     0.131 A 
ATOM     75  C   UNL A   1      49.266  26.041  26.171  1.00  0.00     0.055 A 
ATOM     76  C   UNL A   1      48.335  26.941  24.148  1.00  0.00     0.041 A 
ATOM     77  F   UNL A   1      46.210  27.924  24.183  1.00  0.00    -0.206 F 
ATOM     78  C   UNL A   1      49.393  26.327  24.810  1.00  0.00     0.022 A 
BRANCH  75  79
ATOM     79  S   UNL A   1      50.680  25.378  27.096  1.00  0.00     0.124 S 
ATOM     80  O   UNL A   1      50.034  24.406  27.971  1.00  0.00    -0.237 OA
ATOM     81  O   UNL A   1      51.510  24.830  26.029  1.00  0.00    -0.237 OA
ATOM     82  O   UNL A   1      51.227  26.555  27.768  1.00  0.00    -0.744 OA
ENDBRANCH  75  79
ENDBRANCH  48  72
BRANCH  60  83
ATOM     83  C   UNL A   1      45.374  32.887  29.550  1.00  0.00     0.023 A 
ATOM     84  C   UNL A   1      45.454  33.953  28.638  1.00  0.00     0.031 A 
ATOM     85  C   UNL A   1      46.067  33.001  30.769  1.00  0.00     0.131 A 
ATOM     86  C   UNL A   1      46.246  35.070  28.941  1.00  0.00     0.055 A 
ATOM     87  C   UNL A   1      46.811  34.137  31.087  1.00  0.00     0.041 A 
ATOM     88  F   UNL A   1      46.023  32.009  31.673  1.00  0.00    -0.206 F 
ATOM     89  C   UNL A   1      46.912  35.175  30.164  1.00  0.00     0.022 A 
BRANCH  86  90
ATOM     90  S   UNL A   1      46.452  36.360  27.683  1.00  0.00     0.124 S 
ATOM     91  O   UNL A   1      47.334  35.710  26.720  1.00  0.00    -0.237 OA
ATOM     92  O   UNL A   1      45.080  36.586  27.239  1.00  0.00    -0.237 OA
ATOM     93  O   UNL A   1      47.052  37.469  28.423  1.00  0.00    -0.744 OA
ENDBRANCH  86  90
ENDBRANCH  60  83
ENDBRANCH  34  35
ENDBRANCH  27  29
ENDBRANCH  26  27
ENDBRANCH  25  26
ENDBRANCH   1  25
TORSDOF 17
ENDMDL
MODEL 3
REMARK VINA RESULT:     -12.1      4.556      9.972
REMARK SMILES COc1ccc2c(c1)[C@H]([NH2+][C@H]1CCC[C@H](C(=O)OCCOC(=O)c3ccc(-c4c5nc(c(-c6cc(S(=O)(=O)[O-])ccc6F)c6ccc([nH]6)c(-c6cc(S(=O)(=O)[O-])ccc6F)c6nc(c(-c7cc(S(=O)(=O)[O-])ccc7F)c7ccc4[nH]7)C=C6)C=C5)cc3)C1)CC2
REMARK SMILES IDX 19 1 18 2 16 3 17 4 15 5 11 6 12 7 87 8 13 9 14 10 10 11
REMARK SMILES IDX 9 14 3 15 4 16 8 17 5 18 7 19 6 20 89 21 88 22 2 23 1 24
REMARK SMILES IDX 20 25 21 26 22 27 23 28 24 29 25 30 86 31 26 32 85 33 27 34
REMARK SMILES IDX 28 35 29 36 79 37 30 38 84 39 78 40 80 41 31 42 83 43 77 44
REMARK SMILES IDX 76 45 32 47 64 48 44 49 63 50 45 51 48 52 62 53 81 54 46 55
REMARK SMILES IDX 47 56 61 58 82 59 49 60 33 61 34 62 42 63 35 64 41 65 43 66
REMARK SMILES IDX 40 67 36 68 37 69 38 70 39 71 65 72 66 73 74 74 67 75 73 76
REMARK SMILES IDX 75 77 72 78 68 79 69 80 70 81 71 82 50 83 51 84 59 85 52 86
REMARK SMILES IDX 58 87 60 88 57 89 53 90 54 91 55 92 56 93
REMARK H PARENT 10 12 10 13 80 46 48 57
REMARK Flexibility Score: inf
ROOT
ATOM      1  C   UNL A   1      30.988  29.757  24.517  1.00  0.00     0.274 C 
ENDROOT
BRANCH   1   2
ATOM      2  O   UNL A   1      31.730  28.985  23.559  1.00  0.00    -0.462 OA
BRANCH   2   3
ATOM      3  C   UNL A   1      31.055  28.015  22.888  1.00  0.00     0.309 C 
ATOM      4  O   UNL A   1      30.124  28.225  22.121  1.00  0.00    -0.252 OA
BRANCH   3   5
ATOM      5  C   UNL A   1      31.647  26.629  23.130  1.00  0.00     0.105 C 
ATOM      6  C   UNL A   1      33.756  25.476  24.166  1.00  0.00     0.183 C 
ATOM      7  C   UNL A   1      33.934  24.795  22.801  1.00  0.00     0.065 C 
ATOM      8  C   UNL A   1      32.903  26.752  24.009  1.00  0.00     0.080 C 
ATOM      9  C   UNL A   1      32.623  24.548  22.066  1.00  0.00     0.007 C 
ATOM     10  C   UNL A   1      31.892  25.855  21.830  1.00  0.00     0.016 C 
BRANCH   6  11
ATOM     11  N   UNL A   1      33.430  24.611  25.312  1.00  0.00    -0.338 N 
ATOM     12  H   UNL A   1      33.235  25.230  26.098  1.00  0.00     0.347 HD
ATOM     13  H   UNL A   1      32.666  24.039  24.952  1.00  0.00     0.347 HD
BRANCH  11  14
ATOM     14  C   UNL A   1      34.376  23.621  25.788  1.00  0.00     0.214 C 
ATOM     15  C   UNL A   1      33.307  20.101  24.705  1.00  0.00     0.119 A 
ATOM     16  C   UNL A   1      34.561  19.487  24.759  1.00  0.00     0.047 A 
ATOM     17  C   UNL A   1      33.164  21.475  24.877  1.00  0.00     0.056 A 
ATOM     18  C   UNL A   1      35.700  20.258  25.005  1.00  0.00     0.008 A 
ATOM     19  C   UNL A   1      34.274  22.221  25.227  1.00  0.00     0.016 A 
ATOM     20  C   UNL A   1      35.542  21.620  25.229  1.00  0.00    -0.038 A 
ATOM     21  C   UNL A   1      36.605  22.624  25.560  1.00  0.00     0.042 C 
ATOM     22  C   UNL A   1      35.828  23.940  25.363  1.00  0.00     0.075 C 
BRANCH  15  23
ATOM     23  O   UNL A   1      32.171  19.357  24.518  1.00  0.00    -0.497 OA
ATOM     24  C   UNL A   1      32.511  17.967  24.504  1.00  0.00     0.278 C 
ENDBRANCH  15  23
ENDBRANCH  11  14
ENDBRANCH   6  11
ENDBRANCH   3   5
ENDBRANCH   2   3
ENDBRANCH   1   2
BRANCH   1  25
ATOM     25  C   UNL A   1      31.633  29.647  25.901  1.00  0.00     0.275 C 
BRANCH  25  26
ATOM     26  O   UNL A   1      32.949  30.230  25.923  1.00  0.00    -0.458 OA
BRANCH  26  27
ATOM     27  C   UNL A   1      33.157  31.161  26.885  1.00  0.00     0.338 C 
ATOM     28  O   UNL A   1      32.385  32.031  27.249  1.00  0.00    -0.246 OA
BRANCH  27  29
ATOM     29  C   UNL A   1      34.455  30.917  27.531  1.00  0.00     0.060 A 
ATOM     30  C   UNL A   1      34.770  29.618  27.938  1.00  0.00     0.016 A 
ATOM     31  C   UNL A   1      35.318  31.977  27.807  1.00  0.00     0.016 A 
ATOM     32  C   UNL A   1      35.942  29.373  28.649  1.00  0.00     0.010 A 
ATOM     33  C   UNL A   1      36.506  31.725  28.498  1.00  0.00     0.010 A 
ATOM     34  C   UNL A   1      36.820  30.425  28.935  1.00  0.00    -0.014 A 
BRANCH  34  35
ATOM     35  C   UNL A   1      38.057  30.181  29.717  1.00  0.00     0.031 A 
ATOM     36  C   UNL A   1      39.104  29.249  29.176  1.00  0.00     0.074 A 
ATOM     37  C   UNL A   1      38.224  30.774  30.914  1.00  0.00     0.049 A 
ATOM     38  N   UNL A   1      40.157  28.753  29.770  1.00  0.00    -0.248 NA
ATOM     39  C   UNL A   1      38.934  28.810  27.782  1.00  0.00     0.031 C 
ATOM     40  C   UNL A   1      37.304  31.744  31.512  1.00  0.00     0.029 A 
ATOM     41  N   UNL A   1      39.217  30.636  31.852  1.00  0.00    -0.354 N 
ATOM     42  C   UNL A   1      40.755  27.910  28.839  1.00  0.00     0.074 A 
ATOM     43  C   UNL A   1      39.942  27.961  27.642  1.00  0.00     0.031 C 
ATOM     44  C   UNL A   1      37.772  32.108  32.717  1.00  0.00     0.029 A 
ATOM     45  C   UNL A   1      38.983  31.347  33.007  1.00  0.00     0.049 A 
ATOM     46  H   UNL A   1      40.018  30.083  31.711  1.00  0.00     0.167 HD
ATOM     47  C   UNL A   1      41.874  27.158  28.981  1.00  0.00     0.034 A 
ATOM     48  C   UNL A   1      39.642  31.343  34.184  1.00  0.00     0.034 A 
ATOM     49  C   UNL A   1      42.682  27.143  30.177  1.00  0.00     0.049 A 
ATOM     50  C   UNL A   1      40.847  30.447  34.337  1.00  0.00     0.074 A 
ATOM     51  C   UNL A   1      43.852  26.444  30.417  1.00  0.00     0.029 A 
ATOM     52  N   UNL A   1      42.402  27.858  31.333  1.00  0.00    -0.354 N 
ATOM     53  N   UNL A   1      41.391  29.636  33.457  1.00  0.00    -0.248 NA
ATOM     54  C   UNL A   1      41.523  30.460  35.641  1.00  0.00     0.031 C 
ATOM     55  C   UNL A   1      44.246  26.688  31.737  1.00  0.00     0.029 A 
ATOM     56  C   UNL A   1      43.360  27.593  32.299  1.00  0.00     0.049 A 
ATOM     57  H   UNL A   1      41.636  28.464  31.451  1.00  0.00     0.167 HD
ATOM     58  C   UNL A   1      42.494  29.074  34.093  1.00  0.00     0.074 A 
ATOM     59  C   UNL A   1      42.540  29.640  35.425  1.00  0.00     0.031 C 
ATOM     60  C   UNL A   1      43.392  28.175  33.619  1.00  0.00     0.034 A 
BRANCH  47  61
ATOM     61  C   UNL A   1      42.253  26.244  27.844  1.00  0.00     0.023 A 
ATOM     62  C   UNL A   1      41.783  24.923  27.756  1.00  0.00     0.031 A 
ATOM     63  C   UNL A   1      43.108  26.710  26.828  1.00  0.00     0.131 A 
ATOM     64  C   UNL A   1      42.212  24.099  26.703  1.00  0.00     0.055 A 
ATOM     65  C   UNL A   1      43.475  25.908  25.748  1.00  0.00     0.041 A 
ATOM     66  F   UNL A   1      43.604  27.957  26.874  1.00  0.00    -0.206 F 
ATOM     67  C   UNL A   1      43.035  24.589  25.686  1.00  0.00     0.022 A 
BRANCH  64  68
ATOM     68  S   UNL A   1      41.762  22.342  26.735  1.00  0.00     0.124 S 
ATOM     69  O   UNL A   1      42.658  21.826  27.767  1.00  0.00    -0.237 OA
ATOM     70  O   UNL A   1      40.346  22.384  27.081  1.00  0.00    -0.237 OA
ATOM     71  O   UNL A   1      42.058  21.887  25.378  1.00  0.00    -0.744 OA
ENDBRANCH  64  68
ENDBRANCH  47  61
BRANCH  48  72
ATOM     72  C   UNL A   1      39.153  32.157  35.334  1.00  0.00     0.023 A 
ATOM     73  C   UNL A   1      39.594  33.476  35.524  1.00  0.00     0.031 A 
ATOM     74  C   UNL A   1      38.291  31.606  36.299  1.00  0.00     0.131 A 
ATOM     75  C   UNL A   1      39.218  34.180  36.678  1.00  0.00     0.055 A 
ATOM     76  C   UNL A   1      37.871  32.331  37.414  1.00  0.00     0.041 A 
ATOM     77  F   UNL A   1      37.842  30.347  36.170  1.00  0.00    -0.206 F 
ATOM     78  C   UNL A   1      38.348  33.622  37.617  1.00  0.00     0.022 A 
BRANCH  75  79
ATOM     79  S   UNL A   1      39.974  35.800  36.989  1.00  0.00     0.124 S 
ATOM     80  O   UNL A   1      39.268  36.231  38.191  1.00  0.00    -0.237 OA
ATOM     81  O   UNL A   1      41.379  35.450  37.159  1.00  0.00    -0.237 OA
ATOM     82  O   UNL A   1      39.662  36.557  35.779  1.00  0.00    -0.744 OA
ENDBRANCH  75  79
ENDBRANCH  48  72
BRANCH  60  83
ATOM     83  C   UNL A   1      44.537  27.808  34.528  1.00  0.00     0.023 A 
ATOM     84  C   UNL A   1      44.451  26.742  35.439  1.00  0.00     0.031 A 
ATOM     85  C   UNL A   1      45.732  28.549  34.482  1.00  0.00     0.131 A 
ATOM     86  C   UNL A   1      45.525  26.474  36.299  1.00  0.00     0.055 A 
ATOM     87  C   UNL A   1      46.816  28.244  35.303  1.00  0.00     0.041 A 
ATOM     88  F   UNL A   1      45.864  29.578  33.629  1.00  0.00    -0.206 F 
ATOM     89  C   UNL A   1      46.712  27.207  36.227  1.00  0.00     0.022 A 
BRANCH  86  90
ATOM     90  S   UNL A   1      45.328  25.191  37.567  1.00  0.00     0.124 S 
ATOM     91  O   UNL A   1      43.919  24.839  37.427  1.00  0.00    -0.237 OA
ATOM     92  O   UNL A   1      46.284  24.176  37.137  1.00  0.00    -0.237 OA
ATOM     93  O   UNL A   1      45.675  25.880  38.809  1.00  0.00    -0.744 OA
ENDBRANCH  86  90
ENDBRANCH  60  83
ENDBRANCH  34  35
ENDBRANCH  27  29
ENDBRANCH  26  27
ENDBRANCH  25  26
ENDBRANCH   1  25
TORSDOF 17
ENDMDL
