MODEL 1
REMARK VINA RESULT:     -11.9      0.000      0.000
REMARK SMILES C[N@@H+]1[C@H]2CC[C@@H]1[C@@H](C(=O)OCCOC(=O)c1ccc(-c3c4nc(c(-c5cc(S(=O)(=O)[O-])ccc5F)c5ccc([nH]5)c(-c5cc(S(=O)(=O)[O-])ccc5F)c5nc(c(-c6cc(S(=O)(=O)[O-])ccc6F)c6ccc3[nH]6)C=C5)C=C4)cc1)[C@@H](OC(=O)c1ccccc1)C2
REMARK SMILES IDX 11 1 10 2 8 3 9 4 7 5 1 6 2 7 3 8 6 9 4 11 89 12 5 13 79 14
REMARK SMILES IDX 80 15 81 16 82 17 83 18 84 19 88 20 85 21 87 22 86 23 12 24
REMARK SMILES IDX 13 25 14 26 15 27 16 28 17 29 78 30 18 31 77 32 19 33 20 34
REMARK SMILES IDX 21 35 71 36 22 37 76 38 70 39 72 40 23 41 75 42 69 43 68 44
REMARK SMILES IDX 24 46 56 47 36 48 55 49 37 50 40 51 54 52 73 53 38 54 39 55
REMARK SMILES IDX 53 57 74 58 41 59 25 60 26 61 34 62 27 63 33 64 35 65 32 66
REMARK SMILES IDX 28 67 29 68 30 69 31 70 57 71 58 72 66 73 59 74 65 75 67 76
REMARK SMILES IDX 64 77 60 78 61 79 62 80 63 81 42 82 43 83 51 84 44 85 50 86
REMARK SMILES IDX 52 87 49 88 45 89 46 90 47 91 48 92
REMARK H PARENT 2 10 72 45 40 56
REMARK Flexibility Score: inf
ROOT
ATOM      1  C   UNL A   1      36.656  22.492  23.704  1.00  0.00     0.274 C 
ENDROOT
BRANCH   1   2
ATOM      2  O   UNL A   1      35.281  22.922  23.827  1.00  0.00    -0.462 OA
BRANCH   2   3
ATOM      3  C   UNL A   1      35.074  23.975  24.653  1.00  0.00     0.318 C 
ATOM      4  O   UNL A   1      35.943  24.432  25.395  1.00  0.00    -0.252 OA
BRANCH   3   5
ATOM      5  C   UNL A   1      33.680  24.570  24.630  1.00  0.00     0.198 C 
ATOM      6  C   UNL A   1      33.114  21.759  25.880  1.00  0.00     0.333 C 
ATOM      7  N   UNL A   1      32.298  22.948  26.017  1.00  0.00    -0.332 N 
ATOM      8  C   UNL A   1      31.207  23.101  25.053  1.00  0.00     0.188 C 
ATOM      9  C   UNL A   1      32.994  24.243  25.983  1.00  0.00     0.202 C 
ATOM     10  H   UNL A   1      31.946  22.752  26.954  1.00  0.00     0.348 HD
ATOM     11  C   UNL A   1      30.604  24.417  25.566  1.00  0.00     0.071 C 
ATOM     12  C   UNL A   1      31.733  23.209  23.607  1.00  0.00     0.111 C 
ATOM     13  C   UNL A   1      31.782  25.159  26.216  1.00  0.00     0.072 C 
ATOM     14  C   UNL A   1      32.719  24.372  23.436  1.00  0.00     0.203 C 
BRANCH  14  15
ATOM     15  O   UNL A   1      33.322  24.591  22.139  1.00  0.00    -0.457 OA
BRANCH  15  16
ATOM     16  C   UNL A   1      32.949  25.560  21.274  1.00  0.00     0.338 C 
ATOM     17  O   UNL A   1      33.039  25.534  20.058  1.00  0.00    -0.246 OA
BRANCH  16  18
ATOM     18  C   UNL A   1      32.459  26.765  22.012  1.00  0.00     0.060 A 
ATOM     19  C   UNL A   1      33.418  27.662  22.505  1.00  0.00     0.015 A 
ATOM     20  C   UNL A   1      31.106  26.978  22.312  1.00  0.00     0.015 A 
ATOM     21  C   UNL A   1      33.036  28.721  23.333  1.00  0.00     0.001 A 
ATOM     22  C   UNL A   1      30.729  28.030  23.154  1.00  0.00     0.001 A 
ATOM     23  C   UNL A   1      31.694  28.894  23.668  1.00  0.00     0.000 A 
ENDBRANCH  16  18
ENDBRANCH  15  16
ENDBRANCH  14  15
ENDBRANCH   3   5
ENDBRANCH   2   3
ENDBRANCH   1   2
BRANCH   1  24
ATOM     24  C   UNL A   1      36.982  21.230  24.520  1.00  0.00     0.275 C 
BRANCH  24  25
ATOM     25  O   UNL A   1      37.372  21.492  25.886  1.00  0.00    -0.458 OA
BRANCH  25  26
ATOM     26  C   UNL A   1      38.702  21.402  26.078  1.00  0.00     0.338 C 
ATOM     27  O   UNL A   1      39.412  20.462  25.752  1.00  0.00    -0.246 OA
BRANCH  26  28
ATOM     28  C   UNL A   1      39.329  22.581  26.656  1.00  0.00     0.060 A 
ATOM     29  C   UNL A   1      38.946  23.818  26.127  1.00  0.00     0.016 A 
ATOM     30  C   UNL A   1      40.438  22.465  27.492  1.00  0.00     0.016 A 
ATOM     31  C   UNL A   1      39.675  24.956  26.432  1.00  0.00     0.010 A 
ATOM     32  C   UNL A   1      41.153  23.618  27.823  1.00  0.00     0.010 A 
ATOM     33  C   UNL A   1      40.773  24.863  27.294  1.00  0.00    -0.014 A 
BRANCH  33  34
ATOM     34  C   UNL A   1      41.466  26.099  27.712  1.00  0.00     0.031 A 
ATOM     35  C   UNL A   1      40.760  27.139  28.524  1.00  0.00     0.074 A 
ATOM     36  C   UNL A   1      42.749  26.250  27.340  1.00  0.00     0.049 A 
ATOM     37  N   UNL A   1      41.166  28.335  28.861  1.00  0.00    -0.248 NA
ATOM     38  C   UNL A   1      39.423  26.790  29.025  1.00  0.00     0.031 C 
ATOM     39  C   UNL A   1      43.530  25.254  26.601  1.00  0.00     0.029 A 
ATOM     40  N   UNL A   1      43.619  27.288  27.522  1.00  0.00    -0.354 N 
ATOM     41  C   UNL A   1      40.134  28.892  29.605  1.00  0.00     0.074 A 
ATOM     42  C   UNL A   1      39.075  27.903  29.658  1.00  0.00     0.031 C 
ATOM     43  C   UNL A   1      44.764  25.733  26.390  1.00  0.00     0.029 A 
ATOM     44  C   UNL A   1      44.837  27.090  26.916  1.00  0.00     0.049 A 
ATOM     45  H   UNL A   1      43.397  28.098  28.038  1.00  0.00     0.167 HD
ATOM     46  C   UNL A   1      40.085  30.120  30.180  1.00  0.00     0.034 A 
ATOM     47  C   UNL A   1      45.875  27.929  26.758  1.00  0.00     0.034 A 
ATOM     48  C   UNL A   1      41.155  31.086  30.085  1.00  0.00     0.049 A 
ATOM     49  C   UNL A   1      45.761  29.314  27.331  1.00  0.00     0.074 A 
ATOM     50  C   UNL A   1      41.211  32.373  30.593  1.00  0.00     0.029 A 
ATOM     51  N   UNL A   1      42.364  30.868  29.432  1.00  0.00    -0.354 N 
ATOM     52  N   UNL A   1      44.757  29.854  27.984  1.00  0.00    -0.248 NA
ATOM     53  C   UNL A   1      46.913  30.201  27.143  1.00  0.00     0.031 C 
ATOM     54  C   UNL A   1      42.427  32.948  30.203  1.00  0.00     0.029 A 
ATOM     55  C   UNL A   1      43.160  32.000  29.505  1.00  0.00     0.049 A 
ATOM     56  H   UNL A   1      42.618  30.030  28.983  1.00  0.00     0.167 HD
ATOM     57  C   UNL A   1      45.164  31.144  28.300  1.00  0.00     0.074 A 
ATOM     58  C   UNL A   1      46.511  31.291  27.780  1.00  0.00     0.031 C 
ATOM     59  C   UNL A   1      44.492  32.121  28.958  1.00  0.00     0.034 A 
BRANCH  46  60
ATOM     60  C   UNL A   1      38.812  30.500  30.895  1.00  0.00     0.023 A 
ATOM     61  C   UNL A   1      37.735  31.107  30.223  1.00  0.00     0.031 A 
ATOM     62  C   UNL A   1      38.682  30.277  32.277  1.00  0.00     0.131 A 
ATOM     63  C   UNL A   1      36.602  31.519  30.943  1.00  0.00     0.055 A 
ATOM     64  C   UNL A   1      37.525  30.628  32.977  1.00  0.00     0.041 A 
ATOM     65  F   UNL A   1      39.685  29.723  32.976  1.00  0.00    -0.206 F 
ATOM     66  C   UNL A   1      36.481  31.264  32.311  1.00  0.00     0.022 A 
BRANCH  63  67
ATOM     67  S   UNL A   1      35.337  32.500  30.090  1.00  0.00     0.124 S 
ATOM     68  O   UNL A   1      36.102  33.672  29.674  1.00  0.00    -0.237 OA
ATOM     69  O   UNL A   1      34.907  31.604  29.024  1.00  0.00    -0.237 OA
ATOM     70  O   UNL A   1      34.340  32.753  31.131  1.00  0.00    -0.744 OA
ENDBRANCH  63  67
ENDBRANCH  46  60
BRANCH  47  71
ATOM     71  C   UNL A   1      47.070  27.504  25.981  1.00  0.00     0.023 A 
ATOM     72  C   UNL A   1      47.195  27.813  24.619  1.00  0.00     0.031 A 
ATOM     73  C   UNL A   1      48.103  26.770  26.593  1.00  0.00     0.131 A 
ATOM     74  C   UNL A   1      48.315  27.363  23.904  1.00  0.00     0.055 A 
ATOM     75  C   UNL A   1      49.237  26.366  25.889  1.00  0.00     0.041 A 
ATOM     76  F   UNL A   1      48.032  26.454  27.897  1.00  0.00    -0.206 F 
ATOM     77  C   UNL A   1      49.343  26.653  24.533  1.00  0.00     0.022 A 
BRANCH  74  78
ATOM     78  S   UNL A   1      48.377  27.655  22.116  1.00  0.00     0.124 S 
ATOM     79  O   UNL A   1      49.506  28.572  22.001  1.00  0.00    -0.237 OA
ATOM     80  O   UNL A   1      48.589  26.308  21.598  1.00  0.00    -0.237 OA
ATOM     81  O   UNL A   1      47.069  28.236  21.821  1.00  0.00    -0.744 OA
ENDBRANCH  74  78
ENDBRANCH  47  71
BRANCH  59  82
ATOM     82  C   UNL A   1      45.237  33.411  29.169  1.00  0.00     0.023 A 
ATOM     83  C   UNL A   1      45.176  34.454  28.230  1.00  0.00     0.031 A 
ATOM     84  C   UNL A   1      46.057  33.575  30.299  1.00  0.00     0.131 A 
ATOM     85  C   UNL A   1      45.971  35.596  28.407  1.00  0.00     0.055 A 
ATOM     86  C   UNL A   1      46.806  34.735  30.495  1.00  0.00     0.041 A 
ATOM     87  F   UNL A   1      46.149  32.604  31.222  1.00  0.00    -0.206 F 
ATOM     88  C   UNL A   1      46.776  35.748  29.540  1.00  0.00     0.022 A 
BRANCH  85  89
ATOM     89  S   UNL A   1      46.008  36.842  27.090  1.00  0.00     0.124 S 
ATOM     90  O   UNL A   1      46.512  36.072  25.958  1.00  0.00    -0.237 OA
ATOM     91  O   UNL A   1      44.609  37.252  27.010  1.00  0.00    -0.237 OA
ATOM     92  O   UNL A   1      46.923  37.858  27.606  1.00  0.00    -0.744 OA
ENDBRANCH  85  89
ENDBRANCH  59  82
ENDBRANCH  33  34
ENDBRANCH  26  28
ENDBRANCH  25  26
ENDBRANCH  24  25
ENDBRANCH   1  24
TORSDOF 17
ENDMDL
MODEL 2
REMARK VINA RESULT:     -11.8      1.393      3.041
REMARK SMILES C[N@@H+]1[C@H]2CC[C@@H]1[C@@H](C(=O)OCCOC(=O)c1ccc(-c3c4nc(c(-c5cc(S(=O)(=O)[O-])ccc5F)c5ccc([nH]5)c(-c5cc(S(=O)(=O)[O-])ccc5F)c5nc(c(-c6cc(S(=O)(=O)[O-])ccc6F)c6ccc3[nH]6)C=C5)C=C4)cc1)[C@@H](OC(=O)c1ccccc1)C2
REMARK SMILES IDX 11 1 10 2 8 3 9 4 7 5 1 6 2 7 3 8 6 9 4 11 89 12 5 13 79 14
REMARK SMILES IDX 80 15 81 16 82 17 83 18 84 19 88 20 85 21 87 22 86 23 12 24
REMARK SMILES IDX 13 25 14 26 15 27 16 28 17 29 78 30 18 31 77 32 19 33 20 34
REMARK SMILES IDX 21 35 71 36 22 37 76 38 70 39 72 40 23 41 75 42 69 43 68 44
REMARK SMILES IDX 24 46 56 47 36 48 55 49 37 50 40 51 54 52 73 53 38 54 39 55
REMARK SMILES IDX 53 57 74 58 41 59 25 60 26 61 34 62 27 63 33 64 35 65 32 66
REMARK SMILES IDX 28 67 29 68 30 69 31 70 57 71 58 72 66 73 59 74 65 75 67 76
REMARK SMILES IDX 64 77 60 78 61 79 62 80 63 81 42 82 43 83 51 84 44 85 50 86
REMARK SMILES IDX 52 87 49 88 45 89 46 90 47 91 48 92
REMARK H PARENT 2 10 72 45 40 56
REMARK Flexibility Score: inf
ROOT
ATOM      1  C   UNL A   1      35.927  22.690  23.810  1.00  0.00     0.274 C 
ENDROOT
BRANCH   1   2
ATOM      2  O   UNL A   1      34.516  22.392  23.922  1.00  0.00    -0.462 OA
BRANCH   2   3
ATOM      3  C   UNL A   1      33.694  23.205  23.218  1.00  0.00     0.318 C 
ATOM      4  O   UNL A   1      34.021  23.748  22.163  1.00  0.00    -0.252 OA
BRANCH   3   5
ATOM      5  C   UNL A   1      32.319  23.434  23.814  1.00  0.00     0.198 C 
ATOM      6  C   UNL A   1      34.094  25.184  25.704  1.00  0.00     0.333 C 
ATOM      7  N   UNL A   1      32.673  25.338  25.461  1.00  0.00    -0.332 N 
ATOM      8  C   UNL A   1      31.777  24.656  26.396  1.00  0.00     0.188 C 
ATOM      9  C   UNL A   1      32.177  24.946  24.134  1.00  0.00     0.202 C 
ATOM     10  H   UNL A   1      32.635  26.351  25.576  1.00  0.00     0.348 HD
ATOM     11  C   UNL A   1      30.427  25.100  25.816  1.00  0.00     0.071 C 
ATOM     12  C   UNL A   1      31.970  23.126  26.358  1.00  0.00     0.111 C 
ATOM     13  C   UNL A   1      30.700  25.328  24.321  1.00  0.00     0.072 C 
ATOM     14  C   UNL A   1      31.758  22.551  24.952  1.00  0.00     0.203 C 
BRANCH  14  15
ATOM     15  O   UNL A   1      31.927  21.129  24.746  1.00  0.00    -0.457 OA
BRANCH  15  16
ATOM     16  C   UNL A   1      32.895  20.381  25.322  1.00  0.00     0.338 C 
ATOM     17  O   UNL A   1      33.548  20.661  26.313  1.00  0.00    -0.246 OA
BRANCH  16  18
ATOM     18  C   UNL A   1      33.144  19.140  24.527  1.00  0.00     0.060 A 
ATOM     19  C   UNL A   1      34.251  18.353  24.878  1.00  0.00     0.015 A 
ATOM     20  C   UNL A   1      32.387  18.790  23.400  1.00  0.00     0.015 A 
ATOM     21  C   UNL A   1      34.629  17.268  24.081  1.00  0.00     0.001 A 
ATOM     22  C   UNL A   1      32.777  17.713  22.596  1.00  0.00     0.001 A 
ATOM     23  C   UNL A   1      33.901  16.960  22.933  1.00  0.00     0.000 A 
ENDBRANCH  16  18
ENDBRANCH  15  16
ENDBRANCH  14  15
ENDBRANCH   3   5
ENDBRANCH   2   3
ENDBRANCH   1   2
BRANCH   1  24
ATOM     24  C   UNL A   1      36.838  21.539  24.269  1.00  0.00     0.275 C 
BRANCH  24  25
ATOM     25  O   UNL A   1      37.141  21.550  25.681  1.00  0.00    -0.458 OA
BRANCH  25  26
ATOM     26  C   UNL A   1      38.453  21.385  25.937  1.00  0.00     0.338 C 
ATOM     27  O   UNL A   1      39.119  20.399  25.660  1.00  0.00    -0.246 OA
BRANCH  26  28
ATOM     28  C   UNL A   1      39.122  22.536  26.524  1.00  0.00     0.060 A 
ATOM     29  C   UNL A   1      38.665  23.798  26.128  1.00  0.00     0.016 A 
ATOM     30  C   UNL A   1      40.318  22.388  27.224  1.00  0.00     0.016 A 
ATOM     31  C   UNL A   1      39.407  24.928  26.430  1.00  0.00     0.010 A 
ATOM     32  C   UNL A   1      41.048  23.532  27.555  1.00  0.00     0.010 A 
ATOM     33  C   UNL A   1      40.594  24.801  27.159  1.00  0.00    -0.014 A 
BRANCH  33  34
ATOM     34  C   UNL A   1      41.310  26.021  27.585  1.00  0.00     0.031 A 
ATOM     35  C   UNL A   1      40.630  27.061  28.418  1.00  0.00     0.074 A 
ATOM     36  C   UNL A   1      42.592  26.158  27.200  1.00  0.00     0.049 A 
ATOM     37  N   UNL A   1      41.058  28.246  28.765  1.00  0.00    -0.248 NA
ATOM     38  C   UNL A   1      39.293  26.726  28.929  1.00  0.00     0.031 C 
ATOM     39  C   UNL A   1      43.349  25.159  26.439  1.00  0.00     0.029 A 
ATOM     40  N   UNL A   1      43.479  27.180  27.385  1.00  0.00    -0.354 N 
ATOM     41  C   UNL A   1      40.042  28.810  29.528  1.00  0.00     0.074 A 
ATOM     42  C   UNL A   1      38.970  27.836  29.581  1.00  0.00     0.031 C 
ATOM     43  C   UNL A   1      44.588  25.622  26.221  1.00  0.00     0.029 A 
ATOM     44  C   UNL A   1      44.687  26.971  26.762  1.00  0.00     0.049 A 
ATOM     45  H   UNL A   1      43.275  27.986  27.913  1.00  0.00     0.167 HD
ATOM     46  C   UNL A   1      40.018  30.030  30.119  1.00  0.00     0.034 A 
ATOM     47  C   UNL A   1      45.736  27.796  26.603  1.00  0.00     0.034 A 
ATOM     48  C   UNL A   1      41.103  30.981  30.024  1.00  0.00     0.049 A 
ATOM     49  C   UNL A   1      45.650  29.175  27.195  1.00  0.00     0.074 A 
ATOM     50  C   UNL A   1      41.183  32.261  30.547  1.00  0.00     0.029 A 
ATOM     51  N   UNL A   1      42.301  30.753  29.354  1.00  0.00    -0.354 N 
ATOM     52  N   UNL A   1      44.661  29.722  27.866  1.00  0.00    -0.248 NA
ATOM     53  C   UNL A   1      46.813  30.047  27.005  1.00  0.00     0.031 C 
ATOM     54  C   UNL A   1      42.404  32.822  30.150  1.00  0.00     0.029 A 
ATOM     55  C   UNL A   1      43.115  31.872  29.432  1.00  0.00     0.049 A 
ATOM     56  H   UNL A   1      42.536  29.917  28.892  1.00  0.00     0.167 HD
ATOM     57  C   UNL A   1      45.092  31.002  28.193  1.00  0.00     0.074 A 
ATOM     58  C   UNL A   1      46.435  31.135  27.660  1.00  0.00     0.031 C 
ATOM     59  C   UNL A   1      44.442  31.980  28.872  1.00  0.00     0.034 A 
BRANCH  46  60
ATOM     60  C   UNL A   1      38.760  30.421  30.853  1.00  0.00     0.023 A 
ATOM     61  C   UNL A   1      37.692  31.067  30.204  1.00  0.00     0.031 A 
ATOM     62  C   UNL A   1      38.635  30.166  32.230  1.00  0.00     0.131 A 
ATOM     63  C   UNL A   1      36.574  31.486  30.944  1.00  0.00     0.055 A 
ATOM     64  C   UNL A   1      37.491  30.526  32.947  1.00  0.00     0.041 A 
ATOM     65  F   UNL A   1      39.631  29.574  32.907  1.00  0.00    -0.206 F 
ATOM     66  C   UNL A   1      36.457  31.200  32.306  1.00  0.00     0.022 A 
BRANCH  63  67
ATOM     67  S   UNL A   1      35.324  32.516  30.125  1.00  0.00     0.124 S 
ATOM     68  O   UNL A   1      36.118  33.667  29.705  1.00  0.00    -0.237 OA
ATOM     69  O   UNL A   1      34.846  31.644  29.059  1.00  0.00    -0.237 OA
ATOM     70  O   UNL A   1      34.356  32.790  31.187  1.00  0.00    -0.744 OA
ENDBRANCH  63  67
ENDBRANCH  46  60
BRANCH  47  71
ATOM     71  C   UNL A   1      46.915  27.363  25.807  1.00  0.00     0.023 A 
ATOM     72  C   UNL A   1      47.076  27.764  24.474  1.00  0.00     0.031 A 
ATOM     73  C   UNL A   1      47.898  26.529  26.372  1.00  0.00     0.131 A 
ATOM     74  C   UNL A   1      48.178  27.306  23.737  1.00  0.00     0.055 A 
ATOM     75  C   UNL A   1      49.017  26.114  25.650  1.00  0.00     0.041 A 
ATOM     76  F   UNL A   1      47.792  26.121  27.648  1.00  0.00    -0.206 F 
ATOM     77  C   UNL A   1      49.156  26.494  24.320  1.00  0.00     0.022 A 
BRANCH  74  78
ATOM     78  S   UNL A   1      48.279  27.726  21.976  1.00  0.00     0.124 S 
ATOM     79  O   UNL A   1      49.405  28.654  21.954  1.00  0.00    -0.237 OA
ATOM     80  O   UNL A   1      48.512  26.421  21.368  1.00  0.00    -0.237 OA
ATOM     81  O   UNL A   1      46.975  28.321  21.693  1.00  0.00    -0.744 OA
ENDBRANCH  74  78
ENDBRANCH  47  71
BRANCH  59  82
ATOM     82  C   UNL A   1      45.209  33.256  29.090  1.00  0.00     0.023 A 
ATOM     83  C   UNL A   1      45.180  34.299  28.149  1.00  0.00     0.031 A 
ATOM     84  C   UNL A   1      46.018  33.406  30.230  1.00  0.00     0.131 A 
ATOM     85  C   UNL A   1      45.995  35.425  28.334  1.00  0.00     0.055 A 
ATOM     86  C   UNL A   1      46.786  34.552  30.435  1.00  0.00     0.041 A 
ATOM     87  F   UNL A   1      46.080  32.435  31.155  1.00  0.00    -0.206 F 
ATOM     88  C   UNL A   1      46.788  35.563  29.477  1.00  0.00     0.022 A 
BRANCH  85  89
ATOM     89  S   UNL A   1      46.072  36.668  27.016  1.00  0.00     0.124 S 
ATOM     90  O   UNL A   1      46.492  35.868  25.870  1.00  0.00    -0.237 OA
ATOM     91  O   UNL A   1      44.701  37.167  26.977  1.00  0.00    -0.237 OA
ATOM     92  O   UNL A   1      47.065  37.623  27.504  1.00  0.00    -0.744 OA
ENDBRANCH  85  89
ENDBRANCH  59  82
ENDBRANCH  33  34
ENDBRANCH  26  28
ENDBRANCH  25  26
ENDBRANCH  24  25
ENDBRANCH   1  24
TORSDOF 17
ENDMDL
MODEL 3
REMARK VINA RESULT:     -11.8      1.697      2.071
REMARK SMILES C[N@@H+]1[C@H]2CC[C@@H]1[C@@H](C(=O)OCCOC(=O)c1ccc(-c3c4nc(c(-c5cc(S(=O)(=O)[O-])ccc5F)c5ccc([nH]5)c(-c5cc(S(=O)(=O)[O-])ccc5F)c5nc(c(-c6cc(S(=O)(=O)[O-])ccc6F)c6ccc3[nH]6)C=C5)C=C4)cc1)[C@@H](OC(=O)c1ccccc1)C2
REMARK SMILES IDX 11 1 10 2 8 3 9 4 7 5 1 6 2 7 3 8 6 9 4 11 89 12 5 13 79 14
REMARK SMILES IDX 80 15 81 16 82 17 83 18 84 19 88 20 85 21 87 22 86 23 12 24
REMARK SMILES IDX 13 25 14 26 15 27 16 28 17 29 78 30 18 31 77 32 19 33 20 34
REMARK SMILES IDX 21 35 71 36 22 37 76 38 70 39 72 40 23 41 75 42 69 43 68 44
REMARK SMILES IDX 24 46 56 47 36 48 55 49 37 50 40 51 54 52 73 53 38 54 39 55
REMARK SMILES IDX 53 57 74 58 41 59 25 60 26 61 34 62 27 63 33 64 35 65 32 66
REMARK SMILES IDX 28 67 29 68 30 69 31 70 57 71 58 72 66 73 59 74 65 75 67 76
REMARK SMILES IDX 64 77 60 78 61 79 62 80 63 81 42 82 43 83 51 84 44 85 50 86
REMARK SMILES IDX 52 87 49 88 45 89 46 90 47 91 48 92
REMARK H PARENT 2 10 72 45 40 56
REMARK Flexibility Score: inf
ROOT
ATOM      1  C   UNL A   1      36.642  22.697  23.508  1.00  0.00     0.274 C 
ENDROOT
BRANCH   1   2
ATOM      2  O   UNL A   1      35.814  23.718  24.112  1.00  0.00    -0.462 OA
BRANCH   2   3
ATOM      3  C   UNL A   1      34.545  23.786  23.645  1.00  0.00     0.318 C 
ATOM      4  O   UNL A   1      34.248  23.603  22.465  1.00  0.00    -0.252 OA
BRANCH   3   5
ATOM      5  C   UNL A   1      33.479  24.122  24.669  1.00  0.00     0.198 C 
ATOM      6  C   UNL A   1      32.730  21.167  23.970  1.00  0.00     0.333 C 
ATOM      7  N   UNL A   1      32.394  21.881  25.185  1.00  0.00    -0.332 N 
ATOM      8  C   UNL A   1      31.092  22.550  25.206  1.00  0.00     0.188 C 
ATOM      9  C   UNL A   1      33.339  22.914  25.634  1.00  0.00     0.202 C 
ATOM     10  H   UNL A   1      32.413  21.077  25.813  1.00  0.00     0.348 HD
ATOM     11  C   UNL A   1      31.130  23.123  26.630  1.00  0.00     0.071 C 
ATOM     12  C   UNL A   1      30.996  23.645  24.124  1.00  0.00     0.111 C 
ATOM     13  C   UNL A   1      32.623  23.330  26.929  1.00  0.00     0.072 C 
ATOM     14  C   UNL A   1      32.103  24.699  24.267  1.00  0.00     0.203 C 
BRANCH  14  15
ATOM     15  O   UNL A   1      32.163  25.782  23.310  1.00  0.00    -0.457 OA
BRANCH  15  16
ATOM     16  C   UNL A   1      31.619  27.004  23.500  1.00  0.00     0.338 C 
ATOM     17  O   UNL A   1      30.873  27.603  22.744  1.00  0.00    -0.246 OA
BRANCH  16  18
ATOM     18  C   UNL A   1      32.118  27.611  24.772  1.00  0.00     0.060 A 
ATOM     19  C   UNL A   1      33.360  28.262  24.740  1.00  0.00     0.015 A 
ATOM     20  C   UNL A   1      31.452  27.471  25.998  1.00  0.00     0.015 A 
ATOM     21  C   UNL A   1      33.953  28.714  25.923  1.00  0.00     0.001 A 
ATOM     22  C   UNL A   1      32.055  27.909  27.182  1.00  0.00     0.001 A 
ATOM     23  C   UNL A   1      33.307  28.522  27.143  1.00  0.00     0.000 A 
ENDBRANCH  16  18
ENDBRANCH  15  16
ENDBRANCH  14  15
ENDBRANCH   3   5
ENDBRANCH   2   3
ENDBRANCH   1   2
BRANCH   1  24
ATOM     24  C   UNL A   1      36.711  21.397  24.327  1.00  0.00     0.275 C 
BRANCH  24  25
ATOM     25  O   UNL A   1      37.073  21.586  25.711  1.00  0.00    -0.458 OA
BRANCH  25  26
ATOM     26  C   UNL A   1      38.391  21.421  25.937  1.00  0.00     0.338 C 
ATOM     27  O   UNL A   1      39.058  20.451  25.608  1.00  0.00    -0.246 OA
BRANCH  26  28
ATOM     28  C   UNL A   1      39.064  22.552  26.556  1.00  0.00     0.060 A 
ATOM     29  C   UNL A   1      38.640  23.827  26.164  1.00  0.00     0.016 A 
ATOM     30  C   UNL A   1      40.238  22.374  27.287  1.00  0.00     0.016 A 
ATOM     31  C   UNL A   1      39.393  24.940  26.501  1.00  0.00     0.010 A 
ATOM     32  C   UNL A   1      40.979  23.500  27.652  1.00  0.00     0.010 A 
ATOM     33  C   UNL A   1      40.558  24.783  27.260  1.00  0.00    -0.014 A 
BRANCH  33  34
ATOM     34  C   UNL A   1      41.283  25.984  27.720  1.00  0.00     0.031 A 
ATOM     35  C   UNL A   1      40.592  27.039  28.525  1.00  0.00     0.074 A 
ATOM     36  C   UNL A   1      42.583  26.091  27.393  1.00  0.00     0.049 A 
ATOM     37  N   UNL A   1      41.032  28.212  28.895  1.00  0.00    -0.248 NA
ATOM     38  C   UNL A   1      39.226  26.735  28.977  1.00  0.00     0.031 C 
ATOM     39  C   UNL A   1      43.349  25.075  26.664  1.00  0.00     0.029 A 
ATOM     40  N   UNL A   1      43.486  27.091  27.621  1.00  0.00    -0.354 N 
ATOM     41  C   UNL A   1      39.998  28.799  29.613  1.00  0.00     0.074 A 
ATOM     42  C   UNL A   1      38.901  27.851  29.616  1.00  0.00     0.031 C 
ATOM     43  C   UNL A   1      44.608  25.509  26.502  1.00  0.00     0.029 A 
ATOM     44  C   UNL A   1      44.715  26.854  27.051  1.00  0.00     0.049 A 
ATOM     45  H   UNL A   1      43.278  27.900  28.141  1.00  0.00     0.167 HD
ATOM     46  C   UNL A   1      39.977  30.019  30.206  1.00  0.00     0.034 A 
ATOM     47  C   UNL A   1      45.790  27.654  26.941  1.00  0.00     0.034 A 
ATOM     48  C   UNL A   1      41.087  30.943  30.162  1.00  0.00     0.049 A 
ATOM     49  C   UNL A   1      45.710  29.034  27.532  1.00  0.00     0.074 A 
ATOM     50  C   UNL A   1      41.175  32.220  30.692  1.00  0.00     0.029 A 
ATOM     51  N   UNL A   1      42.307  30.688  29.546  1.00  0.00    -0.354 N 
ATOM     52  N   UNL A   1      44.706  29.603  28.160  1.00  0.00    -0.248 NA
ATOM     53  C   UNL A   1      46.901  29.878  27.396  1.00  0.00     0.031 C 
ATOM     54  C   UNL A   1      42.425  32.752  30.351  1.00  0.00     0.029 A 
ATOM     55  C   UNL A   1      43.144  31.787  29.663  1.00  0.00     0.049 A 
ATOM     56  H   UNL A   1      42.543  29.847  29.092  1.00  0.00     0.167 HD
ATOM     57  C   UNL A   1      45.152  30.871  28.510  1.00  0.00     0.074 A 
ATOM     58  C   UNL A   1      46.520  30.973  28.037  1.00  0.00     0.031 C 
ATOM     59  C   UNL A   1      44.496  31.864  29.162  1.00  0.00     0.034 A 
BRANCH  46  60
ATOM     60  C   UNL A   1      38.697  30.438  30.885  1.00  0.00     0.023 A 
ATOM     61  C   UNL A   1      37.658  31.076  30.183  1.00  0.00     0.031 A 
ATOM     62  C   UNL A   1      38.522  30.220  32.263  1.00  0.00     0.131 A 
ATOM     63  C   UNL A   1      36.518  31.522  30.871  1.00  0.00     0.055 A 
ATOM     64  C   UNL A   1      37.356  30.607  32.930  1.00  0.00     0.041 A 
ATOM     65  F   UNL A   1      39.488  29.638  32.990  1.00  0.00    -0.206 F 
ATOM     66  C   UNL A   1      36.351  31.273  32.235  1.00  0.00     0.022 A 
BRANCH  63  67
ATOM     67  S   UNL A   1      35.307  32.540  29.983  1.00  0.00     0.124 S 
ATOM     68  O   UNL A   1      34.332  32.824  31.032  1.00  0.00    -0.237 OA
ATOM     69  O   UNL A   1      36.112  33.670  29.534  1.00  0.00    -0.237 OA
ATOM     70  O   UNL A   1      34.829  31.655  28.921  1.00  0.00    -0.744 OA
ENDBRANCH  63  67
ENDBRANCH  46  60
BRANCH  47  71
ATOM     71  C   UNL A   1      46.992  27.194  26.197  1.00  0.00     0.023 A 
ATOM     72  C   UNL A   1      48.054  26.561  26.858  1.00  0.00     0.031 A 
ATOM     73  C   UNL A   1      47.098  27.389  24.807  1.00  0.00     0.131 A 
ATOM     74  C   UNL A   1      49.192  26.174  26.135  1.00  0.00     0.055 A 
ATOM     75  C   UNL A   1      48.211  26.960  24.084  1.00  0.00     0.041 A 
ATOM     76  F   UNL A   1      46.104  27.985  24.127  1.00  0.00    -0.206 F 
ATOM     77  C   UNL A   1      49.272  26.357  24.751  1.00  0.00     0.022 A 
BRANCH  74  78
ATOM     78  S   UNL A   1      50.604  25.490  27.043  1.00  0.00     0.124 S 
ATOM     79  O   UNL A   1      50.029  24.284  27.628  1.00  0.00    -0.237 OA
ATOM     80  O   UNL A   1      51.577  25.284  25.975  1.00  0.00    -0.237 OA
ATOM     81  O   UNL A   1      50.940  26.546  27.995  1.00  0.00    -0.744 OA
ENDBRANCH  74  78
ENDBRANCH  47  71
BRANCH  59  82
ATOM     82  C   UNL A   1      45.284  33.120  29.418  1.00  0.00     0.023 A 
ATOM     83  C   UNL A   1      45.237  34.208  28.530  1.00  0.00     0.031 A 
ATOM     84  C   UNL A   1      46.129  33.207  30.538  1.00  0.00     0.131 A 
ATOM     85  C   UNL A   1      46.069  35.316  28.744  1.00  0.00     0.055 A 
ATOM     86  C   UNL A   1      46.915  34.335  30.774  1.00  0.00     0.041 A 
ATOM     87  F   UNL A   1      46.209  32.192  31.412  1.00  0.00    -0.206 F 
ATOM     88  C   UNL A   1      46.898  35.391  29.867  1.00  0.00     0.022 A 
BRANCH  85  89
ATOM     89  S   UNL A   1      46.119  36.621  27.486  1.00  0.00     0.124 S 
ATOM     90  O   UNL A   1      44.719  36.710  27.085  1.00  0.00    -0.237 OA
ATOM     91  O   UNL A   1      46.640  37.759  28.237  1.00  0.00    -0.237 OA
ATOM     92  O   UNL A   1      47.022  36.083  26.470  1.00  0.00    -0.744 OA
ENDBRANCH  85  89
ENDBRANCH  59  82
ENDBRANCH  33  34
ENDBRANCH  26  28
ENDBRANCH  25  26
ENDBRANCH  24  25
ENDBRANCH   1  24
TORSDOF 17
ENDMDL
