MODEL 1
REMARK VINA RESULT:     -11.6      0.000      0.000
REMARK SMILES C[C@@H](C(=O)OCCOC(=O)c1ccc(-c2c3nc(c(-c4cc(S(=O)(=O)[O-])ccc4F)c4ccc([nH]4)c(-c4cc(S(=O)(=O)[O-])ccc4F)c4nc(c(-c5cc(S(=O)(=O)[O-])ccc5F)c5ccc2[nH]5)C=C4)C=C3)cc1)c1ccc(C[C@H]2CCCC2=O)cc1
REMARK SMILES IDX 6 1 5 2 3 3 4 4 2 5 1 6 74 7 75 8 86 9 76 10 85 11 77 12
REMARK SMILES IDX 78 13 79 14 80 15 83 16 81 17 82 18 84 19 7 20 8 21 9 22
REMARK SMILES IDX 10 23 11 24 12 25 73 26 13 27 72 28 14 29 15 30 16 31 66 32
REMARK SMILES IDX 17 33 71 34 65 35 67 36 18 37 70 38 64 39 63 40 19 42 51 43
REMARK SMILES IDX 31 44 50 45 32 46 35 47 49 48 68 49 33 50 34 51 48 53 69 54
REMARK SMILES IDX 36 55 20 56 21 57 29 58 22 59 28 60 30 61 27 62 23 63 24 64
REMARK SMILES IDX 25 65 26 66 52 67 53 68 61 69 54 70 60 71 62 72 59 73 55 74
REMARK SMILES IDX 56 75 57 76 58 77 37 78 38 79 46 80 39 81 45 82 47 83 44 84
REMARK SMILES IDX 40 85 41 86 42 87 43 88
REMARK H PARENT 67 41 35 52
REMARK Flexibility Score: inf
ROOT
ATOM      1  C   UNL A   1      34.877  21.264  24.811  1.00  0.00     0.274 C 
ENDROOT
BRANCH   1   2
ATOM      2  O   UNL A   1      33.874  20.868  25.767  1.00  0.00    -0.462 OA
BRANCH   2   3
ATOM      3  C   UNL A   1      33.674  21.731  26.802  1.00  0.00     0.313 C 
ATOM      4  O   UNL A   1      34.378  21.703  27.806  1.00  0.00    -0.252 OA
BRANCH   3   5
ATOM      5  C   UNL A   1      32.426  22.640  26.626  1.00  0.00     0.126 C 
ATOM      6  C   UNL A   1      31.412  22.013  25.650  1.00  0.00     0.025 C 
BRANCH   5   7
ATOM      7  C   UNL A   1      32.743  24.108  26.277  1.00  0.00    -0.034 A 
ATOM      8  C   UNL A   1      31.801  25.121  26.492  1.00  0.00     0.005 A 
ATOM      9  C   UNL A   1      33.979  24.519  25.738  1.00  0.00     0.005 A 
ATOM     10  C   UNL A   1      32.116  26.466  26.337  1.00  0.00     0.004 A 
ATOM     11  C   UNL A   1      34.273  25.880  25.509  1.00  0.00     0.004 A 
ATOM     12  C   UNL A   1      33.342  26.874  25.818  1.00  0.00    -0.047 A 
BRANCH  12  13
ATOM     13  C   UNL A   1      33.660  28.350  25.702  1.00  0.00     0.047 C 
BRANCH  13  14
ATOM     14  C   UNL A   1      33.280  29.074  24.397  1.00  0.00     0.060 C 
ATOM     15  C   UNL A   1      33.988  28.551  23.144  1.00  0.00     0.012 C 
ATOM     16  C   UNL A   1      31.831  28.938  23.983  1.00  0.00     0.136 C 
ATOM     17  C   UNL A   1      33.027  27.562  22.495  1.00  0.00     0.009 C 
ATOM     18  C   UNL A   1      31.643  28.139  22.727  1.00  0.00     0.076 C 
ATOM     19  O   UNL A   1      30.877  29.386  24.602  1.00  0.00    -0.299 OA
ENDBRANCH  13  14
ENDBRANCH  12  13
ENDBRANCH   5   7
ENDBRANCH   3   5
ENDBRANCH   2   3
ENDBRANCH   1   2
BRANCH   1  20
ATOM     20  C   UNL A   1      36.203  20.548  25.077  1.00  0.00     0.275 C 
BRANCH  20  21
ATOM     21  O   UNL A   1      37.346  21.414  24.908  1.00  0.00    -0.458 OA
BRANCH  21  22
ATOM     22  C   UNL A   1      38.462  21.021  25.577  1.00  0.00     0.338 C 
ATOM     23  O   UNL A   1      38.895  19.884  25.644  1.00  0.00    -0.246 OA
BRANCH  22  24
ATOM     24  C   UNL A   1      39.185  22.189  26.128  1.00  0.00     0.060 A 
ATOM     25  C   UNL A   1      38.655  23.447  25.855  1.00  0.00     0.016 A 
ATOM     26  C   UNL A   1      40.389  22.086  26.832  1.00  0.00     0.016 A 
ATOM     27  C   UNL A   1      39.284  24.598  26.333  1.00  0.00     0.010 A 
ATOM     28  C   UNL A   1      41.038  23.252  27.289  1.00  0.00     0.010 A 
ATOM     29  C   UNL A   1      40.476  24.519  27.061  1.00  0.00    -0.014 A 
BRANCH  29  30
ATOM     30  C   UNL A   1      41.124  25.792  27.492  1.00  0.00     0.031 A 
ATOM     31  C   UNL A   1      42.405  26.223  26.841  1.00  0.00     0.074 A 
ATOM     32  C   UNL A   1      40.526  26.614  28.377  1.00  0.00     0.049 A 
ATOM     33  N   UNL A   1      43.093  27.323  27.010  1.00  0.00    -0.248 NA
ATOM     34  C   UNL A   1      42.996  25.280  25.883  1.00  0.00     0.031 C 
ATOM     35  C   UNL A   1      39.261  26.328  29.041  1.00  0.00     0.029 A 
ATOM     36  N   UNL A   1      40.858  27.878  28.821  1.00  0.00    -0.354 N 
ATOM     37  C   UNL A   1      44.236  27.176  26.234  1.00  0.00     0.074 A 
ATOM     38  C   UNL A   1      44.115  25.904  25.549  1.00  0.00     0.031 C 
ATOM     39  C   UNL A   1      38.885  27.411  29.741  1.00  0.00     0.029 A 
ATOM     40  C   UNL A   1      39.876  28.472  29.593  1.00  0.00     0.049 A 
ATOM     41  H   UNL A   1      41.714  28.315  28.609  1.00  0.00     0.167 HD
ATOM     42  C   UNL A   1      45.310  28.000  26.150  1.00  0.00     0.034 A 
ATOM     43  C   UNL A   1      39.777  29.729  30.090  1.00  0.00     0.034 A 
ATOM     44  C   UNL A   1      45.429  29.250  26.861  1.00  0.00     0.049 A 
ATOM     45  C   UNL A   1      40.972  30.649  29.937  1.00  0.00     0.074 A 
ATOM     46  C   UNL A   1      46.505  30.121  26.894  1.00  0.00     0.029 A 
ATOM     47  N   UNL A   1      44.450  29.805  27.674  1.00  0.00    -0.354 N 
ATOM     48  N   UNL A   1      42.075  30.473  29.244  1.00  0.00    -0.248 NA
ATOM     49  C   UNL A   1      40.934  31.917  30.683  1.00  0.00     0.031 C 
ATOM     50  C   UNL A   1      46.208  31.157  27.785  1.00  0.00     0.029 A 
ATOM     51  C   UNL A   1      44.909  30.989  28.235  1.00  0.00     0.049 A 
ATOM     52  H   UNL A   1      43.559  29.416  27.831  1.00  0.00     0.167 HD
ATOM     53  C   UNL A   1      42.865  31.594  29.496  1.00  0.00     0.074 A 
ATOM     54  C   UNL A   1      42.085  32.475  30.336  1.00  0.00     0.031 C 
ATOM     55  C   UNL A   1      44.135  31.854  29.096  1.00  0.00     0.034 A 
BRANCH  42  56
ATOM     56  C   UNL A   1      46.496  27.491  25.370  1.00  0.00     0.023 A 
ATOM     57  C   UNL A   1      46.832  27.990  24.102  1.00  0.00     0.031 A 
ATOM     58  C   UNL A   1      47.262  26.430  25.889  1.00  0.00     0.131 A 
ATOM     59  C   UNL A   1      47.856  27.375  23.363  1.00  0.00     0.055 A 
ATOM     60  C   UNL A   1      48.334  25.883  25.186  1.00  0.00     0.041 A 
ATOM     61  F   UNL A   1      46.964  25.892  27.082  1.00  0.00    -0.206 F 
ATOM     62  C   UNL A   1      48.626  26.344  23.907  1.00  0.00     0.022 A 
BRANCH  59  63
ATOM     63  S   UNL A   1      48.054  27.828  21.618  1.00  0.00     0.124 S 
ATOM     64  O   UNL A   1      48.300  26.526  21.002  1.00  0.00    -0.237 OA
ATOM     65  O   UNL A   1      46.774  28.451  21.306  1.00  0.00    -0.237 OA
ATOM     66  O   UNL A   1      49.203  28.732  21.627  1.00  0.00    -0.744 OA
ENDBRANCH  59  63
ENDBRANCH  42  56
BRANCH  43  67
ATOM     67  C   UNL A   1      38.552  30.218  30.812  1.00  0.00     0.023 A 
ATOM     68  C   UNL A   1      37.516  30.879  30.116  1.00  0.00     0.031 A 
ATOM     69  C   UNL A   1      38.430  30.138  32.211  1.00  0.00     0.131 A 
ATOM     70  C   UNL A   1      36.451  31.474  30.819  1.00  0.00     0.055 A 
ATOM     71  C   UNL A   1      37.322  30.649  32.895  1.00  0.00     0.041 A 
ATOM     72  F   UNL A   1      39.401  29.581  32.950  1.00  0.00    -0.206 F 
ATOM     73  C   UNL A   1      36.332  31.337  32.201  1.00  0.00     0.022 A 
BRANCH  70  74
ATOM     74  S   UNL A   1      35.300  32.562  29.925  1.00  0.00     0.124 S 
ATOM     75  O   UNL A   1      34.849  31.692  28.843  1.00  0.00    -0.237 OA
ATOM     76  O   UNL A   1      34.311  32.875  30.950  1.00  0.00    -0.237 OA
ATOM     77  O   UNL A   1      36.141  33.683  29.510  1.00  0.00    -0.744 OA
ENDBRANCH  70  74
ENDBRANCH  43  67
BRANCH  55  78
ATOM     78  C   UNL A   1      44.766  33.144  29.573  1.00  0.00     0.023 A 
ATOM     79  C   UNL A   1      44.684  34.331  28.821  1.00  0.00     0.031 A 
ATOM     80  C   UNL A   1      45.447  33.193  30.803  1.00  0.00     0.131 A 
ATOM     81  C   UNL A   1      45.315  35.499  29.278  1.00  0.00     0.055 A 
ATOM     82  C   UNL A   1      46.018  34.372  31.283  1.00  0.00     0.041 A 
ATOM     83  F   UNL A   1      45.561  32.093  31.565  1.00  0.00    -0.206 F 
ATOM     84  C   UNL A   1      45.966  35.532  30.514  1.00  0.00     0.022 A 
BRANCH  81  85
ATOM     85  S   UNL A   1      45.354  36.957  28.197  1.00  0.00     0.124 S 
ATOM     86  O   UNL A   1      46.689  36.868  27.613  1.00  0.00    -0.237 OA
ATOM     87  O   UNL A   1      44.242  36.703  27.288  1.00  0.00    -0.237 OA
ATOM     88  O   UNL A   1      45.157  38.074  29.120  1.00  0.00    -0.744 OA
ENDBRANCH  81  85
ENDBRANCH  55  78
ENDBRANCH  29  30
ENDBRANCH  22  24
ENDBRANCH  21  22
ENDBRANCH  20  21
ENDBRANCH   1  20
TORSDOF 17
ENDMDL
MODEL 2
REMARK VINA RESULT:     -11.5      1.681      2.182
REMARK SMILES C[C@@H](C(=O)OCCOC(=O)c1ccc(-c2c3nc(c(-c4cc(S(=O)(=O)[O-])ccc4F)c4ccc([nH]4)c(-c4cc(S(=O)(=O)[O-])ccc4F)c4nc(c(-c5cc(S(=O)(=O)[O-])ccc5F)c5ccc2[nH]5)C=C4)C=C3)cc1)c1ccc(C[C@H]2CCCC2=O)cc1
REMARK SMILES IDX 6 1 5 2 3 3 4 4 2 5 1 6 74 7 75 8 86 9 76 10 85 11 77 12
REMARK SMILES IDX 78 13 79 14 80 15 83 16 81 17 82 18 84 19 7 20 8 21 9 22
REMARK SMILES IDX 10 23 11 24 12 25 73 26 13 27 72 28 14 29 15 30 16 31 66 32
REMARK SMILES IDX 17 33 71 34 65 35 67 36 18 37 70 38 64 39 63 40 19 42 51 43
REMARK SMILES IDX 31 44 50 45 32 46 35 47 49 48 68 49 33 50 34 51 48 53 69 54
REMARK SMILES IDX 36 55 20 56 21 57 29 58 22 59 28 60 30 61 27 62 23 63 24 64
REMARK SMILES IDX 25 65 26 66 52 67 53 68 61 69 54 70 60 71 62 72 59 73 55 74
REMARK SMILES IDX 56 75 57 76 58 77 37 78 38 79 46 80 39 81 45 82 47 83 44 84
REMARK SMILES IDX 40 85 41 86 42 87 43 88
REMARK H PARENT 67 41 35 52
REMARK Flexibility Score: inf
ROOT
ATOM      1  C   UNL A   1      35.844  19.959  24.996  1.00  0.00     0.274 C 
ENDROOT
BRANCH   1   2
ATOM      2  O   UNL A   1      35.522  21.357  25.135  1.00  0.00    -0.462 OA
BRANCH   2   3
ATOM      3  C   UNL A   1      34.559  21.825  24.293  1.00  0.00     0.313 C 
ATOM      4  O   UNL A   1      33.454  21.297  24.223  1.00  0.00    -0.252 OA
BRANCH   3   5
ATOM      5  C   UNL A   1      35.040  22.986  23.379  1.00  0.00     0.126 C 
ATOM      6  C   UNL A   1      36.566  22.936  23.169  1.00  0.00     0.025 C 
BRANCH   5   7
ATOM      7  C   UNL A   1      34.553  24.386  23.803  1.00  0.00    -0.034 A 
ATOM      8  C   UNL A   1      34.003  25.273  22.872  1.00  0.00     0.005 A 
ATOM      9  C   UNL A   1      34.622  24.851  25.133  1.00  0.00     0.005 A 
ATOM     10  C   UNL A   1      33.413  26.473  23.255  1.00  0.00     0.004 A 
ATOM     11  C   UNL A   1      34.092  26.103  25.509  1.00  0.00     0.004 A 
ATOM     12  C   UNL A   1      33.468  26.927  24.569  1.00  0.00    -0.047 A 
BRANCH  12  13
ATOM     13  C   UNL A   1      32.779  28.219  24.951  1.00  0.00     0.047 C 
BRANCH  13  14
ATOM     14  C   UNL A   1      31.260  28.185  25.199  1.00  0.00     0.060 C 
ATOM     15  C   UNL A   1      30.401  28.294  23.937  1.00  0.00     0.012 C 
ATOM     16  C   UNL A   1      30.733  26.897  25.793  1.00  0.00     0.136 C 
ATOM     17  C   UNL A   1      30.043  26.865  23.544  1.00  0.00     0.009 C 
ATOM     18  C   UNL A   1      29.852  26.126  24.855  1.00  0.00     0.076 C 
ATOM     19  O   UNL A   1      31.004  26.472  26.906  1.00  0.00    -0.299 OA
ENDBRANCH  13  14
ENDBRANCH  12  13
ENDBRANCH   5   7
ENDBRANCH   3   5
ENDBRANCH   2   3
ENDBRANCH   1   2
BRANCH   1  20
ATOM     20  C   UNL A   1      37.358  19.741  24.997  1.00  0.00     0.275 C 
BRANCH  20  21
ATOM     21  O   UNL A   1      38.089  20.919  25.402  1.00  0.00    -0.458 OA
BRANCH  21  22
ATOM     22  C   UNL A   1      39.275  20.670  26.018  1.00  0.00     0.338 C 
ATOM     23  O   UNL A   1      39.855  19.599  26.051  1.00  0.00    -0.246 OA
BRANCH  22  24
ATOM     24  C   UNL A   1      39.863  21.918  26.554  1.00  0.00     0.060 A 
ATOM     25  C   UNL A   1      39.371  23.117  26.046  1.00  0.00     0.016 A 
ATOM     26  C   UNL A   1      40.917  21.939  27.473  1.00  0.00     0.016 A 
ATOM     27  C   UNL A   1      39.880  24.336  26.496  1.00  0.00     0.010 A 
ATOM     28  C   UNL A   1      41.449  23.171  27.903  1.00  0.00     0.010 A 
ATOM     29  C   UNL A   1      40.918  24.383  27.433  1.00  0.00    -0.014 A 
BRANCH  29  30
ATOM     30  C   UNL A   1      41.452  25.720  27.826  1.00  0.00     0.031 A 
ATOM     31  C   UNL A   1      42.739  26.204  27.225  1.00  0.00     0.074 A 
ATOM     32  C   UNL A   1      40.748  26.545  28.626  1.00  0.00     0.049 A 
ATOM     33  N   UNL A   1      43.341  27.356  27.370  1.00  0.00    -0.248 NA
ATOM     34  C   UNL A   1      43.449  25.253  26.358  1.00  0.00     0.031 C 
ATOM     35  C   UNL A   1      39.467  26.207  29.233  1.00  0.00     0.029 A 
ATOM     36  N   UNL A   1      40.968  27.851  29.015  1.00  0.00    -0.354 N 
ATOM     37  C   UNL A   1      44.536  27.248  26.669  1.00  0.00     0.074 A 
ATOM     38  C   UNL A   1      44.541  25.936  26.053  1.00  0.00     0.031 C 
ATOM     39  C   UNL A   1      38.978  27.298  29.847  1.00  0.00     0.029 A 
ATOM     40  C   UNL A   1      39.904  28.415  29.694  1.00  0.00     0.049 A 
ATOM     41  H   UNL A   1      41.805  28.334  28.827  1.00  0.00     0.167 HD
ATOM     42  C   UNL A   1      45.556  28.139  26.599  1.00  0.00     0.034 A 
ATOM     43  C   UNL A   1      39.692  29.687  30.111  1.00  0.00     0.034 A 
ATOM     44  C   UNL A   1      45.549  29.431  27.242  1.00  0.00     0.049 A 
ATOM     45  C   UNL A   1      40.830  30.678  29.973  1.00  0.00     0.074 A 
ATOM     46  C   UNL A   1      46.560  30.375  27.286  1.00  0.00     0.029 A 
ATOM     47  N   UNL A   1      44.487  29.959  27.965  1.00  0.00    -0.354 N 
ATOM     48  N   UNL A   1      41.982  30.544  29.356  1.00  0.00    -0.248 NA
ATOM     49  C   UNL A   1      40.663  31.980  30.642  1.00  0.00     0.031 C 
ATOM     50  C   UNL A   1      46.142  31.435  28.098  1.00  0.00     0.029 A 
ATOM     51  C   UNL A   1      44.832  31.201  28.481  1.00  0.00     0.049 A 
ATOM     52  H   UNL A   1      43.616  29.518  28.092  1.00  0.00     0.167 HD
ATOM     53  C   UNL A   1      42.679  31.728  29.587  1.00  0.00     0.074 A 
ATOM     54  C   UNL A   1      41.793  32.596  30.330  1.00  0.00     0.031 C 
ATOM     55  C   UNL A   1      43.951  32.054  29.246  1.00  0.00     0.034 A 
BRANCH  42  56
ATOM     56  C   UNL A   1      46.818  27.673  25.918  1.00  0.00     0.023 A 
ATOM     57  C   UNL A   1      47.114  27.991  24.583  1.00  0.00     0.031 A 
ATOM     58  C   UNL A   1      47.708  26.831  26.612  1.00  0.00     0.131 A 
ATOM     59  C   UNL A   1      48.229  27.406  23.961  1.00  0.00     0.055 A 
ATOM     60  C   UNL A   1      48.861  26.325  26.014  1.00  0.00     0.041 A 
ATOM     61  F   UNL A   1      47.457  26.467  27.879  1.00  0.00    -0.206 F 
ATOM     62  C   UNL A   1      49.119  26.598  24.674  1.00  0.00     0.022 A 
BRANCH  59  63
ATOM     63  S   UNL A   1      48.406  27.579  22.164  1.00  0.00     0.124 S 
ATOM     64  O   UNL A   1      48.623  26.193  21.756  1.00  0.00    -0.237 OA
ATOM     65  O   UNL A   1      47.130  28.167  21.776  1.00  0.00    -0.237 OA
ATOM     66  O   UNL A   1      49.568  28.453  22.017  1.00  0.00    -0.744 OA
ENDBRANCH  59  63
ENDBRANCH  42  56
BRANCH  43  67
ATOM     67  C   UNL A   1      38.395  30.128  30.733  1.00  0.00     0.023 A 
ATOM     68  C   UNL A   1      37.414  30.796  29.968  1.00  0.00     0.031 A 
ATOM     69  C   UNL A   1      38.146  29.994  32.111  1.00  0.00     0.131 A 
ATOM     70  C   UNL A   1      36.277  31.345  30.589  1.00  0.00     0.055 A 
ATOM     71  C   UNL A   1      36.969  30.459  32.706  1.00  0.00     0.041 A 
ATOM     72  F   UNL A   1      39.056  29.427  32.917  1.00  0.00    -0.206 F 
ATOM     73  C   UNL A   1      36.034  31.155  31.948  1.00  0.00     0.022 A 
BRANCH  70  74
ATOM     74  S   UNL A   1      35.191  32.446  29.631  1.00  0.00     0.124 S 
ATOM     75  O   UNL A   1      36.140  33.433  29.127  1.00  0.00    -0.237 OA
ATOM     76  O   UNL A   1      34.626  31.536  28.640  1.00  0.00    -0.237 OA
ATOM     77  O   UNL A   1      34.245  32.946  30.626  1.00  0.00    -0.744 OA
ENDBRANCH  70  74
ENDBRANCH  43  67
BRANCH  55  78
ATOM     78  C   UNL A   1      44.464  33.409  29.683  1.00  0.00     0.023 A 
ATOM     79  C   UNL A   1      45.070  33.603  30.939  1.00  0.00     0.031 A 
ATOM     80  C   UNL A   1      44.358  34.521  28.827  1.00  0.00     0.131 A 
ATOM     81  C   UNL A   1      45.498  34.885  31.324  1.00  0.00     0.055 A 
ATOM     82  C   UNL A   1      44.843  35.779  29.189  1.00  0.00     0.041 A 
ATOM     83  F   UNL A   1      43.788  34.400  27.617  1.00  0.00    -0.206 F 
ATOM     84  C   UNL A   1      45.405  35.970  30.448  1.00  0.00     0.022 A 
BRANCH  81  85
ATOM     85  S   UNL A   1      46.097  35.138  33.017  1.00  0.00     0.124 S 
ATOM     86  O   UNL A   1      46.642  36.490  32.950  1.00  0.00    -0.237 OA
ATOM     87  O   UNL A   1      44.881  34.978  33.808  1.00  0.00    -0.237 OA
ATOM     88  O   UNL A   1      47.091  34.079  33.192  1.00  0.00    -0.744 OA
ENDBRANCH  81  85
ENDBRANCH  55  78
ENDBRANCH  29  30
ENDBRANCH  22  24
ENDBRANCH  21  22
ENDBRANCH  20  21
ENDBRANCH   1  20
TORSDOF 17
ENDMDL
MODEL 3
REMARK VINA RESULT:     -11.3      1.499      7.850
REMARK SMILES C[C@@H](C(=O)OCCOC(=O)c1ccc(-c2c3nc(c(-c4cc(S(=O)(=O)[O-])ccc4F)c4ccc([nH]4)c(-c4cc(S(=O)(=O)[O-])ccc4F)c4nc(c(-c5cc(S(=O)(=O)[O-])ccc5F)c5ccc2[nH]5)C=C4)C=C3)cc1)c1ccc(C[C@H]2CCCC2=O)cc1
REMARK SMILES IDX 6 1 5 2 3 3 4 4 2 5 1 6 74 7 75 8 86 9 76 10 85 11 77 12
REMARK SMILES IDX 78 13 79 14 80 15 83 16 81 17 82 18 84 19 7 20 8 21 9 22
REMARK SMILES IDX 10 23 11 24 12 25 73 26 13 27 72 28 14 29 15 30 16 31 66 32
REMARK SMILES IDX 17 33 71 34 65 35 67 36 18 37 70 38 64 39 63 40 19 42 51 43
REMARK SMILES IDX 31 44 50 45 32 46 35 47 49 48 68 49 33 50 34 51 48 53 69 54
REMARK SMILES IDX 36 55 20 56 21 57 29 58 22 59 28 60 30 61 27 62 23 63 24 64
REMARK SMILES IDX 25 65 26 66 52 67 53 68 61 69 54 70 60 71 62 72 59 73 55 74
REMARK SMILES IDX 56 75 57 76 58 77 37 78 38 79 46 80 39 81 45 82 47 83 44 84
REMARK SMILES IDX 40 85 41 86 42 87 43 88
REMARK H PARENT 67 41 35 52
REMARK Flexibility Score: inf
ROOT
ATOM      1  C   UNL A   1      34.816  20.470  25.417  1.00  0.00     0.274 C 
ENDROOT
BRANCH   1   2
ATOM      2  O   UNL A   1      33.949  20.578  24.270  1.00  0.00    -0.462 OA
BRANCH   2   3
ATOM      3  C   UNL A   1      32.614  20.505  24.533  1.00  0.00     0.313 C 
ATOM      4  O   UNL A   1      32.151  19.642  25.271  1.00  0.00    -0.252 OA
BRANCH   3   5
ATOM      5  C   UNL A   1      31.763  21.525  23.727  1.00  0.00     0.126 C 
ATOM      6  C   UNL A   1      32.330  21.730  22.309  1.00  0.00     0.025 C 
BRANCH   5   7
ATOM      7  C   UNL A   1      31.500  22.861  24.451  1.00  0.00    -0.034 A 
ATOM      8  C   UNL A   1      31.841  23.031  25.798  1.00  0.00     0.005 A 
ATOM      9  C   UNL A   1      30.919  23.977  23.815  1.00  0.00     0.005 A 
ATOM     10  C   UNL A   1      31.762  24.269  26.427  1.00  0.00     0.004 A 
ATOM     11  C   UNL A   1      30.768  25.213  24.477  1.00  0.00     0.004 A 
ATOM     12  C   UNL A   1      31.201  25.375  25.796  1.00  0.00    -0.047 A 
BRANCH  12  13
ATOM     13  C   UNL A   1      31.170  26.713  26.502  1.00  0.00     0.047 C 
BRANCH  13  14
ATOM     14  C   UNL A   1      32.498  27.476  26.669  1.00  0.00     0.060 C 
ATOM     15  C   UNL A   1      33.601  27.065  25.691  1.00  0.00     0.012 C 
ATOM     16  C   UNL A   1      32.423  28.964  26.406  1.00  0.00     0.136 C 
ATOM     17  C   UNL A   1      33.544  28.066  24.542  1.00  0.00     0.009 C 
ATOM     18  C   UNL A   1      33.184  29.392  25.185  1.00  0.00     0.076 C 
ATOM     19  O   UNL A   1      31.787  29.767  27.073  1.00  0.00    -0.299 OA
ENDBRANCH  13  14
ENDBRANCH  12  13
ENDBRANCH   5   7
ENDBRANCH   3   5
ENDBRANCH   2   3
ENDBRANCH   1   2
BRANCH   1  20
ATOM     20  C   UNL A   1      36.287  20.524  25.001  1.00  0.00     0.275 C 
BRANCH  20  21
ATOM     21  O   UNL A   1      37.041  21.499  25.753  1.00  0.00    -0.458 OA
BRANCH  21  22
ATOM     22  C   UNL A   1      38.360  21.207  25.901  1.00  0.00     0.338 C 
ATOM     23  O   UNL A   1      38.890  20.137  25.659  1.00  0.00    -0.246 OA
BRANCH  22  24
ATOM     24  C   UNL A   1      39.127  22.414  26.284  1.00  0.00     0.060 A 
ATOM     25  C   UNL A   1      38.579  23.647  25.940  1.00  0.00     0.016 A 
ATOM     26  C   UNL A   1      40.384  22.366  26.896  1.00  0.00     0.016 A 
ATOM     27  C   UNL A   1      39.245  24.831  26.259  1.00  0.00     0.010 A 
ATOM     28  C   UNL A   1      41.069  23.562  27.190  1.00  0.00     0.010 A 
ATOM     29  C   UNL A   1      40.492  24.808  26.893  1.00  0.00    -0.014 A 
BRANCH  29  30
ATOM     30  C   UNL A   1      41.174  26.110  27.153  1.00  0.00     0.031 A 
ATOM     31  C   UNL A   1      40.589  27.058  28.159  1.00  0.00     0.074 A 
ATOM     32  C   UNL A   1      42.360  26.403  26.583  1.00  0.00     0.049 A 
ATOM     33  N   UNL A   1      41.056  28.202  28.590  1.00  0.00    -0.248 NA
ATOM     34  C   UNL A   1      39.298  26.671  28.743  1.00  0.00     0.031 C 
ATOM     35  C   UNL A   1      43.048  25.544  25.629  1.00  0.00     0.029 A 
ATOM     36  N   UNL A   1      43.227  27.461  26.767  1.00  0.00    -0.354 N 
ATOM     37  C   UNL A   1      40.084  28.707  29.444  1.00  0.00     0.074 A 
ATOM     38  C   UNL A   1      39.031  27.714  29.513  1.00  0.00     0.031 C 
ATOM     39  C   UNL A   1      44.260  26.066  25.373  1.00  0.00     0.029 A 
ATOM     40  C   UNL A   1      44.444  27.299  26.131  1.00  0.00     0.049 A 
ATOM     41  H   UNL A   1      42.999  28.256  27.301  1.00  0.00     0.167 HD
ATOM     42  C   UNL A   1      40.050  29.913  30.064  1.00  0.00     0.034 A 
ATOM     43  C   UNL A   1      45.576  28.041  26.181  1.00  0.00     0.034 A 
ATOM     44  C   UNL A   1      41.094  30.905  29.963  1.00  0.00     0.049 A 
ATOM     45  C   UNL A   1      45.529  29.361  26.925  1.00  0.00     0.074 A 
ATOM     46  C   UNL A   1      41.121  32.182  30.498  1.00  0.00     0.029 A 
ATOM     47  N   UNL A   1      42.289  30.742  29.274  1.00  0.00    -0.354 N 
ATOM     48  N   UNL A   1      44.577  29.854  27.686  1.00  0.00    -0.248 NA
ATOM     49  C   UNL A   1      46.689  30.254  26.770  1.00  0.00     0.031 C 
ATOM     50  C   UNL A   1      42.291  32.817  30.068  1.00  0.00     0.029 A 
ATOM     51  C   UNL A   1      43.044  31.905  29.346  1.00  0.00     0.049 A 
ATOM     52  H   UNL A   1      42.562  29.921  28.803  1.00  0.00     0.167 HD
ATOM     53  C   UNL A   1      45.017  31.119  28.072  1.00  0.00     0.074 A 
ATOM     54  C   UNL A   1      46.347  31.284  27.530  1.00  0.00     0.031 C 
ATOM     55  C   UNL A   1      44.363  32.074  28.780  1.00  0.00     0.034 A 
BRANCH  42  56
ATOM     56  C   UNL A   1      38.774  30.271  30.782  1.00  0.00     0.023 A 
ATOM     57  C   UNL A   1      37.707  30.920  30.141  1.00  0.00     0.031 A 
ATOM     58  C   UNL A   1      38.660  30.014  32.161  1.00  0.00     0.131 A 
ATOM     59  C   UNL A   1      36.607  31.360  30.895  1.00  0.00     0.055 A 
ATOM     60  C   UNL A   1      37.525  30.374  32.887  1.00  0.00     0.041 A 
ATOM     61  F   UNL A   1      39.663  29.426  32.832  1.00  0.00    -0.206 F 
ATOM     62  C   UNL A   1      36.497  31.068  32.257  1.00  0.00     0.022 A 
BRANCH  59  63
ATOM     63  S   UNL A   1      35.405  32.466  30.107  1.00  0.00     0.124 S 
ATOM     64  O   UNL A   1      36.223  33.646  29.837  1.00  0.00    -0.237 OA
ATOM     65  O   UNL A   1      34.986  31.698  28.941  1.00  0.00    -0.237 OA
ATOM     66  O   UNL A   1      34.382  32.648  31.135  1.00  0.00    -0.744 OA
ENDBRANCH  59  63
ENDBRANCH  42  56
BRANCH  43  67
ATOM     67  C   UNL A   1      46.849  27.619  25.499  1.00  0.00     0.023 A 
ATOM     68  C   UNL A   1      47.106  27.977  24.157  1.00  0.00     0.031 A 
ATOM     69  C   UNL A   1      47.782  26.770  26.121  1.00  0.00     0.131 A 
ATOM     70  C   UNL A   1      48.219  27.448  23.478  1.00  0.00     0.055 A 
ATOM     71  C   UNL A   1      48.936  26.322  25.470  1.00  0.00     0.041 A 
ATOM     72  F   UNL A   1      47.579  26.333  27.374  1.00  0.00    -0.206 F 
ATOM     73  C   UNL A   1      49.152  26.647  24.135  1.00  0.00     0.022 A 
BRANCH  70  74
ATOM     74  S   UNL A   1      48.356  27.691  21.681  1.00  0.00     0.124 S 
ATOM     75  O   UNL A   1      49.446  28.657  21.594  1.00  0.00    -0.237 OA
ATOM     76  O   UNL A   1      48.654  26.344  21.208  1.00  0.00    -0.237 OA
ATOM     77  O   UNL A   1      47.040  28.205  21.303  1.00  0.00    -0.744 OA
ENDBRANCH  70  74
ENDBRANCH  43  67
BRANCH  55  78
ATOM     78  C   UNL A   1      45.078  33.389  29.004  1.00  0.00     0.023 A 
ATOM     79  C   UNL A   1      45.854  33.624  30.155  1.00  0.00     0.031 A 
ATOM     80  C   UNL A   1      44.994  34.417  28.048  1.00  0.00     0.131 A 
ATOM     81  C   UNL A   1      46.471  34.871  30.345  1.00  0.00     0.055 A 
ATOM     82  C   UNL A   1      45.661  35.632  28.212  1.00  0.00     0.041 A 
ATOM     83  F   UNL A   1      44.268  34.254  26.931  1.00  0.00    -0.206 F 
ATOM     84  C   UNL A   1      46.394  35.870  29.371  1.00  0.00     0.022 A 
BRANCH  81  85
ATOM     85  S   UNL A   1      47.302  35.208  31.923  1.00  0.00     0.124 S 
ATOM     86  O   UNL A   1      46.234  35.822  32.706  1.00  0.00    -0.237 OA
ATOM     87  O   UNL A   1      47.720  33.876  32.348  1.00  0.00    -0.237 OA
ATOM     88  O   UNL A   1      48.392  36.109  31.551  1.00  0.00    -0.744 OA
ENDBRANCH  81  85
ENDBRANCH  55  78
ENDBRANCH  29  30
ENDBRANCH  22  24
ENDBRANCH  21  22
ENDBRANCH  20  21
ENDBRANCH   1  20
TORSDOF 17
ENDMDL
