MODEL 1
REMARK VINA RESULT:     -12.2      0.000      0.000
REMARK SMILES Cc1n[nH]c(C[N@H+]2CCC[C@H](c3cccc(C(=O)OCCOC(=O)c4ccc(-c5c6nc(c(-c7cc(S(=O)(=O)[O-])ccc7F)c7ccc([nH]7)c(-c7cc(S(=O)(=O)[O-])ccc7F)c7nc(c(-c8cc(S(=O)(=O)[O-])ccc8F)c8ccc5[nH]8)C=C7)C=C6)cc4)c3)C2)n1
REMARK SMILES IDX 20 1 19 2 17 3 18 4 16 5 12 6 13 7 88 8 14 9 15 10 11 11
REMARK SMILES IDX 7 12 8 13 89 14 9 16 10 17 6 18 5 19 1 20 2 21 3 22 90 23
REMARK SMILES IDX 4 24 21 26 22 27 23 28 24 29 25 30 26 31 87 32 27 33 86 34
REMARK SMILES IDX 28 35 29 36 30 37 80 38 31 39 85 40 79 41 81 42 32 43 84 44
REMARK SMILES IDX 78 45 77 46 33 48 65 49 45 50 64 51 46 52 49 53 63 54 82 55
REMARK SMILES IDX 47 56 48 57 62 59 83 60 50 61 34 62 35 63 43 64 36 65 42 66
REMARK SMILES IDX 44 67 41 68 37 69 38 70 39 71 40 72 66 73 67 74 75 75 68 76
REMARK SMILES IDX 74 77 76 78 73 79 69 80 70 81 71 82 72 83 51 84 52 85 60 86
REMARK SMILES IDX 53 87 59 88 61 89 58 90 54 91 55 92 56 93 57 94
REMARK H PARENT 7 15 4 25 81 47 49 58
REMARK Flexibility Score: inf
ROOT
ATOM      1  C   UNL A   1      37.830  19.444  25.097  1.00  0.00     0.275 C 
ENDROOT
BRANCH   1   2
ATOM      2  O   UNL A   1      36.996  20.609  25.067  1.00  0.00    -0.458 OA
BRANCH   2   3
ATOM      3  C   UNL A   1      35.654  20.372  25.057  1.00  0.00     0.338 C 
ATOM      4  O   UNL A   1      35.113  19.310  24.850  1.00  0.00    -0.246 OA
BRANCH   3   5
ATOM      5  C   UNL A   1      34.931  21.617  25.430  1.00  0.00     0.060 A 
ATOM      6  C   UNL A   1      33.943  23.769  24.836  1.00  0.00    -0.038 A 
ATOM      7  C   UNL A   1      33.588  23.934  26.185  1.00  0.00     0.004 A 
ATOM      8  C   UNL A   1      34.667  22.618  24.489  1.00  0.00     0.020 A 
ATOM      9  C   UNL A   1      33.884  22.956  27.138  1.00  0.00     0.001 A 
ATOM     10  C   UNL A   1      34.537  21.787  26.758  1.00  0.00     0.016 A 
BRANCH   6  11
ATOM     11  C   UNL A   1      33.583  24.772  23.742  1.00  0.00     0.074 C 
ATOM     12  N   UNL A   1      31.249  25.361  24.453  1.00  0.00    -0.328 N 
ATOM     13  C   UNL A   1      30.668  24.658  23.307  1.00  0.00     0.262 C 
ATOM     14  C   UNL A   1      32.598  25.890  24.153  1.00  0.00     0.270 C 
ATOM     15  H   UNL A   1      31.352  24.657  25.185  1.00  0.00     0.348 HD
ATOM     16  C   UNL A   1      31.585  23.546  22.793  1.00  0.00     0.062 C 
ATOM     17  C   UNL A   1      32.984  24.082  22.494  1.00  0.00     0.020 C 
BRANCH  12  18
ATOM     18  C   UNL A   1      30.365  26.392  25.021  1.00  0.00     0.340 C 
BRANCH  18  19
ATOM     19  C   UNL A   1      31.041  27.327  25.966  1.00  0.00     0.179 A 
ATOM     20  C   UNL A   1      32.388  30.376  27.088  1.00  0.00     0.092 C 
ATOM     21  C   UNL A   1      31.883  29.001  26.929  1.00  0.00     0.147 A 
ATOM     22  N   UNL A   1      31.606  28.185  27.953  1.00  0.00    -0.159 NA
ATOM     23  N   UNL A   1      31.595  28.491  25.696  1.00  0.00    -0.211 NA
ATOM     24  N   UNL A   1      31.091  27.120  27.313  1.00  0.00    -0.258 N 
ATOM     25  H   UNL A   1      30.788  26.297  27.760  1.00  0.00     0.192 HD
ENDBRANCH  18  19
ENDBRANCH  12  18
ENDBRANCH   6  11
ENDBRANCH   3   5
ENDBRANCH   2   3
ENDBRANCH   1   2
BRANCH   1  26
ATOM     26  C   UNL A   1      39.297  19.835  25.006  1.00  0.00     0.275 C 
BRANCH  26  27
ATOM     27  O   UNL A   1      40.136  18.933  25.727  1.00  0.00    -0.458 OA
BRANCH  27  28
ATOM     28  C   UNL A   1      41.422  19.337  25.853  1.00  0.00     0.338 C 
ATOM     29  O   UNL A   1      42.424  18.657  25.705  1.00  0.00    -0.246 OA
BRANCH  28  30
ATOM     30  C   UNL A   1      41.447  20.685  26.434  1.00  0.00     0.060 A 
ATOM     31  C   UNL A   1      42.223  21.662  25.808  1.00  0.00     0.016 A 
ATOM     32  C   UNL A   1      40.886  20.899  27.704  1.00  0.00     0.016 A 
ATOM     33  C   UNL A   1      42.516  22.822  26.504  1.00  0.00     0.010 A 
ATOM     34  C   UNL A   1      41.190  22.050  28.400  1.00  0.00     0.010 A 
ATOM     35  C   UNL A   1      42.037  22.987  27.814  1.00  0.00    -0.014 A 
BRANCH  35  36
ATOM     36  C   UNL A   1      42.228  24.278  28.459  1.00  0.00     0.031 A 
ATOM     37  C   UNL A   1      41.161  25.225  28.070  1.00  0.00     0.074 A 
ATOM     38  C   UNL A   1      43.149  24.549  29.408  1.00  0.00     0.049 A 
ATOM     39  N   UNL A   1      41.258  26.215  27.247  1.00  0.00    -0.248 NA
ATOM     40  C   UNL A   1      39.772  24.904  28.450  1.00  0.00     0.031 C 
ATOM     41  C   UNL A   1      44.038  23.584  30.060  1.00  0.00     0.029 A 
ATOM     42  N   UNL A   1      43.430  25.716  30.068  1.00  0.00    -0.354 N 
ATOM     43  C   UNL A   1      40.020  26.844  27.312  1.00  0.00     0.074 A 
ATOM     44  C   UNL A   1      39.100  25.858  27.802  1.00  0.00     0.031 C 
ATOM     45  C   UNL A   1      44.586  24.148  31.160  1.00  0.00     0.029 A 
ATOM     46  C   UNL A   1      44.208  25.552  31.214  1.00  0.00     0.049 A 
ATOM     47  H   UNL A   1      43.109  26.596  29.760  1.00  0.00     0.167 HD
ATOM     48  C   UNL A   1      39.977  28.202  27.379  1.00  0.00     0.034 A 
ATOM     49  C   UNL A   1      44.512  26.485  32.159  1.00  0.00     0.034 A 
ATOM     50  C   UNL A   1      41.234  28.767  26.938  1.00  0.00     0.049 A 
ATOM     51  C   UNL A   1      44.424  27.813  31.511  1.00  0.00     0.074 A 
ATOM     52  C   UNL A   1      41.906  28.944  25.749  1.00  0.00     0.029 A 
ATOM     53  N   UNL A   1      42.156  28.902  27.943  1.00  0.00    -0.354 N 
ATOM     54  N   UNL A   1      45.217  28.180  30.541  1.00  0.00    -0.248 NA
ATOM     55  C   UNL A   1      43.221  28.623  31.671  1.00  0.00     0.031 C 
ATOM     56  C   UNL A   1      43.289  29.086  26.081  1.00  0.00     0.029 A 
ATOM     57  C   UNL A   1      43.431  29.045  27.466  1.00  0.00     0.049 A 
ATOM     58  H   UNL A   1      41.927  28.897  28.901  1.00  0.00     0.167 HD
ATOM     59  C   UNL A   1      44.422  28.955  29.724  1.00  0.00     0.074 A 
ATOM     60  C   UNL A   1      43.281  29.340  30.545  1.00  0.00     0.031 C 
ATOM     61  C   UNL A   1      44.564  28.913  28.367  1.00  0.00     0.034 A 
BRANCH  48  62
ATOM     62  C   UNL A   1      39.088  28.979  28.346  1.00  0.00     0.023 A 
ATOM     63  C   UNL A   1      39.335  28.792  29.722  1.00  0.00     0.031 A 
ATOM     64  C   UNL A   1      37.862  29.614  28.033  1.00  0.00     0.131 A 
ATOM     65  C   UNL A   1      38.371  29.136  30.688  1.00  0.00     0.055 A 
ATOM     66  C   UNL A   1      36.926  29.993  28.999  1.00  0.00     0.041 A 
ATOM     67  F   UNL A   1      37.447  29.833  26.781  1.00  0.00    -0.206 F 
ATOM     68  C   UNL A   1      37.164  29.731  30.334  1.00  0.00     0.022 A 
BRANCH  65  69
ATOM     69  S   UNL A   1      38.662  28.664  32.411  1.00  0.00     0.124 S 
ATOM     70  O   UNL A   1      39.441  27.442  32.256  1.00  0.00    -0.237 OA
ATOM     71  O   UNL A   1      39.377  29.828  32.923  1.00  0.00    -0.237 OA
ATOM     72  O   UNL A   1      37.313  28.483  32.943  1.00  0.00    -0.744 OA
ENDBRANCH  65  69
ENDBRANCH  48  62
BRANCH  49  73
ATOM     73  C   UNL A   1      44.629  26.306  33.635  1.00  0.00     0.023 A 
ATOM     74  C   UNL A   1      43.542  26.479  34.525  1.00  0.00     0.031 A 
ATOM     75  C   UNL A   1      45.785  25.691  34.168  1.00  0.00     0.131 A 
ATOM     76  C   UNL A   1      43.636  26.034  35.867  1.00  0.00     0.055 A 
ATOM     77  C   UNL A   1      45.869  25.251  35.491  1.00  0.00     0.041 A 
ATOM     78  F   UNL A   1      46.845  25.415  33.392  1.00  0.00    -0.206 F 
ATOM     79  C   UNL A   1      44.789  25.407  36.343  1.00  0.00     0.022 A 
BRANCH  76  80
ATOM     80  S   UNL A   1      42.214  26.174  37.004  1.00  0.00     0.124 S 
ATOM     81  O   UNL A   1      42.863  26.470  38.276  1.00  0.00    -0.237 OA
ATOM     82  O   UNL A   1      41.434  27.249  36.405  1.00  0.00    -0.237 OA
ATOM     83  O   UNL A   1      41.588  24.852  36.931  1.00  0.00    -0.744 OA
ENDBRANCH  76  80
ENDBRANCH  49  73
BRANCH  61  84
ATOM     84  C   UNL A   1      45.936  28.640  27.809  1.00  0.00     0.023 A 
ATOM     85  C   UNL A   1      46.372  27.424  27.240  1.00  0.00     0.031 A 
ATOM     86  C   UNL A   1      46.860  29.700  27.869  1.00  0.00     0.131 A 
ATOM     87  C   UNL A   1      47.697  27.306  26.768  1.00  0.00     0.055 A 
ATOM     88  C   UNL A   1      48.159  29.587  27.384  1.00  0.00     0.041 A 
ATOM     89  F   UNL A   1      46.506  30.882  28.402  1.00  0.00    -0.206 F 
ATOM     90  C   UNL A   1      48.585  28.384  26.839  1.00  0.00     0.022 A 
BRANCH  87  91
ATOM     91  S   UNL A   1      48.309  25.729  26.091  1.00  0.00     0.124 S 
ATOM     92  O   UNL A   1      49.622  26.070  25.557  1.00  0.00    -0.237 OA
ATOM     93  O   UNL A   1      48.302  24.860  27.265  1.00  0.00    -0.237 OA
ATOM     94  O   UNL A   1      47.309  25.384  25.077  1.00  0.00    -0.744 OA
ENDBRANCH  87  91
ENDBRANCH  61  84
ENDBRANCH  35  36
ENDBRANCH  28  30
ENDBRANCH  27  28
ENDBRANCH  26  27
ENDBRANCH   1  26
TORSDOF 17
ENDMDL
MODEL 2
REMARK VINA RESULT:     -12.1      3.681      8.631
REMARK SMILES Cc1n[nH]c(C[N@H+]2CCC[C@H](c3cccc(C(=O)OCCOC(=O)c4ccc(-c5c6nc(c(-c7cc(S(=O)(=O)[O-])ccc7F)c7ccc([nH]7)c(-c7cc(S(=O)(=O)[O-])ccc7F)c7nc(c(-c8cc(S(=O)(=O)[O-])ccc8F)c8ccc5[nH]8)C=C7)C=C6)cc4)c3)C2)n1
REMARK SMILES IDX 20 1 19 2 17 3 18 4 16 5 12 6 13 7 88 8 14 9 15 10 11 11
REMARK SMILES IDX 7 12 8 13 89 14 9 16 10 17 6 18 5 19 1 20 2 21 3 22 90 23
REMARK SMILES IDX 4 24 21 26 22 27 23 28 24 29 25 30 26 31 87 32 27 33 86 34
REMARK SMILES IDX 28 35 29 36 30 37 80 38 31 39 85 40 79 41 81 42 32 43 84 44
REMARK SMILES IDX 78 45 77 46 33 48 65 49 45 50 64 51 46 52 49 53 63 54 82 55
REMARK SMILES IDX 47 56 48 57 62 59 83 60 50 61 34 62 35 63 43 64 36 65 42 66
REMARK SMILES IDX 44 67 41 68 37 69 38 70 39 71 40 72 66 73 67 74 75 75 68 76
REMARK SMILES IDX 74 77 76 78 73 79 69 80 70 81 71 82 72 83 51 84 52 85 60 86
REMARK SMILES IDX 53 87 59 88 61 89 58 90 54 91 55 92 56 93 57 94
REMARK H PARENT 7 15 4 25 81 47 49 58
REMARK Flexibility Score: inf
ROOT
ATOM      1  C   UNL A   1      33.242  29.828  27.157  1.00  0.00     0.275 C 
ENDROOT
BRANCH   1   2
ATOM      2  O   UNL A   1      33.150  28.469  26.713  1.00  0.00    -0.458 OA
BRANCH   2   3
ATOM      3  C   UNL A   1      32.083  27.766  27.187  1.00  0.00     0.338 C 
ATOM      4  O   UNL A   1      31.316  28.121  28.053  1.00  0.00    -0.246 OA
BRANCH   3   5
ATOM      5  C   UNL A   1      31.939  26.505  26.413  1.00  0.00     0.060 A 
ATOM      6  C   UNL A   1      32.890  24.476  25.443  1.00  0.00    -0.038 A 
ATOM      7  C   UNL A   1      31.615  24.164  24.944  1.00  0.00     0.004 A 
ATOM      8  C   UNL A   1      33.040  25.688  26.135  1.00  0.00     0.020 A 
ATOM      9  C   UNL A   1      30.518  24.996  25.183  1.00  0.00     0.001 A 
ATOM     10  C   UNL A   1      30.674  26.157  25.935  1.00  0.00     0.016 A 
BRANCH   6  11
ATOM     11  C   UNL A   1      34.107  23.570  25.271  1.00  0.00     0.074 C 
ATOM     12  N   UNL A   1      32.959  21.346  25.075  1.00  0.00    -0.328 N 
ATOM     13  C   UNL A   1      33.449  20.920  26.387  1.00  0.00     0.262 C 
ATOM     14  C   UNL A   1      33.882  22.299  24.420  1.00  0.00     0.270 C 
ATOM     15  H   UNL A   1      32.085  21.842  25.255  1.00  0.00     0.348 HD
ATOM     16  C   UNL A   1      33.740  22.111  27.304  1.00  0.00     0.062 C 
ATOM     17  C   UNL A   1      34.683  23.105  26.630  1.00  0.00     0.020 C 
BRANCH  12  18
ATOM     18  C   UNL A   1      32.600  20.227  24.188  1.00  0.00     0.340 C 
BRANCH  18  19
ATOM     19  C   UNL A   1      32.972  18.883  24.714  1.00  0.00     0.179 A 
ATOM     20  C   UNL A   1      32.451  15.579  25.804  1.00  0.00     0.092 C 
ATOM     21  C   UNL A   1      32.989  16.882  25.375  1.00  0.00     0.147 A 
ATOM     22  N   UNL A   1      34.263  17.081  25.016  1.00  0.00    -0.159 NA
ATOM     23  N   UNL A   1      32.181  17.976  25.249  1.00  0.00    -0.211 NA
ATOM     24  N   UNL A   1      34.230  18.365  24.620  1.00  0.00    -0.258 N 
ATOM     25  H   UNL A   1      35.015  18.868  24.301  1.00  0.00     0.192 HD
ENDBRANCH  18  19
ENDBRANCH  12  18
ENDBRANCH   6  11
ENDBRANCH   3   5
ENDBRANCH   2   3
ENDBRANCH   1   2
BRANCH   1  26
ATOM     26  C   UNL A   1      34.699  30.248  27.288  1.00  0.00     0.275 C 
BRANCH  26  27
ATOM     27  O   UNL A   1      35.474  29.275  27.988  1.00  0.00    -0.458 OA
BRANCH  27  28
ATOM     28  C   UNL A   1      36.080  29.735  29.108  1.00  0.00     0.338 C 
ATOM     29  O   UNL A   1      35.594  30.458  29.962  1.00  0.00    -0.246 OA
BRANCH  28  30
ATOM     30  C   UNL A   1      37.514  29.428  29.038  1.00  0.00     0.060 A 
ATOM     31  C   UNL A   1      38.206  29.761  27.872  1.00  0.00     0.016 A 
ATOM     32  C   UNL A   1      38.096  28.620  30.028  1.00  0.00     0.016 A 
ATOM     33  C   UNL A   1      39.453  29.199  27.658  1.00  0.00     0.010 A 
ATOM     34  C   UNL A   1      39.332  28.051  29.808  1.00  0.00     0.010 A 
ATOM     35  C   UNL A   1      39.986  28.310  28.606  1.00  0.00    -0.014 A 
BRANCH  35  36
ATOM     36  C   UNL A   1      41.360  27.860  28.430  1.00  0.00     0.031 A 
ATOM     37  C   UNL A   1      41.401  26.537  27.769  1.00  0.00     0.074 A 
ATOM     38  C   UNL A   1      42.463  28.598  28.680  1.00  0.00     0.049 A 
ATOM     39  N   UNL A   1      41.657  25.398  28.318  1.00  0.00    -0.248 NA
ATOM     40  C   UNL A   1      40.873  26.428  26.396  1.00  0.00     0.031 C 
ATOM     41  C   UNL A   1      42.496  30.016  29.047  1.00  0.00     0.029 A 
ATOM     42  N   UNL A   1      43.790  28.280  28.568  1.00  0.00    -0.354 N 
ATOM     43  C   UNL A   1      41.675  24.497  27.261  1.00  0.00     0.074 A 
ATOM     44  C   UNL A   1      40.916  25.108  26.207  1.00  0.00     0.031 C 
ATOM     45  C   UNL A   1      43.755  30.488  28.907  1.00  0.00     0.029 A 
ATOM     46  C   UNL A   1      44.645  29.382  28.583  1.00  0.00     0.049 A 
ATOM     47  H   UNL A   1      44.113  27.353  28.485  1.00  0.00     0.167 HD
ATOM     48  C   UNL A   1      42.666  23.567  27.208  1.00  0.00     0.034 A 
ATOM     49  C   UNL A   1      45.983  29.406  28.331  1.00  0.00     0.034 A 
ATOM     50  C   UNL A   1      43.283  23.416  28.509  1.00  0.00     0.049 A 
ATOM     51  C   UNL A   1      46.513  28.057  28.636  1.00  0.00     0.074 A 
ATOM     52  C   UNL A   1      42.959  22.862  29.727  1.00  0.00     0.029 A 
ATOM     53  N   UNL A   1      44.321  24.283  28.726  1.00  0.00    -0.354 N 
ATOM     54  N   UNL A   1      46.500  27.548  29.837  1.00  0.00    -0.248 NA
ATOM     55  C   UNL A   1      46.731  27.100  27.556  1.00  0.00     0.031 C 
ATOM     56  C   UNL A   1      43.778  23.513  30.700  1.00  0.00     0.029 A 
ATOM     57  C   UNL A   1      44.622  24.414  30.056  1.00  0.00     0.049 A 
ATOM     58  H   UNL A   1      44.798  24.758  28.007  1.00  0.00     0.167 HD
ATOM     59  C   UNL A   1      46.268  26.204  29.636  1.00  0.00     0.074 A 
ATOM     60  C   UNL A   1      46.597  25.958  28.238  1.00  0.00     0.031 C 
ATOM     61  C   UNL A   1      45.489  25.491  30.502  1.00  0.00     0.034 A 
BRANCH  48  62
ATOM     62  C   UNL A   1      43.456  23.233  25.946  1.00  0.00     0.023 A 
ATOM     63  C   UNL A   1      43.567  21.868  25.612  1.00  0.00     0.031 A 
ATOM     64  C   UNL A   1      44.339  24.098  25.255  1.00  0.00     0.131 A 
ATOM     65  C   UNL A   1      44.557  21.414  24.721  1.00  0.00     0.055 A 
ATOM     66  C   UNL A   1      45.293  23.647  24.339  1.00  0.00     0.041 A 
ATOM     67  F   UNL A   1      44.400  25.415  25.476  1.00  0.00    -0.206 F 
ATOM     68  C   UNL A   1      45.426  22.296  24.086  1.00  0.00     0.022 A 
BRANCH  65  69
ATOM     69  S   UNL A   1      44.785  19.630  24.511  1.00  0.00     0.124 S 
ATOM     70  O   UNL A   1      44.717  19.491  23.062  1.00  0.00    -0.237 OA
ATOM     71  O   UNL A   1      46.094  19.423  25.122  1.00  0.00    -0.237 OA
ATOM     72  O   UNL A   1      43.660  19.058  25.250  1.00  0.00    -0.744 OA
ENDBRANCH  65  69
ENDBRANCH  48  62
BRANCH  49  73
ATOM     73  C   UNL A   1      46.774  30.447  27.613  1.00  0.00     0.023 A 
ATOM     74  C   UNL A   1      46.199  31.630  27.087  1.00  0.00     0.031 A 
ATOM     75  C   UNL A   1      48.185  30.406  27.669  1.00  0.00     0.131 A 
ATOM     76  C   UNL A   1      47.025  32.701  26.664  1.00  0.00     0.055 A 
ATOM     77  C   UNL A   1      48.993  31.467  27.254  1.00  0.00     0.041 A 
ATOM     78  F   UNL A   1      48.828  29.362  28.215  1.00  0.00    -0.206 F 
ATOM     79  C   UNL A   1      48.416  32.626  26.763  1.00  0.00     0.022 A 
BRANCH  76  80
ATOM     80  S   UNL A   1      46.299  34.265  26.063  1.00  0.00     0.124 S 
ATOM     81  O   UNL A   1      47.483  35.077  25.807  1.00  0.00    -0.237 OA
ATOM     82  O   UNL A   1      45.541  33.833  24.895  1.00  0.00    -0.237 OA
ATOM     83  O   UNL A   1      45.480  34.716  27.189  1.00  0.00    -0.744 OA
ENDBRANCH  76  80
ENDBRANCH  49  73
BRANCH  61  84
ATOM     84  C   UNL A   1      45.482  25.907  31.950  1.00  0.00     0.023 A 
ATOM     85  C   UNL A   1      46.441  25.546  32.920  1.00  0.00     0.031 A 
ATOM     86  C   UNL A   1      44.414  26.726  32.362  1.00  0.00     0.131 A 
ATOM     87  C   UNL A   1      46.300  25.999  34.249  1.00  0.00     0.055 A 
ATOM     88  C   UNL A   1      44.288  27.188  33.668  1.00  0.00     0.041 A 
ATOM     89  F   UNL A   1      43.466  27.101  31.486  1.00  0.00    -0.206 F 
ATOM     90  C   UNL A   1      45.229  26.818  34.620  1.00  0.00     0.022 A 
BRANCH  87  91
ATOM     91  S   UNL A   1      47.485  25.496  35.538  1.00  0.00     0.124 S 
ATOM     92  O   UNL A   1      47.740  26.729  36.273  1.00  0.00    -0.237 OA
ATOM     93  O   UNL A   1      46.744  24.463  36.258  1.00  0.00    -0.237 OA
ATOM     94  O   UNL A   1      48.629  24.996  34.771  1.00  0.00    -0.744 OA
ENDBRANCH  87  91
ENDBRANCH  61  84
ENDBRANCH  35  36
ENDBRANCH  28  30
ENDBRANCH  27  28
ENDBRANCH  26  27
ENDBRANCH   1  26
TORSDOF 17
ENDMDL
MODEL 3
REMARK VINA RESULT:     -12.0      3.491      8.518
REMARK SMILES Cc1n[nH]c(C[N@H+]2CCC[C@H](c3cccc(C(=O)OCCOC(=O)c4ccc(-c5c6nc(c(-c7cc(S(=O)(=O)[O-])ccc7F)c7ccc([nH]7)c(-c7cc(S(=O)(=O)[O-])ccc7F)c7nc(c(-c8cc(S(=O)(=O)[O-])ccc8F)c8ccc5[nH]8)C=C7)C=C6)cc4)c3)C2)n1
REMARK SMILES IDX 20 1 19 2 17 3 18 4 16 5 12 6 13 7 88 8 14 9 15 10 11 11
REMARK SMILES IDX 7 12 8 13 89 14 9 16 10 17 6 18 5 19 1 20 2 21 3 22 90 23
REMARK SMILES IDX 4 24 21 26 22 27 23 28 24 29 25 30 26 31 87 32 27 33 86 34
REMARK SMILES IDX 28 35 29 36 30 37 80 38 31 39 85 40 79 41 81 42 32 43 84 44
REMARK SMILES IDX 78 45 77 46 33 48 65 49 45 50 64 51 46 52 49 53 63 54 82 55
REMARK SMILES IDX 47 56 48 57 62 59 83 60 50 61 34 62 35 63 43 64 36 65 42 66
REMARK SMILES IDX 44 67 41 68 37 69 38 70 39 71 40 72 66 73 67 74 75 75 68 76
REMARK SMILES IDX 74 77 76 78 73 79 69 80 70 81 71 82 72 83 51 84 52 85 60 86
REMARK SMILES IDX 53 87 59 88 61 89 58 90 54 91 55 92 56 93 57 94
REMARK H PARENT 7 15 4 25 81 47 49 58
REMARK Flexibility Score: inf
ROOT
ATOM      1  C   UNL A   1      33.473  30.145  27.336  1.00  0.00     0.275 C 
ENDROOT
BRANCH   1   2
ATOM      2  O   UNL A   1      33.018  29.689  26.056  1.00  0.00    -0.458 OA
BRANCH   2   3
ATOM      3  C   UNL A   1      31.802  30.163  25.661  1.00  0.00     0.338 C 
ATOM      4  O   UNL A   1      31.359  31.270  25.870  1.00  0.00    -0.246 OA
BRANCH   3   5
ATOM      5  C   UNL A   1      31.112  29.131  24.842  1.00  0.00     0.060 A 
ATOM      6  C   UNL A   1      30.598  26.797  24.343  1.00  0.00    -0.038 A 
ATOM      7  C   UNL A   1      29.810  27.242  23.269  1.00  0.00     0.004 A 
ATOM      8  C   UNL A   1      31.288  27.766  25.089  1.00  0.00     0.020 A 
ATOM      9  C   UNL A   1      29.663  28.603  22.992  1.00  0.00     0.001 A 
ATOM     10  C   UNL A   1      30.296  29.550  23.790  1.00  0.00     0.016 A 
BRANCH   6  11
ATOM     11  C   UNL A   1      30.739  25.328  24.734  1.00  0.00     0.074 C 
ATOM     12  N   UNL A   1      33.240  25.111  24.681  1.00  0.00    -0.328 N 
ATOM     13  C   UNL A   1      33.192  24.272  23.482  1.00  0.00     0.262 C 
ATOM     14  C   UNL A   1      32.024  24.961  25.511  1.00  0.00     0.270 C 
ATOM     15  H   UNL A   1      33.262  26.073  24.343  1.00  0.00     0.348 HD
ATOM     16  C   UNL A   1      31.933  24.531  22.652  1.00  0.00     0.062 C 
ATOM     17  C   UNL A   1      30.674  24.390  23.505  1.00  0.00     0.020 C 
BRANCH  12  18
ATOM     18  C   UNL A   1      34.472  24.942  25.470  1.00  0.00     0.340 C 
BRANCH  18  19
ATOM     19  C   UNL A   1      35.015  23.554  25.470  1.00  0.00     0.179 A 
ATOM     20  C   UNL A   1      37.400  21.015  24.975  1.00  0.00     0.092 C 
ATOM     21  C   UNL A   1      36.226  21.836  25.325  1.00  0.00     0.147 A 
ATOM     22  N   UNL A   1      35.277  21.451  26.187  1.00  0.00    -0.159 NA
ATOM     23  N   UNL A   1      36.072  23.099  24.830  1.00  0.00    -0.211 NA
ATOM     24  N   UNL A   1      34.509  22.553  26.246  1.00  0.00    -0.258 N 
ATOM     25  H   UNL A   1      33.686  22.629  26.781  1.00  0.00     0.192 HD
ENDBRANCH  18  19
ENDBRANCH  12  18
ENDBRANCH   6  11
ENDBRANCH   3   5
ENDBRANCH   2   3
ENDBRANCH   1   2
BRANCH   1  26
ATOM     26  C   UNL A   1      34.972  30.401  27.308  1.00  0.00     0.275 C 
BRANCH  26  27
ATOM     27  O   UNL A   1      35.706  29.346  27.929  1.00  0.00    -0.458 OA
BRANCH  27  28
ATOM     28  C   UNL A   1      36.268  29.672  29.117  1.00  0.00     0.338 C 
ATOM     29  O   UNL A   1      35.751  30.301  30.026  1.00  0.00    -0.246 OA
BRANCH  28  30
ATOM     30  C   UNL A   1      37.702  29.360  29.071  1.00  0.00     0.060 A 
ATOM     31  C   UNL A   1      38.434  29.775  27.958  1.00  0.00     0.016 A 
ATOM     32  C   UNL A   1      38.245  28.475  30.016  1.00  0.00     0.016 A 
ATOM     33  C   UNL A   1      39.685  29.220  27.744  1.00  0.00     0.010 A 
ATOM     34  C   UNL A   1      39.485  27.914  29.795  1.00  0.00     0.010 A 
ATOM     35  C   UNL A   1      40.181  28.258  28.638  1.00  0.00    -0.014 A 
BRANCH  35  36
ATOM     36  C   UNL A   1      41.557  27.812  28.475  1.00  0.00     0.031 A 
ATOM     37  C   UNL A   1      41.610  26.510  27.773  1.00  0.00     0.074 A 
ATOM     38  C   UNL A   1      42.656  28.540  28.768  1.00  0.00     0.049 A 
ATOM     39  N   UNL A   1      41.854  25.354  28.291  1.00  0.00    -0.248 NA
ATOM     40  C   UNL A   1      41.108  26.445  26.387  1.00  0.00     0.031 C 
ATOM     41  C   UNL A   1      42.683  29.946  29.180  1.00  0.00     0.029 A 
ATOM     42  N   UNL A   1      43.985  28.223  28.672  1.00  0.00    -0.354 N 
ATOM     43  C   UNL A   1      41.892  24.487  27.206  1.00  0.00     0.074 A 
ATOM     44  C   UNL A   1      41.153  25.131  26.159  1.00  0.00     0.031 C 
ATOM     45  C   UNL A   1      43.945  30.419  29.079  1.00  0.00     0.029 A 
ATOM     46  C   UNL A   1      44.840  29.323  28.738  1.00  0.00     0.049 A 
ATOM     47  H   UNL A   1      44.309  27.299  28.565  1.00  0.00     0.167 HD
ATOM     48  C   UNL A   1      42.883  23.557  27.144  1.00  0.00     0.034 A 
ATOM     49  C   UNL A   1      46.183  29.353  28.512  1.00  0.00     0.034 A 
ATOM     50  C   UNL A   1      43.474  23.364  28.450  1.00  0.00     0.049 A 
ATOM     51  C   UNL A   1      46.706  27.994  28.784  1.00  0.00     0.074 A 
ATOM     52  C   UNL A   1      43.126  22.773  29.645  1.00  0.00     0.029 A 
ATOM     53  N   UNL A   1      44.509  24.223  28.715  1.00  0.00    -0.354 N 
ATOM     54  N   UNL A   1      46.669  27.448  29.968  1.00  0.00    -0.248 NA
ATOM     55  C   UNL A   1      46.943  27.071  27.679  1.00  0.00     0.031 C 
ATOM     56  C   UNL A   1      43.928  23.392  30.653  1.00  0.00     0.029 A 
ATOM     57  C   UNL A   1      44.785  24.312  30.053  1.00  0.00     0.049 A 
ATOM     58  H   UNL A   1      45.000  24.719  28.020  1.00  0.00     0.167 HD
ATOM     59  C   UNL A   1      46.440  26.111  29.721  1.00  0.00     0.074 A 
ATOM     60  C   UNL A   1      46.796  25.909  28.323  1.00  0.00     0.031 C 
ATOM     61  C   UNL A   1      45.644  25.373  30.549  1.00  0.00     0.034 A 
BRANCH  48  62
ATOM     62  C   UNL A   1      43.696  23.262  25.887  1.00  0.00     0.023 A 
ATOM     63  C   UNL A   1      43.782  21.911  25.492  1.00  0.00     0.031 A 
ATOM     64  C   UNL A   1      44.617  24.135  25.258  1.00  0.00     0.131 A 
ATOM     65  C   UNL A   1      44.784  21.473  24.606  1.00  0.00     0.055 A 
ATOM     66  C   UNL A   1      45.583  23.702  24.346  1.00  0.00     0.041 A 
ATOM     67  F   UNL A   1      44.705  25.438  25.543  1.00  0.00    -0.206 F 
ATOM     68  C   UNL A   1      45.689  22.361  24.034  1.00  0.00     0.022 A 
BRANCH  65  69
ATOM     69  S   UNL A   1      44.973  19.695  24.318  1.00  0.00     0.124 S 
ATOM     70  O   UNL A   1      46.408  19.518  24.497  1.00  0.00    -0.237 OA
ATOM     71  O   UNL A   1      44.116  19.133  25.356  1.00  0.00    -0.237 OA
ATOM     72  O   UNL A   1      44.486  19.522  22.951  1.00  0.00    -0.744 OA
ENDBRANCH  65  69
ENDBRANCH  48  62
BRANCH  49  73
ATOM     73  C   UNL A   1      46.988  30.415  27.842  1.00  0.00     0.023 A 
ATOM     74  C   UNL A   1      46.408  31.510  27.158  1.00  0.00     0.031 A 
ATOM     75  C   UNL A   1      48.375  30.500  28.100  1.00  0.00     0.131 A 
ATOM     76  C   UNL A   1      47.202  32.622  26.783  1.00  0.00     0.055 A 
ATOM     77  C   UNL A   1      49.151  31.600  27.731  1.00  0.00     0.041 A 
ATOM     78  F   UNL A   1      49.009  29.548  28.804  1.00  0.00    -0.206 F 
ATOM     79  C   UNL A   1      48.564  32.674  27.083  1.00  0.00     0.022 A 
BRANCH  76  80
ATOM     80  S   UNL A   1      46.454  34.080  25.975  1.00  0.00     0.124 S 
ATOM     81  O   UNL A   1      47.542  34.556  25.128  1.00  0.00    -0.237 OA
ATOM     82  O   UNL A   1      45.300  33.507  25.294  1.00  0.00    -0.237 OA
ATOM     83  O   UNL A   1      46.124  34.960  27.098  1.00  0.00    -0.744 OA
ENDBRANCH  76  80
ENDBRANCH  49  73
BRANCH  61  84
ATOM     84  C   UNL A   1      45.610  25.743  32.010  1.00  0.00     0.023 A 
ATOM     85  C   UNL A   1      46.568  25.379  32.979  1.00  0.00     0.031 A 
ATOM     86  C   UNL A   1      44.515  26.520  32.433  1.00  0.00     0.131 A 
ATOM     87  C   UNL A   1      46.400  25.786  34.319  1.00  0.00     0.055 A 
ATOM     88  C   UNL A   1      44.362  26.937  33.752  1.00  0.00     0.041 A 
ATOM     89  F   UNL A   1      43.566  26.895  31.559  1.00  0.00    -0.206 F 
ATOM     90  C   UNL A   1      45.302  26.564  34.703  1.00  0.00     0.022 A 
BRANCH  87  91
ATOM     91  S   UNL A   1      47.585  25.276  35.606  1.00  0.00     0.124 S 
ATOM     92  O   UNL A   1      48.850  25.175  34.889  1.00  0.00    -0.237 OA
ATOM     93  O   UNL A   1      47.484  26.365  36.574  1.00  0.00    -0.237 OA
ATOM     94  O   UNL A   1      47.046  23.998  36.076  1.00  0.00    -0.744 OA
ENDBRANCH  87  91
ENDBRANCH  61  84
ENDBRANCH  35  36
ENDBRANCH  28  30
ENDBRANCH  27  28
ENDBRANCH  26  27
ENDBRANCH   1  26
TORSDOF 17
ENDMDL
