MODEL 1
REMARK VINA RESULT:     -13.4      0.000      0.000
REMARK SMILES O=C(OCCOC(=O)[C@H]1[C@H]2CC[C@H](CC2)[C@H]1C(=O)Nc1ccc(C(=O)N2CCCC2)cc1)c1ccc(-c2c3nc(c(-c4cc(S(=O)(=O)[O-])ccc4F)c4ccc([nH]4)c(-c4cc(S(=O)(=O)[O-])ccc4F)c4nc(c(-c5cc(S(=O)(=O)[O-])ccc5F)c5ccc2[nH]5)C=C4)C=C3)cc1
REMARK SMILES IDX 4 1 3 2 2 3 1 4 33 5 34 6 95 7 35 8 94 9 36 10 37 11 38 12
REMARK SMILES IDX 88 13 39 14 93 15 87 16 89 17 40 18 92 19 86 20 85 21 41 23
REMARK SMILES IDX 73 24 53 25 72 26 54 27 57 28 71 29 90 30 55 31 56 32 70 34
REMARK SMILES IDX 91 35 58 36 42 37 43 38 51 39 44 40 50 41 52 42 49 43 45 44
REMARK SMILES IDX 46 45 47 46 48 47 74 48 75 49 83 50 76 51 82 52 84 53 81 54
REMARK SMILES IDX 77 55 78 56 79 57 80 58 59 59 60 60 68 61 61 62 67 63 69 64
REMARK SMILES IDX 66 65 62 66 63 67 64 68 65 69 5 70 6 71 7 72 8 73 9 74 10 75
REMARK SMILES IDX 16 76 15 77 11 78 13 79 14 80 12 81 17 82 18 83 19 84 20 86
REMARK SMILES IDX 21 87 32 88 22 89 31 90 23 91 24 92 25 93 26 94 27 95 30 96
REMARK SMILES IDX 28 97 29 98
REMARK H PARENT 89 22 57 33 19 85
REMARK Flexibility Score: inf
ROOT
ATOM      1  C   UNL A   1      32.442  30.068  27.198  1.00  0.00     0.275 C 
ENDROOT
BRANCH   1   2
ATOM      2  O   UNL A   1      33.762  30.632  27.034  1.00  0.00    -0.458 OA
BRANCH   2   3
ATOM      3  C   UNL A   1      34.570  31.201  27.966  1.00  0.00     0.338 C 
ATOM      4  O   UNL A   1      34.333  32.315  28.421  1.00  0.00    -0.246 OA
BRANCH   3   5
ATOM      5  C   UNL A   1      35.840  30.527  28.323  1.00  0.00     0.060 A 
ATOM      6  C   UNL A   1      35.972  29.753  29.474  1.00  0.00     0.016 A 
ATOM      7  C   UNL A   1      36.930  30.659  27.449  1.00  0.00     0.016 A 
ATOM      8  C   UNL A   1      37.100  28.973  29.672  1.00  0.00     0.010 A 
ATOM      9  C   UNL A   1      38.097  29.923  27.675  1.00  0.00     0.010 A 
ATOM     10  C   UNL A   1      38.170  29.059  28.779  1.00  0.00    -0.014 A 
BRANCH  10  11
ATOM     11  C   UNL A   1      39.458  28.512  29.249  1.00  0.00     0.031 A 
ATOM     12  C   UNL A   1      40.003  29.134  30.499  1.00  0.00     0.074 A 
ATOM     13  C   UNL A   1      40.012  27.416  28.700  1.00  0.00     0.049 A 
ATOM     14  N   UNL A   1      41.002  28.755  31.244  1.00  0.00    -0.248 NA
ATOM     15  C   UNL A   1      39.281  30.317  31.006  1.00  0.00     0.031 C 
ATOM     16  C   UNL A   1      39.474  26.667  27.564  1.00  0.00     0.029 A 
ATOM     17  N   UNL A   1      41.151  26.731  29.033  1.00  0.00    -0.354 N 
ATOM     18  C   UNL A   1      40.984  29.612  32.338  1.00  0.00     0.074 A 
ATOM     19  C   UNL A   1      39.943  30.583  32.116  1.00  0.00     0.031 C 
ATOM     20  C   UNL A   1      40.325  25.672  27.246  1.00  0.00     0.029 A 
ATOM     21  C   UNL A   1      41.442  25.687  28.186  1.00  0.00     0.049 A 
ATOM     22  H   UNL A   1      41.710  26.965  29.808  1.00  0.00     0.167 HD
ATOM     23  C   UNL A   1      41.743  29.560  33.455  1.00  0.00     0.034 A 
ATOM     24  C   UNL A   1      42.493  24.843  28.186  1.00  0.00     0.034 A 
ATOM     25  C   UNL A   1      42.820  28.625  33.615  1.00  0.00     0.049 A 
ATOM     26  C   UNL A   1      43.465  24.939  29.339  1.00  0.00     0.074 A 
ATOM     27  C   UNL A   1      43.727  28.517  34.650  1.00  0.00     0.029 A 
ATOM     28  N   UNL A   1      43.154  27.650  32.680  1.00  0.00    -0.354 N 
ATOM     29  N   UNL A   1      43.432  25.741  30.380  1.00  0.00    -0.248 NA
ATOM     30  C   UNL A   1      44.589  23.996  29.342  1.00  0.00     0.031 C 
ATOM     31  C   UNL A   1      44.652  27.525  34.306  1.00  0.00     0.029 A 
ATOM     32  C   UNL A   1      44.276  26.959  33.096  1.00  0.00     0.049 A 
ATOM     33  H   UNL A   1      42.662  27.476  31.845  1.00  0.00     0.167 HD
ATOM     34  C   UNL A   1      44.499  25.363  31.188  1.00  0.00     0.074 A 
ATOM     35  C   UNL A   1      45.155  24.262  30.510  1.00  0.00     0.031 C 
ATOM     36  C   UNL A   1      44.898  25.864  32.387  1.00  0.00     0.034 A 
BRANCH  23  37
ATOM     37  C   UNL A   1      41.449  30.595  34.507  1.00  0.00     0.023 A 
ATOM     38  C   UNL A   1      40.293  30.512  35.308  1.00  0.00     0.031 A 
ATOM     39  C   UNL A   1      42.245  31.745  34.613  1.00  0.00     0.131 A 
ATOM     40  C   UNL A   1      39.918  31.602  36.106  1.00  0.00     0.055 A 
ATOM     41  C   UNL A   1      41.911  32.791  35.474  1.00  0.00     0.041 A 
ATOM     42  F   UNL A   1      43.335  31.893  33.843  1.00  0.00    -0.206 F 
ATOM     43  C   UNL A   1      40.731  32.733  36.211  1.00  0.00     0.022 A 
BRANCH  40  44
ATOM     44  S   UNL A   1      38.264  31.599  36.857  1.00  0.00     0.124 S 
ATOM     45  O   UNL A   1      37.485  32.322  35.855  1.00  0.00    -0.237 OA
ATOM     46  O   UNL A   1      37.977  30.174  36.982  1.00  0.00    -0.237 OA
ATOM     47  O   UNL A   1      38.460  32.310  38.118  1.00  0.00    -0.744 OA
ENDBRANCH  40  44
ENDBRANCH  23  37
BRANCH  24  48
ATOM     48  C   UNL A   1      42.694  23.855  27.084  1.00  0.00     0.023 A 
ATOM     49  C   UNL A   1      42.130  22.569  27.130  1.00  0.00     0.031 A 
ATOM     50  C   UNL A   1      43.529  24.162  25.993  1.00  0.00     0.131 A 
ATOM     51  C   UNL A   1      42.448  21.625  26.138  1.00  0.00     0.055 A 
ATOM     52  C   UNL A   1      43.811  23.234  24.988  1.00  0.00     0.041 A 
ATOM     53  F   UNL A   1      44.094  25.376  25.892  1.00  0.00    -0.206 F 
ATOM     54  C   UNL A   1      43.280  21.951  25.064  1.00  0.00     0.022 A 
BRANCH  51  55
ATOM     55  S   UNL A   1      41.825  19.929  26.314  1.00  0.00     0.124 S 
ATOM     56  O   UNL A   1      40.389  20.120  26.146  1.00  0.00    -0.237 OA
ATOM     57  O   UNL A   1      42.514  19.243  25.226  1.00  0.00    -0.237 OA
ATOM     58  O   UNL A   1      42.253  19.547  27.659  1.00  0.00    -0.744 OA
ENDBRANCH  51  55
ENDBRANCH  24  48
BRANCH  36  59
ATOM     59  C   UNL A   1      46.067  25.191  33.055  1.00  0.00     0.023 A 
ATOM     60  C   UNL A   1      47.390  25.582  32.793  1.00  0.00     0.031 A 
ATOM     61  C   UNL A   1      45.846  24.161  33.987  1.00  0.00     0.131 A 
ATOM     62  C   UNL A   1      48.447  24.913  33.423  1.00  0.00     0.055 A 
ATOM     63  C   UNL A   1      46.899  23.547  34.660  1.00  0.00     0.041 A 
ATOM     64  F   UNL A   1      44.599  23.752  34.270  1.00  0.00    -0.206 F 
ATOM     65  C   UNL A   1      48.211  23.913  34.371  1.00  0.00     0.022 A 
BRANCH  62  66
ATOM     66  S   UNL A   1      50.142  25.312  32.922  1.00  0.00     0.124 S 
ATOM     67  O   UNL A   1      49.943  26.512  32.115  1.00  0.00    -0.237 OA
ATOM     68  O   UNL A   1      50.809  25.511  34.205  1.00  0.00    -0.237 OA
ATOM     69  O   UNL A   1      50.567  24.127  32.180  1.00  0.00    -0.744 OA
ENDBRANCH  62  66
ENDBRANCH  36  59
ENDBRANCH  10  11
ENDBRANCH   3   5
ENDBRANCH   2   3
ENDBRANCH   1   2
BRANCH   1  70
ATOM     70  C   UNL A   1      32.262  28.544  27.406  1.00  0.00     0.274 C 
BRANCH  70  71
ATOM     71  O   UNL A   1      31.025  27.877  27.055  1.00  0.00    -0.462 OA
BRANCH  71  72
ATOM     72  C   UNL A   1      31.213  26.722  26.365  1.00  0.00     0.310 C 
ATOM     73  O   UNL A   1      31.197  25.642  26.929  1.00  0.00    -0.252 OA
BRANCH  72  74
ATOM     74  C   UNL A   1      31.338  26.852  24.849  1.00  0.00     0.115 C 
ATOM     75  C   UNL A   1      31.089  28.110  23.960  1.00  0.00     0.004 C 
ATOM     76  C   UNL A   1      32.587  26.114  24.340  1.00  0.00     0.096 C 
ATOM     77  C   UNL A   1      32.351  28.887  23.507  1.00  0.00     0.005 C 
ATOM     78  C   UNL A   1      30.564  27.558  22.601  1.00  0.00     0.005 C 
ATOM     79  C   UNL A   1      32.880  26.538  22.876  1.00  0.00     0.002 C 
ATOM     80  C   UNL A   1      33.397  27.971  22.862  1.00  0.00     0.005 C 
ATOM     81  C   UNL A   1      31.570  26.529  22.043  1.00  0.00     0.005 C 
BRANCH  76  82
ATOM     82  C   UNL A   1      33.869  25.953  25.208  1.00  0.00     0.228 C 
ATOM     83  O   UNL A   1      34.375  27.005  25.644  1.00  0.00    -0.274 OA
ATOM     84  N   UNL A   1      34.439  24.814  25.709  1.00  0.00    -0.326 N 
ATOM     85  H   UNL A   1      35.199  25.011  26.302  1.00  0.00     0.169 HD
BRANCH  84  86
ATOM     86  C   UNL A   1      34.208  23.435  25.590  1.00  0.00     0.041 A 
ATOM     87  C   UNL A   1      33.003  22.934  26.067  1.00  0.00     0.027 A 
ATOM     88  C   UNL A   1      35.095  22.517  25.052  1.00  0.00     0.027 A 
ATOM     89  C   UNL A   1      32.581  21.651  25.684  1.00  0.00     0.016 A 
ATOM     90  C   UNL A   1      34.687  21.243  24.645  1.00  0.00     0.016 A 
ATOM     91  C   UNL A   1      33.376  20.843  24.851  1.00  0.00     0.040 A 
BRANCH  91  92
ATOM     92  C   UNL A   1      32.674  19.787  24.044  1.00  0.00     0.253 C 
ATOM     93  O   UNL A   1      32.146  20.129  22.985  1.00  0.00    -0.269 OA
ATOM     94  N   UNL A   1      32.911  18.452  24.326  1.00  0.00    -0.339 N 
ATOM     95  C   UNL A   1      32.620  17.689  25.528  1.00  0.00     0.120 C 
ATOM     96  C   UNL A   1      33.312  17.546  23.259  1.00  0.00     0.120 C 
ATOM     97  C   UNL A   1      33.599  16.532  25.426  1.00  0.00     0.023 C 
ATOM     98  C   UNL A   1      33.533  16.193  23.938  1.00  0.00     0.023 C 
ENDBRANCH  91  92
ENDBRANCH  84  86
ENDBRANCH  76  82
ENDBRANCH  72  74
ENDBRANCH  71  72
ENDBRANCH  70  71
ENDBRANCH   1  70
TORSDOF 17
ENDMDL
MODEL 2
REMARK VINA RESULT:     -13.2      4.766      9.524
REMARK SMILES O=C(OCCOC(=O)[C@H]1[C@H]2CC[C@H](CC2)[C@H]1C(=O)Nc1ccc(C(=O)N2CCCC2)cc1)c1ccc(-c2c3nc(c(-c4cc(S(=O)(=O)[O-])ccc4F)c4ccc([nH]4)c(-c4cc(S(=O)(=O)[O-])ccc4F)c4nc(c(-c5cc(S(=O)(=O)[O-])ccc5F)c5ccc2[nH]5)C=C4)C=C3)cc1
REMARK SMILES IDX 4 1 3 2 2 3 1 4 33 5 34 6 95 7 35 8 94 9 36 10 37 11 38 12
REMARK SMILES IDX 88 13 39 14 93 15 87 16 89 17 40 18 92 19 86 20 85 21 41 23
REMARK SMILES IDX 73 24 53 25 72 26 54 27 57 28 71 29 90 30 55 31 56 32 70 34
REMARK SMILES IDX 91 35 58 36 42 37 43 38 51 39 44 40 50 41 52 42 49 43 45 44
REMARK SMILES IDX 46 45 47 46 48 47 74 48 75 49 83 50 76 51 82 52 84 53 81 54
REMARK SMILES IDX 77 55 78 56 79 57 80 58 59 59 60 60 68 61 61 62 67 63 69 64
REMARK SMILES IDX 66 65 62 66 63 67 64 68 65 69 5 70 6 71 7 72 8 73 9 74 10 75
REMARK SMILES IDX 16 76 15 77 11 78 13 79 14 80 12 81 17 82 18 83 19 84 20 86
REMARK SMILES IDX 21 87 32 88 22 89 31 90 23 91 24 92 25 93 26 94 27 95 30 96
REMARK SMILES IDX 28 97 29 98
REMARK H PARENT 89 22 57 33 19 85
REMARK Flexibility Score: inf
ROOT
ATOM      1  C   UNL A   1      36.991  22.638  25.643  1.00  0.00     0.275 C 
ENDROOT
BRANCH   1   2
ATOM      2  O   UNL A   1      38.426  22.530  25.524  1.00  0.00    -0.458 OA
BRANCH   2   3
ATOM      3  C   UNL A   1      39.379  22.711  26.475  1.00  0.00     0.338 C 
ATOM      4  O   UNL A   1      39.932  21.757  27.014  1.00  0.00    -0.246 OA
BRANCH   3   5
ATOM      5  C   UNL A   1      39.643  24.079  26.978  1.00  0.00     0.060 A 
ATOM      6  C   UNL A   1      40.165  25.082  26.163  1.00  0.00     0.016 A 
ATOM      7  C   UNL A   1      39.325  24.368  28.314  1.00  0.00     0.016 A 
ATOM      8  C   UNL A   1      40.205  26.395  26.602  1.00  0.00     0.010 A 
ATOM      9  C   UNL A   1      39.423  25.681  28.784  1.00  0.00     0.010 A 
ATOM     10  C   UNL A   1      39.843  26.701  27.915  1.00  0.00    -0.014 A 
BRANCH  10  11
ATOM     11  C   UNL A   1      40.270  28.020  28.421  1.00  0.00     0.031 A 
ATOM     12  C   UNL A   1      41.740  28.300  28.325  1.00  0.00     0.074 A 
ATOM     13  C   UNL A   1      39.386  28.971  28.772  1.00  0.00     0.049 A 
ATOM     14  N   UNL A   1      42.383  29.416  28.515  1.00  0.00    -0.248 NA
ATOM     15  C   UNL A   1      42.591  27.172  27.902  1.00  0.00     0.031 C 
ATOM     16  C   UNL A   1      37.930  28.827  28.764  1.00  0.00     0.029 A 
ATOM     17  N   UNL A   1      39.585  30.259  29.197  1.00  0.00    -0.354 N 
ATOM     18  C   UNL A   1      43.701  29.139  28.170  1.00  0.00     0.074 A 
ATOM     19  C   UNL A   1      43.783  27.735  27.852  1.00  0.00     0.031 C 
ATOM     20  C   UNL A   1      37.370  29.956  29.240  1.00  0.00     0.029 A 
ATOM     21  C   UNL A   1      38.427  30.917  29.541  1.00  0.00     0.049 A 
ATOM     22  H   UNL A   1      40.475  30.674  29.251  1.00  0.00     0.167 HD
ATOM     23  C   UNL A   1      44.741  29.996  28.080  1.00  0.00     0.034 A 
ATOM     24  C   UNL A   1      38.255  32.160  30.036  1.00  0.00     0.034 A 
ATOM     25  C   UNL A   1      44.644  31.373  28.472  1.00  0.00     0.049 A 
ATOM     26  C   UNL A   1      39.474  33.046  30.136  1.00  0.00     0.074 A 
ATOM     27  C   UNL A   1      45.636  32.332  28.520  1.00  0.00     0.029 A 
ATOM     28  N   UNL A   1      43.474  31.978  28.921  1.00  0.00    -0.354 N 
ATOM     29  N   UNL A   1      40.716  32.782  29.790  1.00  0.00    -0.248 NA
ATOM     30  C   UNL A   1      39.270  34.405  30.649  1.00  0.00     0.031 C 
ATOM     31  C   UNL A   1      45.081  33.494  29.067  1.00  0.00     0.029 A 
ATOM     32  C   UNL A   1      43.726  33.287  29.284  1.00  0.00     0.049 A 
ATOM     33  H   UNL A   1      42.595  31.538  28.972  1.00  0.00     0.167 HD
ATOM     34  C   UNL A   1      41.428  33.959  29.995  1.00  0.00     0.074 A 
ATOM     35  C   UNL A   1      40.475  34.932  30.495  1.00  0.00     0.031 C 
ATOM     36  C   UNL A   1      42.743  34.224  29.779  1.00  0.00     0.034 A 
BRANCH  23  37
ATOM     37  C   UNL A   1      46.046  29.410  27.614  1.00  0.00     0.023 A 
ATOM     38  C   UNL A   1      46.282  29.149  26.249  1.00  0.00     0.031 A 
ATOM     39  C   UNL A   1      47.002  28.976  28.545  1.00  0.00     0.131 A 
ATOM     40  C   UNL A   1      47.396  28.388  25.867  1.00  0.00     0.055 A 
ATOM     41  C   UNL A   1      48.153  28.293  28.149  1.00  0.00     0.041 A 
ATOM     42  F   UNL A   1      46.807  29.164  29.860  1.00  0.00    -0.206 F 
ATOM     43  C   UNL A   1      48.345  27.978  26.806  1.00  0.00     0.022 A 
BRANCH  40  44
ATOM     44  S   UNL A   1      47.490  27.785  24.157  1.00  0.00     0.124 S 
ATOM     45  O   UNL A   1      46.768  28.831  23.437  1.00  0.00    -0.237 OA
ATOM     46  O   UNL A   1      48.928  27.724  23.921  1.00  0.00    -0.237 OA
ATOM     47  O   UNL A   1      46.810  26.493  24.213  1.00  0.00    -0.744 OA
ENDBRANCH  40  44
ENDBRANCH  23  37
BRANCH  24  48
ATOM     48  C   UNL A   1      36.911  32.639  30.478  1.00  0.00     0.023 A 
ATOM     49  C   UNL A   1      35.981  33.173  29.571  1.00  0.00     0.031 A 
ATOM     50  C   UNL A   1      36.567  32.641  31.843  1.00  0.00     0.131 A 
ATOM     51  C   UNL A   1      34.780  33.732  30.042  1.00  0.00     0.055 A 
ATOM     52  C   UNL A   1      35.355  33.161  32.303  1.00  0.00     0.041 A 
ATOM     53  F   UNL A   1      37.414  32.140  32.756  1.00  0.00    -0.206 F 
ATOM     54  C   UNL A   1      34.458  33.725  31.402  1.00  0.00     0.022 A 
BRANCH  51  55
ATOM     55  S   UNL A   1      33.674  34.551  28.858  1.00  0.00     0.124 S 
ATOM     56  O   UNL A   1      34.532  35.607  28.331  1.00  0.00    -0.237 OA
ATOM     57  O   UNL A   1      33.358  33.461  27.941  1.00  0.00    -0.237 OA
ATOM     58  O   UNL A   1      32.562  35.006  29.689  1.00  0.00    -0.744 OA
ENDBRANCH  51  55
ENDBRANCH  24  48
BRANCH  36  59
ATOM     59  C   UNL A   1      43.209  35.632  30.039  1.00  0.00     0.023 A 
ATOM     60  C   UNL A   1      43.065  36.644  29.077  1.00  0.00     0.031 A 
ATOM     61  C   UNL A   1      43.778  35.966  31.281  1.00  0.00     0.131 A 
ATOM     62  C   UNL A   1      43.530  37.936  29.356  1.00  0.00     0.055 A 
ATOM     63  C   UNL A   1      44.177  37.268  31.576  1.00  0.00     0.041 A 
ATOM     64  F   UNL A   1      43.937  35.033  32.233  1.00  0.00    -0.206 F 
ATOM     65  C   UNL A   1      44.065  38.260  30.606  1.00  0.00     0.022 A 
BRANCH  62  66
ATOM     66  S   UNL A   1      43.503  39.168  28.028  1.00  0.00     0.124 S 
ATOM     67  O   UNL A   1      42.120  39.634  28.076  1.00  0.00    -0.237 OA
ATOM     68  O   UNL A   1      44.513  40.125  28.467  1.00  0.00    -0.237 OA
ATOM     69  O   UNL A   1      43.857  38.396  26.838  1.00  0.00    -0.744 OA
ENDBRANCH  62  66
ENDBRANCH  36  59
ENDBRANCH  10  11
ENDBRANCH   3   5
ENDBRANCH   2   3
ENDBRANCH   1   2
BRANCH   1  70
ATOM     70  C   UNL A   1      36.338  23.974  26.075  1.00  0.00     0.274 C 
BRANCH  70  71
ATOM     71  O   UNL A   1      35.265  24.571  25.308  1.00  0.00    -0.462 OA
BRANCH  71  72
ATOM     72  C   UNL A   1      34.057  24.501  25.927  1.00  0.00     0.310 C 
ATOM     73  O   UNL A   1      33.813  23.621  26.733  1.00  0.00    -0.252 OA
BRANCH  72  74
ATOM     74  C   UNL A   1      33.078  25.635  25.632  1.00  0.00     0.115 C 
ATOM     75  C   UNL A   1      33.155  27.125  26.088  1.00  0.00     0.004 C 
ATOM     76  C   UNL A   1      32.604  25.579  24.170  1.00  0.00     0.096 C 
ATOM     77  C   UNL A   1      33.678  28.136  25.036  1.00  0.00     0.005 C 
ATOM     78  C   UNL A   1      31.675  27.585  26.248  1.00  0.00     0.005 C 
ATOM     79  C   UNL A   1      31.896  26.911  23.803  1.00  0.00     0.002 C 
ATOM     80  C   UNL A   1      32.936  28.020  23.700  1.00  0.00     0.005 C 
ATOM     81  C   UNL A   1      30.913  27.324  24.931  1.00  0.00     0.005 C 
BRANCH  76  82
ATOM     82  C   UNL A   1      33.498  25.015  23.027  1.00  0.00     0.228 C 
ATOM     83  O   UNL A   1      34.287  25.821  22.496  1.00  0.00    -0.274 OA
ATOM     84  N   UNL A   1      33.671  23.719  22.622  1.00  0.00    -0.326 N 
ATOM     85  H   UNL A   1      34.366  23.639  21.930  1.00  0.00     0.169 HD
BRANCH  84  86
ATOM     86  C   UNL A   1      33.107  22.477  22.948  1.00  0.00     0.041 A 
ATOM     87  C   UNL A   1      32.158  21.947  22.081  1.00  0.00     0.027 A 
ATOM     88  C   UNL A   1      33.400  21.735  24.080  1.00  0.00     0.027 A 
ATOM     89  C   UNL A   1      31.811  20.590  22.173  1.00  0.00     0.016 A 
ATOM     90  C   UNL A   1      33.081  20.377  24.180  1.00  0.00     0.016 A 
ATOM     91  C   UNL A   1      32.381  19.758  23.155  1.00  0.00     0.040 A 
BRANCH  91  92
ATOM     92  C   UNL A   1      32.424  18.284  22.867  1.00  0.00     0.253 C 
ATOM     93  O   UNL A   1      32.291  17.922  21.697  1.00  0.00    -0.269 OA
ATOM     94  N   UNL A   1      32.924  17.422  23.829  1.00  0.00    -0.339 N 
ATOM     95  C   UNL A   1      32.423  17.121  25.159  1.00  0.00     0.120 C 
ATOM     96  C   UNL A   1      33.977  16.479  23.480  1.00  0.00     0.120 C 
ATOM     97  C   UNL A   1      33.663  16.601  25.866  1.00  0.00     0.023 C 
ATOM     98  C   UNL A   1      34.308  15.744  24.780  1.00  0.00     0.023 C 
ENDBRANCH  91  92
ENDBRANCH  84  86
ENDBRANCH  76  82
ENDBRANCH  72  74
ENDBRANCH  71  72
ENDBRANCH  70  71
ENDBRANCH   1  70
TORSDOF 17
ENDMDL
MODEL 3
REMARK VINA RESULT:     -13.1      1.905      2.650
REMARK SMILES O=C(OCCOC(=O)[C@H]1[C@H]2CC[C@H](CC2)[C@H]1C(=O)Nc1ccc(C(=O)N2CCCC2)cc1)c1ccc(-c2c3nc(c(-c4cc(S(=O)(=O)[O-])ccc4F)c4ccc([nH]4)c(-c4cc(S(=O)(=O)[O-])ccc4F)c4nc(c(-c5cc(S(=O)(=O)[O-])ccc5F)c5ccc2[nH]5)C=C4)C=C3)cc1
REMARK SMILES IDX 4 1 3 2 2 3 1 4 33 5 34 6 95 7 35 8 94 9 36 10 37 11 38 12
REMARK SMILES IDX 88 13 39 14 93 15 87 16 89 17 40 18 92 19 86 20 85 21 41 23
REMARK SMILES IDX 73 24 53 25 72 26 54 27 57 28 71 29 90 30 55 31 56 32 70 34
REMARK SMILES IDX 91 35 58 36 42 37 43 38 51 39 44 40 50 41 52 42 49 43 45 44
REMARK SMILES IDX 46 45 47 46 48 47 74 48 75 49 83 50 76 51 82 52 84 53 81 54
REMARK SMILES IDX 77 55 78 56 79 57 80 58 59 59 60 60 68 61 61 62 67 63 69 64
REMARK SMILES IDX 66 65 62 66 63 67 64 68 65 69 5 70 6 71 7 72 8 73 9 74 10 75
REMARK SMILES IDX 16 76 15 77 11 78 13 79 14 80 12 81 17 82 18 83 19 84 20 86
REMARK SMILES IDX 21 87 32 88 22 89 31 90 23 91 24 92 25 93 26 94 27 95 30 96
REMARK SMILES IDX 28 97 29 98
REMARK H PARENT 89 22 57 33 19 85
REMARK Flexibility Score: inf
ROOT
ATOM      1  C   UNL A   1      33.301  30.090  26.143  1.00  0.00     0.275 C 
ENDROOT
BRANCH   1   2
ATOM      2  O   UNL A   1      33.508  30.603  27.477  1.00  0.00    -0.458 OA
BRANCH   2   3
ATOM      3  C   UNL A   1      34.550  31.325  27.964  1.00  0.00     0.338 C 
ATOM      4  O   UNL A   1      34.526  32.552  27.975  1.00  0.00    -0.246 OA
BRANCH   3   5
ATOM      5  C   UNL A   1      35.797  30.622  28.344  1.00  0.00     0.060 A 
ATOM      6  C   UNL A   1      35.928  29.945  29.555  1.00  0.00     0.016 A 
ATOM      7  C   UNL A   1      36.864  30.623  27.432  1.00  0.00     0.016 A 
ATOM      8  C   UNL A   1      37.023  29.129  29.789  1.00  0.00     0.010 A 
ATOM      9  C   UNL A   1      38.001  29.851  27.690  1.00  0.00     0.010 A 
ATOM     10  C   UNL A   1      38.068  29.084  28.864  1.00  0.00    -0.014 A 
BRANCH  10  11
ATOM     11  C   UNL A   1      39.342  28.515  29.345  1.00  0.00     0.031 A 
ATOM     12  C   UNL A   1      39.884  29.125  30.603  1.00  0.00     0.074 A 
ATOM     13  C   UNL A   1      39.883  27.412  28.798  1.00  0.00     0.049 A 
ATOM     14  N   UNL A   1      40.869  28.728  31.356  1.00  0.00    -0.248 NA
ATOM     15  C   UNL A   1      39.176  30.317  31.106  1.00  0.00     0.031 C 
ATOM     16  C   UNL A   1      39.346  26.675  27.655  1.00  0.00     0.029 A 
ATOM     17  N   UNL A   1      41.008  26.708  29.141  1.00  0.00    -0.354 N 
ATOM     18  C   UNL A   1      40.854  29.582  32.453  1.00  0.00     0.074 A 
ATOM     19  C   UNL A   1      39.830  30.570  32.223  1.00  0.00     0.031 C 
ATOM     20  C   UNL A   1      40.183  25.667  27.343  1.00  0.00     0.029 A 
ATOM     21  C   UNL A   1      41.291  25.662  28.293  1.00  0.00     0.049 A 
ATOM     22  H   UNL A   1      41.563  26.931  29.923  1.00  0.00     0.167 HD
ATOM     23  C   UNL A   1      41.601  29.515  33.577  1.00  0.00     0.034 A 
ATOM     24  C   UNL A   1      42.329  24.801  28.302  1.00  0.00     0.034 A 
ATOM     25  C   UNL A   1      42.661  28.563  33.745  1.00  0.00     0.049 A 
ATOM     26  C   UNL A   1      43.291  24.878  29.464  1.00  0.00     0.074 A 
ATOM     27  C   UNL A   1      43.555  28.438  34.788  1.00  0.00     0.029 A 
ATOM     28  N   UNL A   1      42.988  27.584  32.811  1.00  0.00    -0.354 N 
ATOM     29  N   UNL A   1      43.259  25.678  30.508  1.00  0.00    -0.248 NA
ATOM     30  C   UNL A   1      44.400  23.918  29.476  1.00  0.00     0.031 C 
ATOM     31  C   UNL A   1      44.469  27.432  34.452  1.00  0.00     0.029 A 
ATOM     32  C   UNL A   1      44.095  26.875  33.236  1.00  0.00     0.049 A 
ATOM     33  H   UNL A   1      42.503  27.421  31.970  1.00  0.00     0.167 HD
ATOM     34  C   UNL A   1      44.313  25.281  31.326  1.00  0.00     0.074 A 
ATOM     35  C   UNL A   1      44.958  24.171  30.651  1.00  0.00     0.031 C 
ATOM     36  C   UNL A   1      44.707  25.773  32.529  1.00  0.00     0.034 A 
BRANCH  23  37
ATOM     37  C   UNL A   1      41.312  30.551  34.629  1.00  0.00     0.023 A 
ATOM     38  C   UNL A   1      40.169  30.461  35.448  1.00  0.00     0.031 A 
ATOM     39  C   UNL A   1      42.100  31.709  34.718  1.00  0.00     0.131 A 
ATOM     40  C   UNL A   1      39.795  31.551  36.246  1.00  0.00     0.055 A 
ATOM     41  C   UNL A   1      41.768  32.756  35.580  1.00  0.00     0.041 A 
ATOM     42  F   UNL A   1      43.177  31.864  33.932  1.00  0.00    -0.206 F 
ATOM     43  C   UNL A   1      40.600  32.690  36.335  1.00  0.00     0.022 A 
BRANCH  40  44
ATOM     44  S   UNL A   1      38.153  31.536  37.021  1.00  0.00     0.124 S 
ATOM     45  O   UNL A   1      37.831  30.112  36.999  1.00  0.00    -0.237 OA
ATOM     46  O   UNL A   1      38.418  32.109  38.336  1.00  0.00    -0.237 OA
ATOM     47  O   UNL A   1      37.347  32.366  36.129  1.00  0.00    -0.744 OA
ENDBRANCH  40  44
ENDBRANCH  23  37
BRANCH  24  48
ATOM     48  C   UNL A   1      42.525  23.813  27.199  1.00  0.00     0.023 A 
ATOM     49  C   UNL A   1      41.925  22.543  27.227  1.00  0.00     0.031 A 
ATOM     50  C   UNL A   1      43.391  24.103  26.127  1.00  0.00     0.131 A 
ATOM     51  C   UNL A   1      42.238  21.595  26.236  1.00  0.00     0.055 A 
ATOM     52  C   UNL A   1      43.667  23.172  25.122  1.00  0.00     0.041 A 
ATOM     53  F   UNL A   1      43.990  25.301  26.044  1.00  0.00    -0.206 F 
ATOM     54  C   UNL A   1      43.100  21.903  25.181  1.00  0.00     0.022 A 
BRANCH  51  55
ATOM     55  S   UNL A   1      41.566  19.916  26.392  1.00  0.00     0.124 S 
ATOM     56  O   UNL A   1      42.308  19.201  25.359  1.00  0.00    -0.237 OA
ATOM     57  O   UNL A   1      41.905  19.585  27.772  1.00  0.00    -0.237 OA
ATOM     58  O   UNL A   1      40.140  20.094  26.128  1.00  0.00    -0.744 OA
ENDBRANCH  51  55
ENDBRANCH  24  48
BRANCH  36  59
ATOM     59  C   UNL A   1      45.859  25.079  33.207  1.00  0.00     0.023 A 
ATOM     60  C   UNL A   1      45.669  23.921  33.979  1.00  0.00     0.031 A 
ATOM     61  C   UNL A   1      47.167  25.572  33.051  1.00  0.00     0.131 A 
ATOM     62  C   UNL A   1      46.768  23.320  34.606  1.00  0.00     0.055 A 
ATOM     63  C   UNL A   1      48.263  24.930  33.623  1.00  0.00     0.041 A 
ATOM     64  F   UNL A   1      47.398  26.676  32.323  1.00  0.00    -0.206 F 
ATOM     65  C   UNL A   1      48.066  23.803  34.416  1.00  0.00     0.022 A 
BRANCH  62  66
ATOM     66  S   UNL A   1      46.465  21.944  35.745  1.00  0.00     0.124 S 
ATOM     67  O   UNL A   1      45.936  20.921  34.849  1.00  0.00    -0.237 OA
ATOM     68  O   UNL A   1      47.795  21.688  36.289  1.00  0.00    -0.237 OA
ATOM     69  O   UNL A   1      45.501  22.495  36.697  1.00  0.00    -0.744 OA
ENDBRANCH  62  66
ENDBRANCH  36  59
ENDBRANCH  10  11
ENDBRANCH   3   5
ENDBRANCH   2   3
ENDBRANCH   1   2
BRANCH   1  70
ATOM     70  C   UNL A   1      31.893  29.635  25.688  1.00  0.00     0.274 C 
BRANCH  70  71
ATOM     71  O   UNL A   1      31.395  28.310  25.993  1.00  0.00    -0.462 OA
BRANCH  71  72
ATOM     72  C   UNL A   1      32.322  27.332  25.818  1.00  0.00     0.310 C 
ATOM     73  O   UNL A   1      32.903  26.838  26.769  1.00  0.00    -0.252 OA
BRANCH  72  74
ATOM     74  C   UNL A   1      32.512  26.825  24.391  1.00  0.00     0.115 C 
ATOM     75  C   UNL A   1      33.613  25.866  23.840  1.00  0.00     0.004 C 
ATOM     76  C   UNL A   1      31.160  26.455  23.760  1.00  0.00     0.096 C 
ATOM     77  C   UNL A   1      33.196  24.386  23.648  1.00  0.00     0.005 C 
ATOM     78  C   UNL A   1      33.850  26.313  22.366  1.00  0.00     0.005 C 
ATOM     79  C   UNL A   1      31.398  25.636  22.464  1.00  0.00     0.002 C 
ATOM     80  C   UNL A   1      31.905  24.247  22.833  1.00  0.00     0.005 C 
ATOM     81  C   UNL A   1      32.507  26.302  21.605  1.00  0.00     0.005 C 
BRANCH  76  82
ATOM     82  C   UNL A   1      29.960  25.940  24.608  1.00  0.00     0.228 C 
ATOM     83  O   UNL A   1      28.865  26.501  24.412  1.00  0.00    -0.274 OA
ATOM     84  N   UNL A   1      29.883  24.843  25.424  1.00  0.00    -0.326 N 
ATOM     85  H   UNL A   1      28.973  24.703  25.769  1.00  0.00     0.169 HD
BRANCH  84  86
ATOM     86  C   UNL A   1      30.779  23.869  25.889  1.00  0.00     0.041 A 
ATOM     87  C   UNL A   1      30.663  22.583  25.375  1.00  0.00     0.027 A 
ATOM     88  C   UNL A   1      31.764  24.073  26.841  1.00  0.00     0.027 A 
ATOM     89  C   UNL A   1      31.714  21.668  25.544  1.00  0.00     0.016 A 
ATOM     90  C   UNL A   1      32.829  23.184  27.008  1.00  0.00     0.016 A 
ATOM     91  C   UNL A   1      32.875  22.017  26.260  1.00  0.00     0.040 A 
BRANCH  91  92
ATOM     92  C   UNL A   1      34.135  21.263  25.939  1.00  0.00     0.253 C 
ATOM     93  O   UNL A   1      34.056  20.041  25.811  1.00  0.00    -0.269 OA
ATOM     94  N   UNL A   1      35.242  21.960  25.484  1.00  0.00    -0.339 N 
ATOM     95  C   UNL A   1      36.047  22.967  26.154  1.00  0.00     0.120 C 
ATOM     96  C   UNL A   1      35.901  21.548  24.253  1.00  0.00     0.120 C 
ATOM     97  C   UNL A   1      36.682  23.706  24.988  1.00  0.00     0.023 C 
ATOM     98  C   UNL A   1      37.028  22.560  24.040  1.00  0.00     0.023 C 
ENDBRANCH  91  92
ENDBRANCH  84  86
ENDBRANCH  76  82
ENDBRANCH  72  74
ENDBRANCH  71  72
ENDBRANCH  70  71
ENDBRANCH   1  70
TORSDOF 17
ENDMDL
