MODEL 1
REMARK VINA RESULT:     -11.8      0.000      0.000
REMARK SMILES Cc1nc(CCNc2nccc(-c3cc(C(=O)OCCOC(=O)c4ccc(-c5c6nc(c(-c7cc(S(=O)(=O)[O-])ccc7F)c7ccc([nH]7)c(-c7cc(S(=O)(=O)[O-])ccc7F)c7nc(c(-c8cc(S(=O)(=O)[O-])ccc8F)c8ccc5[nH]8)C=C7)C=C6)cc4)ccn3)n2)cc(=O)[nH]1
REMARK SMILES IDX 19 1 18 2 16 3 17 4 15 5 13 6 14 7 89 8 88 9 87 10 12 11
REMARK SMILES IDX 8 12 9 13 90 14 10 15 11 16 7 17 6 19 5 20 4 21 1 22 2 23
REMARK SMILES IDX 3 24 94 25 92 26 91 28 93 29 20 30 21 31 22 32 23 33 24 34
REMARK SMILES IDX 25 35 86 36 26 37 85 38 27 39 28 40 29 41 79 42 30 43 84 44
REMARK SMILES IDX 78 45 80 46 31 47 83 48 77 49 76 50 32 52 64 53 44 54 63 55
REMARK SMILES IDX 45 56 48 57 62 58 81 59 46 60 47 61 61 63 82 64 49 65 33 66
REMARK SMILES IDX 34 67 42 68 35 69 41 70 43 71 40 72 36 73 37 74 38 75 39 76
REMARK SMILES IDX 65 77 66 78 74 79 67 80 73 81 75 82 72 83 68 84 69 85 70 86
REMARK SMILES IDX 71 87 50 88 51 89 59 90 52 91 58 92 60 93 57 94 53 95 54 96
REMARK SMILES IDX 55 97 56 98
REMARK H PARENT 7 18 94 27 80 51 48 62
REMARK Flexibility Score: inf
ROOT
ATOM      1  C   UNL A   1      33.205  29.383  24.715  1.00  0.00     0.275 C 
ENDROOT
BRANCH   1   2
ATOM      2  O   UNL A   1      32.833  29.210  23.333  1.00  0.00    -0.458 OA
BRANCH   2   3
ATOM      3  C   UNL A   1      33.066  27.986  22.796  1.00  0.00     0.338 C 
ATOM      4  O   UNL A   1      33.825  27.724  21.883  1.00  0.00    -0.246 OA
BRANCH   3   5
ATOM      5  C   UNL A   1      32.301  26.956  23.534  1.00  0.00     0.063 A 
ATOM      6  C   UNL A   1      32.174  25.132  25.050  1.00  0.00     0.090 A 
ATOM      7  C   UNL A   1      32.953  26.044  24.357  1.00  0.00     0.046 A 
ATOM      8  N   UNL A   1      30.823  25.063  24.909  1.00  0.00    -0.255 NA
ATOM      9  C   UNL A   1      30.220  25.941  24.096  1.00  0.00     0.112 A 
ATOM     10  C   UNL A   1      30.908  26.935  23.439  1.00  0.00     0.036 A 
BRANCH   6  11
ATOM     11  C   UNL A   1      32.720  24.265  26.093  1.00  0.00     0.094 A 
ATOM     12  C   UNL A   1      34.573  23.132  26.793  1.00  0.00     0.223 A 
ATOM     13  N   UNL A   1      33.855  22.305  27.565  1.00  0.00    -0.222 NA
ATOM     14  N   UNL A   1      34.061  24.147  26.108  1.00  0.00    -0.211 NA
ATOM     15  C   UNL A   1      32.531  22.524  27.620  1.00  0.00     0.117 A 
ATOM     16  C   UNL A   1      31.897  23.490  26.884  1.00  0.00     0.051 A 
BRANCH  12  17
ATOM     17  N   UNL A   1      35.892  22.833  26.637  1.00  0.00    -0.354 N 
ATOM     18  H   UNL A   1      36.483  22.845  27.425  1.00  0.00     0.163 HD
BRANCH  17  19
ATOM     19  C   UNL A   1      36.449  22.497  25.343  1.00  0.00     0.122 C 
BRANCH  19  20
ATOM     20  C   UNL A   1      36.225  21.004  25.034  1.00  0.00     0.077 C 
BRANCH  20  21
ATOM     21  C   UNL A   1      34.793  20.696  24.635  1.00  0.00     0.050 A 
ATOM     22  C   UNL A   1      32.152  22.441  22.752  1.00  0.00     0.087 C 
ATOM     23  C   UNL A   1      32.913  21.466  23.599  1.00  0.00     0.105 A 
ATOM     24  N   UNL A   1      34.158  21.661  23.885  1.00  0.00    -0.240 NA
ATOM     25  N   UNL A   1      32.200  20.379  24.019  1.00  0.00    -0.311 N 
ATOM     26  C   UNL A   1      32.776  19.374  24.732  1.00  0.00     0.251 A 
ATOM     27  H   UNL A   1      31.242  20.322  23.800  1.00  0.00     0.171 HD
ATOM     28  C   UNL A   1      34.207  19.544  25.001  1.00  0.00     0.095 A 
ATOM     29  O   UNL A   1      32.153  18.400  25.136  1.00  0.00    -0.270 OA
ENDBRANCH  20  21
ENDBRANCH  19  20
ENDBRANCH  17  19
ENDBRANCH  12  17
ENDBRANCH   6  11
ENDBRANCH   3   5
ENDBRANCH   2   3
ENDBRANCH   1   2
BRANCH   1  30
ATOM     30  C   UNL A   1      32.101  30.086  25.507  1.00  0.00     0.275 C 
BRANCH  30  31
ATOM     31  O   UNL A   1      32.462  30.213  26.895  1.00  0.00    -0.458 OA
BRANCH  31  32
ATOM     32  C   UNL A   1      33.075  31.375  27.216  1.00  0.00     0.338 C 
ATOM     33  O   UNL A   1      32.573  32.485  27.257  1.00  0.00    -0.246 OA
BRANCH  32  34
ATOM     34  C   UNL A   1      34.454  31.117  27.655  1.00  0.00     0.060 A 
ATOM     35  C   UNL A   1      34.770  29.811  28.003  1.00  0.00     0.016 A 
ATOM     36  C   UNL A   1      35.357  32.141  27.911  1.00  0.00     0.016 A 
ATOM     37  C   UNL A   1      35.920  29.527  28.728  1.00  0.00     0.010 A 
ATOM     38  C   UNL A   1      36.582  31.834  28.524  1.00  0.00     0.010 A 
ATOM     39  C   UNL A   1      36.861  30.529  28.980  1.00  0.00    -0.014 A 
BRANCH  39  40
ATOM     40  C   UNL A   1      38.107  30.208  29.742  1.00  0.00     0.031 A 
ATOM     41  C   UNL A   1      39.141  29.284  29.149  1.00  0.00     0.074 A 
ATOM     42  C   UNL A   1      38.330  30.762  30.954  1.00  0.00     0.049 A 
ATOM     43  N   UNL A   1      40.186  28.735  29.716  1.00  0.00    -0.248 NA
ATOM     44  C   UNL A   1      38.965  28.915  27.737  1.00  0.00     0.031 C 
ATOM     45  C   UNL A   1      37.449  31.725  31.623  1.00  0.00     0.029 A 
ATOM     46  N   UNL A   1      39.367  30.604  31.841  1.00  0.00    -0.354 N 
ATOM     47  C   UNL A   1      40.758  27.912  28.749  1.00  0.00     0.074 A 
ATOM     48  C   UNL A   1      39.929  28.021  27.567  1.00  0.00     0.031 C 
ATOM     49  C   UNL A   1      38.003  32.101  32.783  1.00  0.00     0.029 A 
ATOM     50  C   UNL A   1      39.211  31.320  33.007  1.00  0.00     0.049 A 
ATOM     51  H   UNL A   1      40.148  30.033  31.660  1.00  0.00     0.167 HD
ATOM     52  C   UNL A   1      41.870  27.139  28.843  1.00  0.00     0.034 A 
ATOM     53  C   UNL A   1      39.916  31.309  34.155  1.00  0.00     0.034 A 
ATOM     54  C   UNL A   1      42.703  27.075  30.022  1.00  0.00     0.049 A 
ATOM     55  C   UNL A   1      41.099  30.384  34.266  1.00  0.00     0.074 A 
ATOM     56  C   UNL A   1      43.858  26.338  30.222  1.00  0.00     0.029 A 
ATOM     57  N   UNL A   1      42.475  27.776  31.200  1.00  0.00    -0.354 N 
ATOM     58  N   UNL A   1      41.592  29.565  33.366  1.00  0.00    -0.248 NA
ATOM     59  C   UNL A   1      41.813  30.374  35.548  1.00  0.00     0.031 C 
ATOM     60  C   UNL A   1      44.281  26.531  31.542  1.00  0.00     0.029 A 
ATOM     61  C   UNL A   1      43.447  27.461  32.139  1.00  0.00     0.049 A 
ATOM     62  H   UNL A   1      41.732  28.405  31.347  1.00  0.00     0.167 HD
ATOM     63  C   UNL A   1      42.693  28.961  33.968  1.00  0.00     0.074 A 
ATOM     64  C   UNL A   1      42.800  29.527  35.298  1.00  0.00     0.031 C 
ATOM     65  C   UNL A   1      43.538  28.025  33.466  1.00  0.00     0.034 A 
BRANCH  52  66
ATOM     66  C   UNL A   1      42.210  26.251  27.666  1.00  0.00     0.023 A 
ATOM     67  C   UNL A   1      41.725  24.938  27.549  1.00  0.00     0.031 A 
ATOM     68  C   UNL A   1      43.061  26.728  26.650  1.00  0.00     0.131 A 
ATOM     69  C   UNL A   1      42.152  24.125  26.486  1.00  0.00     0.055 A 
ATOM     70  C   UNL A   1      43.411  25.944  25.550  1.00  0.00     0.041 A 
ATOM     71  F   UNL A   1      43.576  27.966  26.715  1.00  0.00    -0.206 F 
ATOM     72  C   UNL A   1      42.970  24.628  25.472  1.00  0.00     0.022 A 
BRANCH  69  73
ATOM     73  S   UNL A   1      41.751  22.356  26.531  1.00  0.00     0.124 S 
ATOM     74  O   UNL A   1      40.295  22.381  26.413  1.00  0.00    -0.237 OA
ATOM     75  O   UNL A   1      42.478  21.840  25.377  1.00  0.00    -0.237 OA
ATOM     76  O   UNL A   1      42.257  21.922  27.832  1.00  0.00    -0.744 OA
ENDBRANCH  69  73
ENDBRANCH  52  66
BRANCH  53  77
ATOM     77  C   UNL A   1      39.481  32.138  35.319  1.00  0.00     0.023 A 
ATOM     78  C   UNL A   1      40.002  33.424  35.531  1.00  0.00     0.031 A 
ATOM     79  C   UNL A   1      38.565  31.637  36.264  1.00  0.00     0.131 A 
ATOM     80  C   UNL A   1      39.638  34.145  36.679  1.00  0.00     0.055 A 
ATOM     81  C   UNL A   1      38.153  32.386  37.367  1.00  0.00     0.041 A 
ATOM     82  F   UNL A   1      38.040  30.409  36.119  1.00  0.00    -0.206 F 
ATOM     83  C   UNL A   1      38.702  33.644  37.587  1.00  0.00     0.022 A 
BRANCH  80  84
ATOM     84  S   UNL A   1      40.484  35.713  37.025  1.00  0.00     0.124 S 
ATOM     85  O   UNL A   1      40.953  36.093  35.697  1.00  0.00    -0.237 OA
ATOM     86  O   UNL A   1      39.406  36.522  37.581  1.00  0.00    -0.237 OA
ATOM     87  O   UNL A   1      41.530  35.332  37.972  1.00  0.00    -0.744 OA
ENDBRANCH  80  84
ENDBRANCH  53  77
BRANCH  65  88
ATOM     88  C   UNL A   1      44.688  27.601  34.347  1.00  0.00     0.023 A 
ATOM     89  C   UNL A   1      44.589  26.508  35.227  1.00  0.00     0.031 A 
ATOM     90  C   UNL A   1      45.898  28.318  34.320  1.00  0.00     0.131 A 
ATOM     91  C   UNL A   1      45.654  26.204  36.086  1.00  0.00     0.055 A 
ATOM     92  C   UNL A   1      46.981  27.966  35.126  1.00  0.00     0.041 A 
ATOM     93  F   UNL A   1      46.048  29.374  33.505  1.00  0.00    -0.206 F 
ATOM     94  C   UNL A   1      46.857  26.913  36.027  1.00  0.00     0.022 A 
BRANCH  91  95
ATOM     95  S   UNL A   1      45.411  24.937  37.361  1.00  0.00     0.124 S 
ATOM     96  O   UNL A   1      44.305  25.494  38.133  1.00  0.00    -0.237 OA
ATOM     97  O   UNL A   1      45.101  23.751  36.568  1.00  0.00    -0.237 OA
ATOM     98  O   UNL A   1      46.696  24.898  38.057  1.00  0.00    -0.744 OA
ENDBRANCH  91  95
ENDBRANCH  65  88
ENDBRANCH  39  40
ENDBRANCH  32  34
ENDBRANCH  31  32
ENDBRANCH  30  31
ENDBRANCH   1  30
TORSDOF 19
ENDMDL
MODEL 2
REMARK VINA RESULT:     -11.6      4.800      8.132
REMARK SMILES Cc1nc(CCNc2nccc(-c3cc(C(=O)OCCOC(=O)c4ccc(-c5c6nc(c(-c7cc(S(=O)(=O)[O-])ccc7F)c7ccc([nH]7)c(-c7cc(S(=O)(=O)[O-])ccc7F)c7nc(c(-c8cc(S(=O)(=O)[O-])ccc8F)c8ccc5[nH]8)C=C7)C=C6)cc4)ccn3)n2)cc(=O)[nH]1
REMARK SMILES IDX 19 1 18 2 16 3 17 4 15 5 13 6 14 7 89 8 88 9 87 10 12 11
REMARK SMILES IDX 8 12 9 13 90 14 10 15 11 16 7 17 6 19 5 20 4 21 1 22 2 23
REMARK SMILES IDX 3 24 94 25 92 26 91 28 93 29 20 30 21 31 22 32 23 33 24 34
REMARK SMILES IDX 25 35 86 36 26 37 85 38 27 39 28 40 29 41 79 42 30 43 84 44
REMARK SMILES IDX 78 45 80 46 31 47 83 48 77 49 76 50 32 52 64 53 44 54 63 55
REMARK SMILES IDX 45 56 48 57 62 58 81 59 46 60 47 61 61 63 82 64 49 65 33 66
REMARK SMILES IDX 34 67 42 68 35 69 41 70 43 71 40 72 36 73 37 74 38 75 39 76
REMARK SMILES IDX 65 77 66 78 74 79 67 80 73 81 75 82 72 83 68 84 69 85 70 86
REMARK SMILES IDX 71 87 50 88 51 89 59 90 52 91 58 92 60 93 57 94 53 95 54 96
REMARK SMILES IDX 55 97 56 98
REMARK H PARENT 7 18 94 27 80 51 48 62
REMARK Flexibility Score: inf
ROOT
ATOM      1  C   UNL A   1      37.335  19.230  24.964  1.00  0.00     0.275 C 
ENDROOT
BRANCH   1   2
ATOM      2  O   UNL A   1      36.799  20.518  24.600  1.00  0.00    -0.458 OA
BRANCH   2   3
ATOM      3  C   UNL A   1      35.477  20.708  24.837  1.00  0.00     0.338 C 
ATOM      4  O   UNL A   1      34.617  19.851  24.897  1.00  0.00    -0.246 OA
BRANCH   3   5
ATOM      5  C   UNL A   1      35.210  22.142  25.091  1.00  0.00     0.063 A 
ATOM      6  C   UNL A   1      33.727  23.978  25.361  1.00  0.00     0.090 A 
ATOM      7  C   UNL A   1      33.910  22.635  25.075  1.00  0.00     0.046 A 
ATOM      8  N   UNL A   1      34.764  24.827  25.593  1.00  0.00    -0.255 NA
ATOM      9  C   UNL A   1      36.010  24.331  25.586  1.00  0.00     0.112 A 
ATOM     10  C   UNL A   1      36.273  22.994  25.399  1.00  0.00     0.036 A 
BRANCH   6  11
ATOM     11  C   UNL A   1      32.404  24.563  25.574  1.00  0.00     0.094 A 
ATOM     12  C   UNL A   1      31.265  26.290  26.536  1.00  0.00     0.223 A 
ATOM     13  N   UNL A   1      30.109  25.610  26.541  1.00  0.00    -0.222 NA
ATOM     14  N   UNL A   1      32.396  25.836  26.011  1.00  0.00    -0.211 NA
ATOM     15  C   UNL A   1      30.126  24.385  25.989  1.00  0.00     0.117 A 
ATOM     16  C   UNL A   1      31.260  23.795  25.500  1.00  0.00     0.051 A 
BRANCH  12  17
ATOM     17  N   UNL A   1      31.279  27.475  27.205  1.00  0.00    -0.354 N 
ATOM     18  H   UNL A   1      30.542  27.686  27.824  1.00  0.00     0.163 HD
BRANCH  17  19
ATOM     19  C   UNL A   1      32.349  28.435  27.031  1.00  0.00     0.122 C 
BRANCH  19  20
ATOM     20  C   UNL A   1      31.859  29.643  26.212  1.00  0.00     0.077 C 
BRANCH  20  21
ATOM     21  C   UNL A   1      31.781  29.352  24.724  1.00  0.00     0.050 A 
ATOM     22  C   UNL A   1      34.180  28.364  22.108  1.00  0.00     0.087 C 
ATOM     23  C   UNL A   1      32.950  28.808  22.843  1.00  0.00     0.105 A 
ATOM     24  N   UNL A   1      32.965  28.983  24.124  1.00  0.00    -0.240 NA
ATOM     25  N   UNL A   1      31.842  28.992  22.066  1.00  0.00    -0.311 N 
ATOM     26  C   UNL A   1      30.636  29.322  22.600  1.00  0.00     0.251 A 
ATOM     27  H   UNL A   1      31.919  28.884  21.090  1.00  0.00     0.171 HD
ATOM     28  C   UNL A   1      30.618  29.452  24.061  1.00  0.00     0.095 A 
ATOM     29  O   UNL A   1      29.634  29.512  21.922  1.00  0.00    -0.270 OA
ENDBRANCH  20  21
ENDBRANCH  19  20
ENDBRANCH  17  19
ENDBRANCH  12  17
ENDBRANCH   6  11
ENDBRANCH   3   5
ENDBRANCH   2   3
ENDBRANCH   1   2
BRANCH   1  30
ATOM     30  C   UNL A   1      38.807  19.332  25.371  1.00  0.00     0.275 C 
BRANCH  30  31
ATOM     31  O   UNL A   1      39.030  20.473  26.219  1.00  0.00    -0.458 OA
BRANCH  31  32
ATOM     32  C   UNL A   1      40.271  20.548  26.751  1.00  0.00     0.338 C 
ATOM     33  O   UNL A   1      41.124  19.677  26.756  1.00  0.00    -0.246 OA
BRANCH  32  34
ATOM     34  C   UNL A   1      40.534  21.910  27.235  1.00  0.00     0.060 A 
ATOM     35  C   UNL A   1      39.868  22.946  26.596  1.00  0.00     0.016 A 
ATOM     36  C   UNL A   1      41.543  22.193  28.148  1.00  0.00     0.016 A 
ATOM     37  C   UNL A   1      40.284  24.262  26.750  1.00  0.00     0.010 A 
ATOM     38  C   UNL A   1      41.874  23.533  28.407  1.00  0.00     0.010 A 
ATOM     39  C   UNL A   1      41.279  24.584  27.679  1.00  0.00    -0.014 A 
BRANCH  39  40
ATOM     40  C   UNL A   1      41.704  26.006  27.854  1.00  0.00     0.031 A 
ATOM     41  C   UNL A   1      43.023  26.477  27.294  1.00  0.00     0.074 A 
ATOM     42  C   UNL A   1      40.902  26.887  28.490  1.00  0.00     0.049 A 
ATOM     43  N   UNL A   1      43.656  27.605  27.497  1.00  0.00    -0.248 NA
ATOM     44  C   UNL A   1      43.731  25.548  26.402  1.00  0.00     0.031 C 
ATOM     45  C   UNL A   1      39.570  26.590  29.026  1.00  0.00     0.029 A 
ATOM     46  N   UNL A   1      41.082  28.215  28.793  1.00  0.00    -0.354 N 
ATOM     47  C   UNL A   1      44.861  27.498  26.807  1.00  0.00     0.074 A 
ATOM     48  C   UNL A   1      44.875  26.185  26.197  1.00  0.00     0.031 C 
ATOM     49  C   UNL A   1      39.041  27.705  29.546  1.00  0.00     0.029 A 
ATOM     50  C   UNL A   1      40.035  28.768  29.497  1.00  0.00     0.049 A 
ATOM     51  H   UNL A   1      41.882  28.724  28.530  1.00  0.00     0.167 HD
ATOM     52  C   UNL A   1      45.858  28.412  26.696  1.00  0.00     0.034 A 
ATOM     53  C   UNL A   1      39.905  29.968  30.096  1.00  0.00     0.034 A 
ATOM     54  C   UNL A   1      45.805  29.731  27.283  1.00  0.00     0.049 A 
ATOM     55  C   UNL A   1      41.057  30.936  30.028  1.00  0.00     0.074 A 
ATOM     56  C   UNL A   1      46.751  30.741  27.222  1.00  0.00     0.029 A 
ATOM     57  N   UNL A   1      44.748  30.229  28.036  1.00  0.00    -0.354 N 
ATOM     58  N   UNL A   1      42.215  30.798  29.426  1.00  0.00    -0.248 NA
ATOM     59  C   UNL A   1      40.889  32.214  30.730  1.00  0.00     0.031 C 
ATOM     60  C   UNL A   1      46.302  31.813  28.002  1.00  0.00     0.029 A 
ATOM     61  C   UNL A   1      45.035  31.514  28.473  1.00  0.00     0.049 A 
ATOM     62  H   UNL A   1      43.916  29.739  28.232  1.00  0.00     0.167 HD
ATOM     63  C   UNL A   1      42.904  31.987  29.654  1.00  0.00     0.074 A 
ATOM     64  C   UNL A   1      42.021  32.834  30.432  1.00  0.00     0.031 C 
ATOM     65  C   UNL A   1      44.150  32.345  29.256  1.00  0.00     0.034 A 
BRANCH  52  66
ATOM     66  C   UNL A   1      47.117  27.992  25.970  1.00  0.00     0.023 A 
ATOM     67  C   UNL A   1      47.273  28.145  24.582  1.00  0.00     0.031 A 
ATOM     68  C   UNL A   1      48.177  27.402  26.686  1.00  0.00     0.131 A 
ATOM     69  C   UNL A   1      48.422  27.649  23.946  1.00  0.00     0.055 A 
ATOM     70  C   UNL A   1      49.354  26.990  26.060  1.00  0.00     0.041 A 
ATOM     71  F   UNL A   1      48.081  27.207  28.010  1.00  0.00    -0.206 F 
ATOM     72  C   UNL A   1      49.475  27.096  24.679  1.00  0.00     0.022 A 
BRANCH  69  73
ATOM     73  S   UNL A   1      48.455  27.590  22.133  1.00  0.00     0.124 S 
ATOM     74  O   UNL A   1      49.609  28.433  21.832  1.00  0.00    -0.237 OA
ATOM     75  O   UNL A   1      48.615  26.165  21.867  1.00  0.00    -0.237 OA
ATOM     76  O   UNL A   1      47.162  28.155  21.748  1.00  0.00    -0.744 OA
ENDBRANCH  69  73
ENDBRANCH  52  66
BRANCH  53  77
ATOM     77  C   UNL A   1      38.676  30.295  30.879  1.00  0.00     0.023 A 
ATOM     78  C   UNL A   1      37.612  31.004  30.300  1.00  0.00     0.031 A 
ATOM     79  C   UNL A   1      38.565  29.939  32.237  1.00  0.00     0.131 A 
ATOM     80  C   UNL A   1      36.507  31.369  31.084  1.00  0.00     0.055 A 
ATOM     81  C   UNL A   1      37.433  30.244  32.994  1.00  0.00     0.041 A 
ATOM     82  F   UNL A   1      39.555  29.268  32.848  1.00  0.00    -0.206 F 
ATOM     83  C   UNL A   1      36.400  30.977  32.421  1.00  0.00     0.022 A 
BRANCH  80  84
ATOM     84  S   UNL A   1      35.249  32.457  30.358  1.00  0.00     0.124 S 
ATOM     85  O   UNL A   1      36.039  33.634  30.015  1.00  0.00    -0.237 OA
ATOM     86  O   UNL A   1      34.768  31.657  29.237  1.00  0.00    -0.237 OA
ATOM     87  O   UNL A   1      34.291  32.642  31.446  1.00  0.00    -0.744 OA
ENDBRANCH  80  84
ENDBRANCH  53  77
BRANCH  65  88
ATOM     88  C   UNL A   1      44.606  33.740  29.611  1.00  0.00     0.023 A 
ATOM     89  C   UNL A   1      44.274  34.855  28.822  1.00  0.00     0.031 A 
ATOM     90  C   UNL A   1      45.406  33.951  30.749  1.00  0.00     0.131 A 
ATOM     91  C   UNL A   1      44.791  36.118  29.146  1.00  0.00     0.055 A 
ATOM     92  C   UNL A   1      45.858  35.221  31.106  1.00  0.00     0.041 A 
ATOM     93  F   UNL A   1      45.761  32.922  31.536  1.00  0.00    -0.206 F 
ATOM     94  C   UNL A   1      45.563  36.312  30.294  1.00  0.00     0.022 A 
BRANCH  91  95
ATOM     95  S   UNL A   1      44.531  37.489  27.986  1.00  0.00     0.124 S 
ATOM     96  O   UNL A   1      44.354  36.785  26.721  1.00  0.00    -0.237 OA
ATOM     97  O   UNL A   1      43.339  38.134  28.529  1.00  0.00    -0.237 OA
ATOM     98  O   UNL A   1      45.762  38.270  28.096  1.00  0.00    -0.744 OA
ENDBRANCH  91  95
ENDBRANCH  65  88
ENDBRANCH  39  40
ENDBRANCH  32  34
ENDBRANCH  31  32
ENDBRANCH  30  31
ENDBRANCH   1  30
TORSDOF 19
ENDMDL
MODEL 3
REMARK VINA RESULT:     -11.4      2.691      8.599
REMARK SMILES Cc1nc(CCNc2nccc(-c3cc(C(=O)OCCOC(=O)c4ccc(-c5c6nc(c(-c7cc(S(=O)(=O)[O-])ccc7F)c7ccc([nH]7)c(-c7cc(S(=O)(=O)[O-])ccc7F)c7nc(c(-c8cc(S(=O)(=O)[O-])ccc8F)c8ccc5[nH]8)C=C7)C=C6)cc4)ccn3)n2)cc(=O)[nH]1
REMARK SMILES IDX 19 1 18 2 16 3 17 4 15 5 13 6 14 7 89 8 88 9 87 10 12 11
REMARK SMILES IDX 8 12 9 13 90 14 10 15 11 16 7 17 6 19 5 20 4 21 1 22 2 23
REMARK SMILES IDX 3 24 94 25 92 26 91 28 93 29 20 30 21 31 22 32 23 33 24 34
REMARK SMILES IDX 25 35 86 36 26 37 85 38 27 39 28 40 29 41 79 42 30 43 84 44
REMARK SMILES IDX 78 45 80 46 31 47 83 48 77 49 76 50 32 52 64 53 44 54 63 55
REMARK SMILES IDX 45 56 48 57 62 58 81 59 46 60 47 61 61 63 82 64 49 65 33 66
REMARK SMILES IDX 34 67 42 68 35 69 41 70 43 71 40 72 36 73 37 74 38 75 39 76
REMARK SMILES IDX 65 77 66 78 74 79 67 80 73 81 75 82 72 83 68 84 69 85 70 86
REMARK SMILES IDX 71 87 50 88 51 89 59 90 52 91 58 92 60 93 57 94 53 95 54 96
REMARK SMILES IDX 55 97 56 98
REMARK H PARENT 7 18 94 27 80 51 48 62
REMARK Flexibility Score: inf
ROOT
ATOM      1  C   UNL A   1      41.705  20.131  26.579  1.00  0.00     0.275 C 
ENDROOT
BRANCH   1   2
ATOM      2  O   UNL A   1      40.431  20.792  26.455  1.00  0.00    -0.458 OA
BRANCH   2   3
ATOM      3  C   UNL A   1      39.467  20.120  25.777  1.00  0.00     0.338 C 
ATOM      4  O   UNL A   1      39.488  18.949  25.452  1.00  0.00    -0.246 OA
BRANCH   3   5
ATOM      5  C   UNL A   1      38.308  21.007  25.532  1.00  0.00     0.063 A 
ATOM      6  C   UNL A   1      36.021  21.361  24.997  1.00  0.00     0.090 A 
ATOM      7  C   UNL A   1      37.073  20.478  25.172  1.00  0.00     0.046 A 
ATOM      8  N   UNL A   1      36.167  22.709  25.104  1.00  0.00    -0.255 NA
ATOM      9  C   UNL A   1      37.372  23.196  25.434  1.00  0.00     0.112 A 
ATOM     10  C   UNL A   1      38.448  22.385  25.712  1.00  0.00     0.036 A 
BRANCH   6  11
ATOM     11  C   UNL A   1      34.640  20.913  24.821  1.00  0.00     0.094 A 
ATOM     12  C   UNL A   1      32.448  21.490  25.079  1.00  0.00     0.223 A 
ATOM     13  N   UNL A   1      32.043  20.212  25.073  1.00  0.00    -0.222 NA
ATOM     14  N   UNL A   1      33.703  21.877  24.892  1.00  0.00    -0.211 NA
ATOM     15  C   UNL A   1      32.990  19.278  24.882  1.00  0.00     0.117 A 
ATOM     16  C   UNL A   1      34.323  19.571  24.766  1.00  0.00     0.051 A 
BRANCH  12  17
ATOM     17  N   UNL A   1      31.511  22.426  25.398  1.00  0.00    -0.354 N 
ATOM     18  H   UNL A   1      31.253  22.544  26.341  1.00  0.00     0.163 HD
BRANCH  17  19
ATOM     19  C   UNL A   1      30.885  23.251  24.386  1.00  0.00     0.122 C 
BRANCH  19  20
ATOM     20  C   UNL A   1      30.767  24.706  24.877  1.00  0.00     0.077 C 
BRANCH  20  21
ATOM     21  C   UNL A   1      31.005  25.720  23.772  1.00  0.00     0.050 A 
ATOM     22  C   UNL A   1      32.513  25.644  20.412  1.00  0.00     0.087 C 
ATOM     23  C   UNL A   1      31.897  26.086  21.706  1.00  0.00     0.105 A 
ATOM     24  N   UNL A   1      31.606  25.234  22.633  1.00  0.00    -0.240 NA
ATOM     25  N   UNL A   1      31.663  27.428  21.811  1.00  0.00    -0.311 N 
ATOM     26  C   UNL A   1      31.042  27.967  22.894  1.00  0.00     0.251 A 
ATOM     27  H   UNL A   1      31.954  28.023  21.081  1.00  0.00     0.171 HD
ATOM     28  C   UNL A   1      30.638  27.003  23.922  1.00  0.00     0.095 A 
ATOM     29  O   UNL A   1      30.840  29.169  23.019  1.00  0.00    -0.270 OA
ENDBRANCH  20  21
ENDBRANCH  19  20
ENDBRANCH  17  19
ENDBRANCH  12  17
ENDBRANCH   6  11
ENDBRANCH   3   5
ENDBRANCH   2   3
ENDBRANCH   1   2
BRANCH   1  30
ATOM     30  C   UNL A   1      42.822  20.941  25.918  1.00  0.00     0.275 C 
BRANCH  30  31
ATOM     31  O   UNL A   1      42.285  22.055  25.182  1.00  0.00    -0.458 OA
BRANCH  31  32
ATOM     32  C   UNL A   1      43.052  23.170  25.203  1.00  0.00     0.338 C 
ATOM     33  O   UNL A   1      44.047  23.392  24.534  1.00  0.00    -0.246 OA
BRANCH  32  34
ATOM     34  C   UNL A   1      42.445  24.186  26.074  1.00  0.00     0.060 A 
ATOM     35  C   UNL A   1      42.938  25.479  25.972  1.00  0.00     0.016 A 
ATOM     36  C   UNL A   1      41.565  23.858  27.097  1.00  0.00     0.016 A 
ATOM     37  C   UNL A   1      42.672  26.421  26.957  1.00  0.00     0.010 A 
ATOM     38  C   UNL A   1      41.187  24.849  28.019  1.00  0.00     0.010 A 
ATOM     39  C   UNL A   1      41.770  26.132  27.986  1.00  0.00    -0.014 A 
BRANCH  39  40
ATOM     40  C   UNL A   1      41.473  27.161  29.029  1.00  0.00     0.031 A 
ATOM     41  C   UNL A   1      42.340  27.265  30.259  1.00  0.00     0.074 A 
ATOM     42  C   UNL A   1      40.445  28.022  28.868  1.00  0.00     0.049 A 
ATOM     43  N   UNL A   1      42.144  27.951  31.357  1.00  0.00    -0.248 NA
ATOM     44  C   UNL A   1      43.581  26.478  30.261  1.00  0.00     0.031 C 
ATOM     45  C   UNL A   1      39.562  28.082  27.699  1.00  0.00     0.029 A 
ATOM     46  N   UNL A   1      39.967  29.018  29.684  1.00  0.00    -0.354 N 
ATOM     47  C   UNL A   1      43.205  27.634  32.202  1.00  0.00     0.074 A 
ATOM     48  C   UNL A   1      44.029  26.679  31.492  1.00  0.00     0.031 C 
ATOM     49  C   UNL A   1      38.688  29.084  27.853  1.00  0.00     0.029 A 
ATOM     50  C   UNL A   1      38.858  29.662  29.179  1.00  0.00     0.049 A 
ATOM     51  H   UNL A   1      40.377  29.251  30.548  1.00  0.00     0.167 HD
ATOM     52  C   UNL A   1      43.463  28.100  33.450  1.00  0.00     0.034 A 
ATOM     53  C   UNL A   1      38.027  30.565  29.735  1.00  0.00     0.034 A 
ATOM     54  C   UNL A   1      42.646  29.084  34.123  1.00  0.00     0.049 A 
ATOM     55  C   UNL A   1      38.287  31.007  31.152  1.00  0.00     0.074 A 
ATOM     56  C   UNL A   1      42.822  29.636  35.381  1.00  0.00     0.029 A 
ATOM     57  N   UNL A   1      41.500  29.666  33.595  1.00  0.00    -0.354 N 
ATOM     58  N   UNL A   1      39.258  30.653  31.961  1.00  0.00    -0.248 NA
ATOM     59  C   UNL A   1      37.334  31.960  31.732  1.00  0.00     0.031 C 
ATOM     60  C   UNL A   1      41.743  30.487  35.643  1.00  0.00     0.029 A 
ATOM     61  C   UNL A   1      40.942  30.543  34.515  1.00  0.00     0.049 A 
ATOM     62  H   UNL A   1      41.136  29.483  32.699  1.00  0.00     0.167 HD
ATOM     63  C   UNL A   1      39.045  31.363  33.140  1.00  0.00     0.074 A 
ATOM     64  C   UNL A   1      37.867  32.179  32.924  1.00  0.00     0.031 C 
ATOM     65  C   UNL A   1      39.761  31.344  34.293  1.00  0.00     0.034 A 
BRANCH  52  66
ATOM     66  C   UNL A   1      44.637  27.502  34.194  1.00  0.00     0.023 A 
ATOM     67  C   UNL A   1      45.942  28.011  34.077  1.00  0.00     0.031 A 
ATOM     68  C   UNL A   1      44.445  26.378  35.021  1.00  0.00     0.131 A 
ATOM     69  C   UNL A   1      47.009  27.357  34.712  1.00  0.00     0.055 A 
ATOM     70  C   UNL A   1      45.497  25.785  35.720  1.00  0.00     0.041 A 
ATOM     71  F   UNL A   1      43.227  25.830  35.157  1.00  0.00    -0.206 F 
ATOM     72  C   UNL A   1      46.793  26.264  35.554  1.00  0.00     0.022 A 
BRANCH  69  73
ATOM     73  S   UNL A   1      48.703  27.856  34.297  1.00  0.00     0.124 S 
ATOM     74  O   UNL A   1      49.336  26.564  34.041  1.00  0.00    -0.237 OA
ATOM     75  O   UNL A   1      48.504  28.713  33.135  1.00  0.00    -0.237 OA
ATOM     76  O   UNL A   1      49.165  28.540  35.505  1.00  0.00    -0.744 OA
ENDBRANCH  69  73
ENDBRANCH  52  66
BRANCH  53  77
ATOM     77  C   UNL A   1      36.829  31.053  28.989  1.00  0.00     0.023 A 
ATOM     78  C   UNL A   1      35.861  30.159  28.505  1.00  0.00     0.031 A 
ATOM     79  C   UNL A   1      36.656  32.422  28.709  1.00  0.00     0.131 A 
ATOM     80  C   UNL A   1      34.790  30.639  27.735  1.00  0.00     0.055 A 
ATOM     81  C   UNL A   1      35.553  32.901  28.002  1.00  0.00     0.041 A 
ATOM     82  F   UNL A   1      37.556  33.323  29.138  1.00  0.00    -0.206 F 
ATOM     83  C   UNL A   1      34.618  32.005  27.497  1.00  0.00     0.022 A 
BRANCH  80  84
ATOM     84  S   UNL A   1      33.673  29.439  26.958  1.00  0.00     0.124 S 
ATOM     85  O   UNL A   1      34.466  28.216  27.019  1.00  0.00    -0.237 OA
ATOM     86  O   UNL A   1      32.510  29.494  27.837  1.00  0.00    -0.237 OA
ATOM     87  O   UNL A   1      33.467  29.984  25.618  1.00  0.00    -0.744 OA
ENDBRANCH  80  84
ENDBRANCH  53  77
BRANCH  65  88
ATOM     88  C   UNL A   1      39.313  32.280  35.389  1.00  0.00     0.023 A 
ATOM     89  C   UNL A   1      38.601  31.824  36.513  1.00  0.00     0.031 A 
ATOM     90  C   UNL A   1      39.587  33.657  35.296  1.00  0.00     0.131 A 
ATOM     91  C   UNL A   1      38.134  32.743  37.463  1.00  0.00     0.055 A 
ATOM     92  C   UNL A   1      39.182  34.557  36.281  1.00  0.00     0.041 A 
ATOM     93  F   UNL A   1      40.257  34.150  34.242  1.00  0.00    -0.206 F 
ATOM     94  C   UNL A   1      38.437  34.104  37.366  1.00  0.00     0.022 A 
BRANCH  91  95
ATOM     95  S   UNL A   1      37.030  32.153  38.776  1.00  0.00     0.124 S 
ATOM     96  O   UNL A   1      37.691  32.656  39.976  1.00  0.00    -0.237 OA
ATOM     97  O   UNL A   1      35.764  32.791  38.430  1.00  0.00    -0.237 OA
ATOM     98  O   UNL A   1      37.054  30.699  38.618  1.00  0.00    -0.744 OA
ENDBRANCH  91  95
ENDBRANCH  65  88
ENDBRANCH  39  40
ENDBRANCH  32  34
ENDBRANCH  31  32
ENDBRANCH  30  31
ENDBRANCH   1  30
TORSDOF 19
ENDMDL
