MODEL 1
REMARK VINA RESULT:     -12.4      0.000      0.000
REMARK SMILES Cc1onc(-c2cccc(Br)c2)c1C(=O)OCCOC(=O)c1ccc(-c2c3nc(c(-c4cc(S(=O)(=O)[O-])ccc4F)c4ccc([nH]4)c(-c4cc(S(=O)(=O)[O-])ccc4F)c4nc(c(-c5cc(S(=O)(=O)[O-])ccc5F)c5ccc2[nH]5)C=C4)C=C3)cc1
REMARK SMILES IDX 18 1 17 2 16 3 14 4 15 5 13 6 1 7 2 8 3 9 4 10 5 11 6 12
REMARK SMILES IDX 7 13 12 14 8 15 10 16 9 17 11 18 19 19 20 20 21 21 22 22
REMARK SMILES IDX 23 23 84 24 24 25 83 26 25 27 26 28 27 29 77 30 28 31 82 32
REMARK SMILES IDX 76 33 78 34 29 35 81 36 75 37 74 38 30 40 62 41 42 42 61 43
REMARK SMILES IDX 43 44 46 45 60 46 79 47 44 48 45 49 59 51 80 52 47 53 31 54
REMARK SMILES IDX 32 55 40 56 33 57 39 58 41 59 38 60 34 61 35 62 36 63 37 64
REMARK SMILES IDX 63 65 64 66 72 67 65 68 71 69 73 70 70 71 66 72 67 73 68 74
REMARK SMILES IDX 69 75 48 76 49 77 57 78 50 79 56 80 58 81 55 82 51 83 52 84
REMARK SMILES IDX 53 85 54 86
REMARK H PARENT 78 39 46 50
REMARK Flexibility Score: inf
ROOT
ATOM      1  C   UNL A   1      31.401  29.487  25.285  1.00  0.00     0.275 C 
ENDROOT
BRANCH   1   2
ATOM      2  C   UNL A   1      31.602  28.160  26.014  1.00  0.00     0.275 C 
BRANCH   2   3
ATOM      3  O   UNL A   1      31.645  27.082  25.054  1.00  0.00    -0.458 OA
BRANCH   3   4
ATOM      4  C   UNL A   1      32.872  26.553  24.764  1.00  0.00     0.344 C 
ATOM      5  O   UNL A   1      33.734  26.325  25.601  1.00  0.00    -0.246 OA
BRANCH   4   6
ATOM      6  C   UNL A   1      33.058  26.342  23.345  1.00  0.00     0.130 A 
ATOM      7  C   UNL A   1      33.978  28.709  22.738  1.00  0.00     0.092 C 
ATOM      8  C   UNL A   1      33.525  27.322  22.503  1.00  0.00     0.148 A 
ATOM      9  O   UNL A   1      33.652  26.812  21.251  1.00  0.00    -0.360 OA
ATOM     10  N   UNL A   1      33.299  25.468  21.250  1.00  0.00    -0.079 NA
ATOM     11  C   UNL A   1      32.968  25.167  22.513  1.00  0.00     0.128 A 
BRANCH  11  12
ATOM     12  C   UNL A   1      32.716  23.782  22.964  1.00  0.00     0.006 A 
ATOM     13  C   UNL A   1      31.208  23.356  23.875  1.00  0.00     0.010 A 
ATOM     14  C   UNL A   1      34.206  22.946  23.398  1.00  0.00     0.026 A 
ATOM     15  C   UNL A   1      31.374  22.051  25.417  1.00  0.00     0.002 A 
ATOM     16  C   UNL A   1      34.330  21.795  24.728  1.00  0.00     0.018 A 
ATOM     17  C   UNL A   1      32.996  21.353  25.771  1.00  0.00     0.016 A 
ATOM     18  Br  UNL A   1      36.007  20.960  25.001  1.00  0.00    -0.051 Br
ENDBRANCH  11  12
ENDBRANCH   4   6
ENDBRANCH   3   4
ENDBRANCH   2   3
ENDBRANCH   1   2
BRANCH   1  19
ATOM     19  O   UNL A   1      32.552  30.310  25.524  1.00  0.00    -0.458 OA
BRANCH  19  20
ATOM     20  C   UNL A   1      32.377  31.192  26.525  1.00  0.00     0.338 C 
ATOM     21  O   UNL A   1      31.409  31.903  26.739  1.00  0.00    -0.246 OA
BRANCH  20  22
ATOM     22  C   UNL A   1      33.498  31.139  27.448  1.00  0.00     0.060 A 
ATOM     23  C   UNL A   1      34.502  32.600  27.759  1.00  0.00     0.016 A 
ATOM     24  C   UNL A   1      34.203  29.563  27.743  1.00  0.00     0.016 A 
ATOM     25  C   UNL A   1      36.405  32.322  28.396  1.00  0.00     0.010 A 
ATOM     26  C   UNL A   1      35.850  29.328  28.350  1.00  0.00     0.010 A 
ATOM     27  C   UNL A   1      36.985  30.633  28.697  1.00  0.00    -0.014 A 
BRANCH  27  28
ATOM     28  C   UNL A   1      38.251  30.311  29.481  1.00  0.00     0.031 A 
ATOM     29  C   UNL A   1      39.310  29.362  28.956  1.00  0.00     0.074 A 
ATOM     30  C   UNL A   1      38.385  30.719  30.765  1.00  0.00     0.049 A 
ATOM     31  N   UNL A   1      40.320  28.817  29.596  1.00  0.00    -0.248 NA
ATOM     32  C   UNL A   1      39.182  28.908  27.567  1.00  0.00     0.031 C 
ATOM     33  C   UNL A   1      37.371  31.445  31.497  1.00  0.00     0.029 A 
ATOM     34  N   UNL A   1      39.380  30.580  31.709  1.00  0.00    -0.354 N 
ATOM     35  C   UNL A   1      40.905  27.911  28.711  1.00  0.00     0.074 A 
ATOM     36  C   UNL A   1      40.094  27.947  27.508  1.00  0.00     0.031 C 
ATOM     37  C   UNL A   1      37.802  31.814  32.701  1.00  0.00     0.029 A 
ATOM     38  C   UNL A   1      39.102  31.218  32.907  1.00  0.00     0.049 A 
ATOM     39  H   UNL A   1      40.208  30.075  31.548  1.00  0.00     0.167 HD
ATOM     40  C   UNL A   1      42.015  27.143  28.879  1.00  0.00     0.034 A 
ATOM     41  C   UNL A   1      39.761  31.293  34.080  1.00  0.00     0.034 A 
ATOM     42  C   UNL A   1      42.838  27.164  30.072  1.00  0.00     0.049 A 
ATOM     43  C   UNL A   1      41.031  30.519  34.205  1.00  0.00     0.074 A 
ATOM     44  C   UNL A   1      44.029  26.497  30.313  1.00  0.00     0.029 A 
ATOM     45  N   UNL A   1      42.565  27.896  31.223  1.00  0.00    -0.354 N 
ATOM     46  N   UNL A   1      41.576  29.703  33.335  1.00  0.00    -0.248 NA
ATOM     47  C   UNL A   1      41.767  30.655  35.465  1.00  0.00     0.031 C 
ATOM     48  C   UNL A   1      44.448  26.786  31.618  1.00  0.00     0.029 A 
ATOM     49  C   UNL A   1      43.558  27.690  32.174  1.00  0.00     0.049 A 
ATOM     50  H   UNL A   1      41.780  28.478  31.345  1.00  0.00     0.167 HD
ATOM     51  C   UNL A   1      42.726  29.227  33.941  1.00  0.00     0.074 A 
ATOM     52  C   UNL A   1      42.814  29.876  35.236  1.00  0.00     0.031 C 
ATOM     53  C   UNL A   1      43.622  28.325  33.470  1.00  0.00     0.034 A 
BRANCH  40  54
ATOM     54  C   UNL A   1      42.400  26.208  27.746  1.00  0.00     0.023 A 
ATOM     55  C   UNL A   1      41.802  24.944  27.595  1.00  0.00     0.031 A 
ATOM     56  C   UNL A   1      43.399  26.565  26.820  1.00  0.00     0.131 A 
ATOM     57  C   UNL A   1      42.281  24.046  26.627  1.00  0.00     0.055 A 
ATOM     58  C   UNL A   1      43.803  25.703  25.794  1.00  0.00     0.041 A 
ATOM     59  F   UNL A   1      44.017  27.754  26.903  1.00  0.00    -0.206 F 
ATOM     60  C   UNL A   1      43.259  24.426  25.707  1.00  0.00     0.022 A 
BRANCH  57  61
ATOM     61  S   UNL A   1      41.728  22.320  26.705  1.00  0.00     0.124 S 
ATOM     62  O   UNL A   1      42.279  21.782  25.461  1.00  0.00    -0.237 OA
ATOM     63  O   UNL A   1      42.348  21.845  27.936  1.00  0.00    -0.237 OA
ATOM     64  O   UNL A   1      40.272  22.425  26.739  1.00  0.00    -0.744 OA
ENDBRANCH  57  61
ENDBRANCH  40  54
BRANCH  41  65
ATOM     65  C   UNL A   1      39.216  32.104  35.213  1.00  0.00     0.023 A 
ATOM     66  C   UNL A   1      38.601  31.480  36.311  1.00  0.00     0.031 A 
ATOM     67  C   UNL A   1      39.324  33.508  35.236  1.00  0.00     0.131 A 
ATOM     68  C   UNL A   1      38.100  32.254  37.370  1.00  0.00     0.055 A 
ATOM     69  C   UNL A   1      38.884  34.268  36.322  1.00  0.00     0.041 A 
ATOM     70  F   UNL A   1      39.908  34.161  34.218  1.00  0.00    -0.206 F 
ATOM     71  C   UNL A   1      38.259  33.642  37.393  1.00  0.00     0.022 A 
BRANCH  68  72
ATOM     72  S   UNL A   1      37.166  31.429  38.687  1.00  0.00     0.124 S 
ATOM     73  O   UNL A   1      37.028  30.078  38.153  1.00  0.00    -0.237 OA
ATOM     74  O   UNL A   1      38.055  31.578  39.832  1.00  0.00    -0.237 OA
ATOM     75  O   UNL A   1      35.925  32.199  38.758  1.00  0.00    -0.744 OA
ENDBRANCH  68  72
ENDBRANCH  41  65
BRANCH  53  76
ATOM     76  C   UNL A   1      44.795  28.036  34.368  1.00  0.00     0.023 A 
ATOM     77  C   UNL A   1      44.746  27.013  35.332  1.00  0.00     0.031 A 
ATOM     78  C   UNL A   1      45.943  28.841  34.308  1.00  0.00     0.131 A 
ATOM     79  C   UNL A   1      45.797  26.870  36.247  1.00  0.00     0.055 A 
ATOM     80  C   UNL A   1      47.016  28.652  35.180  1.00  0.00     0.041 A 
ATOM     81  F   UNL A   1      46.032  29.839  33.415  1.00  0.00    -0.206 F 
ATOM     82  C   UNL A   1      46.939  27.672  36.166  1.00  0.00     0.022 A 
BRANCH  79  83
ATOM     83  S   UNL A   1      45.599  25.702  37.620  1.00  0.00     0.124 S 
ATOM     84  O   UNL A   1      44.593  24.785  37.094  1.00  0.00    -0.237 OA
ATOM     85  O   UNL A   1      46.945  25.157  37.766  1.00  0.00    -0.237 OA
ATOM     86  O   UNL A   1      45.151  26.546  38.726  1.00  0.00    -0.744 OA
ENDBRANCH  79  83
ENDBRANCH  53  76
ENDBRANCH  27  28
ENDBRANCH  20  22
ENDBRANCH  19  20
ENDBRANCH   1  19
TORSDOF 15
ENDMDL
MODEL 2
REMARK VINA RESULT:     -12.3      5.426     10.304
REMARK SMILES Cc1onc(-c2cccc(Br)c2)c1C(=O)OCCOC(=O)c1ccc(-c2c3nc(c(-c4cc(S(=O)(=O)[O-])ccc4F)c4ccc([nH]4)c(-c4cc(S(=O)(=O)[O-])ccc4F)c4nc(c(-c5cc(S(=O)(=O)[O-])ccc5F)c5ccc2[nH]5)C=C4)C=C3)cc1
REMARK SMILES IDX 18 1 17 2 16 3 14 4 15 5 13 6 1 7 2 8 3 9 4 10 5 11 6 12
REMARK SMILES IDX 7 13 12 14 8 15 10 16 9 17 11 18 19 19 20 20 21 21 22 22
REMARK SMILES IDX 23 23 84 24 24 25 83 26 25 27 26 28 27 29 77 30 28 31 82 32
REMARK SMILES IDX 76 33 78 34 29 35 81 36 75 37 74 38 30 40 62 41 42 42 61 43
REMARK SMILES IDX 43 44 46 45 60 46 79 47 44 48 45 49 59 51 80 52 47 53 31 54
REMARK SMILES IDX 32 55 40 56 33 57 39 58 41 59 38 60 34 61 35 62 36 63 37 64
REMARK SMILES IDX 63 65 64 66 72 67 65 68 71 69 73 70 70 71 66 72 67 73 68 74
REMARK SMILES IDX 69 75 48 76 49 77 57 78 50 79 56 80 58 81 55 82 51 83 52 84
REMARK SMILES IDX 53 85 54 86
REMARK H PARENT 78 39 46 50
REMARK Flexibility Score: inf
ROOT
ATOM      1  C   UNL A   1      35.332  20.785  24.843  1.00  0.00     0.275 C 
ENDROOT
BRANCH   1   2
ATOM      2  C   UNL A   1      34.667  22.089  24.407  1.00  0.00     0.275 C 
BRANCH   2   3
ATOM      3  O   UNL A   1      34.553  22.979  25.540  1.00  0.00    -0.458 OA
BRANCH   3   4
ATOM      4  C   UNL A   1      33.678  24.023  25.428  1.00  0.00     0.344 C 
ATOM      5  O   UNL A   1      33.932  25.069  24.848  1.00  0.00    -0.246 OA
BRANCH   4   6
ATOM      6  C   UNL A   1      32.433  23.774  26.122  1.00  0.00     0.130 A 
ATOM      7  C   UNL A   1      33.355  22.184  27.976  1.00  0.00     0.092 C 
ATOM      8  C   UNL A   1      32.344  22.948  27.216  1.00  0.00     0.148 A 
ATOM      9  O   UNL A   1      31.070  22.961  27.684  1.00  0.00    -0.360 OA
ATOM     10  N   UNL A   1      30.296  23.827  26.921  1.00  0.00    -0.079 NA
ATOM     11  C   UNL A   1      31.115  24.345  25.995  1.00  0.00     0.128 A 
BRANCH  11  12
ATOM     12  C   UNL A   1      30.715  25.456  25.107  1.00  0.00     0.006 A 
ATOM     13  C   UNL A   1      30.798  25.287  23.303  1.00  0.00     0.010 A 
ATOM     14  C   UNL A   1      31.090  27.030  25.806  1.00  0.00     0.026 A 
ATOM     15  C   UNL A   1      31.449  26.882  22.236  1.00  0.00     0.002 A 
ATOM     16  C   UNL A   1      31.634  28.416  24.861  1.00  0.00     0.018 A 
ATOM     17  C   UNL A   1      31.868  28.390  23.127  1.00  0.00     0.016 A 
ATOM     18  Br  UNL A   1      31.934  30.038  25.790  1.00  0.00    -0.051 Br
ENDBRANCH  11  12
ENDBRANCH   4   6
ENDBRANCH   3   4
ENDBRANCH   2   3
ENDBRANCH   1   2
BRANCH   1  19
ATOM     19  O   UNL A   1      36.381  21.104  25.769  1.00  0.00    -0.458 OA
BRANCH  19  20
ATOM     20  C   UNL A   1      37.596  20.700  25.356  1.00  0.00     0.338 C 
ATOM     21  O   UNL A   1      37.883  19.677  24.755  1.00  0.00    -0.246 OA
BRANCH  20  22
ATOM     22  C   UNL A   1      38.592  21.721  25.632  1.00  0.00     0.060 A 
ATOM     23  C   UNL A   1      40.066  21.334  26.588  1.00  0.00     0.016 A 
ATOM     24  C   UNL A   1      38.051  23.386  25.569  1.00  0.00     0.016 A 
ATOM     25  C   UNL A   1      40.986  22.851  27.566  1.00  0.00     0.010 A 
ATOM     26  C   UNL A   1      38.889  24.717  26.383  1.00  0.00     0.010 A 
ATOM     27  C   UNL A   1      40.336  24.531  27.375  1.00  0.00    -0.014 A 
BRANCH  27  28
ATOM     28  C   UNL A   1      41.114  25.778  27.772  1.00  0.00     0.031 A 
ATOM     29  C   UNL A   1      40.514  26.866  28.642  1.00  0.00     0.074 A 
ATOM     30  C   UNL A   1      42.313  26.049  27.205  1.00  0.00     0.049 A 
ATOM     31  N   UNL A   1      40.963  28.078  28.876  1.00  0.00    -0.248 NA
ATOM     32  C   UNL A   1      39.215  26.592  29.265  1.00  0.00     0.031 C 
ATOM     33  C   UNL A   1      42.933  25.230  26.186  1.00  0.00     0.029 A 
ATOM     34  N   UNL A   1      43.225  27.072  27.349  1.00  0.00    -0.354 N 
ATOM     35  C   UNL A   1      39.977  28.729  29.615  1.00  0.00     0.074 A 
ATOM     36  C   UNL A   1      38.882  27.785  29.740  1.00  0.00     0.031 C 
ATOM     37  C   UNL A   1      44.154  25.665  25.881  1.00  0.00     0.029 A 
ATOM     38  C   UNL A   1      44.368  26.910  26.582  1.00  0.00     0.049 A 
ATOM     39  H   UNL A   1      43.079  27.845  27.940  1.00  0.00     0.167 HD
ATOM     40  C   UNL A   1      39.992  29.979  30.152  1.00  0.00     0.034 A 
ATOM     41  C   UNL A   1      45.459  27.677  26.390  1.00  0.00     0.034 A 
ATOM     42  C   UNL A   1      41.119  30.885  30.058  1.00  0.00     0.049 A 
ATOM     43  C   UNL A   1      45.495  29.005  27.071  1.00  0.00     0.074 A 
ATOM     44  C   UNL A   1      41.276  32.135  30.637  1.00  0.00     0.029 A 
ATOM     45  N   UNL A   1      42.289  30.638  29.347  1.00  0.00    -0.354 N 
ATOM     46  N   UNL A   1      44.561  29.573  27.796  1.00  0.00    -0.248 NA
ATOM     47  C   UNL A   1      46.712  29.803  26.900  1.00  0.00     0.031 C 
ATOM     48  C   UNL A   1      42.512  32.660  30.240  1.00  0.00     0.029 A 
ATOM     49  C   UNL A   1      43.163  31.713  29.468  1.00  0.00     0.049 A 
ATOM     50  H   UNL A   1      42.472  29.819  28.832  1.00  0.00     0.167 HD
ATOM     51  C   UNL A   1      45.079  30.800  28.173  1.00  0.00     0.074 A 
ATOM     52  C   UNL A   1      46.422  30.872  27.626  1.00  0.00     0.031 C 
ATOM     53  C   UNL A   1      44.490  31.782  28.899  1.00  0.00     0.034 A 
BRANCH  40  54
ATOM     54  C   UNL A   1      38.744  30.444  30.883  1.00  0.00     0.023 A 
ATOM     55  C   UNL A   1      37.653  31.009  30.199  1.00  0.00     0.031 A 
ATOM     56  C   UNL A   1      38.651  30.355  32.285  1.00  0.00     0.131 A 
ATOM     57  C   UNL A   1      36.578  31.560  30.915  1.00  0.00     0.055 A 
ATOM     58  C   UNL A   1      37.532  30.816  32.987  1.00  0.00     0.041 A 
ATOM     59  F   UNL A   1      39.655  29.831  33.007  1.00  0.00    -0.206 F 
ATOM     60  C   UNL A   1      36.496  31.445  32.303  1.00  0.00     0.022 A 
BRANCH  57  61
ATOM     61  S   UNL A   1      35.379  32.584  30.017  1.00  0.00     0.124 S 
ATOM     62  O   UNL A   1      36.177  33.772  29.717  1.00  0.00    -0.237 OA
ATOM     63  O   UNL A   1      35.035  31.742  28.877  1.00  0.00    -0.237 OA
ATOM     64  O   UNL A   1      34.307  32.790  30.987  1.00  0.00    -0.744 OA
ENDBRANCH  57  61
ENDBRANCH  40  54
BRANCH  41  65
ATOM     65  C   UNL A   1      46.573  27.213  25.506  1.00  0.00     0.023 A 
ATOM     66  C   UNL A   1      46.839  27.860  24.288  1.00  0.00     0.031 A 
ATOM     67  C   UNL A   1      47.409  26.140  25.871  1.00  0.00     0.131 A 
ATOM     68  C   UNL A   1      47.893  27.418  23.471  1.00  0.00     0.055 A 
ATOM     69  C   UNL A   1      48.496  25.747  25.087  1.00  0.00     0.041 A 
ATOM     70  F   UNL A   1      47.209  25.487  27.027  1.00  0.00    -0.206 F 
ATOM     71  C   UNL A   1      48.737  26.381  23.874  1.00  0.00     0.022 A 
BRANCH  68  72
ATOM     72  S   UNL A   1      48.099  28.167  21.833  1.00  0.00     0.124 S 
ATOM     73  O   UNL A   1      46.999  29.124  21.801  1.00  0.00    -0.237 OA
ATOM     74  O   UNL A   1      49.439  28.734  21.923  1.00  0.00    -0.237 OA
ATOM     75  O   UNL A   1      47.963  27.033  20.920  1.00  0.00    -0.744 OA
ENDBRANCH  68  72
ENDBRANCH  41  65
BRANCH  53  76
ATOM     76  C   UNL A   1      45.336  32.998  29.165  1.00  0.00     0.023 A 
ATOM     77  C   UNL A   1      45.298  34.119  28.318  1.00  0.00     0.031 A 
ATOM     78  C   UNL A   1      46.244  33.002  30.237  1.00  0.00     0.131 A 
ATOM     79  C   UNL A   1      46.207  35.168  28.512  1.00  0.00     0.055 A 
ATOM     80  C   UNL A   1      47.101  34.080  30.465  1.00  0.00     0.041 A 
ATOM     81  F   UNL A   1      46.328  31.950  31.066  1.00  0.00    -0.206 F 
ATOM     82  C   UNL A   1      47.095  35.163  29.590  1.00  0.00     0.022 A 
BRANCH  79  83
ATOM     83  S   UNL A   1      46.292  36.484  27.267  1.00  0.00     0.124 S 
ATOM     84  O   UNL A   1      47.044  35.838  26.196  1.00  0.00    -0.237 OA
ATOM     85  O   UNL A   1      44.884  36.745  26.989  1.00  0.00    -0.237 OA
ATOM     86  O   UNL A   1      46.997  37.562  27.957  1.00  0.00    -0.744 OA
ENDBRANCH  79  83
ENDBRANCH  53  76
ENDBRANCH  27  28
ENDBRANCH  20  22
ENDBRANCH  19  20
ENDBRANCH   1  19
TORSDOF 15
ENDMDL
MODEL 3
REMARK VINA RESULT:     -12.2      1.396      1.623
REMARK SMILES Cc1onc(-c2cccc(Br)c2)c1C(=O)OCCOC(=O)c1ccc(-c2c3nc(c(-c4cc(S(=O)(=O)[O-])ccc4F)c4ccc([nH]4)c(-c4cc(S(=O)(=O)[O-])ccc4F)c4nc(c(-c5cc(S(=O)(=O)[O-])ccc5F)c5ccc2[nH]5)C=C4)C=C3)cc1
REMARK SMILES IDX 18 1 17 2 16 3 14 4 15 5 13 6 1 7 2 8 3 9 4 10 5 11 6 12
REMARK SMILES IDX 7 13 12 14 8 15 10 16 9 17 11 18 19 19 20 20 21 21 22 22
REMARK SMILES IDX 23 23 84 24 24 25 83 26 25 27 26 28 27 29 77 30 28 31 82 32
REMARK SMILES IDX 76 33 78 34 29 35 81 36 75 37 74 38 30 40 62 41 42 42 61 43
REMARK SMILES IDX 43 44 46 45 60 46 79 47 44 48 45 49 59 51 80 52 47 53 31 54
REMARK SMILES IDX 32 55 40 56 33 57 39 58 41 59 38 60 34 61 35 62 36 63 37 64
REMARK SMILES IDX 63 65 64 66 72 67 65 68 71 69 73 70 70 71 66 72 67 73 68 74
REMARK SMILES IDX 69 75 48 76 49 77 57 78 50 79 56 80 58 81 55 82 51 83 52 84
REMARK SMILES IDX 53 85 54 86
REMARK H PARENT 78 39 46 50
REMARK Flexibility Score: inf
ROOT
ATOM      1  C   UNL A   1      31.421  29.554  25.505  1.00  0.00     0.275 C 
ENDROOT
BRANCH   1   2
ATOM      2  C   UNL A   1      31.705  28.173  26.093  1.00  0.00     0.275 C 
BRANCH   2   3
ATOM      3  O   UNL A   1      31.690  27.185  25.039  1.00  0.00    -0.458 OA
BRANCH   3   4
ATOM      4  C   UNL A   1      32.865  26.540  24.770  1.00  0.00     0.344 C 
ATOM      5  O   UNL A   1      33.688  26.234  25.622  1.00  0.00    -0.246 OA
BRANCH   4   6
ATOM      6  C   UNL A   1      33.053  26.308  23.355  1.00  0.00     0.130 A 
ATOM      7  C   UNL A   1      33.981  28.664  22.715  1.00  0.00     0.092 C 
ATOM      8  C   UNL A   1      33.524  27.275  22.499  1.00  0.00     0.148 A 
ATOM      9  O   UNL A   1      33.653  26.747  21.255  1.00  0.00    -0.360 OA
ATOM     10  N   UNL A   1      33.296  25.404  21.274  1.00  0.00    -0.079 NA
ATOM     11  C   UNL A   1      32.961  25.121  22.540  1.00  0.00     0.128 A 
BRANCH  11  12
ATOM     12  C   UNL A   1      32.705  23.745  23.011  1.00  0.00     0.006 A 
ATOM     13  C   UNL A   1      31.214  23.344  23.961  1.00  0.00     0.010 A 
ATOM     14  C   UNL A   1      34.195  22.896  23.419  1.00  0.00     0.026 A 
ATOM     15  C   UNL A   1      31.401  22.053  25.512  1.00  0.00     0.002 A 
ATOM     16  C   UNL A   1      34.338  21.757  24.758  1.00  0.00     0.018 A 
ATOM     17  C   UNL A   1      33.024  21.340  25.835  1.00  0.00     0.016 A 
ATOM     18  Br  UNL A   1      36.011  20.906  25.001  1.00  0.00    -0.051 Br
ENDBRANCH  11  12
ENDBRANCH   4   6
ENDBRANCH   3   4
ENDBRANCH   2   3
ENDBRANCH   1   2
BRANCH   1  19
ATOM     19  O   UNL A   1      32.599  30.359  25.660  1.00  0.00    -0.458 OA
BRANCH  19  20
ATOM     20  C   UNL A   1      32.489  31.279  26.636  1.00  0.00     0.338 C 
ATOM     21  O   UNL A   1      31.565  32.047  26.844  1.00  0.00    -0.246 OA
BRANCH  20  22
ATOM     22  C   UNL A   1      33.623  31.195  27.541  1.00  0.00     0.060 A 
ATOM     23  C   UNL A   1      34.633  32.643  27.887  1.00  0.00     0.016 A 
ATOM     24  C   UNL A   1      34.329  29.608  27.773  1.00  0.00     0.016 A 
ATOM     25  C   UNL A   1      36.544  32.342  28.488  1.00  0.00     0.010 A 
ATOM     26  C   UNL A   1      35.984  29.352  28.349  1.00  0.00     0.010 A 
ATOM     27  C   UNL A   1      37.126  30.643  28.724  1.00  0.00    -0.014 A 
BRANCH  27  28
ATOM     28  C   UNL A   1      38.402  30.294  29.479  1.00  0.00     0.031 A 
ATOM     29  C   UNL A   1      39.438  29.338  28.922  1.00  0.00     0.074 A 
ATOM     30  C   UNL A   1      38.566  30.684  30.765  1.00  0.00     0.049 A 
ATOM     31  N   UNL A   1      40.452  28.770  29.535  1.00  0.00    -0.248 NA
ATOM     32  C   UNL A   1      39.276  28.903  27.531  1.00  0.00     0.031 C 
ATOM     33  C   UNL A   1      37.577  31.414  31.526  1.00  0.00     0.029 A 
ATOM     34  N   UNL A   1      39.577  30.519  31.688  1.00  0.00    -0.354 N 
ATOM     35  C   UNL A   1      41.007  27.868  28.628  1.00  0.00     0.074 A 
ATOM     36  C   UNL A   1      40.174  27.930  27.442  1.00  0.00     0.031 C 
ATOM     37  C   UNL A   1      38.036  31.762  32.726  1.00  0.00     0.029 A 
ATOM     38  C   UNL A   1      39.331  31.146  32.899  1.00  0.00     0.049 A 
ATOM     39  H   UNL A   1      40.395  30.005  31.505  1.00  0.00     0.167 HD
ATOM     40  C   UNL A   1      42.109  27.083  28.765  1.00  0.00     0.034 A 
ATOM     41  C   UNL A   1      40.014  31.196  34.060  1.00  0.00     0.034 A 
ATOM     42  C   UNL A   1      42.955  27.077  29.941  1.00  0.00     0.049 A 
ATOM     43  C   UNL A   1      41.275  30.404  34.151  1.00  0.00     0.074 A 
ATOM     44  C   UNL A   1      44.141  26.390  30.151  1.00  0.00     0.029 A 
ATOM     45  N   UNL A   1      42.714  27.798  31.107  1.00  0.00    -0.354 N 
ATOM     46  N   UNL A   1      41.792  29.592  33.260  1.00  0.00    -0.248 NA
ATOM     47  C   UNL A   1      42.037  30.513  35.398  1.00  0.00     0.031 C 
ATOM     48  C   UNL A   1      44.589  26.658  31.452  1.00  0.00     0.029 A 
ATOM     49  C   UNL A   1      43.722  27.566  32.036  1.00  0.00     0.049 A 
ATOM     50  H   UNL A   1      41.940  28.389  31.252  1.00  0.00     0.167 HD
ATOM     51  C   UNL A   1      42.947  29.092  33.838  1.00  0.00     0.074 A 
ATOM     52  C   UNL A   1      43.068  29.723  35.139  1.00  0.00     0.031 C 
ATOM     53  C   UNL A   1      43.820  28.184  33.338  1.00  0.00     0.034 A 
BRANCH  40  54
ATOM     54  C   UNL A   1      42.459  26.157  27.613  1.00  0.00     0.023 A 
ATOM     55  C   UNL A   1      41.899  24.872  27.500  1.00  0.00     0.031 A 
ATOM     56  C   UNL A   1      43.388  26.545  26.628  1.00  0.00     0.131 A 
ATOM     57  C   UNL A   1      42.351  23.988  26.508  1.00  0.00     0.055 A 
ATOM     58  C   UNL A   1      43.761  25.694  25.582  1.00  0.00     0.041 A 
ATOM     59  F   UNL A   1      43.967  27.756  26.672  1.00  0.00    -0.206 F 
ATOM     60  C   UNL A   1      43.259  24.397  25.530  1.00  0.00     0.022 A 
BRANCH  57  61
ATOM     61  S   UNL A   1      41.867  22.243  26.622  1.00  0.00     0.124 S 
ATOM     62  O   UNL A   1      40.422  22.327  26.409  1.00  0.00    -0.237 OA
ATOM     63  O   UNL A   1      42.637  21.630  25.546  1.00  0.00    -0.237 OA
ATOM     64  O   UNL A   1      42.269  21.861  27.974  1.00  0.00    -0.744 OA
ENDBRANCH  57  61
ENDBRANCH  40  54
BRANCH  41  65
ATOM     65  C   UNL A   1      39.502  32.000  35.213  1.00  0.00     0.023 A 
ATOM     66  C   UNL A   1      39.885  33.341  35.379  1.00  0.00     0.031 A 
ATOM     67  C   UNL A   1      38.601  31.458  36.150  1.00  0.00     0.131 A 
ATOM     68  C   UNL A   1      39.390  34.085  36.463  1.00  0.00     0.055 A 
ATOM     69  C   UNL A   1      38.061  32.220  37.187  1.00  0.00     0.041 A 
ATOM     70  F   UNL A   1      38.193  30.183  36.040  1.00  0.00    -0.206 F 
ATOM     71  C   UNL A   1      38.463  33.540  37.355  1.00  0.00     0.022 A 
BRANCH  68  72
ATOM     72  S   UNL A   1      40.037  35.757  36.740  1.00  0.00     0.124 S 
ATOM     73  O   UNL A   1      41.463  35.501  36.909  1.00  0.00    -0.237 OA
ATOM     74  O   UNL A   1      39.649  36.441  35.512  1.00  0.00    -0.237 OA
ATOM     75  O   UNL A   1      39.337  36.197  37.946  1.00  0.00    -0.744 OA
ENDBRANCH  68  72
ENDBRANCH  41  65
BRANCH  53  76
ATOM     76  C   UNL A   1      45.006  27.867  34.210  1.00  0.00     0.023 A 
ATOM     77  C   UNL A   1      44.964  26.827  35.155  1.00  0.00     0.031 A 
ATOM     78  C   UNL A   1      46.161  28.663  34.144  1.00  0.00     0.131 A 
ATOM     79  C   UNL A   1      46.030  26.657  36.049  1.00  0.00     0.055 A 
ATOM     80  C   UNL A   1      47.247  28.447  34.994  1.00  0.00     0.041 A 
ATOM     81  F   UNL A   1      46.244  29.676  33.268  1.00  0.00    -0.206 F 
ATOM     82  C   UNL A   1      47.178  27.450  35.962  1.00  0.00     0.022 A 
BRANCH  79  83
ATOM     83  S   UNL A   1      45.846  25.465  37.403  1.00  0.00     0.124 S 
ATOM     84  O   UNL A   1      44.449  25.065  37.264  1.00  0.00    -0.237 OA
ATOM     85  O   UNL A   1      46.837  24.450  37.065  1.00  0.00    -0.237 OA
ATOM     86  O   UNL A   1      46.149  26.253  38.596  1.00  0.00    -0.744 OA
ENDBRANCH  79  83
ENDBRANCH  53  76
ENDBRANCH  27  28
ENDBRANCH  20  22
ENDBRANCH  19  20
ENDBRANCH   1  19
TORSDOF 15
ENDMDL
