MODEL 1
REMARK VINA RESULT:     -15.0      0.000      0.000
REMARK SMILES Cc1ccc(NC(=O)C[C@@H](C(=O)OCCOC(=O)c2ccc(-c3c4nc(c(-c5cc(S(=O)(=O)[O-])ccc5F)c5ccc([nH]5)c(-c5cc(S(=O)(=O)[O-])ccc5F)c5nc(c(-c6cc(S(=O)(=O)[O-])ccc6F)c6ccc3[nH]6)C=C5)C=C4)cc2)[NH+]2CCOCC2)cc1
REMARK SMILES IDX 14 1 13 2 11 3 12 4 10 5 9 6 7 7 6 8 8 10 5 11 1 12 2 13
REMARK SMILES IDX 3 14 89 15 4 16 88 17 82 18 83 19 87 20 84 22 86 23 85 24
REMARK SMILES IDX 15 25 16 26 17 27 18 28 19 29 20 30 81 31 21 32 80 33 22 34
REMARK SMILES IDX 23 35 24 36 74 37 25 38 79 39 73 40 75 41 26 42 78 43 72 44
REMARK SMILES IDX 71 45 27 47 59 48 39 49 58 50 40 51 43 52 57 53 76 54 41 55
REMARK SMILES IDX 42 56 56 58 77 59 44 60 28 61 29 62 37 63 30 64 36 65 38 66
REMARK SMILES IDX 35 67 31 68 32 69 33 70 34 71 60 72 61 73 69 74 62 75 68 76
REMARK SMILES IDX 70 77 67 78 63 79 64 80 65 81 66 82 45 83 46 84 54 85 47 86
REMARK SMILES IDX 53 87 55 88 52 89 48 90 49 91 50 92 51 93
REMARK H PARENT 6 9 82 21 75 46 43 57
REMARK Flexibility Score: inf
ROOT
ATOM      1  C   UNL A   1      31.635  28.095  27.568  1.00  0.00     0.274 C 
ENDROOT
BRANCH   1   2
ATOM      2  O   UNL A   1      30.778  26.876  26.619  1.00  0.00    -0.458 OA
BRANCH   2   3
ATOM      3  C   UNL A   1      31.243  25.889  25.755  1.00  0.00     0.365 C 
ATOM      4  O   UNL A   1      31.203  24.703  25.998  1.00  0.00    -0.245 OA
BRANCH   3   5
ATOM      5  C   UNL A   1      31.453  26.287  24.303  1.00  0.00     0.304 C 
BRANCH   5   6
ATOM      6  C   UNL A   1      32.963  26.585  24.223  1.00  0.00     0.177 C 
BRANCH   6   7
ATOM      7  C   UNL A   1      33.692  25.866  23.114  1.00  0.00     0.231 C 
ATOM      8  N   UNL A   1      34.121  24.571  23.184  1.00  0.00    -0.326 N 
ATOM      9  H   UNL A   1      34.926  24.393  22.645  1.00  0.00     0.169 HD
ATOM     10  O   UNL A   1      33.952  26.478  22.069  1.00  0.00    -0.274 OA
BRANCH   8  11
ATOM     11  C   UNL A   1      33.643  23.433  23.875  1.00  0.00     0.041 A 
ATOM     12  C   UNL A   1      33.445  18.421  24.953  1.00  0.00     0.044 C 
ATOM     13  C   UNL A   1      33.650  19.832  24.439  1.00  0.00    -0.051 A 
ATOM     14  C   UNL A   1      32.251  20.633  23.691  1.00  0.00     0.005 A 
ATOM     15  C   UNL A   1      34.953  20.819  24.930  1.00  0.00     0.005 A 
ATOM     16  C   UNL A   1      32.183  22.497  23.427  1.00  0.00     0.026 A 
ATOM     17  C   UNL A   1      34.958  22.557  24.684  1.00  0.00     0.026 A 
ENDBRANCH   8  11
ENDBRANCH   6   7
ENDBRANCH   5   6
BRANCH   5  18
ATOM     18  N   UNL A   1      30.621  27.517  23.805  1.00  0.00    -0.319 N 
ATOM     19  C   UNL A   1      31.217  28.261  22.655  1.00  0.00     0.291 C 
ATOM     20  C   UNL A   1      29.200  27.260  23.434  1.00  0.00     0.291 C 
ATOM     21  H   UNL A   1      30.650  28.078  24.656  1.00  0.00     0.348 HD
ATOM     22  C   UNL A   1      30.425  29.524  22.233  1.00  0.00     0.221 C 
ATOM     23  C   UNL A   1      28.442  28.549  23.014  1.00  0.00     0.221 C 
ATOM     24  O   UNL A   1      29.064  29.205  21.911  1.00  0.00    -0.370 OA
ENDBRANCH   5  18
ENDBRANCH   3   5
ENDBRANCH   2   3
ENDBRANCH   1   2
BRANCH   1  25
ATOM     25  C   UNL A   1      33.199  29.469  26.821  1.00  0.00     0.275 C 
BRANCH  25  26
ATOM     26  O   UNL A   1      34.916  29.402  27.571  1.00  0.00    -0.458 OA
BRANCH  26  27
ATOM     27  C   UNL A   1      35.910  30.240  28.397  1.00  0.00     0.338 C 
ATOM     28  O   UNL A   1      35.497  31.332  28.798  1.00  0.00    -0.246 OA
BRANCH  27  29
ATOM     29  C   UNL A   1      37.394  29.764  28.958  1.00  0.00     0.060 A 
ATOM     30  C   UNL A   1      37.670  28.828  29.975  1.00  0.00     0.016 A 
ATOM     31  C   UNL A   1      38.522  30.036  28.216  1.00  0.00     0.016 A 
ATOM     32  C   UNL A   1      38.796  27.893  29.848  1.00  0.00     0.010 A 
ATOM     33  C   UNL A   1      39.311  28.939  27.868  1.00  0.00     0.010 A 
ATOM     34  C   UNL A   1      39.479  27.798  28.641  1.00  0.00    -0.014 A 
BRANCH  34  35
ATOM     35  C   UNL A   1      40.562  26.866  28.163  1.00  0.00     0.031 A 
ATOM     36  C   UNL A   1      40.510  25.361  28.020  1.00  0.00     0.074 A 
ATOM     37  C   UNL A   1      41.729  27.546  27.968  1.00  0.00     0.049 A 
ATOM     38  N   UNL A   1      41.338  24.548  28.600  1.00  0.00    -0.248 NA
ATOM     39  C   UNL A   1      39.604  24.613  27.125  1.00  0.00     0.031 C 
ATOM     40  C   UNL A   1      43.109  27.127  27.826  1.00  0.00     0.029 A 
ATOM     41  N   UNL A   1      41.879  28.931  28.209  1.00  0.00    -0.354 N 
ATOM     42  C   UNL A   1      41.280  23.307  27.961  1.00  0.00     0.074 A 
ATOM     43  C   UNL A   1      40.083  23.352  27.164  1.00  0.00     0.031 C 
ATOM     44  C   UNL A   1      43.861  28.062  28.464  1.00  0.00     0.029 A 
ATOM     45  C   UNL A   1      42.960  29.078  29.035  1.00  0.00     0.049 A 
ATOM     46  H   UNL A   1      41.314  29.652  27.850  1.00  0.00     0.167 HD
ATOM     47  C   UNL A   1      42.361  22.462  27.995  1.00  0.00     0.034 A 
ATOM     48  C   UNL A   1      42.688  29.374  30.342  1.00  0.00     0.034 A 
ATOM     49  C   UNL A   1      43.459  23.135  28.663  1.00  0.00     0.049 A 
ATOM     50  C   UNL A   1      43.190  28.260  31.212  1.00  0.00     0.074 A 
ATOM     51  C   UNL A   1      44.521  23.857  28.148  1.00  0.00     0.029 A 
ATOM     52  N   UNL A   1      43.358  23.451  30.004  1.00  0.00    -0.354 N 
ATOM     53  N   UNL A   1      43.250  27.007  30.852  1.00  0.00    -0.248 NA
ATOM     54  C   UNL A   1      43.747  28.514  32.528  1.00  0.00     0.031 C 
ATOM     55  C   UNL A   1      44.993  24.704  29.176  1.00  0.00     0.029 A 
ATOM     56  C   UNL A   1      44.233  24.471  30.309  1.00  0.00     0.049 A 
ATOM     57  H   UNL A   1      42.752  23.014  30.646  1.00  0.00     0.167 HD
ATOM     58  C   UNL A   1      43.947  26.309  31.806  1.00  0.00     0.074 A 
ATOM     59  C   UNL A   1      44.224  27.300  32.836  1.00  0.00     0.031 C 
ATOM     60  C   UNL A   1      44.296  24.995  31.655  1.00  0.00     0.034 A 
BRANCH  47  61
ATOM     61  C   UNL A   1      42.625  21.188  27.198  1.00  0.00     0.023 A 
ATOM     62  C   UNL A   1      43.724  21.158  26.299  1.00  0.00     0.031 A 
ATOM     63  C   UNL A   1      41.917  19.980  27.307  1.00  0.00     0.131 A 
ATOM     64  C   UNL A   1      44.049  20.029  25.523  1.00  0.00     0.055 A 
ATOM     65  C   UNL A   1      42.248  18.838  26.540  1.00  0.00     0.041 A 
ATOM     66  F   UNL A   1      40.903  19.853  28.176  1.00  0.00    -0.206 F 
ATOM     67  C   UNL A   1      43.309  18.861  25.634  1.00  0.00     0.022 A 
BRANCH  64  68
ATOM     68  S   UNL A   1      45.438  20.143  24.352  1.00  0.00     0.124 S 
ATOM     69  O   UNL A   1      44.767  20.545  23.119  1.00  0.00    -0.237 OA
ATOM     70  O   UNL A   1      46.295  21.146  24.973  1.00  0.00    -0.237 OA
ATOM     71  O   UNL A   1      45.986  18.788  24.337  1.00  0.00    -0.744 OA
ENDBRANCH  64  68
ENDBRANCH  47  61
BRANCH  48  72
ATOM     72  C   UNL A   1      41.501  30.270  30.691  1.00  0.00     0.023 A 
ATOM     73  C   UNL A   1      40.552  29.871  31.675  1.00  0.00     0.031 A 
ATOM     74  C   UNL A   1      41.343  31.574  30.189  1.00  0.00     0.131 A 
ATOM     75  C   UNL A   1      39.565  30.761  32.170  1.00  0.00     0.055 A 
ATOM     76  C   UNL A   1      40.336  32.450  30.654  1.00  0.00     0.041 A 
ATOM     77  F   UNL A   1      42.213  32.076  29.298  1.00  0.00    -0.206 F 
ATOM     78  C   UNL A   1      39.456  32.056  31.663  1.00  0.00     0.022 A 
BRANCH  75  79
ATOM     79  S   UNL A   1      38.602  30.345  33.679  1.00  0.00     0.124 S 
ATOM     80  O   UNL A   1      39.573  30.557  34.745  1.00  0.00    -0.237 OA
ATOM     81  O   UNL A   1      37.485  31.287  33.633  1.00  0.00    -0.237 OA
ATOM     82  O   UNL A   1      38.211  28.952  33.467  1.00  0.00    -0.744 OA
ENDBRANCH  75  79
ENDBRANCH  48  72
BRANCH  60  83
ATOM     83  C   UNL A   1      44.879  24.112  32.728  1.00  0.00     0.023 A 
ATOM     84  C   UNL A   1      46.111  24.380  33.318  1.00  0.00     0.031 A 
ATOM     85  C   UNL A   1      44.192  22.978  33.231  1.00  0.00     0.131 A 
ATOM     86  C   UNL A   1      46.700  23.476  34.206  1.00  0.00     0.055 A 
ATOM     87  C   UNL A   1      44.722  22.150  34.221  1.00  0.00     0.041 A 
ATOM     88  F   UNL A   1      42.973  22.625  32.797  1.00  0.00    -0.206 F 
ATOM     89  C   UNL A   1      46.006  22.374  34.688  1.00  0.00     0.022 A 
BRANCH  86  90
ATOM     90  S   UNL A   1      48.448  23.726  34.584  1.00  0.00     0.124 S 
ATOM     91  O   UNL A   1      48.375  24.618  35.740  1.00  0.00    -0.237 OA
ATOM     92  O   UNL A   1      48.906  22.369  34.864  1.00  0.00    -0.237 OA
ATOM     93  O   UNL A   1      48.979  24.329  33.365  1.00  0.00    -0.744 OA
ENDBRANCH  86  90
ENDBRANCH  60  83
ENDBRANCH  34  35
ENDBRANCH  27  29
ENDBRANCH  26  27
ENDBRANCH  25  26
ENDBRANCH   1  25
TORSDOF 18
ENDMDL
MODEL 2
REMARK VINA RESULT:     -14.9      1.093      3.645
REMARK SMILES Cc1ccc(NC(=O)C[C@@H](C(=O)OCCOC(=O)c2ccc(-c3c4nc(c(-c5cc(S(=O)(=O)[O-])ccc5F)c5ccc([nH]5)c(-c5cc(S(=O)(=O)[O-])ccc5F)c5nc(c(-c6cc(S(=O)(=O)[O-])ccc6F)c6ccc3[nH]6)C=C5)C=C4)cc2)[NH+]2CCOCC2)cc1
REMARK SMILES IDX 14 1 13 2 11 3 12 4 10 5 9 6 7 7 6 8 8 10 5 11 1 12 2 13
REMARK SMILES IDX 3 14 89 15 4 16 88 17 82 18 83 19 87 20 84 22 86 23 85 24
REMARK SMILES IDX 15 25 16 26 17 27 18 28 19 29 20 30 81 31 21 32 80 33 22 34
REMARK SMILES IDX 23 35 24 36 74 37 25 38 79 39 73 40 75 41 26 42 78 43 72 44
REMARK SMILES IDX 71 45 27 47 59 48 39 49 58 50 40 51 43 52 57 53 76 54 41 55
REMARK SMILES IDX 42 56 56 58 77 59 44 60 28 61 29 62 37 63 30 64 36 65 38 66
REMARK SMILES IDX 35 67 31 68 32 69 33 70 34 71 60 72 61 73 69 74 62 75 68 76
REMARK SMILES IDX 70 77 67 78 63 79 64 80 65 81 66 82 45 83 46 84 54 85 47 86
REMARK SMILES IDX 53 87 55 88 52 89 48 90 49 91 50 92 51 93
REMARK H PARENT 6 9 82 21 75 46 43 57
REMARK Flexibility Score: inf
ROOT
ATOM      1  C   UNL A   1      34.036  28.082  24.426  1.00  0.00     0.274 C 
ENDROOT
BRANCH   1   2
ATOM      2  O   UNL A   1      34.183  26.323  24.478  1.00  0.00    -0.458 OA
BRANCH   2   3
ATOM      3  C   UNL A   1      33.626  25.330  23.678  1.00  0.00     0.365 C 
ATOM      4  O   UNL A   1      34.063  25.008  22.595  1.00  0.00    -0.245 OA
BRANCH   3   5
ATOM      5  C   UNL A   1      32.673  24.355  24.351  1.00  0.00     0.304 C 
BRANCH   5   6
ATOM      6  C   UNL A   1      32.526  24.920  25.778  1.00  0.00     0.177 C 
BRANCH   6   7
ATOM      7  C   UNL A   1      31.122  24.885  26.330  1.00  0.00     0.231 C 
ATOM      8  N   UNL A   1      30.130  25.756  25.975  1.00  0.00    -0.326 N 
ATOM      9  H   UNL A   1      29.474  25.917  26.691  1.00  0.00     0.169 HD
ATOM     10  O   UNL A   1      30.831  24.036  27.183  1.00  0.00    -0.274 OA
BRANCH   8  11
ATOM     11  C   UNL A   1      29.856  26.472  24.786  1.00  0.00     0.041 A 
ATOM     12  C   UNL A   1      28.525  30.631  22.096  1.00  0.00     0.044 C 
ATOM     13  C   UNL A   1      28.851  29.540  23.094  1.00  0.00    -0.051 A 
ATOM     14  C   UNL A   1      27.776  28.125  23.128  1.00  0.00     0.005 A 
ATOM     15  C   UNL A   1      30.383  29.382  23.830  1.00  0.00     0.005 A 
ATOM     16  C   UNL A   1      28.274  26.503  23.947  1.00  0.00     0.026 A 
ATOM     17  C   UNL A   1      30.891  27.906  24.633  1.00  0.00     0.026 A 
ENDBRANCH   8  11
ENDBRANCH   6   7
ENDBRANCH   5   6
BRANCH   5  18
ATOM     18  N   UNL A   1      33.142  22.861  24.396  1.00  0.00    -0.319 N 
ATOM     19  C   UNL A   1      33.886  22.467  25.628  1.00  0.00     0.291 C 
ATOM     20  C   UNL A   1      32.090  21.822  24.203  1.00  0.00     0.291 C 
ATOM     21  H   UNL A   1      33.759  22.869  23.583  1.00  0.00     0.348 HD
ATOM     22  C   UNL A   1      34.417  21.011  25.616  1.00  0.00     0.221 C 
ATOM     23  C   UNL A   1      32.661  20.378  24.199  1.00  0.00     0.221 C 
ATOM     24  O   UNL A   1      33.356  20.070  25.406  1.00  0.00    -0.370 OA
ENDBRANCH   5  18
ENDBRANCH   3   5
ENDBRANCH   2   3
ENDBRANCH   1   2
BRANCH   1  25
ATOM     25  C   UNL A   1      33.694  29.416  26.157  1.00  0.00     0.275 C 
BRANCH  25  26
ATOM     26  O   UNL A   1      34.848  29.322  27.632  1.00  0.00    -0.458 OA
BRANCH  26  27
ATOM     27  C   UNL A   1      35.838  30.171  28.451  1.00  0.00     0.338 C 
ATOM     28  O   UNL A   1      35.419  31.263  28.846  1.00  0.00    -0.246 OA
BRANCH  27  29
ATOM     29  C   UNL A   1      37.327  29.708  29.012  1.00  0.00     0.060 A 
ATOM     30  C   UNL A   1      37.612  28.770  30.024  1.00  0.00     0.016 A 
ATOM     31  C   UNL A   1      38.452  29.997  28.272  1.00  0.00     0.016 A 
ATOM     32  C   UNL A   1      38.748  27.849  29.894  1.00  0.00     0.010 A 
ATOM     33  C   UNL A   1      39.254  28.910  27.919  1.00  0.00     0.010 A 
ATOM     34  C   UNL A   1      39.433  27.767  28.687  1.00  0.00    -0.014 A 
BRANCH  34  35
ATOM     35  C   UNL A   1      40.527  26.848  28.206  1.00  0.00     0.031 A 
ATOM     36  C   UNL A   1      40.488  25.345  28.048  1.00  0.00     0.074 A 
ATOM     37  C   UNL A   1      41.689  27.541  28.025  1.00  0.00     0.049 A 
ATOM     38  N   UNL A   1      41.320  24.533  28.624  1.00  0.00    -0.248 NA
ATOM     39  C   UNL A   1      39.593  24.598  27.140  1.00  0.00     0.031 C 
ATOM     40  C   UNL A   1      43.073  27.135  27.886  1.00  0.00     0.029 A 
ATOM     41  N   UNL A   1      41.826  28.924  28.280  1.00  0.00    -0.354 N 
ATOM     42  C   UNL A   1      41.277  23.298  27.973  1.00  0.00     0.074 A 
ATOM     43  C   UNL A   1      40.084  23.341  27.170  1.00  0.00     0.031 C 
ATOM     44  C   UNL A   1      43.814  28.070  28.538  1.00  0.00     0.029 A 
ATOM     45  C   UNL A   1      42.901  29.072  29.114  1.00  0.00     0.049 A 
ATOM     46  H   UNL A   1      41.257  29.645  27.925  1.00  0.00     0.167 HD
ATOM     47  C   UNL A   1      42.364  22.462  28.004  1.00  0.00     0.034 A 
ATOM     48  C   UNL A   1      42.619  29.353  30.422  1.00  0.00     0.034 A 
ATOM     49  C   UNL A   1      43.453  23.138  28.685  1.00  0.00     0.049 A 
ATOM     50  C   UNL A   1      43.126  28.235  31.284  1.00  0.00     0.074 A 
ATOM     51  C   UNL A   1      44.511  23.874  28.184  1.00  0.00     0.029 A 
ATOM     52  N   UNL A   1      43.341  23.439  30.029  1.00  0.00    -0.354 N 
ATOM     53  N   UNL A   1      43.199  26.986  30.912  1.00  0.00    -0.248 NA
ATOM     54  C   UNL A   1      43.674  28.480  32.605  1.00  0.00     0.031 C 
ATOM     55  C   UNL A   1      44.970  24.715  29.223  1.00  0.00     0.029 A 
ATOM     56  C   UNL A   1      44.206  24.464  30.349  1.00  0.00     0.049 A 
ATOM     57  H   UNL A   1      42.736  22.991  30.663  1.00  0.00     0.167 HD
ATOM     58  C   UNL A   1      43.897  26.285  31.862  1.00  0.00     0.074 A 
ATOM     59  C   UNL A   1      44.159  27.267  32.904  1.00  0.00     0.031 C 
ATOM     60  C   UNL A   1      44.257  24.975  31.700  1.00  0.00     0.034 A 
BRANCH  47  61
ATOM     61  C   UNL A   1      42.644  21.199  27.197  1.00  0.00     0.023 A 
ATOM     62  C   UNL A   1      43.705  21.210  26.252  1.00  0.00     0.031 A 
ATOM     63  C   UNL A   1      41.988  19.965  27.334  1.00  0.00     0.131 A 
ATOM     64  C   UNL A   1      44.040  20.094  25.463  1.00  0.00     0.055 A 
ATOM     65  C   UNL A   1      42.330  18.835  26.553  1.00  0.00     0.041 A 
ATOM     66  F   UNL A   1      41.016  19.800  28.244  1.00  0.00    -0.206 F 
ATOM     67  C   UNL A   1      43.351  18.898  25.604  1.00  0.00     0.022 A 
BRANCH  64  68
ATOM     68  S   UNL A   1      45.375  20.259  24.236  1.00  0.00     0.124 S 
ATOM     69  O   UNL A   1      45.583  18.874  23.822  1.00  0.00    -0.237 OA
ATOM     70  O   UNL A   1      44.783  21.145  23.240  1.00  0.00    -0.237 OA
ATOM     71  O   UNL A   1      46.475  20.841  25.002  1.00  0.00    -0.744 OA
ENDBRANCH  64  68
ENDBRANCH  47  61
BRANCH  48  72
ATOM     72  C   UNL A   1      41.423  30.235  30.773  1.00  0.00     0.023 A 
ATOM     73  C   UNL A   1      40.486  29.831  31.767  1.00  0.00     0.031 A 
ATOM     74  C   UNL A   1      41.244  31.534  30.264  1.00  0.00     0.131 A 
ATOM     75  C   UNL A   1      39.490  30.711  32.262  1.00  0.00     0.055 A 
ATOM     76  C   UNL A   1      40.229  32.399  30.730  1.00  0.00     0.041 A 
ATOM     77  F   UNL A   1      42.100  32.042  29.364  1.00  0.00    -0.206 F 
ATOM     78  C   UNL A   1      39.361  32.000  31.747  1.00  0.00     0.022 A 
BRANCH  75  79
ATOM     79  S   UNL A   1      38.543  30.292  33.780  1.00  0.00     0.124 S 
ATOM     80  O   UNL A   1      39.598  30.030  34.751  1.00  0.00    -0.237 OA
ATOM     81  O   UNL A   1      37.740  31.490  34.015  1.00  0.00    -0.237 OA
ATOM     82  O   UNL A   1      37.759  29.121  33.388  1.00  0.00    -0.744 OA
ENDBRANCH  75  79
ENDBRANCH  48  72
BRANCH  60  83
ATOM     83  C   UNL A   1      44.842  24.086  32.768  1.00  0.00     0.023 A 
ATOM     84  C   UNL A   1      46.076  24.351  33.356  1.00  0.00     0.031 A 
ATOM     85  C   UNL A   1      44.155  22.951  33.267  1.00  0.00     0.131 A 
ATOM     86  C   UNL A   1      46.666  23.442  34.238  1.00  0.00     0.055 A 
ATOM     87  C   UNL A   1      44.687  22.117  34.252  1.00  0.00     0.041 A 
ATOM     88  F   UNL A   1      42.935  22.601  32.834  1.00  0.00    -0.206 F 
ATOM     89  C   UNL A   1      45.972  22.338  34.717  1.00  0.00     0.022 A 
BRANCH  86  90
ATOM     90  S   UNL A   1      48.415  23.688  34.614  1.00  0.00     0.124 S 
ATOM     91  O   UNL A   1      48.875  22.313  34.793  1.00  0.00    -0.237 OA
ATOM     92  O   UNL A   1      48.901  24.364  33.416  1.00  0.00    -0.237 OA
ATOM     93  O   UNL A   1      48.392  24.501  35.827  1.00  0.00    -0.744 OA
ENDBRANCH  86  90
ENDBRANCH  60  83
ENDBRANCH  34  35
ENDBRANCH  27  29
ENDBRANCH  26  27
ENDBRANCH  25  26
ENDBRANCH   1  25
TORSDOF 18
ENDMDL
MODEL 3
REMARK VINA RESULT:     -14.5      4.565     10.946
REMARK SMILES Cc1ccc(NC(=O)C[C@@H](C(=O)OCCOC(=O)c2ccc(-c3c4nc(c(-c5cc(S(=O)(=O)[O-])ccc5F)c5ccc([nH]5)c(-c5cc(S(=O)(=O)[O-])ccc5F)c5nc(c(-c6cc(S(=O)(=O)[O-])ccc6F)c6ccc3[nH]6)C=C5)C=C4)cc2)[NH+]2CCOCC2)cc1
REMARK SMILES IDX 14 1 13 2 11 3 12 4 10 5 9 6 7 7 6 8 8 10 5 11 1 12 2 13
REMARK SMILES IDX 3 14 89 15 4 16 88 17 82 18 83 19 87 20 84 22 86 23 85 24
REMARK SMILES IDX 15 25 16 26 17 27 18 28 19 29 20 30 81 31 21 32 80 33 22 34
REMARK SMILES IDX 23 35 24 36 74 37 25 38 79 39 73 40 75 41 26 42 78 43 72 44
REMARK SMILES IDX 71 45 27 47 59 48 39 49 58 50 40 51 43 52 57 53 76 54 41 55
REMARK SMILES IDX 42 56 56 58 77 59 44 60 28 61 29 62 37 63 30 64 36 65 38 66
REMARK SMILES IDX 35 67 31 68 32 69 33 70 34 71 60 72 61 73 69 74 62 75 68 76
REMARK SMILES IDX 70 77 67 78 63 79 64 80 65 81 66 82 45 83 46 84 54 85 47 86
REMARK SMILES IDX 53 87 55 88 52 89 48 90 49 91 50 92 51 93
REMARK H PARENT 6 9 82 21 75 46 43 57
REMARK Flexibility Score: inf
ROOT
ATOM      1  C   UNL A   1      36.360  21.138  25.648  1.00  0.00     0.274 C 
ENDROOT
BRANCH   1   2
ATOM      2  O   UNL A   1      34.742  21.261  26.346  1.00  0.00    -0.458 OA
BRANCH   2   3
ATOM      3  C   UNL A   1      33.503  20.831  25.877  1.00  0.00     0.365 C 
ATOM      4  O   UNL A   1      32.466  21.431  26.058  1.00  0.00    -0.245 OA
BRANCH   3   5
ATOM      5  C   UNL A   1      33.508  19.783  24.776  1.00  0.00     0.304 C 
BRANCH   5   6
ATOM      6  C   UNL A   1      32.111  19.919  24.140  1.00  0.00     0.177 C 
BRANCH   6   7
ATOM      7  C   UNL A   1      32.116  20.199  22.656  1.00  0.00     0.231 C 
ATOM      8  N   UNL A   1      31.861  21.421  22.100  1.00  0.00    -0.326 N 
ATOM      9  H   UNL A   1      31.456  21.367  21.204  1.00  0.00     0.169 HD
ATOM     10  O   UNL A   1      32.339  19.269  21.870  1.00  0.00    -0.274 OA
BRANCH   8  11
ATOM     11  C   UNL A   1      32.062  22.746  22.550  1.00  0.00     0.041 A 
ATOM     12  C   UNL A   1      33.836  26.313  25.782  1.00  0.00     0.044 C 
ATOM     13  C   UNL A   1      33.384  25.093  25.006  1.00  0.00    -0.051 A 
ATOM     14  C   UNL A   1      31.632  24.844  24.835  1.00  0.00     0.005 A 
ATOM     15  C   UNL A   1      34.407  24.238  23.941  1.00  0.00     0.005 A 
ATOM     16  C   UNL A   1      30.904  23.680  23.546  1.00  0.00     0.026 A 
ATOM     17  C   UNL A   1      33.788  23.118  22.740  1.00  0.00     0.026 A 
ENDBRANCH   8  11
ENDBRANCH   6   7
ENDBRANCH   5   6
BRANCH   5  18
ATOM     18  N   UNL A   1      33.762  18.308  25.239  1.00  0.00    -0.319 N 
ATOM     19  C   UNL A   1      32.548  17.440  25.282  1.00  0.00     0.291 C 
ATOM     20  C   UNL A   1      34.790  17.536  24.484  1.00  0.00     0.291 C 
ATOM     21  H   UNL A   1      34.108  18.498  26.179  1.00  0.00     0.348 HD
ATOM     22  C   UNL A   1      32.803  16.011  25.824  1.00  0.00     0.221 C 
ATOM     23  C   UNL A   1      35.015  16.110  25.056  1.00  0.00     0.221 C 
ATOM     24  O   UNL A   1      33.816  15.337  25.065  1.00  0.00    -0.370 OA
ENDBRANCH   5  18
ENDBRANCH   3   5
ENDBRANCH   2   3
ENDBRANCH   1   2
BRANCH   1  25
ATOM     25  C   UNL A   1      37.513  22.785  24.726  1.00  0.00     0.275 C 
BRANCH  25  26
ATOM     26  O   UNL A   1      38.351  24.049  25.829  1.00  0.00    -0.458 OA
BRANCH  26  27
ATOM     27  C   UNL A   1      39.533  24.213  26.801  1.00  0.00     0.338 C 
ATOM     28  O   UNL A   1      40.201  23.198  27.019  1.00  0.00    -0.246 OA
BRANCH  27  29
ATOM     29  C   UNL A   1      40.116  25.627  27.440  1.00  0.00     0.060 A 
ATOM     30  C   UNL A   1      40.413  26.822  26.755  1.00  0.00     0.016 A 
ATOM     31  C   UNL A   1      40.049  25.838  28.799  1.00  0.00     0.016 A 
ATOM     32  C   UNL A   1      40.102  28.127  27.352  1.00  0.00     0.010 A 
ATOM     33  C   UNL A   1      39.376  26.989  29.212  1.00  0.00     0.010 A 
ATOM     34  C   UNL A   1      39.338  28.187  28.513  1.00  0.00    -0.014 A 
BRANCH  34  35
ATOM     35  C   UNL A   1      38.750  29.346  29.276  1.00  0.00     0.031 A 
ATOM     36  C   UNL A   1      37.774  30.394  28.788  1.00  0.00     0.074 A 
ATOM     37  C   UNL A   1      39.317  29.441  30.514  1.00  0.00     0.049 A 
ATOM     38  N   UNL A   1      37.999  31.670  28.829  1.00  0.00    -0.248 NA
ATOM     39  C   UNL A   1      36.399  30.133  28.314  1.00  0.00     0.031 C 
ATOM     40  C   UNL A   1      39.363  30.498  31.504  1.00  0.00     0.029 A 
ATOM     41  N   UNL A   1      40.328  28.572  30.982  1.00  0.00    -0.354 N 
ATOM     42  C   UNL A   1      36.787  32.351  28.697  1.00  0.00     0.074 A 
ATOM     43  C   UNL A   1      35.854  31.364  28.222  1.00  0.00     0.031 C 
ATOM     44  C   UNL A   1      40.601  30.444  32.064  1.00  0.00     0.029 A 
ATOM     45  C   UNL A   1      41.360  29.359  31.419  1.00  0.00     0.049 A 
ATOM     46  H   UNL A   1      40.297  27.588  30.993  1.00  0.00     0.167 HD
ATOM     47  C   UNL A   1      36.644  33.614  29.213  1.00  0.00     0.034 A 
ATOM     48  C   UNL A   1      42.461  29.418  30.611  1.00  0.00     0.034 A 
ATOM     49  C   UNL A   1      37.855  33.964  29.932  1.00  0.00     0.049 A 
ATOM     50  C   UNL A   1      42.648  30.831  30.141  1.00  0.00     0.074 A 
ATOM     51  C   UNL A   1      38.168  33.861  31.276  1.00  0.00     0.029 A 
ATOM     52  N   UNL A   1      39.043  34.119  29.243  1.00  0.00    -0.354 N 
ATOM     53  N   UNL A   1      41.679  31.682  29.943  1.00  0.00    -0.248 NA
ATOM     54  C   UNL A   1      43.969  31.401  29.949  1.00  0.00     0.031 C 
ATOM     55  C   UNL A   1      39.577  33.842  31.381  1.00  0.00     0.029 A 
ATOM     56  C   UNL A   1      40.105  33.960  30.107  1.00  0.00     0.049 A 
ATOM     57  H   UNL A   1      39.119  34.312  28.281  1.00  0.00     0.167 HD
ATOM     58  C   UNL A   1      42.221  32.922  29.723  1.00  0.00     0.074 A 
ATOM     59  C   UNL A   1      43.657  32.685  29.727  1.00  0.00     0.031 C 
ATOM     60  C   UNL A   1      41.461  34.054  29.614  1.00  0.00     0.034 A 
BRANCH  47  61
ATOM     61  C   UNL A   1      35.383  34.452  29.401  1.00  0.00     0.023 A 
ATOM     62  C   UNL A   1      34.957  34.763  30.720  1.00  0.00     0.031 A 
ATOM     63  C   UNL A   1      34.607  35.022  28.379  1.00  0.00     0.131 A 
ATOM     64  C   UNL A   1      33.809  35.531  30.993  1.00  0.00     0.055 A 
ATOM     65  C   UNL A   1      33.460  35.806  28.648  1.00  0.00     0.041 A 
ATOM     66  F   UNL A   1      34.944  34.865  27.090  1.00  0.00    -0.206 F 
ATOM     67  C   UNL A   1      33.048  36.054  29.959  1.00  0.00     0.022 A 
BRANCH  64  68
ATOM     68  S   UNL A   1      33.329  35.798  32.729  1.00  0.00     0.124 S 
ATOM     69  O   UNL A   1      34.616  36.064  33.365  1.00  0.00    -0.237 OA
ATOM     70  O   UNL A   1      32.414  36.929  32.635  1.00  0.00    -0.237 OA
ATOM     71  O   UNL A   1      32.706  34.531  33.111  1.00  0.00    -0.744 OA
ENDBRANCH  64  68
ENDBRANCH  47  61
BRANCH  48  72
ATOM     72  C   UNL A   1      42.898  28.185  29.824  1.00  0.00     0.023 A 
ATOM     73  C   UNL A   1      43.195  28.275  28.434  1.00  0.00     0.031 A 
ATOM     74  C   UNL A   1      43.173  26.942  30.424  1.00  0.00     0.131 A 
ATOM     75  C   UNL A   1      43.799  27.205  27.724  1.00  0.00     0.055 A 
ATOM     76  C   UNL A   1      43.742  25.864  29.709  1.00  0.00     0.041 A 
ATOM     77  F   UNL A   1      42.986  26.760  31.740  1.00  0.00    -0.206 F 
ATOM     78  C   UNL A   1      44.079  25.997  28.362  1.00  0.00     0.022 A 
BRANCH  75  79
ATOM     79  S   UNL A   1      44.496  27.473  26.045  1.00  0.00     0.124 S 
ATOM     80  O   UNL A   1      43.377  27.126  25.177  1.00  0.00    -0.237 OA
ATOM     81  O   UNL A   1      44.879  28.884  26.062  1.00  0.00    -0.237 OA
ATOM     82  O   UNL A   1      45.630  26.552  25.989  1.00  0.00    -0.744 OA
ENDBRANCH  75  79
ENDBRANCH  48  72
BRANCH  60  83
ATOM     83  C   UNL A   1      41.958  35.408  29.177  1.00  0.00     0.023 A 
ATOM     84  C   UNL A   1      42.948  36.093  29.877  1.00  0.00     0.031 A 
ATOM     85  C   UNL A   1      41.480  36.049  28.007  1.00  0.00     0.131 A 
ATOM     86  C   UNL A   1      43.296  37.405  29.541  1.00  0.00     0.055 A 
ATOM     87  C   UNL A   1      41.929  37.304  27.594  1.00  0.00     0.041 A 
ATOM     88  F   UNL A   1      40.564  35.488  27.203  1.00  0.00    -0.206 F 
ATOM     89  C   UNL A   1      42.817  38.011  28.387  1.00  0.00     0.022 A 
BRANCH  86  90
ATOM     90  S   UNL A   1      44.277  38.322  30.747  1.00  0.00     0.124 S 
ATOM     91  O   UNL A   1      43.445  39.503  30.967  1.00  0.00    -0.237 OA
ATOM     92  O   UNL A   1      44.354  37.389  31.866  1.00  0.00    -0.237 OA
ATOM     93  O   UNL A   1      45.536  38.567  30.047  1.00  0.00    -0.744 OA
ENDBRANCH  86  90
ENDBRANCH  60  83
ENDBRANCH  34  35
ENDBRANCH  27  29
ENDBRANCH  26  27
ENDBRANCH  25  26
ENDBRANCH   1  25
TORSDOF 18
ENDMDL
