MODEL 1
REMARK VINA RESULT:     -12.5      0.000      0.000
REMARK SMILES Cc1cccc(NS(=O)(=O)c2ccc(Br)c(C(=O)OCCOC(=O)c3ccc(-c4c5nc(c(-c6cc(S(=O)(=O)[O-])ccc6F)c6ccc([nH]6)c(-c6cc(S(=O)(=O)[O-])ccc6F)c6nc(c(-c7cc(S(=O)(=O)[O-])ccc7F)c7ccc4[nH]7)C=C6)C=C5)cc3)c2)c1
REMARK SMILES IDX 20 1 19 2 17 3 18 4 16 5 11 6 12 7 88 8 13 9 14 10 15 11
REMARK SMILES IDX 8 12 9 13 10 14 7 15 6 17 1 18 2 19 3 20 89 21 4 22 5 23
REMARK SMILES IDX 21 24 22 25 23 26 24 27 25 28 26 29 87 30 27 31 86 32 28 33
REMARK SMILES IDX 29 34 30 35 80 36 31 37 85 38 79 39 81 40 32 41 84 42 78 43
REMARK SMILES IDX 77 44 33 46 65 47 45 48 64 49 46 50 49 51 63 52 82 53 47 54
REMARK SMILES IDX 48 55 62 57 83 58 50 59 34 60 35 61 43 62 36 63 42 64 44 65
REMARK SMILES IDX 41 66 37 67 38 68 39 69 40 70 66 71 67 72 75 73 68 74 74 75
REMARK SMILES IDX 76 76 73 77 69 78 70 79 71 80 72 81 51 82 52 83 60 84 53 85
REMARK SMILES IDX 59 86 61 87 58 88 54 89 55 90 56 91 57 92
REMARK H PARENT 7 16 81 45 49 56
REMARK Flexibility Score: inf
ROOT
ATOM      1  C   UNL A   1      33.139  30.425  26.465  1.00  0.00     0.275 C 
ENDROOT
BRANCH   1   2
ATOM      2  O   UNL A   1      32.740  29.052  26.578  1.00  0.00    -0.458 OA
BRANCH   2   3
ATOM      3  C   UNL A   1      33.099  28.288  25.520  1.00  0.00     0.339 C 
ATOM      4  O   UNL A   1      34.016  28.469  24.740  1.00  0.00    -0.246 OA
BRANCH   3   5
ATOM      5  C   UNL A   1      32.141  27.194  25.364  1.00  0.00     0.075 A 
ATOM      6  C   UNL A   1      31.557  24.874  25.747  1.00  0.00     0.088 A 
ATOM      7  C   UNL A   1      30.437  25.028  24.927  1.00  0.00     0.023 A 
ATOM      8  C   UNL A   1      32.385  25.971  25.999  1.00  0.00     0.039 A 
ATOM      9  C   UNL A   1      30.214  26.244  24.272  1.00  0.00     0.018 A 
ATOM     10  C   UNL A   1      31.076  27.324  24.473  1.00  0.00     0.032 A 
ATOM     11  Br  UNL A   1      30.749  28.917  23.493  1.00  0.00    -0.050 Br
BRANCH   6  12
ATOM     12  S   UNL A   1      32.119  23.285  26.346  1.00  0.00     0.261 S 
ATOM     13  O   UNL A   1      31.954  22.351  25.251  1.00  0.00    -0.201 OA
ATOM     14  O   UNL A   1      31.491  23.072  27.626  1.00  0.00    -0.201 OA
BRANCH  12  15
ATOM     15  N   UNL A   1      33.773  23.373  26.582  1.00  0.00    -0.280 N 
ATOM     16  H   UNL A   1      34.089  23.513  27.503  1.00  0.00     0.180 HD
BRANCH  15  17
ATOM     17  C   UNL A   1      34.761  23.263  25.567  1.00  0.00     0.049 A 
ATOM     18  C   UNL A   1      38.158  21.561  25.375  1.00  0.00     0.044 C 
ATOM     19  C   UNL A   1      36.917  22.300  24.973  1.00  0.00    -0.049 A 
ATOM     20  C   UNL A   1      36.648  22.571  23.628  1.00  0.00     0.003 A 
ATOM     21  C   UNL A   1      35.965  22.653  25.937  1.00  0.00     0.030 A 
ATOM     22  C   UNL A   1      35.486  23.256  23.266  1.00  0.00     0.002 A 
ATOM     23  C   UNL A   1      34.556  23.628  24.238  1.00  0.00     0.027 A 
ENDBRANCH  15  17
ENDBRANCH  12  15
ENDBRANCH   6  12
ENDBRANCH   3   5
ENDBRANCH   2   3
ENDBRANCH   1   2
BRANCH   1  24
ATOM     24  C   UNL A   1      33.811  30.922  27.750  1.00  0.00     0.275 C 
BRANCH  24  25
ATOM     25  O   UNL A   1      35.263  31.034  27.740  1.00  0.00    -0.458 OA
BRANCH  25  26
ATOM     26  C   UNL A   1      36.150  30.784  28.743  1.00  0.00     0.338 C 
ATOM     27  O   UNL A   1      35.960  31.226  29.872  1.00  0.00    -0.246 OA
BRANCH  26  28
ATOM     28  C   UNL A   1      37.224  29.798  28.494  1.00  0.00     0.060 A 
ATOM     29  C   UNL A   1      37.879  29.794  27.254  1.00  0.00     0.016 A 
ATOM     30  C   UNL A   1      37.666  28.961  29.507  1.00  0.00     0.016 A 
ATOM     31  C   UNL A   1      39.092  29.118  27.097  1.00  0.00     0.010 A 
ATOM     32  C   UNL A   1      38.912  28.378  29.397  1.00  0.00     0.010 A 
ATOM     33  C   UNL A   1      39.640  28.455  28.197  1.00  0.00    -0.014 A 
BRANCH  33  34
ATOM     34  C   UNL A   1      40.798  27.561  28.107  1.00  0.00     0.031 A 
ATOM     35  C   UNL A   1      40.722  26.086  28.013  1.00  0.00     0.074 A 
ATOM     36  C   UNL A   1      41.996  28.181  28.211  1.00  0.00     0.049 A 
ATOM     37  N   UNL A   1      41.613  25.291  28.505  1.00  0.00    -0.248 NA
ATOM     38  C   UNL A   1      39.638  25.370  27.347  1.00  0.00     0.031 C 
ATOM     39  C   UNL A   1      43.340  27.637  28.148  1.00  0.00     0.029 A 
ATOM     40  N   UNL A   1      42.198  29.486  28.668  1.00  0.00    -0.354 N 
ATOM     41  C   UNL A   1      41.386  24.028  28.001  1.00  0.00     0.074 A 
ATOM     42  C   UNL A   1      40.099  24.110  27.352  1.00  0.00     0.031 C 
ATOM     43  C   UNL A   1      44.140  28.440  28.877  1.00  0.00     0.029 A 
ATOM     44  C   UNL A   1      43.285  29.426  29.531  1.00  0.00     0.049 A 
ATOM     45  H   UNL A   1      41.676  30.285  28.427  1.00  0.00     0.167 HD
ATOM     46  C   UNL A   1      42.374  23.088  28.066  1.00  0.00     0.034 A 
ATOM     47  C   UNL A   1      43.125  29.632  30.876  1.00  0.00     0.034 A 
ATOM     48  C   UNL A   1      43.555  23.606  28.742  1.00  0.00     0.049 A 
ATOM     49  C   UNL A   1      43.572  28.426  31.685  1.00  0.00     0.074 A 
ATOM     50  C   UNL A   1      44.736  24.179  28.302  1.00  0.00     0.029 A 
ATOM     51  N   UNL A   1      43.481  23.859  30.096  1.00  0.00    -0.354 N 
ATOM     52  N   UNL A   1      43.827  27.255  31.164  1.00  0.00    -0.248 NA
ATOM     53  C   UNL A   1      43.683  28.416  33.142  1.00  0.00     0.031 C 
ATOM     54  C   UNL A   1      45.331  24.852  29.408  1.00  0.00     0.029 A 
ATOM     55  C   UNL A   1      44.529  24.651  30.516  1.00  0.00     0.049 A 
ATOM     56  H   UNL A   1      42.770  23.519  30.687  1.00  0.00     0.167 HD
ATOM     57  C   UNL A   1      44.167  26.377  32.151  1.00  0.00     0.074 A 
ATOM     58  C   UNL A   1      44.013  27.137  33.380  1.00  0.00     0.031 C 
ATOM     59  C   UNL A   1      44.547  25.092  31.898  1.00  0.00     0.034 A 
BRANCH  46  60
ATOM     60  C   UNL A   1      42.386  21.774  27.324  1.00  0.00     0.023 A 
ATOM     61  C   UNL A   1      43.466  21.492  26.457  1.00  0.00     0.031 A 
ATOM     62  C   UNL A   1      41.406  20.772  27.424  1.00  0.00     0.131 A 
ATOM     63  C   UNL A   1      43.509  20.316  25.687  1.00  0.00     0.055 A 
ATOM     64  C   UNL A   1      41.431  19.611  26.633  1.00  0.00     0.041 A 
ATOM     65  F   UNL A   1      40.406  20.861  28.315  1.00  0.00    -0.206 F 
ATOM     66  C   UNL A   1      42.480  19.382  25.750  1.00  0.00     0.022 A 
BRANCH  63  67
ATOM     67  S   UNL A   1      44.934  20.032  24.597  1.00  0.00     0.124 S 
ATOM     68  O   UNL A   1      44.564  20.782  23.401  1.00  0.00    -0.237 OA
ATOM     69  O   UNL A   1      46.038  20.575  25.382  1.00  0.00    -0.237 OA
ATOM     70  O   UNL A   1      44.951  18.580  24.431  1.00  0.00    -0.744 OA
ENDBRANCH  63  67
ENDBRANCH  46  60
BRANCH  47  71
ATOM     71  C   UNL A   1      42.006  30.565  31.270  1.00  0.00     0.023 A 
ATOM     72  C   UNL A   1      40.901  30.026  31.974  1.00  0.00     0.031 A 
ATOM     73  C   UNL A   1      42.114  31.965  31.242  1.00  0.00     0.131 A 
ATOM     74  C   UNL A   1      40.069  30.848  32.752  1.00  0.00     0.055 A 
ATOM     75  C   UNL A   1      41.218  32.791  31.938  1.00  0.00     0.041 A 
ATOM     76  F   UNL A   1      43.139  32.567  30.622  1.00  0.00    -0.206 F 
ATOM     77  C   UNL A   1      40.217  32.234  32.732  1.00  0.00     0.022 A 
BRANCH  74  78
ATOM     78  S   UNL A   1      39.003  30.078  34.015  1.00  0.00     0.124 S 
ATOM     79  O   UNL A   1      38.232  31.216  34.500  1.00  0.00    -0.237 OA
ATOM     80  O   UNL A   1      38.261  29.081  33.249  1.00  0.00    -0.237 OA
ATOM     81  O   UNL A   1      39.960  29.507  34.959  1.00  0.00    -0.744 OA
ENDBRANCH  74  78
ENDBRANCH  47  71
BRANCH  59  82
ATOM     82  C   UNL A   1      44.979  24.150  32.979  1.00  0.00     0.023 A 
ATOM     83  C   UNL A   1      46.251  24.250  33.556  1.00  0.00     0.031 A 
ATOM     84  C   UNL A   1      44.165  23.084  33.414  1.00  0.00     0.131 A 
ATOM     85  C   UNL A   1      46.632  23.388  34.592  1.00  0.00     0.055 A 
ATOM     86  C   UNL A   1      44.588  22.163  34.374  1.00  0.00     0.041 A 
ATOM     87  F   UNL A   1      42.912  22.920  32.962  1.00  0.00    -0.206 F 
ATOM     88  C   UNL A   1      45.823  22.323  34.986  1.00  0.00     0.022 A 
BRANCH  85  89
ATOM     89  S   UNL A   1      48.157  23.764  35.488  1.00  0.00     0.124 S 
ATOM     90  O   UNL A   1      49.164  23.742  34.431  1.00  0.00    -0.237 OA
ATOM     91  O   UNL A   1      47.852  25.080  36.044  1.00  0.00    -0.237 OA
ATOM     92  O   UNL A   1      48.255  22.685  36.467  1.00  0.00    -0.744 OA
ENDBRANCH  85  89
ENDBRANCH  59  82
ENDBRANCH  33  34
ENDBRANCH  26  28
ENDBRANCH  25  26
ENDBRANCH  24  25
ENDBRANCH   1  24
TORSDOF 17
ENDMDL
MODEL 2
REMARK VINA RESULT:     -12.2      4.269     10.215
REMARK SMILES Cc1cccc(NS(=O)(=O)c2ccc(Br)c(C(=O)OCCOC(=O)c3ccc(-c4c5nc(c(-c6cc(S(=O)(=O)[O-])ccc6F)c6ccc([nH]6)c(-c6cc(S(=O)(=O)[O-])ccc6F)c6nc(c(-c7cc(S(=O)(=O)[O-])ccc7F)c7ccc4[nH]7)C=C6)C=C5)cc3)c2)c1
REMARK SMILES IDX 20 1 19 2 17 3 18 4 16 5 11 6 12 7 88 8 13 9 14 10 15 11
REMARK SMILES IDX 8 12 9 13 10 14 7 15 6 17 1 18 2 19 3 20 89 21 4 22 5 23
REMARK SMILES IDX 21 24 22 25 23 26 24 27 25 28 26 29 87 30 27 31 86 32 28 33
REMARK SMILES IDX 29 34 30 35 80 36 31 37 85 38 79 39 81 40 32 41 84 42 78 43
REMARK SMILES IDX 77 44 33 46 65 47 45 48 64 49 46 50 49 51 63 52 82 53 47 54
REMARK SMILES IDX 48 55 62 57 83 58 50 59 34 60 35 61 43 62 36 63 42 64 44 65
REMARK SMILES IDX 41 66 37 67 38 68 39 69 40 70 66 71 67 72 75 73 68 74 74 75
REMARK SMILES IDX 76 76 73 77 69 78 70 79 71 80 72 81 51 82 52 83 60 84 53 85
REMARK SMILES IDX 59 86 61 87 58 88 54 89 55 90 56 91 57 92
REMARK H PARENT 7 16 81 45 49 56
REMARK Flexibility Score: inf
ROOT
ATOM      1  C   UNL A   1      37.488  21.348  25.044  1.00  0.00     0.275 C 
ENDROOT
BRANCH   1   2
ATOM      2  O   UNL A   1      36.816  22.546  24.635  1.00  0.00    -0.458 OA
BRANCH   2   3
ATOM      3  C   UNL A   1      35.646  22.766  25.280  1.00  0.00     0.339 C 
ATOM      4  O   UNL A   1      35.419  22.680  26.473  1.00  0.00    -0.246 OA
BRANCH   3   5
ATOM      5  C   UNL A   1      34.597  23.053  24.301  1.00  0.00     0.075 A 
ATOM      6  C   UNL A   1      33.390  24.675  22.967  1.00  0.00     0.088 A 
ATOM      7  C   UNL A   1      32.489  23.680  22.586  1.00  0.00     0.023 A 
ATOM      8  C   UNL A   1      34.471  24.350  23.792  1.00  0.00     0.039 A 
ATOM      9  C   UNL A   1      32.604  22.392  23.121  1.00  0.00     0.018 A 
ATOM     10  C   UNL A   1      33.647  22.079  23.995  1.00  0.00     0.032 A 
ATOM     11  Br  UNL A   1      33.693  20.333  24.736  1.00  0.00    -0.050 Br
BRANCH   6  12
ATOM     12  S   UNL A   1      33.133  26.411  22.622  1.00  0.00     0.261 S 
ATOM     13  O   UNL A   1      31.715  26.655  22.776  1.00  0.00    -0.201 OA
ATOM     14  O   UNL A   1      33.824  26.701  21.389  1.00  0.00    -0.201 OA
BRANCH  12  15
ATOM     15  N   UNL A   1      33.852  27.297  23.846  1.00  0.00    -0.280 N 
ATOM     16  H   UNL A   1      34.757  27.646  23.677  1.00  0.00     0.180 HD
BRANCH  15  17
ATOM     17  C   UNL A   1      33.270  27.590  25.108  1.00  0.00     0.049 A 
ATOM     18  C   UNL A   1      33.276  30.655  27.361  1.00  0.00     0.044 C 
ATOM     19  C   UNL A   1      32.949  29.298  26.813  1.00  0.00    -0.049 A 
ATOM     20  C   UNL A   1      31.914  28.534  27.359  1.00  0.00     0.003 A 
ATOM     21  C   UNL A   1      33.623  28.815  25.685  1.00  0.00     0.030 A 
ATOM     22  C   UNL A   1      31.617  27.274  26.836  1.00  0.00     0.002 A 
ATOM     23  C   UNL A   1      32.314  26.788  25.728  1.00  0.00     0.027 A 
ENDBRANCH  15  17
ENDBRANCH  12  15
ENDBRANCH   6  12
ENDBRANCH   3   5
ENDBRANCH   2   3
ENDBRANCH   1   2
BRANCH   1  24
ATOM     24  C   UNL A   1      38.727  21.660  25.890  1.00  0.00     0.275 C 
BRANCH  24  25
ATOM     25  O   UNL A   1      39.124  23.056  25.999  1.00  0.00    -0.458 OA
BRANCH  25  26
ATOM     26  C   UNL A   1      40.303  23.584  26.432  1.00  0.00     0.338 C 
ATOM     27  O   UNL A   1      41.372  23.169  25.994  1.00  0.00    -0.246 OA
BRANCH  26  28
ATOM     28  C   UNL A   1      40.257  24.800  27.271  1.00  0.00     0.060 A 
ATOM     29  C   UNL A   1      40.719  26.016  26.745  1.00  0.00     0.016 A 
ATOM     30  C   UNL A   1      39.658  24.775  28.521  1.00  0.00     0.016 A 
ATOM     31  C   UNL A   1      40.395  27.224  27.368  1.00  0.00     0.010 A 
ATOM     32  C   UNL A   1      39.243  25.964  29.087  1.00  0.00     0.010 A 
ATOM     33  C   UNL A   1      39.600  27.198  28.516  1.00  0.00    -0.014 A 
BRANCH  33  34
ATOM     34  C   UNL A   1      39.355  28.373  29.356  1.00  0.00     0.031 A 
ATOM     35  C   UNL A   1      38.510  29.526  28.970  1.00  0.00     0.074 A 
ATOM     36  C   UNL A   1      40.048  28.389  30.517  1.00  0.00     0.049 A 
ATOM     37  N   UNL A   1      38.731  30.737  29.361  1.00  0.00    -0.248 NA
ATOM     38  C   UNL A   1      37.332  29.419  28.115  1.00  0.00     0.031 C 
ATOM     39  C   UNL A   1      40.048  29.362  31.595  1.00  0.00     0.029 A 
ATOM     40  N   UNL A   1      41.137  27.569  30.825  1.00  0.00    -0.354 N 
ATOM     41  C   UNL A   1      37.619  31.494  29.061  1.00  0.00     0.074 A 
ATOM     42  C   UNL A   1      36.809  30.651  28.214  1.00  0.00     0.031 C 
ATOM     43  C   UNL A   1      41.253  29.306  32.195  1.00  0.00     0.029 A 
ATOM     44  C   UNL A   1      42.085  28.395  31.414  1.00  0.00     0.049 A 
ATOM     45  H   UNL A   1      41.215  26.602  30.657  1.00  0.00     0.167 HD
ATOM     46  C   UNL A   1      37.437  32.699  29.677  1.00  0.00     0.034 A 
ATOM     47  C   UNL A   1      43.262  28.680  30.774  1.00  0.00     0.034 A 
ATOM     48  C   UNL A   1      38.547  33.014  30.565  1.00  0.00     0.049 A 
ATOM     49  C   UNL A   1      43.427  30.173  30.544  1.00  0.00     0.074 A 
ATOM     50  C   UNL A   1      38.762  32.850  31.923  1.00  0.00     0.029 A 
ATOM     51  N   UNL A   1      39.776  33.298  30.008  1.00  0.00    -0.354 N 
ATOM     52  N   UNL A   1      42.466  31.044  30.699  1.00  0.00    -0.248 NA
ATOM     53  C   UNL A   1      44.654  30.791  30.045  1.00  0.00     0.031 C 
ATOM     54  C   UNL A   1      40.163  32.964  32.158  1.00  0.00     0.029 A 
ATOM     55  C   UNL A   1      40.781  33.233  30.951  1.00  0.00     0.049 A 
ATOM     56  H   UNL A   1      39.918  33.519  29.059  1.00  0.00     0.167 HD
ATOM     57  C   UNL A   1      42.919  32.291  30.381  1.00  0.00     0.074 A 
ATOM     58  C   UNL A   1      44.283  32.076  29.929  1.00  0.00     0.031 C 
ATOM     59  C   UNL A   1      42.151  33.411  30.509  1.00  0.00     0.034 A 
BRANCH  46  60
ATOM     60  C   UNL A   1      36.160  33.503  29.673  1.00  0.00     0.023 A 
ATOM     61  C   UNL A   1      35.612  33.917  30.908  1.00  0.00     0.031 A 
ATOM     62  C   UNL A   1      35.451  33.901  28.526  1.00  0.00     0.131 A 
ATOM     63  C   UNL A   1      34.393  34.614  30.980  1.00  0.00     0.055 A 
ATOM     64  C   UNL A   1      34.217  34.570  28.597  1.00  0.00     0.041 A 
ATOM     65  F   UNL A   1      35.941  33.690  27.295  1.00  0.00    -0.206 F 
ATOM     66  C   UNL A   1      33.675  34.920  29.828  1.00  0.00     0.022 A 
BRANCH  63  67
ATOM     67  S   UNL A   1      33.759  35.108  32.609  1.00  0.00     0.124 S 
ATOM     68  O   UNL A   1      33.481  33.820  33.237  1.00  0.00    -0.237 OA
ATOM     69  O   UNL A   1      34.878  35.865  33.160  1.00  0.00    -0.237 OA
ATOM     70  O   UNL A   1      32.576  35.903  32.287  1.00  0.00    -0.744 OA
ENDBRANCH  63  67
ENDBRANCH  46  60
BRANCH  47  71
ATOM     71  C   UNL A   1      43.787  27.605  29.854  1.00  0.00     0.023 A 
ATOM     72  C   UNL A   1      43.540  27.733  28.465  1.00  0.00     0.031 A 
ATOM     73  C   UNL A   1      44.740  26.649  30.240  1.00  0.00     0.131 A 
ATOM     74  C   UNL A   1      44.342  27.065  27.524  1.00  0.00     0.055 A 
ATOM     75  C   UNL A   1      45.468  25.907  29.297  1.00  0.00     0.041 A 
ATOM     76  F   UNL A   1      45.059  26.473  31.530  1.00  0.00    -0.206 F 
ATOM     77  C   UNL A   1      45.303  26.144  27.934  1.00  0.00     0.022 A 
BRANCH  74  78
ATOM     78  S   UNL A   1      44.327  27.636  25.793  1.00  0.00     0.124 S 
ATOM     79  O   UNL A   1      43.814  26.467  25.089  1.00  0.00    -0.237 OA
ATOM     80  O   UNL A   1      43.440  28.795  25.840  1.00  0.00    -0.237 OA
ATOM     81  O   UNL A   1      45.725  27.971  25.537  1.00  0.00    -0.744 OA
ENDBRANCH  74  78
ENDBRANCH  47  71
BRANCH  59  82
ATOM     82  C   UNL A   1      42.672  34.784  30.219  1.00  0.00     0.023 A 
ATOM     83  C   UNL A   1      42.715  35.277  28.909  1.00  0.00     0.031 A 
ATOM     84  C   UNL A   1      43.203  35.613  31.229  1.00  0.00     0.131 A 
ATOM     85  C   UNL A   1      43.169  36.576  28.652  1.00  0.00     0.055 A 
ATOM     86  C   UNL A   1      43.750  36.868  30.955  1.00  0.00     0.041 A 
ATOM     87  F   UNL A   1      43.171  35.260  32.523  1.00  0.00    -0.206 F 
ATOM     88  C   UNL A   1      43.718  37.367  29.661  1.00  0.00     0.022 A 
BRANCH  85  89
ATOM     89  S   UNL A   1      42.918  37.249  26.992  1.00  0.00     0.124 S 
ATOM     90  O   UNL A   1      42.684  36.050  26.193  1.00  0.00    -0.237 OA
ATOM     91  O   UNL A   1      41.756  38.110  27.199  1.00  0.00    -0.237 OA
ATOM     92  O   UNL A   1      44.168  37.951  26.714  1.00  0.00    -0.744 OA
ENDBRANCH  85  89
ENDBRANCH  59  82
ENDBRANCH  33  34
ENDBRANCH  26  28
ENDBRANCH  25  26
ENDBRANCH  24  25
ENDBRANCH   1  24
TORSDOF 17
ENDMDL
MODEL 3
REMARK VINA RESULT:     -12.2      4.656     10.602
REMARK SMILES Cc1cccc(NS(=O)(=O)c2ccc(Br)c(C(=O)OCCOC(=O)c3ccc(-c4c5nc(c(-c6cc(S(=O)(=O)[O-])ccc6F)c6ccc([nH]6)c(-c6cc(S(=O)(=O)[O-])ccc6F)c6nc(c(-c7cc(S(=O)(=O)[O-])ccc7F)c7ccc4[nH]7)C=C6)C=C5)cc3)c2)c1
REMARK SMILES IDX 20 1 19 2 17 3 18 4 16 5 11 6 12 7 88 8 13 9 14 10 15 11
REMARK SMILES IDX 8 12 9 13 10 14 7 15 6 17 1 18 2 19 3 20 89 21 4 22 5 23
REMARK SMILES IDX 21 24 22 25 23 26 24 27 25 28 26 29 87 30 27 31 86 32 28 33
REMARK SMILES IDX 29 34 30 35 80 36 31 37 85 38 79 39 81 40 32 41 84 42 78 43
REMARK SMILES IDX 77 44 33 46 65 47 45 48 64 49 46 50 49 51 63 52 82 53 47 54
REMARK SMILES IDX 48 55 62 57 83 58 50 59 34 60 35 61 43 62 36 63 42 64 44 65
REMARK SMILES IDX 41 66 37 67 38 68 39 69 40 70 66 71 67 72 75 73 68 74 74 75
REMARK SMILES IDX 76 76 73 77 69 78 70 79 71 80 72 81 51 82 52 83 60 84 53 85
REMARK SMILES IDX 59 86 61 87 58 88 54 89 55 90 56 91 57 92
REMARK H PARENT 7 16 81 45 49 56
REMARK Flexibility Score: inf
ROOT
ATOM      1  C   UNL A   1      37.366  22.814  25.196  1.00  0.00     0.275 C 
ENDROOT
BRANCH   1   2
ATOM      2  O   UNL A   1      36.185  23.411  24.645  1.00  0.00    -0.458 OA
BRANCH   2   3
ATOM      3  C   UNL A   1      35.115  22.582  24.616  1.00  0.00     0.339 C 
ATOM      4  O   UNL A   1      35.077  21.417  24.264  1.00  0.00    -0.246 OA
BRANCH   3   5
ATOM      5  C   UNL A   1      33.914  23.325  25.000  1.00  0.00     0.075 A 
ATOM      6  C   UNL A   1      32.370  25.141  24.571  1.00  0.00     0.088 A 
ATOM      7  C   UNL A   1      31.746  24.890  25.794  1.00  0.00     0.023 A 
ATOM      8  C   UNL A   1      33.427  24.328  24.155  1.00  0.00     0.039 A 
ATOM      9  C   UNL A   1      32.254  23.905  26.648  1.00  0.00     0.018 A 
ATOM     10  C   UNL A   1      33.351  23.132  26.262  1.00  0.00     0.032 A 
ATOM     11  Br  UNL A   1      34.028  21.866  27.503  1.00  0.00    -0.050 Br
BRANCH   6  12
ATOM     12  S   UNL A   1      32.023  26.586  23.575  1.00  0.00     0.261 S 
ATOM     13  O   UNL A   1      30.968  26.209  22.657  1.00  0.00    -0.201 OA
ATOM     14  O   UNL A   1      33.291  27.089  23.108  1.00  0.00    -0.201 OA
BRANCH  12  15
ATOM     15  N   UNL A   1      31.331  27.745  24.564  1.00  0.00    -0.280 N 
ATOM     16  H   UNL A   1      30.349  27.806  24.567  1.00  0.00     0.180 HD
BRANCH  15  17
ATOM     17  C   UNL A   1      32.039  28.649  25.400  1.00  0.00     0.049 A 
ATOM     18  C   UNL A   1      31.376  32.200  26.594  1.00  0.00     0.044 C 
ATOM     19  C   UNL A   1      32.008  30.848  26.445  1.00  0.00    -0.049 A 
ATOM     20  C   UNL A   1      33.027  30.434  27.307  1.00  0.00     0.003 A 
ATOM     21  C   UNL A   1      31.521  29.946  25.492  1.00  0.00     0.030 A 
ATOM     22  C   UNL A   1      33.603  29.170  27.161  1.00  0.00     0.002 A 
ATOM     23  C   UNL A   1      33.130  28.287  26.188  1.00  0.00     0.027 A 
ENDBRANCH  15  17
ENDBRANCH  12  15
ENDBRANCH   6  12
ENDBRANCH   3   5
ENDBRANCH   2   3
ENDBRANCH   1   2
BRANCH   1  24
ATOM     24  C   UNL A   1      38.008  23.714  26.257  1.00  0.00     0.275 C 
BRANCH  24  25
ATOM     25  O   UNL A   1      39.405  23.463  26.585  1.00  0.00    -0.458 OA
BRANCH  25  26
ATOM     26  C   UNL A   1      40.359  24.339  27.008  1.00  0.00     0.338 C 
ATOM     27  O   UNL A   1      41.538  24.168  26.716  1.00  0.00    -0.246 OA
BRANCH  26  28
ATOM     28  C   UNL A   1      39.916  25.603  27.636  1.00  0.00     0.060 A 
ATOM     29  C   UNL A   1      39.291  25.563  28.892  1.00  0.00     0.016 A 
ATOM     30  C   UNL A   1      40.216  26.825  27.056  1.00  0.00     0.016 A 
ATOM     31  C   UNL A   1      39.159  26.728  29.652  1.00  0.00     0.010 A 
ATOM     32  C   UNL A   1      40.187  27.962  27.839  1.00  0.00     0.010 A 
ATOM     33  C   UNL A   1      39.667  27.926  29.144  1.00  0.00    -0.014 A 
BRANCH  33  34
ATOM     34  C   UNL A   1      39.422  29.233  29.759  1.00  0.00     0.031 A 
ATOM     35  C   UNL A   1      38.431  30.221  29.276  1.00  0.00     0.074 A 
ATOM     36  C   UNL A   1      40.252  29.538  30.782  1.00  0.00     0.049 A 
ATOM     37  N   UNL A   1      38.585  31.499  29.382  1.00  0.00    -0.248 NA
ATOM     38  C   UNL A   1      37.168  29.859  28.638  1.00  0.00     0.031 C 
ATOM     39  C   UNL A   1      40.298  30.713  31.632  1.00  0.00     0.029 A 
ATOM     40  N   UNL A   1      41.443  28.874  31.086  1.00  0.00    -0.354 N 
ATOM     41  C   UNL A   1      37.378  32.101  29.101  1.00  0.00     0.074 A 
ATOM     42  C   UNL A   1      36.550  31.048  28.564  1.00  0.00     0.031 C 
ATOM     43  C   UNL A   1      41.569  30.864  32.052  1.00  0.00     0.029 A 
ATOM     44  C   UNL A   1      42.378  29.866  31.357  1.00  0.00     0.049 A 
ATOM     45  H   UNL A   1      41.591  27.900  31.105  1.00  0.00     0.167 HD
ATOM     46  C   UNL A   1      37.163  33.394  29.483  1.00  0.00     0.034 A 
ATOM     47  C   UNL A   1      43.431  30.087  30.511  1.00  0.00     0.034 A 
ATOM     48  C   UNL A   1      38.343  33.961  30.123  1.00  0.00     0.049 A 
ATOM     49  C   UNL A   1      43.426  31.505  29.967  1.00  0.00     0.074 A 
ATOM     50  C   UNL A   1      38.743  34.100  31.441  1.00  0.00     0.029 A 
ATOM     51  N   UNL A   1      39.459  34.201  29.349  1.00  0.00    -0.354 N 
ATOM     52  N   UNL A   1      42.414  32.324  30.081  1.00  0.00    -0.248 NA
ATOM     53  C   UNL A   1      44.515  32.083  29.183  1.00  0.00     0.031 C 
ATOM     54  C   UNL A   1      40.146  34.353  31.444  1.00  0.00     0.029 A 
ATOM     55  C   UNL A   1      40.577  34.402  30.131  1.00  0.00     0.049 A 
ATOM     56  H   UNL A   1      39.458  34.226  28.364  1.00  0.00     0.167 HD
ATOM     57  C   UNL A   1      42.704  33.504  29.460  1.00  0.00     0.074 A 
ATOM     58  C   UNL A   1      44.014  33.288  28.868  1.00  0.00     0.031 C 
ATOM     59  C   UNL A   1      41.857  34.572  29.471  1.00  0.00     0.034 A 
BRANCH  46  60
ATOM     60  C   UNL A   1      35.827  34.094  29.503  1.00  0.00     0.023 A 
ATOM     61  C   UNL A   1      35.341  34.601  30.729  1.00  0.00     0.031 A 
ATOM     62  C   UNL A   1      35.001  34.306  28.385  1.00  0.00     0.131 A 
ATOM     63  C   UNL A   1      34.077  35.208  30.830  1.00  0.00     0.055 A 
ATOM     64  C   UNL A   1      33.724  34.883  28.489  1.00  0.00     0.041 A 
ATOM     65  F   UNL A   1      35.411  33.995  27.146  1.00  0.00    -0.206 F 
ATOM     66  C   UNL A   1      33.250  35.328  29.718  1.00  0.00     0.022 A 
BRANCH  63  67
ATOM     67  S   UNL A   1      33.529  35.832  32.446  1.00  0.00     0.124 S 
ATOM     68  O   UNL A   1      34.780  35.891  33.196  1.00  0.00    -0.237 OA
ATOM     69  O   UNL A   1      32.927  37.113  32.095  1.00  0.00    -0.237 OA
ATOM     70  O   UNL A   1      32.586  34.812  32.903  1.00  0.00    -0.744 OA
ENDBRANCH  63  67
ENDBRANCH  46  60
BRANCH  47  71
ATOM     71  C   UNL A   1      43.934  28.879  29.758  1.00  0.00     0.023 A 
ATOM     72  C   UNL A   1      43.440  28.653  28.449  1.00  0.00     0.031 A 
ATOM     73  C   UNL A   1      45.058  28.134  30.145  1.00  0.00     0.131 A 
ATOM     74  C   UNL A   1      44.154  27.860  27.535  1.00  0.00     0.055 A 
ATOM     75  C   UNL A   1      45.711  27.262  29.259  1.00  0.00     0.041 A 
ATOM     76  F   UNL A   1      45.613  28.297  31.355  1.00  0.00    -0.206 F 
ATOM     77  C   UNL A   1      45.286  27.155  27.936  1.00  0.00     0.022 A 
BRANCH  74  78
ATOM     78  S   UNL A   1      43.769  28.003  25.758  1.00  0.00     0.124 S 
ATOM     79  O   UNL A   1      42.774  29.068  25.745  1.00  0.00    -0.237 OA
ATOM     80  O   UNL A   1      45.065  28.329  25.171  1.00  0.00    -0.237 OA
ATOM     81  O   UNL A   1      43.281  26.670  25.412  1.00  0.00    -0.744 OA
ENDBRANCH  74  78
ENDBRANCH  47  71
BRANCH  59  82
ATOM     82  C   UNL A   1      42.206  35.886  28.841  1.00  0.00     0.023 A 
ATOM     83  C   UNL A   1      42.741  36.930  29.605  1.00  0.00     0.031 A 
ATOM     84  C   UNL A   1      41.950  36.157  27.481  1.00  0.00     0.131 A 
ATOM     85  C   UNL A   1      43.099  38.142  29.001  1.00  0.00     0.055 A 
ATOM     86  C   UNL A   1      42.213  37.401  26.905  1.00  0.00     0.041 A 
ATOM     87  F   UNL A   1      41.481  35.216  26.649  1.00  0.00    -0.206 F 
ATOM     88  C   UNL A   1      42.810  38.399  27.661  1.00  0.00     0.022 A 
BRANCH  85  89
ATOM     89  S   UNL A   1      44.053  39.326  29.978  1.00  0.00     0.124 S 
ATOM     90  O   UNL A   1      43.021  40.215  30.504  1.00  0.00    -0.237 OA
ATOM     91  O   UNL A   1      44.692  38.449  30.957  1.00  0.00    -0.237 OA
ATOM     92  O   UNL A   1      44.958  39.927  29.002  1.00  0.00    -0.744 OA
ENDBRANCH  85  89
ENDBRANCH  59  82
ENDBRANCH  33  34
ENDBRANCH  26  28
ENDBRANCH  25  26
ENDBRANCH  24  25
ENDBRANCH   1  24
TORSDOF 17
ENDMDL
