MODEL 1
REMARK VINA RESULT:     -12.5      0.000      0.000
REMARK SMILES NS(=O)(=O)c1ccc(-c2coc(=O)n2-c2ccc(C(=O)OCCOC(=O)c3ccc(-c4c5nc(c(-c6cc(S(=O)(=O)[O-])ccc6F)c6ccc([nH]6)c(-c6cc(S(=O)(=O)[O-])ccc6F)c6nc(c(-c7cc(S(=O)(=O)[O-])ccc7F)c7ccc4[nH]7)C=C6)C=C5)cc3)cc2)cc1
REMARK SMILES IDX 22 1 21 2 19 3 20 4 18 5 15 6 16 7 91 8 17 9 90 10 14 11
REMARK SMILES IDX 9 12 10 13 11 14 12 15 13 16 8 17 5 18 6 19 93 20 7 21 92 22
REMARK SMILES IDX 2 23 3 24 4 25 1 26 23 29 24 30 25 31 26 32 27 33 28 34
REMARK SMILES IDX 89 35 29 36 88 37 30 38 31 39 32 40 82 41 33 42 87 43 81 44
REMARK SMILES IDX 83 45 34 46 86 47 80 48 79 49 35 51 67 52 47 53 66 54 48 55
REMARK SMILES IDX 51 56 65 57 84 58 49 59 50 60 64 62 85 63 52 64 36 65 37 66
REMARK SMILES IDX 45 67 38 68 44 69 46 70 43 71 39 72 40 73 41 74 42 75 68 76
REMARK SMILES IDX 69 77 77 78 70 79 76 80 78 81 75 82 71 83 72 84 73 85 74 86
REMARK SMILES IDX 53 87 54 88 62 89 55 90 61 91 63 92 60 93 56 94 57 95 58 96
REMARK SMILES IDX 59 97
REMARK H PARENT 1 27 1 28 83 50 51 61
REMARK Flexibility Score: inf
ROOT
ATOM      1  C   UNL A   1      40.297  22.537  26.948  1.00  0.00     0.275 C 
ENDROOT
BRANCH   1   2
ATOM      2  O   UNL A   1      39.063  22.984  26.362  1.00  0.00    -0.458 OA
BRANCH   2   3
ATOM      3  C   UNL A   1      38.405  22.071  25.601  1.00  0.00     0.338 C 
ATOM      4  O   UNL A   1      38.789  20.945  25.323  1.00  0.00    -0.246 OA
BRANCH   3   5
ATOM      5  C   UNL A   1      37.079  22.595  25.193  1.00  0.00     0.060 A 
ATOM      6  C   UNL A   1      34.480  23.381  24.527  1.00  0.00     0.053 A 
ATOM      7  C   UNL A   1      34.933  23.542  25.838  1.00  0.00     0.028 A 
ATOM      8  C   UNL A   1      35.366  22.929  23.536  1.00  0.00     0.028 A 
ATOM      9  C   UNL A   1      36.222  23.116  26.177  1.00  0.00     0.018 A 
ATOM     10  C   UNL A   1      36.668  22.560  23.861  1.00  0.00     0.018 A 
BRANCH   6  11
ATOM     11  N   UNL A   1      33.115  23.535  24.213  1.00  0.00    -0.242 N 
ATOM     12  C   UNL A   1      32.216  22.547  23.925  1.00  0.00     0.095 A 
ATOM     13  C   UNL A   1      31.070  23.159  23.655  1.00  0.00     0.228 A 
ATOM     14  O   UNL A   1      31.123  24.547  23.756  1.00  0.00    -0.415 OA
ATOM     15  C   UNL A   1      32.445  24.756  24.160  1.00  0.00     0.424 A 
ATOM     16  O   UNL A   1      32.885  25.870  24.399  1.00  0.00    -0.223 OA
BRANCH  12  17
ATOM     17  C   UNL A   1      32.427  21.112  24.120  1.00  0.00     0.002 A 
ATOM     18  C   UNL A   1      32.829  18.355  24.434  1.00  0.00     0.082 A 
ATOM     19  C   UNL A   1      32.521  18.863  23.173  1.00  0.00     0.022 A 
ATOM     20  C   UNL A   1      32.934  19.209  25.537  1.00  0.00     0.022 A 
ATOM     21  C   UNL A   1      32.327  20.237  23.021  1.00  0.00     0.012 A 
ATOM     22  C   UNL A   1      32.740  20.585  25.378  1.00  0.00     0.012 A 
BRANCH  18  23
ATOM     23  S   UNL A   1      33.063  16.620  24.680  1.00  0.00     0.238 S 
ATOM     24  O   UNL A   1      33.448  16.026  23.413  1.00  0.00    -0.207 OA
ATOM     25  O   UNL A   1      31.973  16.120  25.471  1.00  0.00    -0.207 OA
BRANCH  23  26
ATOM     26  N   UNL A   1      34.433  16.508  25.645  1.00  0.00    -0.225 NA
ATOM     27  H   UNL A   1      35.170  16.021  25.135  1.00  0.00     0.137 HD
ATOM     28  H   UNL A   1      34.208  15.990  26.495  1.00  0.00     0.137 HD
ENDBRANCH  23  26
ENDBRANCH  18  23
ENDBRANCH  12  17
ENDBRANCH   6  11
ENDBRANCH   3   5
ENDBRANCH   2   3
ENDBRANCH   1   2
BRANCH   1  29
ATOM     29  C   UNL A   1      41.471  23.392  26.491  1.00  0.00     0.275 C 
BRANCH  29  30
ATOM     30  O   UNL A   1      41.409  24.692  27.068  1.00  0.00    -0.458 OA
BRANCH  30  31
ATOM     31  C   UNL A   1      41.034  25.671  26.211  1.00  0.00     0.338 C 
ATOM     32  O   UNL A   1      41.306  25.756  25.025  1.00  0.00    -0.246 OA
BRANCH  31  33
ATOM     33  C   UNL A   1      40.451  26.772  26.974  1.00  0.00     0.060 A 
ATOM     34  C   UNL A   1      40.845  28.069  26.631  1.00  0.00     0.016 A 
ATOM     35  C   UNL A   1      39.856  26.470  28.205  1.00  0.00     0.016 A 
ATOM     36  C   UNL A   1      40.845  29.028  27.619  1.00  0.00     0.010 A 
ATOM     37  C   UNL A   1      39.886  27.416  29.194  1.00  0.00     0.010 A 
ATOM     38  C   UNL A   1      40.460  28.654  28.911  1.00  0.00    -0.014 A 
BRANCH  38  39
ATOM     39  C   UNL A   1      40.494  29.631  29.977  1.00  0.00     0.031 A 
ATOM     40  C   UNL A   1      39.199  30.346  30.081  1.00  0.00     0.074 A 
ATOM     41  C   UNL A   1      41.521  29.700  30.848  1.00  0.00     0.049 A 
ATOM     42  N   UNL A   1      38.960  31.579  29.787  1.00  0.00    -0.248 NA
ATOM     43  C   UNL A   1      37.978  29.537  30.273  1.00  0.00     0.031 C 
ATOM     44  C   UNL A   1      42.711  28.849  30.929  1.00  0.00     0.029 A 
ATOM     45  N   UNL A   1      41.667  30.504  31.933  1.00  0.00    -0.354 N 
ATOM     46  C   UNL A   1      37.604  31.759  30.036  1.00  0.00     0.074 A 
ATOM     47  C   UNL A   1      37.030  30.446  30.048  1.00  0.00     0.031 C 
ATOM     48  C   UNL A   1      43.316  29.028  32.128  1.00  0.00     0.029 A 
ATOM     49  C   UNL A   1      42.634  30.090  32.849  1.00  0.00     0.049 A 
ATOM     50  H   UNL A   1      41.128  31.318  32.063  1.00  0.00     0.167 HD
ATOM     51  C   UNL A   1      37.144  32.941  30.529  1.00  0.00     0.034 A 
ATOM     52  C   UNL A   1      42.791  30.553  34.125  1.00  0.00     0.034 A 
ATOM     53  C   UNL A   1      38.126  33.987  30.316  1.00  0.00     0.049 A 
ATOM     54  C   UNL A   1      42.108  31.878  34.169  1.00  0.00     0.074 A 
ATOM     55  C   UNL A   1      38.724  34.530  29.196  1.00  0.00     0.029 A 
ATOM     56  N   UNL A   1      38.940  34.332  31.376  1.00  0.00    -0.354 N 
ATOM     57  N   UNL A   1      42.521  32.906  33.476  1.00  0.00    -0.248 NA
ATOM     58  C   UNL A   1      40.692  31.897  34.513  1.00  0.00     0.031 C 
ATOM     59  C   UNL A   1      40.088  34.724  29.566  1.00  0.00     0.029 A 
ATOM     60  C   UNL A   1      40.233  34.396  30.916  1.00  0.00     0.049 A 
ATOM     61  H   UNL A   1      38.646  34.502  32.300  1.00  0.00     0.167 HD
ATOM     62  C   UNL A   1      41.372  33.464  32.932  1.00  0.00     0.074 A 
ATOM     63  C   UNL A   1      40.267  32.840  33.665  1.00  0.00     0.031 C 
ATOM     64  C   UNL A   1      41.402  34.131  31.739  1.00  0.00     0.034 A 
BRANCH  51  65
ATOM     65  C   UNL A   1      36.052  33.057  31.575  1.00  0.00     0.023 A 
ATOM     66  C   UNL A   1      34.955  33.868  31.231  1.00  0.00     0.031 A 
ATOM     67  C   UNL A   1      36.139  32.703  32.942  1.00  0.00     0.131 A 
ATOM     68  C   UNL A   1      34.128  34.423  32.219  1.00  0.00     0.055 A 
ATOM     69  C   UNL A   1      35.272  33.208  33.916  1.00  0.00     0.041 A 
ATOM     70  F   UNL A   1      37.096  31.915  33.442  1.00  0.00    -0.206 F 
ATOM     71  C   UNL A   1      34.285  34.108  33.563  1.00  0.00     0.022 A 
BRANCH  68  72
ATOM     72  S   UNL A   1      32.978  35.725  31.719  1.00  0.00     0.124 S 
ATOM     73  O   UNL A   1      31.789  35.369  32.487  1.00  0.00    -0.237 OA
ATOM     74  O   UNL A   1      33.687  36.927  32.145  1.00  0.00    -0.237 OA
ATOM     75  O   UNL A   1      32.869  35.542  30.275  1.00  0.00    -0.744 OA
ENDBRANCH  68  72
ENDBRANCH  51  65
BRANCH  52  76
ATOM     76  C   UNL A   1      43.109  29.745  35.350  1.00  0.00     0.023 A 
ATOM     77  C   UNL A   1      42.581  28.455  35.611  1.00  0.00     0.031 A 
ATOM     78  C   UNL A   1      44.163  30.167  36.193  1.00  0.00     0.131 A 
ATOM     79  C   UNL A   1      43.102  27.665  36.673  1.00  0.00     0.055 A 
ATOM     80  C   UNL A   1      44.675  29.383  37.231  1.00  0.00     0.041 A 
ATOM     81  F   UNL A   1      44.797  31.330  35.985  1.00  0.00    -0.206 F 
ATOM     82  C   UNL A   1      44.152  28.124  37.470  1.00  0.00     0.022 A 
BRANCH  79  83
ATOM     83  S   UNL A   1      42.470  25.981  37.009  1.00  0.00     0.124 S 
ATOM     84  O   UNL A   1      41.247  26.248  37.755  1.00  0.00    -0.237 OA
ATOM     85  O   UNL A   1      42.309  25.429  35.669  1.00  0.00    -0.237 OA
ATOM     86  O   UNL A   1      43.541  25.364  37.796  1.00  0.00    -0.744 OA
ENDBRANCH  79  83
ENDBRANCH  52  76
BRANCH  64  87
ATOM     87  C   UNL A   1      42.754  34.469  31.132  1.00  0.00     0.023 A 
ATOM     88  C   UNL A   1      43.372  33.777  30.060  1.00  0.00     0.031 A 
ATOM     89  C   UNL A   1      43.379  35.641  31.591  1.00  0.00     0.131 A 
ATOM     90  C   UNL A   1      44.574  34.265  29.505  1.00  0.00     0.055 A 
ATOM     91  C   UNL A   1      44.550  36.134  31.020  1.00  0.00     0.041 A 
ATOM     92  F   UNL A   1      42.831  36.357  32.587  1.00  0.00    -0.206 F 
ATOM     93  C   UNL A   1      45.156  35.445  29.977  1.00  0.00     0.022 A 
BRANCH  90  94
ATOM     94  S   UNL A   1      45.427  33.363  28.166  1.00  0.00     0.124 S 
ATOM     95  O   UNL A   1      46.099  32.274  28.865  1.00  0.00    -0.237 OA
ATOM     96  O   UNL A   1      44.325  32.977  27.289  1.00  0.00    -0.237 OA
ATOM     97  O   UNL A   1      46.329  34.368  27.599  1.00  0.00    -0.744 OA
ENDBRANCH  90  94
ENDBRANCH  64  87
ENDBRANCH  38  39
ENDBRANCH  31  33
ENDBRANCH  30  31
ENDBRANCH  29  30
ENDBRANCH   1  29
TORSDOF 18
ENDMDL
MODEL 2
REMARK VINA RESULT:     -12.5      5.369     11.808
REMARK SMILES NS(=O)(=O)c1ccc(-c2coc(=O)n2-c2ccc(C(=O)OCCOC(=O)c3ccc(-c4c5nc(c(-c6cc(S(=O)(=O)[O-])ccc6F)c6ccc([nH]6)c(-c6cc(S(=O)(=O)[O-])ccc6F)c6nc(c(-c7cc(S(=O)(=O)[O-])ccc7F)c7ccc4[nH]7)C=C6)C=C5)cc3)cc2)cc1
REMARK SMILES IDX 22 1 21 2 19 3 20 4 18 5 15 6 16 7 91 8 17 9 90 10 14 11
REMARK SMILES IDX 9 12 10 13 11 14 12 15 13 16 8 17 5 18 6 19 93 20 7 21 92 22
REMARK SMILES IDX 2 23 3 24 4 25 1 26 23 29 24 30 25 31 26 32 27 33 28 34
REMARK SMILES IDX 89 35 29 36 88 37 30 38 31 39 32 40 82 41 33 42 87 43 81 44
REMARK SMILES IDX 83 45 34 46 86 47 80 48 79 49 35 51 67 52 47 53 66 54 48 55
REMARK SMILES IDX 51 56 65 57 84 58 49 59 50 60 64 62 85 63 52 64 36 65 37 66
REMARK SMILES IDX 45 67 38 68 44 69 46 70 43 71 39 72 40 73 41 74 42 75 68 76
REMARK SMILES IDX 69 77 77 78 70 79 76 80 78 81 75 82 71 83 72 84 73 85 74 86
REMARK SMILES IDX 53 87 54 88 62 89 55 90 61 91 63 92 60 93 56 94 57 95 58 96
REMARK SMILES IDX 59 97
REMARK H PARENT 1 27 1 28 83 50 51 61
REMARK Flexibility Score: inf
ROOT
ATOM      1  C   UNL A   1      34.497  34.427  29.153  1.00  0.00     0.275 C 
ENDROOT
BRANCH   1   2
ATOM      2  O   UNL A   1      35.228  34.228  30.375  1.00  0.00    -0.458 OA
BRANCH   2   3
ATOM      3  C   UNL A   1      34.484  34.198  31.511  1.00  0.00     0.338 C 
ATOM      4  O   UNL A   1      33.300  34.483  31.612  1.00  0.00    -0.246 OA
BRANCH   3   5
ATOM      5  C   UNL A   1      35.290  33.687  32.646  1.00  0.00     0.060 A 
ATOM      6  C   UNL A   1      36.989  32.880  34.715  1.00  0.00     0.053 A 
ATOM      7  C   UNL A   1      36.294  34.086  34.825  1.00  0.00     0.028 A 
ATOM      8  C   UNL A   1      36.745  32.035  33.620  1.00  0.00     0.028 A 
ATOM      9  C   UNL A   1      35.471  34.504  33.774  1.00  0.00     0.018 A 
ATOM     10  C   UNL A   1      35.881  32.424  32.600  1.00  0.00     0.018 A 
BRANCH   6  11
ATOM     11  N   UNL A   1      38.026  32.562  35.613  1.00  0.00    -0.242 N 
ATOM     12  C   UNL A   1      39.362  32.468  35.334  1.00  0.00     0.095 A 
ATOM     13  C   UNL A   1      39.950  32.108  36.468  1.00  0.00     0.228 A 
ATOM     14  O   UNL A   1      39.079  31.958  37.544  1.00  0.00    -0.415 OA
ATOM     15  C   UNL A   1      37.851  32.301  36.971  1.00  0.00     0.424 A 
ATOM     16  O   UNL A   1      36.815  32.331  37.617  1.00  0.00    -0.223 OA
BRANCH  12  17
ATOM     17  C   UNL A   1      40.013  32.913  34.102  1.00  0.00     0.002 A 
ATOM     18  C   UNL A   1      41.245  33.821  31.753  1.00  0.00     0.082 A 
ATOM     19  C   UNL A   1      40.478  34.705  32.509  1.00  0.00     0.022 A 
ATOM     20  C   UNL A   1      41.399  32.490  32.155  1.00  0.00     0.022 A 
ATOM     21  C   UNL A   1      39.871  34.249  33.681  1.00  0.00     0.012 A 
ATOM     22  C   UNL A   1      40.789  32.040  33.331  1.00  0.00     0.012 A 
BRANCH  18  23
ATOM     23  S   UNL A   1      42.016  34.346  30.251  1.00  0.00     0.238 S 
ATOM     24  O   UNL A   1      43.172  35.157  30.589  1.00  0.00    -0.207 OA
ATOM     25  O   UNL A   1      40.993  34.794  29.346  1.00  0.00    -0.207 OA
BRANCH  23  26
ATOM     26  N   UNL A   1      42.651  32.941  29.584  1.00  0.00    -0.225 NA
ATOM     27  H   UNL A   1      43.491  33.167  29.052  1.00  0.00     0.137 HD
ATOM     28  H   UNL A   1      41.960  32.517  28.965  1.00  0.00     0.137 HD
ENDBRANCH  23  26
ENDBRANCH  18  23
ENDBRANCH  12  17
ENDBRANCH   6  11
ENDBRANCH   3   5
ENDBRANCH   2   3
ENDBRANCH   1   2
BRANCH   1  29
ATOM     29  C   UNL A   1      35.032  33.542  28.036  1.00  0.00     0.275 C 
BRANCH  29  30
ATOM     30  O   UNL A   1      36.155  32.786  28.478  1.00  0.00    -0.458 OA
BRANCH  30  31
ATOM     31  C   UNL A   1      35.978  31.444  28.442  1.00  0.00     0.338 C 
ATOM     32  O   UNL A   1      35.028  30.838  27.977  1.00  0.00    -0.246 OA
BRANCH  31  33
ATOM     33  C   UNL A   1      36.992  30.810  29.282  1.00  0.00     0.060 A 
ATOM     34  C   UNL A   1      38.167  31.528  29.523  1.00  0.00     0.016 A 
ATOM     35  C   UNL A   1      36.907  29.425  29.474  1.00  0.00     0.016 A 
ATOM     36  C   UNL A   1      39.326  30.818  29.744  1.00  0.00     0.010 A 
ATOM     37  C   UNL A   1      38.065  28.721  29.663  1.00  0.00     0.010 A 
ATOM     38  C   UNL A   1      39.268  29.421  29.707  1.00  0.00    -0.014 A 
BRANCH  38  39
ATOM     39  C   UNL A   1      40.480  28.652  29.891  1.00  0.00     0.031 A 
ATOM     40  C   UNL A   1      40.782  28.477  31.332  1.00  0.00     0.074 A 
ATOM     41  C   UNL A   1      41.099  28.039  28.862  1.00  0.00     0.049 A 
ATOM     42  N   UNL A   1      41.748  29.011  31.999  1.00  0.00    -0.248 NA
ATOM     43  C   UNL A   1      39.745  27.862  32.185  1.00  0.00     0.031 C 
ATOM     44  C   UNL A   1      40.696  27.986  27.453  1.00  0.00     0.029 A 
ATOM     45  N   UNL A   1      42.190  27.232  28.881  1.00  0.00    -0.354 N 
ATOM     46  C   UNL A   1      41.588  28.555  33.304  1.00  0.00     0.074 A 
ATOM     47  C   UNL A   1      40.229  28.114  33.400  1.00  0.00     0.031 C 
ATOM     48  C   UNL A   1      41.387  27.007  26.822  1.00  0.00     0.029 A 
ATOM     49  C   UNL A   1      42.365  26.447  27.740  1.00  0.00     0.049 A 
ATOM     50  H   UNL A   1      42.812  27.202  29.644  1.00  0.00     0.167 HD
ATOM     51  C   UNL A   1      42.673  28.286  34.078  1.00  0.00     0.034 A 
ATOM     52  C   UNL A   1      43.206  25.378  27.614  1.00  0.00     0.034 A 
ATOM     53  C   UNL A   1      43.851  28.932  33.531  1.00  0.00     0.049 A 
ATOM     54  C   UNL A   1      44.224  25.527  28.693  1.00  0.00     0.074 A 
ATOM     55  C   UNL A   1      44.193  30.245  33.270  1.00  0.00     0.029 A 
ATOM     56  N   UNL A   1      44.714  28.166  32.774  1.00  0.00    -0.354 N 
ATOM     57  N   UNL A   1      45.079  26.515  28.723  1.00  0.00    -0.248 NA
ATOM     58  C   UNL A   1      43.928  24.930  29.990  1.00  0.00     0.031 C 
ATOM     59  C   UNL A   1      44.877  30.204  32.020  1.00  0.00     0.029 A 
ATOM     60  C   UNL A   1      45.016  28.869  31.632  1.00  0.00     0.049 A 
ATOM     61  H   UNL A   1      45.052  27.273  33.010  1.00  0.00     0.167 HD
ATOM     62  C   UNL A   1      45.091  26.946  30.043  1.00  0.00     0.074 A 
ATOM     63  C   UNL A   1      44.414  25.884  30.792  1.00  0.00     0.031 C 
ATOM     64  C   UNL A   1      45.358  28.249  30.363  1.00  0.00     0.034 A 
BRANCH  51  65
ATOM     65  C   UNL A   1      42.766  27.109  35.031  1.00  0.00     0.023 A 
ATOM     66  C   UNL A   1      43.576  26.040  34.609  1.00  0.00     0.031 A 
ATOM     67  C   UNL A   1      41.918  26.831  36.128  1.00  0.00     0.131 A 
ATOM     68  C   UNL A   1      43.403  24.750  35.135  1.00  0.00     0.055 A 
ATOM     69  C   UNL A   1      41.794  25.558  36.692  1.00  0.00     0.041 A 
ATOM     70  F   UNL A   1      41.103  27.735  36.681  1.00  0.00    -0.206 F 
ATOM     71  C   UNL A   1      42.508  24.498  36.167  1.00  0.00     0.022 A 
BRANCH  68  72
ATOM     72  S   UNL A   1      44.227  23.380  34.291  1.00  0.00     0.124 S 
ATOM     73  O   UNL A   1      45.377  24.057  33.700  1.00  0.00    -0.237 OA
ATOM     74  O   UNL A   1      44.510  22.475  35.401  1.00  0.00    -0.237 OA
ATOM     75  O   UNL A   1      43.219  22.913  33.344  1.00  0.00    -0.744 OA
ENDBRANCH  68  72
ENDBRANCH  51  65
BRANCH  52  76
ATOM     76  C   UNL A   1      42.921  24.079  26.918  1.00  0.00     0.023 A 
ATOM     77  C   UNL A   1      43.835  23.421  26.056  1.00  0.00     0.031 A 
ATOM     78  C   UNL A   1      41.783  23.332  27.302  1.00  0.00     0.131 A 
ATOM     79  C   UNL A   1      43.583  22.092  25.617  1.00  0.00     0.055 A 
ATOM     80  C   UNL A   1      41.544  22.023  26.872  1.00  0.00     0.041 A 
ATOM     81  F   UNL A   1      40.896  23.819  28.182  1.00  0.00    -0.206 F 
ATOM     82  C   UNL A   1      42.448  21.394  26.034  1.00  0.00     0.022 A 
BRANCH  79  83
ATOM     83  S   UNL A   1      44.763  21.202  24.538  1.00  0.00     0.124 S 
ATOM     84  O   UNL A   1      46.015  21.326  25.274  1.00  0.00    -0.237 OA
ATOM     85  O   UNL A   1      44.181  19.867  24.464  1.00  0.00    -0.237 OA
ATOM     86  O   UNL A   1      44.716  21.957  23.283  1.00  0.00    -0.744 OA
ENDBRANCH  79  83
ENDBRANCH  52  76
BRANCH  64  87
ATOM     87  C   UNL A   1      45.884  29.169  29.274  1.00  0.00     0.023 A 
ATOM     88  C   UNL A   1      45.097  30.044  28.485  1.00  0.00     0.031 A 
ATOM     89  C   UNL A   1      47.280  29.246  29.129  1.00  0.00     0.131 A 
ATOM     90  C   UNL A   1      45.720  30.940  27.589  1.00  0.00     0.055 A 
ATOM     91  C   UNL A   1      47.891  30.151  28.264  1.00  0.00     0.041 A 
ATOM     92  F   UNL A   1      48.082  28.461  29.866  1.00  0.00    -0.206 F 
ATOM     93  C   UNL A   1      47.113  30.999  27.486  1.00  0.00     0.022 A 
BRANCH  90  94
ATOM     94  S   UNL A   1      44.732  32.036  26.513  1.00  0.00     0.124 S 
ATOM     95  O   UNL A   1      44.405  33.160  27.382  1.00  0.00    -0.237 OA
ATOM     96  O   UNL A   1      45.653  32.321  25.417  1.00  0.00    -0.237 OA
ATOM     97  O   UNL A   1      43.586  31.203  26.140  1.00  0.00    -0.744 OA
ENDBRANCH  90  94
ENDBRANCH  64  87
ENDBRANCH  38  39
ENDBRANCH  31  33
ENDBRANCH  30  31
ENDBRANCH  29  30
ENDBRANCH   1  29
TORSDOF 18
ENDMDL
MODEL 3
REMARK VINA RESULT:     -12.3      4.030      9.268
REMARK SMILES NS(=O)(=O)c1ccc(-c2coc(=O)n2-c2ccc(C(=O)OCCOC(=O)c3ccc(-c4c5nc(c(-c6cc(S(=O)(=O)[O-])ccc6F)c6ccc([nH]6)c(-c6cc(S(=O)(=O)[O-])ccc6F)c6nc(c(-c7cc(S(=O)(=O)[O-])ccc7F)c7ccc4[nH]7)C=C6)C=C5)cc3)cc2)cc1
REMARK SMILES IDX 22 1 21 2 19 3 20 4 18 5 15 6 16 7 91 8 17 9 90 10 14 11
REMARK SMILES IDX 9 12 10 13 11 14 12 15 13 16 8 17 5 18 6 19 93 20 7 21 92 22
REMARK SMILES IDX 2 23 3 24 4 25 1 26 23 29 24 30 25 31 26 32 27 33 28 34
REMARK SMILES IDX 89 35 29 36 88 37 30 38 31 39 32 40 82 41 33 42 87 43 81 44
REMARK SMILES IDX 83 45 34 46 86 47 80 48 79 49 35 51 67 52 47 53 66 54 48 55
REMARK SMILES IDX 51 56 65 57 84 58 49 59 50 60 64 62 85 63 52 64 36 65 37 66
REMARK SMILES IDX 45 67 38 68 44 69 46 70 43 71 39 72 40 73 41 74 42 75 68 76
REMARK SMILES IDX 69 77 77 78 70 79 76 80 78 81 75 82 71 83 72 84 73 85 74 86
REMARK SMILES IDX 53 87 54 88 62 89 55 90 61 91 63 92 60 93 56 94 57 95 58 96
REMARK SMILES IDX 59 97
REMARK H PARENT 1 27 1 28 83 50 51 61
REMARK Flexibility Score: inf
ROOT
ATOM      1  C   UNL A   1      31.874  32.211  26.947  1.00  0.00     0.275 C 
ENDROOT
BRANCH   1   2
ATOM      2  O   UNL A   1      32.487  31.189  27.751  1.00  0.00    -0.458 OA
BRANCH   2   3
ATOM      3  C   UNL A   1      33.515  30.516  27.170  1.00  0.00     0.338 C 
ATOM      4  O   UNL A   1      34.681  30.876  27.118  1.00  0.00    -0.246 OA
BRANCH   3   5
ATOM      5  C   UNL A   1      33.050  29.207  26.652  1.00  0.00     0.060 A 
ATOM      6  C   UNL A   1      32.105  26.856  25.468  1.00  0.00     0.053 A 
ATOM      7  C   UNL A   1      33.341  27.376  25.078  1.00  0.00     0.028 A 
ATOM      8  C   UNL A   1      31.402  27.457  26.525  1.00  0.00     0.028 A 
ATOM      9  C   UNL A   1      33.796  28.570  25.646  1.00  0.00     0.018 A 
ATOM     10  C   UNL A   1      31.883  28.614  27.132  1.00  0.00     0.018 A 
BRANCH   6  11
ATOM     11  N   UNL A   1      31.492  25.824  24.731  1.00  0.00    -0.242 N 
ATOM     12  C   UNL A   1      30.425  25.935  23.883  1.00  0.00     0.095 A 
ATOM     13  C   UNL A   1      30.172  24.707  23.449  1.00  0.00     0.228 A 
ATOM     14  O   UNL A   1      31.031  23.732  23.948  1.00  0.00    -0.415 OA
ATOM     15  C   UNL A   1      31.900  24.492  24.739  1.00  0.00     0.424 A 
ATOM     16  O   UNL A   1      32.844  23.995  25.333  1.00  0.00    -0.223 OA
BRANCH  12  17
ATOM     17  C   UNL A   1      29.854  27.186  23.383  1.00  0.00     0.002 A 
ATOM     18  C   UNL A   1      28.707  29.568  22.448  1.00  0.00     0.082 A 
ATOM     19  C   UNL A   1      27.898  28.612  23.060  1.00  0.00     0.022 A 
ATOM     20  C   UNL A   1      30.080  29.343  22.295  1.00  0.00     0.022 A 
ATOM     21  C   UNL A   1      28.475  27.429  23.528  1.00  0.00     0.012 A 
ATOM     22  C   UNL A   1      30.652  28.157  22.768  1.00  0.00     0.012 A 
BRANCH  18  23
ATOM     23  S   UNL A   1      28.020  31.070  21.821  1.00  0.00     0.238 S 
ATOM     24  O   UNL A   1      27.133  31.623  22.827  1.00  0.00    -0.207 OA
ATOM     25  O   UNL A   1      27.609  30.851  20.461  1.00  0.00    -0.207 OA
BRANCH  23  26
ATOM     26  N   UNL A   1      29.316  32.136  21.752  1.00  0.00    -0.225 NA
ATOM     27  H   UNL A   1      30.064  31.728  21.191  1.00  0.00     0.137 HD
ATOM     28  H   UNL A   1      29.659  32.315  22.697  1.00  0.00     0.137 HD
ENDBRANCH  23  26
ENDBRANCH  18  23
ENDBRANCH  12  17
ENDBRANCH   6  11
ENDBRANCH   3   5
ENDBRANCH   2   3
ENDBRANCH   1   2
BRANCH   1  29
ATOM     29  C   UNL A   1      32.536  33.563  27.168  1.00  0.00     0.275 C 
BRANCH  29  30
ATOM     30  O   UNL A   1      32.295  34.038  28.489  1.00  0.00    -0.458 OA
BRANCH  30  31
ATOM     31  C   UNL A   1      33.395  34.493  29.133  1.00  0.00     0.338 C 
ATOM     32  O   UNL A   1      33.579  35.615  29.575  1.00  0.00    -0.246 OA
BRANCH  31  33
ATOM     33  C   UNL A   1      34.463  33.504  29.005  1.00  0.00     0.060 A 
ATOM     34  C   UNL A   1      34.613  32.584  30.047  1.00  0.00     0.016 A 
ATOM     35  C   UNL A   1      35.481  33.759  28.077  1.00  0.00     0.016 A 
ATOM     36  C   UNL A   1      35.872  32.080  30.290  1.00  0.00     0.010 A 
ATOM     37  C   UNL A   1      36.736  33.282  28.339  1.00  0.00     0.010 A 
ATOM     38  C   UNL A   1      36.931  32.522  29.490  1.00  0.00    -0.014 A 
BRANCH  38  39
ATOM     39  C   UNL A   1      38.271  32.043  29.753  1.00  0.00     0.031 A 
ATOM     40  C   UNL A   1      38.399  30.608  29.403  1.00  0.00     0.074 A 
ATOM     41  C   UNL A   1      39.275  32.880  30.085  1.00  0.00     0.049 A 
ATOM     42  N   UNL A   1      38.544  29.615  30.213  1.00  0.00    -0.248 NA
ATOM     43  C   UNL A   1      38.055  30.201  28.025  1.00  0.00     0.031 C 
ATOM     44  C   UNL A   1      39.246  34.341  30.205  1.00  0.00     0.029 A 
ATOM     45  N   UNL A   1      40.587  32.600  30.291  1.00  0.00    -0.354 N 
ATOM     46  C   UNL A   1      38.595  28.486  29.403  1.00  0.00     0.074 A 
ATOM     47  C   UNL A   1      38.017  28.876  28.151  1.00  0.00     0.031 C 
ATOM     48  C   UNL A   1      40.513  34.819  30.222  1.00  0.00     0.029 A 
ATOM     49  C   UNL A   1      41.442  33.701  30.240  1.00  0.00     0.049 A 
ATOM     50  H   UNL A   1      40.911  31.686  30.463  1.00  0.00     0.167 HD
ATOM     51  C   UNL A   1      39.399  27.439  29.730  1.00  0.00     0.034 A 
ATOM     52  C   UNL A   1      42.804  33.664  30.145  1.00  0.00     0.034 A 
ATOM     53  C   UNL A   1      39.769  27.510  31.130  1.00  0.00     0.049 A 
ATOM     54  C   UNL A   1      43.212  32.307  30.610  1.00  0.00     0.074 A 
ATOM     55  C   UNL A   1      39.056  27.508  32.314  1.00  0.00     0.029 A 
ATOM     56  N   UNL A   1      41.009  28.029  31.445  1.00  0.00    -0.354 N 
ATOM     57  N   UNL A   1      43.036  31.902  31.839  1.00  0.00    -0.248 NA
ATOM     58  C   UNL A   1      43.280  31.243  29.615  1.00  0.00     0.031 C 
ATOM     59  C   UNL A   1      39.709  28.472  33.137  1.00  0.00     0.029 A 
ATOM     60  C   UNL A   1      40.844  28.933  32.467  1.00  0.00     0.049 A 
ATOM     61  H   UNL A   1      41.860  27.793  31.012  1.00  0.00     0.167 HD
ATOM     62  C   UNL A   1      42.541  30.610  31.730  1.00  0.00     0.074 A 
ATOM     63  C   UNL A   1      42.780  30.232  30.334  1.00  0.00     0.031 C 
ATOM     64  C   UNL A   1      41.705  30.085  32.677  1.00  0.00     0.034 A 
BRANCH  51  65
ATOM     65  C   UNL A   1      40.200  26.636  28.722  1.00  0.00     0.023 A 
ATOM     66  C   UNL A   1      41.275  27.310  28.115  1.00  0.00     0.031 A 
ATOM     67  C   UNL A   1      39.824  25.418  28.109  1.00  0.00     0.131 A 
ATOM     68  C   UNL A   1      41.797  26.880  26.886  1.00  0.00     0.055 A 
ATOM     69  C   UNL A   1      40.391  24.959  26.916  1.00  0.00     0.041 A 
ATOM     70  F   UNL A   1      38.846  24.631  28.567  1.00  0.00    -0.206 F 
ATOM     71  C   UNL A   1      41.355  25.713  26.274  1.00  0.00     0.022 A 
BRANCH  68  72
ATOM     72  S   UNL A   1      42.919  27.995  26.011  1.00  0.00     0.124 S 
ATOM     73  O   UNL A   1      42.651  29.260  26.687  1.00  0.00    -0.237 OA
ATOM     74  O   UNL A   1      44.216  27.381  26.279  1.00  0.00    -0.237 OA
ATOM     75  O   UNL A   1      42.463  27.915  24.627  1.00  0.00    -0.744 OA
ENDBRANCH  68  72
ENDBRANCH  51  65
BRANCH  52  76
ATOM     76  C   UNL A   1      43.679  34.547  29.302  1.00  0.00     0.023 A 
ATOM     77  C   UNL A   1      44.279  34.144  28.083  1.00  0.00     0.031 A 
ATOM     78  C   UNL A   1      43.739  35.930  29.596  1.00  0.00     0.131 A 
ATOM     79  C   UNL A   1      44.902  35.100  27.235  1.00  0.00     0.055 A 
ATOM     80  C   UNL A   1      44.348  36.866  28.756  1.00  0.00     0.041 A 
ATOM     81  F   UNL A   1      43.130  36.438  30.678  1.00  0.00    -0.206 F 
ATOM     82  C   UNL A   1      44.925  36.456  27.566  1.00  0.00     0.022 A 
BRANCH  79  83
ATOM     83  S   UNL A   1      45.649  34.617  25.636  1.00  0.00     0.124 S 
ATOM     84  O   UNL A   1      46.189  33.296  25.929  1.00  0.00    -0.237 OA
ATOM     85  O   UNL A   1      44.510  34.668  24.726  1.00  0.00    -0.237 OA
ATOM     86  O   UNL A   1      46.660  35.651  25.403  1.00  0.00    -0.744 OA
ENDBRANCH  79  83
ENDBRANCH  52  76
BRANCH  64  87
ATOM     87  C   UNL A   1      41.519  30.846  33.980  1.00  0.00     0.023 A 
ATOM     88  C   UNL A   1      40.603  31.907  34.190  1.00  0.00     0.031 A 
ATOM     89  C   UNL A   1      42.227  30.371  35.098  1.00  0.00     0.131 A 
ATOM     90  C   UNL A   1      40.438  32.451  35.482  1.00  0.00     0.055 A 
ATOM     91  C   UNL A   1      42.039  30.893  36.375  1.00  0.00     0.041 A 
ATOM     92  F   UNL A   1      43.091  29.352  34.969  1.00  0.00    -0.206 F 
ATOM     93  C   UNL A   1      41.147  31.939  36.572  1.00  0.00     0.022 A 
BRANCH  90  94
ATOM     94  S   UNL A   1      39.312  33.859  35.774  1.00  0.00     0.124 S 
ATOM     95  O   UNL A   1      37.988  33.285  35.565  1.00  0.00    -0.237 OA
ATOM     96  O   UNL A   1      39.634  34.245  37.144  1.00  0.00    -0.237 OA
ATOM     97  O   UNL A   1      39.717  34.834  34.759  1.00  0.00    -0.744 OA
ENDBRANCH  90  94
ENDBRANCH  64  87
ENDBRANCH  38  39
ENDBRANCH  31  33
ENDBRANCH  30  31
ENDBRANCH  29  30
ENDBRANCH   1  29
TORSDOF 18
ENDMDL
