MODEL 1
REMARK VINA RESULT:     -12.8      0.000      0.000
REMARK SMILES CCCSc1nc2n(n1)[C@@H](c1ccc(C(=O)OCCOC(=O)c3ccc(-c4c5nc(c(-c6cc(S(=O)(=O)[O-])ccc6F)c6ccc([nH]6)c(-c6cc(S(=O)(=O)[O-])ccc6F)c6nc(c(-c7cc(S(=O)(=O)[O-])ccc7F)c7ccc4[nH]7)C=C6)C=C5)cc3)cc1)C(C(=O)Nc1cccc(C)c1)=C(C)N2
REMARK SMILES IDX 18 1 17 2 15 3 16 4 14 5 11 6 12 7 87 8 13 9 86 10 10 11
REMARK SMILES IDX 5 12 6 13 9 14 7 15 8 16 101 17 99 18 88 20 100 21 4 22 3 23
REMARK SMILES IDX 2 24 1 25 89 26 90 27 91 28 92 30 93 31 98 32 94 33 96 34
REMARK SMILES IDX 95 35 97 36 19 37 20 38 21 39 22 40 23 41 24 42 85 43 25 44
REMARK SMILES IDX 84 45 26 46 27 47 28 48 78 49 29 50 83 51 77 52 79 53 30 54
REMARK SMILES IDX 82 55 76 56 75 57 31 59 63 60 43 61 62 62 44 63 47 64 61 65
REMARK SMILES IDX 80 66 45 67 46 68 60 70 81 71 48 72 32 73 33 74 41 75 34 76
REMARK SMILES IDX 40 77 42 78 39 79 35 80 36 81 37 82 38 83 64 84 65 85 73 86
REMARK SMILES IDX 66 87 72 88 74 89 71 90 67 91 68 92 69 93 70 94 49 95 50 96
REMARK SMILES IDX 58 97 51 98 57 99 59 100 56 101 52 102 53 103 54 104 55 105
REMARK H PARENT 101 19 91 29 79 58 47 69
REMARK Flexibility Score: inf
ROOT
ATOM      1  C   UNL A   1      33.607  31.644  27.257  1.00  0.00     0.275 C 
ENDROOT
BRANCH   1   2
ATOM      2  O   UNL A   1      33.193  30.334  27.666  1.00  0.00    -0.458 OA
BRANCH   2   3
ATOM      3  C   UNL A   1      34.070  29.339  27.387  1.00  0.00     0.338 C 
ATOM      4  O   UNL A   1      35.089  29.078  28.012  1.00  0.00    -0.246 OA
BRANCH   3   5
ATOM      5  C   UNL A   1      33.593  28.529  26.240  1.00  0.00     0.060 A 
ATOM      6  C   UNL A   1      32.624  27.208  23.939  1.00  0.00    -0.019 A 
ATOM      7  C   UNL A   1      33.772  28.024  23.884  1.00  0.00     0.007 A 
ATOM      8  C   UNL A   1      32.083  26.946  25.212  1.00  0.00     0.007 A 
ATOM      9  C   UNL A   1      34.243  28.685  25.016  1.00  0.00     0.016 A 
ATOM     10  C   UNL A   1      32.546  27.615  26.349  1.00  0.00     0.016 A 
BRANCH   6  11
ATOM     11  C   UNL A   1      31.820  26.805  22.664  1.00  0.00     0.179 C 
ATOM     12  C   UNL A   1      28.762  28.493  22.887  1.00  0.00     0.210 A 
ATOM     13  N   UNL A   1      28.423  27.351  23.567  1.00  0.00    -0.185 NA
ATOM     14  N   UNL A   1      29.995  28.502  22.358  1.00  0.00    -0.141 NA
ATOM     15  C   UNL A   1      29.467  26.591  23.399  1.00  0.00     0.227 A 
ATOM     16  N   UNL A   1      30.438  27.290  22.739  1.00  0.00    -0.218 N 
ATOM     17  N   UNL A   1      29.734  25.343  23.810  1.00  0.00    -0.328 N 
ATOM     18  C   UNL A   1      30.866  24.633  23.407  1.00  0.00     0.026 C 
ATOM     19  H   UNL A   1      29.102  24.906  24.426  1.00  0.00     0.169 HD
ATOM     20  C   UNL A   1      31.797  25.237  22.611  1.00  0.00     0.065 C 
ATOM     21  C   UNL A   1      30.936  23.257  24.012  1.00  0.00     0.065 C 
BRANCH  12  22
ATOM     22  S   UNL A   1      27.659  29.821  22.672  1.00  0.00    -0.084 SA
BRANCH  22  23
ATOM     23  C   UNL A   1      28.747  31.114  21.996  1.00  0.00     0.078 C 
BRANCH  23  24
ATOM     24  C   UNL A   1      28.247  32.545  22.230  1.00  0.00     0.008 C 
ATOM     25  C   UNL A   1      29.140  33.406  23.113  1.00  0.00     0.005 C 
ENDBRANCH  23  24
ENDBRANCH  22  23
ENDBRANCH  12  22
BRANCH  20  26
ATOM     26  C   UNL A   1      32.967  24.669  21.846  1.00  0.00     0.255 C 
ATOM     27  O   UNL A   1      32.937  24.622  20.615  1.00  0.00    -0.269 OA
ATOM     28  N   UNL A   1      34.106  24.213  22.435  1.00  0.00    -0.322 N 
ATOM     29  H   UNL A   1      34.920  24.323  21.893  1.00  0.00     0.170 HD
BRANCH  28  30
ATOM     30  C   UNL A   1      34.311  23.616  23.679  1.00  0.00     0.041 A 
ATOM     31  C   UNL A   1      34.659  24.446  24.747  1.00  0.00     0.026 A 
ATOM     32  C   UNL A   1      34.122  22.249  23.883  1.00  0.00     0.029 A 
ATOM     33  C   UNL A   1      34.676  23.932  26.042  1.00  0.00     0.002 A 
ATOM     34  C   UNL A   1      34.142  21.726  25.179  1.00  0.00    -0.049 A 
ATOM     35  C   UNL A   1      34.402  22.580  26.259  1.00  0.00     0.003 A 
ATOM     36  C   UNL A   1      33.806  20.284  25.414  1.00  0.00     0.044 C 
ENDBRANCH  28  30
ENDBRANCH  20  26
ENDBRANCH   6  11
ENDBRANCH   3   5
ENDBRANCH   2   3
ENDBRANCH   1   2
BRANCH   1  37
ATOM     37  C   UNL A   1      34.434  32.309  28.349  1.00  0.00     0.275 C 
BRANCH  37  38
ATOM     38  O   UNL A   1      35.829  32.295  28.042  1.00  0.00    -0.458 OA
BRANCH  38  39
ATOM     39  C   UNL A   1      36.613  32.930  28.945  1.00  0.00     0.338 C 
ATOM     40  O   UNL A   1      36.674  34.130  29.145  1.00  0.00    -0.246 OA
BRANCH  39  41
ATOM     41  C   UNL A   1      37.567  31.973  29.516  1.00  0.00     0.060 A 
ATOM     42  C   UNL A   1      38.804  32.464  29.944  1.00  0.00     0.016 A 
ATOM     43  C   UNL A   1      37.332  30.597  29.373  1.00  0.00     0.016 A 
ATOM     44  C   UNL A   1      39.851  31.575  30.094  1.00  0.00     0.010 A 
ATOM     45  C   UNL A   1      38.380  29.716  29.512  1.00  0.00     0.010 A 
ATOM     46  C   UNL A   1      39.644  30.220  29.809  1.00  0.00    -0.014 A 
BRANCH  46  47
ATOM     47  C   UNL A   1      40.766  29.309  29.953  1.00  0.00     0.031 A 
ATOM     48  C   UNL A   1      41.136  29.048  31.365  1.00  0.00     0.074 A 
ATOM     49  C   UNL A   1      41.325  28.653  28.918  1.00  0.00     0.049 A 
ATOM     50  N   UNL A   1      42.257  29.301  31.952  1.00  0.00    -0.248 NA
ATOM     51  C   UNL A   1      40.076  28.578  32.274  1.00  0.00     0.031 C 
ATOM     52  C   UNL A   1      40.876  28.608  27.525  1.00  0.00     0.029 A 
ATOM     53  N   UNL A   1      42.371  27.784  28.932  1.00  0.00    -0.354 N 
ATOM     54  C   UNL A   1      42.118  28.835  33.253  1.00  0.00     0.074 A 
ATOM     55  C   UNL A   1      40.718  28.565  33.441  1.00  0.00     0.031 C 
ATOM     56  C   UNL A   1      41.498  27.587  26.891  1.00  0.00     0.029 A 
ATOM     57  C   UNL A   1      42.475  26.993  27.792  1.00  0.00     0.049 A 
ATOM     58  H   UNL A   1      43.001  27.719  29.685  1.00  0.00     0.167 HD
ATOM     59  C   UNL A   1      43.202  28.503  34.005  1.00  0.00     0.034 A 
ATOM     60  C   UNL A   1      43.250  25.886  27.634  1.00  0.00     0.034 A 
ATOM     61  C   UNL A   1      44.399  29.136  33.505  1.00  0.00     0.049 A 
ATOM     62  C   UNL A   1      44.333  25.970  28.649  1.00  0.00     0.074 A 
ATOM     63  C   UNL A   1      44.761  30.453  33.288  1.00  0.00     0.029 A 
ATOM     64  N   UNL A   1      45.280  28.389  32.755  1.00  0.00    -0.354 N 
ATOM     65  N   UNL A   1      45.255  26.893  28.638  1.00  0.00    -0.248 NA
ATOM     66  C   UNL A   1      44.107  25.341  29.944  1.00  0.00     0.031 C 
ATOM     67  C   UNL A   1      45.458  30.441  32.044  1.00  0.00     0.029 A 
ATOM     68  C   UNL A   1      45.559  29.115  31.619  1.00  0.00     0.049 A 
ATOM     69  H   UNL A   1      45.642  27.503  32.987  1.00  0.00     0.167 HD
ATOM     70  C   UNL A   1      45.408  27.268  29.964  1.00  0.00     0.074 A 
ATOM     71  C   UNL A   1      44.745  26.214  30.731  1.00  0.00     0.031 C 
ATOM     72  C   UNL A   1      45.804  28.529  30.312  1.00  0.00     0.034 A 
BRANCH  59  73
ATOM     73  C   UNL A   1      43.218  27.363  34.994  1.00  0.00     0.023 A 
ATOM     74  C   UNL A   1      43.857  26.170  34.615  1.00  0.00     0.031 A 
ATOM     75  C   UNL A   1      42.417  27.290  36.159  1.00  0.00     0.131 A 
ATOM     76  C   UNL A   1      43.638  24.978  35.329  1.00  0.00     0.055 A 
ATOM     77  C   UNL A   1      42.261  26.122  36.906  1.00  0.00     0.041 A 
ATOM     78  F   UNL A   1      41.663  28.312  36.585  1.00  0.00    -0.206 F 
ATOM     79  C   UNL A   1      42.851  24.948  36.477  1.00  0.00     0.022 A 
BRANCH  76  80
ATOM     80  S   UNL A   1      44.262  23.426  34.634  1.00  0.00     0.124 S 
ATOM     81  O   UNL A   1      44.614  22.682  35.839  1.00  0.00    -0.237 OA
ATOM     82  O   UNL A   1      43.104  22.942  33.892  1.00  0.00    -0.237 OA
ATOM     83  O   UNL A   1      45.393  23.853  33.815  1.00  0.00    -0.744 OA
ENDBRANCH  76  80
ENDBRANCH  59  73
BRANCH  60  84
ATOM     84  C   UNL A   1      42.880  24.633  26.916  1.00  0.00     0.023 A 
ATOM     85  C   UNL A   1      43.783  23.914  26.101  1.00  0.00     0.031 A 
ATOM     86  C   UNL A   1      41.658  23.988  27.219  1.00  0.00     0.131 A 
ATOM     87  C   UNL A   1      43.444  22.623  25.625  1.00  0.00     0.055 A 
ATOM     88  C   UNL A   1      41.326  22.719  26.741  1.00  0.00     0.041 A 
ATOM     89  F   UNL A   1      40.773  24.536  28.067  1.00  0.00    -0.206 F 
ATOM     90  C   UNL A   1      42.223  22.027  25.947  1.00  0.00     0.022 A 
BRANCH  87  91
ATOM     91  S   UNL A   1      44.634  21.651  24.643  1.00  0.00     0.124 S 
ATOM     92  O   UNL A   1      44.055  20.314  24.686  1.00  0.00    -0.237 OA
ATOM     93  O   UNL A   1      44.607  22.331  23.353  1.00  0.00    -0.237 OA
ATOM     94  O   UNL A   1      45.889  21.799  25.383  1.00  0.00    -0.744 OA
ENDBRANCH  87  91
ENDBRANCH  60  84
BRANCH  72  95
ATOM     95  C   UNL A   1      46.327  29.457  29.228  1.00  0.00     0.023 A 
ATOM     96  C   UNL A   1      45.545  30.397  28.516  1.00  0.00     0.031 A 
ATOM     97  C   UNL A   1      47.717  29.471  29.002  1.00  0.00     0.131 A 
ATOM     98  C   UNL A   1      46.159  31.292  27.613  1.00  0.00     0.055 A 
ATOM     99  C   UNL A   1      48.322  30.374  28.128  1.00  0.00     0.041 A 
ATOM    100  F   UNL A   1      48.522  28.620  29.661  1.00  0.00    -0.206 F 
ATOM    101  C   UNL A   1      47.543  31.285  27.426  1.00  0.00     0.022 A 
BRANCH  98 102
ATOM    102  S   UNL A   1      45.163  32.473  26.644  1.00  0.00     0.124 S 
ATOM    103  O   UNL A   1      46.119  33.027  25.692  1.00  0.00    -0.237 OA
ATOM    104  O   UNL A   1      44.119  31.622  26.081  1.00  0.00    -0.237 OA
ATOM    105  O   UNL A   1      44.690  33.426  27.652  1.00  0.00    -0.744 OA
ENDBRANCH  98 102
ENDBRANCH  72  95
ENDBRANCH  46  47
ENDBRANCH  39  41
ENDBRANCH  38  39
ENDBRANCH  37  38
ENDBRANCH   1  37
TORSDOF 20
ENDMDL
MODEL 2
REMARK VINA RESULT:     -12.8      3.596      9.589
REMARK SMILES CCCSc1nc2n(n1)[C@@H](c1ccc(C(=O)OCCOC(=O)c3ccc(-c4c5nc(c(-c6cc(S(=O)(=O)[O-])ccc6F)c6ccc([nH]6)c(-c6cc(S(=O)(=O)[O-])ccc6F)c6nc(c(-c7cc(S(=O)(=O)[O-])ccc7F)c7ccc4[nH]7)C=C6)C=C5)cc3)cc1)C(C(=O)Nc1cccc(C)c1)=C(C)N2
REMARK SMILES IDX 18 1 17 2 15 3 16 4 14 5 11 6 12 7 87 8 13 9 86 10 10 11
REMARK SMILES IDX 5 12 6 13 9 14 7 15 8 16 101 17 99 18 88 20 100 21 4 22 3 23
REMARK SMILES IDX 2 24 1 25 89 26 90 27 91 28 92 30 93 31 98 32 94 33 96 34
REMARK SMILES IDX 95 35 97 36 19 37 20 38 21 39 22 40 23 41 24 42 85 43 25 44
REMARK SMILES IDX 84 45 26 46 27 47 28 48 78 49 29 50 83 51 77 52 79 53 30 54
REMARK SMILES IDX 82 55 76 56 75 57 31 59 63 60 43 61 62 62 44 63 47 64 61 65
REMARK SMILES IDX 80 66 45 67 46 68 60 70 81 71 48 72 32 73 33 74 41 75 34 76
REMARK SMILES IDX 40 77 42 78 39 79 35 80 36 81 37 82 38 83 64 84 65 85 73 86
REMARK SMILES IDX 66 87 72 88 74 89 71 90 67 91 68 92 69 93 70 94 49 95 50 96
REMARK SMILES IDX 58 97 51 98 57 99 59 100 56 101 52 102 53 103 54 104 55 105
REMARK H PARENT 101 19 91 29 79 58 47 69
REMARK Flexibility Score: inf
ROOT
ATOM      1  C   UNL A   1      39.637  21.704  26.566  1.00  0.00     0.275 C 
ENDROOT
BRANCH   1   2
ATOM      2  O   UNL A   1      38.694  22.146  25.580  1.00  0.00    -0.458 OA
BRANCH   2   3
ATOM      3  C   UNL A   1      38.039  23.293  25.882  1.00  0.00     0.338 C 
ATOM      4  O   UNL A   1      38.554  24.355  26.203  1.00  0.00    -0.246 OA
BRANCH   3   5
ATOM      5  C   UNL A   1      36.578  23.124  25.699  1.00  0.00     0.060 A 
ATOM      6  C   UNL A   1      33.799  22.641  25.550  1.00  0.00    -0.019 A 
ATOM      7  C   UNL A   1      34.366  23.308  26.654  1.00  0.00     0.007 A 
ATOM      8  C   UNL A   1      34.645  22.378  24.455  1.00  0.00     0.007 A 
ATOM      9  C   UNL A   1      35.739  23.535  26.733  1.00  0.00     0.016 A 
ATOM     10  C   UNL A   1      36.022  22.595  24.534  1.00  0.00     0.016 A 
BRANCH   6  11
ATOM     11  C   UNL A   1      32.381  21.991  25.601  1.00  0.00     0.179 C 
ATOM     12  C   UNL A   1      32.563  19.141  23.577  1.00  0.00     0.210 A 
ATOM     13  N   UNL A   1      32.203  20.057  22.621  1.00  0.00    -0.185 NA
ATOM     14  N   UNL A   1      32.617  19.612  24.832  1.00  0.00    -0.141 NA
ATOM     15  C   UNL A   1      31.961  21.128  23.320  1.00  0.00     0.227 A 
ATOM     16  N   UNL A   1      32.270  20.897  24.631  1.00  0.00    -0.218 N 
ATOM     17  N   UNL A   1      31.553  22.353  22.958  1.00  0.00    -0.328 N 
ATOM     18  C   UNL A   1      31.208  23.345  23.878  1.00  0.00     0.026 C 
ATOM     19  H   UNL A   1      31.493  22.563  21.998  1.00  0.00     0.169 HD
ATOM     20  C   UNL A   1      31.348  23.107  25.215  1.00  0.00     0.065 C 
ATOM     21  C   UNL A   1      30.788  24.630  23.217  1.00  0.00     0.065 C 
BRANCH  12  22
ATOM     22  S   UNL A   1      32.875  17.470  23.208  1.00  0.00    -0.084 SA
BRANCH  22  23
ATOM     23  C   UNL A   1      34.391  17.145  24.162  1.00  0.00     0.078 C 
BRANCH  23  24
ATOM     24  C   UNL A   1      34.306  15.923  25.084  1.00  0.00     0.008 C 
ATOM     25  C   UNL A   1      32.894  15.472  25.431  1.00  0.00     0.005 C 
ENDBRANCH  23  24
ENDBRANCH  22  23
ENDBRANCH  12  22
BRANCH  20  26
ATOM     26  C   UNL A   1      30.854  23.875  26.416  1.00  0.00     0.255 C 
ATOM     27  O   UNL A   1      29.989  23.388  27.148  1.00  0.00    -0.269 OA
ATOM     28  N   UNL A   1      31.328  25.097  26.781  1.00  0.00    -0.322 N 
ATOM     29  H   UNL A   1      31.312  25.271  27.750  1.00  0.00     0.170 HD
BRANCH  28  30
ATOM     30  C   UNL A   1      31.833  26.145  26.010  1.00  0.00     0.041 A 
ATOM     31  C   UNL A   1      33.191  26.117  25.689  1.00  0.00     0.026 A 
ATOM     32  C   UNL A   1      31.014  27.161  25.517  1.00  0.00     0.029 A 
ATOM     33  C   UNL A   1      33.698  27.023  24.760  1.00  0.00     0.002 A 
ATOM     34  C   UNL A   1      31.517  28.076  24.589  1.00  0.00    -0.049 A 
ATOM     35  C   UNL A   1      32.860  27.989  24.199  1.00  0.00     0.003 A 
ATOM     36  C   UNL A   1      30.606  29.084  23.956  1.00  0.00     0.044 C 
ENDBRANCH  28  30
ENDBRANCH  20  26
ENDBRANCH   6  11
ENDBRANCH   3   5
ENDBRANCH   2   3
ENDBRANCH   1   2
BRANCH   1  37
ATOM     37  C   UNL A   1      41.062  21.849  26.046  1.00  0.00     0.275 C 
BRANCH  37  38
ATOM     38  O   UNL A   1      41.553  23.180  26.209  1.00  0.00    -0.458 OA
BRANCH  38  39
ATOM     39  C   UNL A   1      42.461  23.329  27.201  1.00  0.00     0.338 C 
ATOM     40  O   UNL A   1      43.323  22.533  27.529  1.00  0.00    -0.246 OA
BRANCH  39  41
ATOM     41  C   UNL A   1      42.121  24.514  27.996  1.00  0.00     0.060 A 
ATOM     42  C   UNL A   1      41.003  25.259  27.607  1.00  0.00     0.016 A 
ATOM     43  C   UNL A   1      43.046  25.009  28.927  1.00  0.00     0.016 A 
ATOM     44  C   UNL A   1      40.892  26.563  28.051  1.00  0.00     0.010 A 
ATOM     45  C   UNL A   1      42.938  26.311  29.358  1.00  0.00     0.010 A 
ATOM     46  C   UNL A   1      41.899  27.096  28.866  1.00  0.00    -0.014 A 
BRANCH  46  47
ATOM     47  C   UNL A   1      41.770  28.475  29.302  1.00  0.00     0.031 A 
ATOM     48  C   UNL A   1      42.808  29.371  28.738  1.00  0.00     0.074 A 
ATOM     49  C   UNL A   1      40.731  28.928  30.030  1.00  0.00     0.049 A 
ATOM     50  N   UNL A   1      43.694  30.059  29.374  1.00  0.00    -0.248 NA
ATOM     51  C   UNL A   1      42.969  29.392  27.274  1.00  0.00     0.031 C 
ATOM     52  C   UNL A   1      39.511  28.213  30.410  1.00  0.00     0.029 A 
ATOM     53  N   UNL A   1      40.505  30.187  30.493  1.00  0.00    -0.354 N 
ATOM     54  C   UNL A   1      44.397  30.763  28.404  1.00  0.00     0.074 A 
ATOM     55  C   UNL A   1      44.030  30.187  27.139  1.00  0.00     0.031 C 
ATOM     56  C   UNL A   1      38.588  29.106  30.836  1.00  0.00     0.029 A 
ATOM     57  C   UNL A   1      39.191  30.429  30.879  1.00  0.00     0.049 A 
ATOM     58  H   UNL A   1      41.212  30.869  30.549  1.00  0.00     0.167 HD
ATOM     59  C   UNL A   1      45.065  31.909  28.706  1.00  0.00     0.034 A 
ATOM     60  C   UNL A   1      38.626  31.640  31.138  1.00  0.00     0.034 A 
ATOM     61  C   UNL A   1      45.348  31.993  30.119  1.00  0.00     0.049 A 
ATOM     62  C   UNL A   1      39.737  32.575  31.455  1.00  0.00     0.074 A 
ATOM     63  C   UNL A   1      46.034  31.180  31.003  1.00  0.00     0.029 A 
ATOM     64  N   UNL A   1      44.560  32.802  30.906  1.00  0.00    -0.354 N 
ATOM     65  N   UNL A   1      40.498  32.452  32.508  1.00  0.00    -0.248 NA
ATOM     66  C   UNL A   1      40.320  33.342  30.362  1.00  0.00     0.031 C 
ATOM     67  C   UNL A   1      45.241  31.176  32.188  1.00  0.00     0.029 A 
ATOM     68  C   UNL A   1      44.170  32.051  31.993  1.00  0.00     0.049 A 
ATOM     69  H   UNL A   1      44.320  33.740  30.727  1.00  0.00     0.167 HD
ATOM     70  C   UNL A   1      41.781  32.729  32.063  1.00  0.00     0.074 A 
ATOM     71  C   UNL A   1      41.597  33.361  30.757  1.00  0.00     0.031 C 
ATOM     72  C   UNL A   1      42.881  32.171  32.652  1.00  0.00     0.034 A 
BRANCH  59  73
ATOM     73  C   UNL A   1      45.176  33.085  27.767  1.00  0.00     0.023 A 
ATOM     74  C   UNL A   1      46.429  33.352  27.188  1.00  0.00     0.031 A 
ATOM     75  C   UNL A   1      44.202  34.103  27.626  1.00  0.00     0.131 A 
ATOM     76  C   UNL A   1      46.689  34.591  26.574  1.00  0.00     0.055 A 
ATOM     77  C   UNL A   1      44.443  35.302  26.954  1.00  0.00     0.041 A 
ATOM     78  F   UNL A   1      43.000  34.042  28.213  1.00  0.00    -0.206 F 
ATOM     79  C   UNL A   1      45.702  35.564  26.446  1.00  0.00     0.022 A 
BRANCH  76  80
ATOM     80  S   UNL A   1      48.392  34.979  26.098  1.00  0.00     0.124 S 
ATOM     81  O   UNL A   1      49.045  35.094  27.398  1.00  0.00    -0.237 OA
ATOM     82  O   UNL A   1      48.753  33.816  25.295  1.00  0.00    -0.237 OA
ATOM     83  O   UNL A   1      48.259  36.231  25.356  1.00  0.00    -0.744 OA
ENDBRANCH  76  80
ENDBRANCH  59  73
BRANCH  60  84
ATOM     84  C   UNL A   1      37.251  32.080  30.767  1.00  0.00     0.023 A 
ATOM     85  C   UNL A   1      36.399  32.780  31.651  1.00  0.00     0.031 A 
ATOM     86  C   UNL A   1      36.834  32.010  29.417  1.00  0.00     0.131 A 
ATOM     87  C   UNL A   1      35.197  33.361  31.174  1.00  0.00     0.055 A 
ATOM     88  C   UNL A   1      35.645  32.577  28.956  1.00  0.00     0.041 A 
ATOM     89  F   UNL A   1      37.616  31.458  28.475  1.00  0.00    -0.206 F 
ATOM     90  C   UNL A   1      34.824  33.263  29.832  1.00  0.00     0.022 A 
BRANCH  87  91
ATOM     91  S   UNL A   1      34.133  34.339  32.286  1.00  0.00     0.124 S 
ATOM     92  O   UNL A   1      35.073  35.296  32.856  1.00  0.00    -0.237 OA
ATOM     93  O   UNL A   1      33.133  34.878  31.371  1.00  0.00    -0.237 OA
ATOM     94  O   UNL A   1      33.620  33.345  33.232  1.00  0.00    -0.744 OA
ENDBRANCH  87  91
ENDBRANCH  60  84
BRANCH  72  95
ATOM     95  C   UNL A   1      42.711  31.438  33.973  1.00  0.00     0.023 A 
ATOM     96  C   UNL A   1      42.571  30.037  34.112  1.00  0.00     0.031 A 
ATOM     97  C   UNL A   1      42.826  32.196  35.154  1.00  0.00     0.131 A 
ATOM     98  C   UNL A   1      42.539  29.451  35.395  1.00  0.00     0.055 A 
ATOM     99  C   UNL A   1      42.820  31.610  36.419  1.00  0.00     0.041 A 
ATOM    100  F   UNL A   1      42.984  33.529  35.095  1.00  0.00    -0.206 F 
ATOM    101  C   UNL A   1      42.670  30.234  36.545  1.00  0.00     0.022 A 
BRANCH  98 102
ATOM    102  S   UNL A   1      42.303  27.654  35.597  1.00  0.00     0.124 S 
ATOM    103  O   UNL A   1      41.055  27.390  34.889  1.00  0.00    -0.237 OA
ATOM    104  O   UNL A   1      43.512  27.104  34.991  1.00  0.00    -0.237 OA
ATOM    105  O   UNL A   1      42.222  27.483  37.050  1.00  0.00    -0.744 OA
ENDBRANCH  98 102
ENDBRANCH  72  95
ENDBRANCH  46  47
ENDBRANCH  39  41
ENDBRANCH  38  39
ENDBRANCH  37  38
ENDBRANCH   1  37
TORSDOF 20
ENDMDL
MODEL 3
REMARK VINA RESULT:     -12.7      3.302      9.299
REMARK SMILES CCCSc1nc2n(n1)[C@@H](c1ccc(C(=O)OCCOC(=O)c3ccc(-c4c5nc(c(-c6cc(S(=O)(=O)[O-])ccc6F)c6ccc([nH]6)c(-c6cc(S(=O)(=O)[O-])ccc6F)c6nc(c(-c7cc(S(=O)(=O)[O-])ccc7F)c7ccc4[nH]7)C=C6)C=C5)cc3)cc1)C(C(=O)Nc1cccc(C)c1)=C(C)N2
REMARK SMILES IDX 18 1 17 2 15 3 16 4 14 5 11 6 12 7 87 8 13 9 86 10 10 11
REMARK SMILES IDX 5 12 6 13 9 14 7 15 8 16 101 17 99 18 88 20 100 21 4 22 3 23
REMARK SMILES IDX 2 24 1 25 89 26 90 27 91 28 92 30 93 31 98 32 94 33 96 34
REMARK SMILES IDX 95 35 97 36 19 37 20 38 21 39 22 40 23 41 24 42 85 43 25 44
REMARK SMILES IDX 84 45 26 46 27 47 28 48 78 49 29 50 83 51 77 52 79 53 30 54
REMARK SMILES IDX 82 55 76 56 75 57 31 59 63 60 43 61 62 62 44 63 47 64 61 65
REMARK SMILES IDX 80 66 45 67 46 68 60 70 81 71 48 72 32 73 33 74 41 75 34 76
REMARK SMILES IDX 40 77 42 78 39 79 35 80 36 81 37 82 38 83 64 84 65 85 73 86
REMARK SMILES IDX 66 87 72 88 74 89 71 90 67 91 68 92 69 93 70 94 49 95 50 96
REMARK SMILES IDX 58 97 51 98 57 99 59 100 56 101 52 102 53 103 54 104 55 105
REMARK H PARENT 101 19 91 29 79 58 47 69
REMARK Flexibility Score: inf
ROOT
ATOM      1  C   UNL A   1      39.578  21.631  26.521  1.00  0.00     0.275 C 
ENDROOT
BRANCH   1   2
ATOM      2  O   UNL A   1      38.637  22.085  25.539  1.00  0.00    -0.458 OA
BRANCH   2   3
ATOM      3  C   UNL A   1      38.008  23.248  25.838  1.00  0.00     0.338 C 
ATOM      4  O   UNL A   1      38.548  24.306  26.134  1.00  0.00    -0.246 OA
BRANCH   3   5
ATOM      5  C   UNL A   1      36.541  23.102  25.686  1.00  0.00     0.060 A 
ATOM      6  C   UNL A   1      33.755  22.648  25.583  1.00  0.00    -0.019 A 
ATOM      7  C   UNL A   1      34.360  23.216  26.722  1.00  0.00     0.007 A 
ATOM      8  C   UNL A   1      34.565  22.475  24.444  1.00  0.00     0.007 A 
ATOM      9  C   UNL A   1      35.736  23.429  26.777  1.00  0.00     0.016 A 
ATOM     10  C   UNL A   1      35.946  22.678  24.499  1.00  0.00     0.016 A 
BRANCH   6  11
ATOM     11  C   UNL A   1      32.334  22.003  25.622  1.00  0.00     0.179 C 
ATOM     12  C   UNL A   1      32.517  19.164  23.585  1.00  0.00     0.210 A 
ATOM     13  N   UNL A   1      32.166  20.086  22.631  1.00  0.00    -0.185 NA
ATOM     14  N   UNL A   1      32.565  19.628  24.842  1.00  0.00    -0.141 NA
ATOM     15  C   UNL A   1      31.924  21.154  23.334  1.00  0.00     0.227 A 
ATOM     16  N   UNL A   1      32.225  20.915  24.646  1.00  0.00    -0.218 N 
ATOM     17  N   UNL A   1      31.523  22.382  22.976  1.00  0.00    -0.328 N 
ATOM     18  C   UNL A   1      31.176  23.371  23.899  1.00  0.00     0.026 C 
ATOM     19  H   UNL A   1      31.469  22.598  22.017  1.00  0.00     0.169 HD
ATOM     20  C   UNL A   1      31.308  23.125  25.236  1.00  0.00     0.065 C 
ATOM     21  C   UNL A   1      30.765  24.661  23.243  1.00  0.00     0.065 C 
BRANCH  12  22
ATOM     22  S   UNL A   1      32.825  17.493  23.208  1.00  0.00    -0.084 SA
BRANCH  22  23
ATOM     23  C   UNL A   1      34.293  17.138  24.223  1.00  0.00     0.078 C 
BRANCH  23  24
ATOM     24  C   UNL A   1      34.136  15.934  25.159  1.00  0.00     0.008 C 
ATOM     25  C   UNL A   1      32.702  15.586  25.530  1.00  0.00     0.005 C 
ENDBRANCH  23  24
ENDBRANCH  22  23
ENDBRANCH  12  22
BRANCH  20  26
ATOM     26  C   UNL A   1      30.810  23.889  26.438  1.00  0.00     0.255 C 
ATOM     27  O   UNL A   1      29.923  23.411  27.150  1.00  0.00    -0.269 OA
ATOM     28  N   UNL A   1      31.302  25.097  26.826  1.00  0.00    -0.322 N 
ATOM     29  H   UNL A   1      31.274  25.260  27.796  1.00  0.00     0.170 HD
BRANCH  28  30
ATOM     30  C   UNL A   1      31.841  26.143  26.076  1.00  0.00     0.041 A 
ATOM     31  C   UNL A   1      33.200  26.083  25.762  1.00  0.00     0.026 A 
ATOM     32  C   UNL A   1      31.054  27.190  25.596  1.00  0.00     0.029 A 
ATOM     33  C   UNL A   1      33.737  26.990  24.851  1.00  0.00     0.002 A 
ATOM     34  C   UNL A   1      31.588  28.107  24.686  1.00  0.00    -0.049 A 
ATOM     35  C   UNL A   1      32.930  27.989  24.303  1.00  0.00     0.003 A 
ATOM     36  C   UNL A   1      30.708  29.151  24.066  1.00  0.00     0.044 C 
ENDBRANCH  28  30
ENDBRANCH  20  26
ENDBRANCH   6  11
ENDBRANCH   3   5
ENDBRANCH   2   3
ENDBRANCH   1   2
BRANCH   1  37
ATOM     37  C   UNL A   1      41.003  21.779  26.004  1.00  0.00     0.275 C 
BRANCH  37  38
ATOM     38  O   UNL A   1      41.524  23.086  26.253  1.00  0.00    -0.458 OA
BRANCH  38  39
ATOM     39  C   UNL A   1      42.460  23.143  27.230  1.00  0.00     0.338 C 
ATOM     40  O   UNL A   1      43.293  22.295  27.495  1.00  0.00    -0.246 OA
BRANCH  39  41
ATOM     41  C   UNL A   1      42.189  24.298  28.093  1.00  0.00     0.060 A 
ATOM     42  C   UNL A   1      41.064  25.077  27.804  1.00  0.00     0.016 A 
ATOM     43  C   UNL A   1      43.177  24.737  28.987  1.00  0.00     0.016 A 
ATOM     44  C   UNL A   1      41.004  26.361  28.308  1.00  0.00     0.010 A 
ATOM     45  C   UNL A   1      43.119  26.021  29.479  1.00  0.00     0.010 A 
ATOM     46  C   UNL A   1      42.066  26.843  29.084  1.00  0.00    -0.014 A 
BRANCH  46  47
ATOM     47  C   UNL A   1      41.989  28.204  29.584  1.00  0.00     0.031 A 
ATOM     48  C   UNL A   1      43.043  29.094  29.038  1.00  0.00     0.074 A 
ATOM     49  C   UNL A   1      40.980  28.653  30.354  1.00  0.00     0.049 A 
ATOM     50  N   UNL A   1      43.962  29.724  29.687  1.00  0.00    -0.248 NA
ATOM     51  C   UNL A   1      43.175  29.176  27.574  1.00  0.00     0.031 C 
ATOM     52  C   UNL A   1      39.746  27.958  30.727  1.00  0.00     0.029 A 
ATOM     53  N   UNL A   1      40.802  29.896  30.878  1.00  0.00    -0.354 N 
ATOM     54  C   UNL A   1      44.667  30.451  28.734  1.00  0.00     0.074 A 
ATOM     55  C   UNL A   1      44.257  29.945  27.452  1.00  0.00     0.031 C 
ATOM     56  C   UNL A   1      38.859  28.858  31.213  1.00  0.00     0.029 A 
ATOM     57  C   UNL A   1      39.504  30.159  31.303  1.00  0.00     0.049 A 
ATOM     58  H   UNL A   1      41.531  30.554  30.949  1.00  0.00     0.167 HD
ATOM     59  C   UNL A   1      45.376  31.561  29.073  1.00  0.00     0.034 A 
ATOM     60  C   UNL A   1      38.983  31.373  31.629  1.00  0.00     0.034 A 
ATOM     61  C   UNL A   1      45.690  31.572  30.482  1.00  0.00     0.049 A 
ATOM     62  C   UNL A   1      40.127  32.259  31.964  1.00  0.00     0.074 A 
ATOM     63  C   UNL A   1      46.368  30.698  31.314  1.00  0.00     0.029 A 
ATOM     64  N   UNL A   1      44.943  32.367  31.322  1.00  0.00    -0.354 N 
ATOM     65  N   UNL A   1      40.905  32.066  32.994  1.00  0.00    -0.248 NA
ATOM     66  C   UNL A   1      40.711  33.058  30.894  1.00  0.00     0.031 C 
ATOM     67  C   UNL A   1      45.599  30.664  32.514  1.00  0.00     0.029 A 
ATOM     68  C   UNL A   1      44.552  31.579  32.382  1.00  0.00     0.049 A 
ATOM     69  H   UNL A   1      44.728  33.319  31.190  1.00  0.00     0.167 HD
ATOM     70  C   UNL A   1      42.187  32.324  32.534  1.00  0.00     0.074 A 
ATOM     71  C   UNL A   1      41.996  33.021  31.262  1.00  0.00     0.031 C 
ATOM     72  C   UNL A   1      43.281  31.707  33.073  1.00  0.00     0.034 A 
BRANCH  59  73
ATOM     73  C   UNL A   1      45.504  32.775  28.187  1.00  0.00     0.023 A 
ATOM     74  C   UNL A   1      44.539  33.790  28.313  1.00  0.00     0.031 A 
ATOM     75  C   UNL A   1      46.347  32.865  27.053  1.00  0.00     0.131 A 
ATOM     76  C   UNL A   1      44.400  34.779  27.323  1.00  0.00     0.055 A 
ATOM     77  C   UNL A   1      46.253  33.889  26.110  1.00  0.00     0.041 A 
ATOM     78  F   UNL A   1      47.242  31.919  26.738  1.00  0.00    -0.206 F 
ATOM     79  C   UNL A   1      45.256  34.840  26.226  1.00  0.00     0.022 A 
BRANCH  76  80
ATOM     80  S   UNL A   1      42.969  35.887  27.401  1.00  0.00     0.124 S 
ATOM     81  O   UNL A   1      42.205  35.306  28.499  1.00  0.00    -0.237 OA
ATOM     82  O   UNL A   1      43.600  37.175  27.664  1.00  0.00    -0.237 OA
ATOM     83  O   UNL A   1      42.362  35.748  26.079  1.00  0.00    -0.744 OA
ENDBRANCH  76  80
ENDBRANCH  59  73
BRANCH  60  84
ATOM     84  C   UNL A   1      37.614  31.871  31.308  1.00  0.00     0.023 A 
ATOM     85  C   UNL A   1      37.120  31.979  29.989  1.00  0.00     0.031 A 
ATOM     86  C   UNL A   1      36.668  32.036  32.348  1.00  0.00     0.131 A 
ATOM     87  C   UNL A   1      35.747  32.246  29.759  1.00  0.00     0.055 A 
ATOM     88  C   UNL A   1      35.319  32.307  32.116  1.00  0.00     0.041 A 
ATOM     89  F   UNL A   1      37.008  31.852  33.634  1.00  0.00    -0.206 F 
ATOM     90  C   UNL A   1      34.850  32.405  30.818  1.00  0.00     0.022 A 
BRANCH  87  91
ATOM     91  S   UNL A   1      35.082  32.304  28.062  1.00  0.00     0.124 S 
ATOM     92  O   UNL A   1      35.752  33.472  27.505  1.00  0.00    -0.237 OA
ATOM     93  O   UNL A   1      35.480  31.008  27.524  1.00  0.00    -0.237 OA
ATOM     94  O   UNL A   1      33.640  32.462  28.265  1.00  0.00    -0.744 OA
ENDBRANCH  87  91
ENDBRANCH  60  84
BRANCH  72  95
ATOM     95  C   UNL A   1      43.115  30.919  34.363  1.00  0.00     0.023 A 
ATOM     96  C   UNL A   1      42.601  29.604  34.451  1.00  0.00     0.031 A 
ATOM     97  C   UNL A   1      43.626  31.493  35.543  1.00  0.00     0.131 A 
ATOM     98  C   UNL A   1      42.602  28.923  35.687  1.00  0.00     0.055 A 
ATOM     99  C   UNL A   1      43.649  30.806  36.756  1.00  0.00     0.041 A 
ATOM    100  F   UNL A   1      44.150  32.730  35.527  1.00  0.00    -0.206 F 
ATOM    101  C   UNL A   1      43.131  29.520  36.834  1.00  0.00     0.022 A 
BRANCH  98 102
ATOM    102  S   UNL A   1      41.893  27.249  35.833  1.00  0.00     0.124 S 
ATOM    103  O   UNL A   1      41.249  27.036  34.541  1.00  0.00    -0.237 OA
ATOM    104  O   UNL A   1      43.069  26.428  36.105  1.00  0.00    -0.237 OA
ATOM    105  O   UNL A   1      40.965  27.370  36.960  1.00  0.00    -0.744 OA
ENDBRANCH  98 102
ENDBRANCH  72  95
ENDBRANCH  46  47
ENDBRANCH  39  41
ENDBRANCH  38  39
ENDBRANCH  37  38
ENDBRANCH   1  37
TORSDOF 20
ENDMDL
