MODEL 1
REMARK VINA RESULT:     -12.4      0.000      0.000
REMARK SMILES O=C(OCCOC(=O)[C@H]1CC=CC[C@H]1c1nc2cc(Br)ccc2o1)c1ccc(-c2c3nc(c(-c4cc(S(=O)(=O)[O-])ccc4F)c4ccc([nH]4)c(-c4cc(S(=O)(=O)[O-])ccc4F)c4nc(c(-c5cc(S(=O)(=O)[O-])ccc5F)c5ccc2[nH]5)C=C4)C=C3)cc1
REMARK SMILES IDX 4 1 3 2 2 3 1 4 25 5 26 6 87 7 27 8 86 9 28 10 29 11 30 12
REMARK SMILES IDX 80 13 31 14 85 15 79 16 81 17 32 18 84 19 78 20 77 21 33 23
REMARK SMILES IDX 65 24 45 25 64 26 46 27 49 28 63 29 82 30 47 31 48 32 62 34
REMARK SMILES IDX 83 35 50 36 34 37 35 38 43 39 36 40 42 41 44 42 41 43 37 44
REMARK SMILES IDX 38 45 39 46 40 47 66 48 67 49 75 50 68 51 74 52 76 53 73 54
REMARK SMILES IDX 69 55 70 56 71 57 72 58 51 59 52 60 60 61 53 62 59 63 61 64
REMARK SMILES IDX 58 65 54 66 55 67 56 68 57 69 5 70 6 71 7 72 8 73 9 74 10 75
REMARK SMILES IDX 14 76 11 77 13 78 12 79 15 80 16 81 24 82 17 83 23 84 18 85
REMARK SMILES IDX 22 86 19 87 21 88 20 89
REMARK H PARENT 81 22 49 33
REMARK Flexibility Score: inf
ROOT
ATOM      1  C   UNL A   1      33.463  30.872  27.184  1.00  0.00     0.275 C 
ENDROOT
BRANCH   1   2
ATOM      2  O   UNL A   1      34.177  31.399  28.326  1.00  0.00    -0.458 OA
BRANCH   2   3
ATOM      3  C   UNL A   1      35.467  31.838  28.371  1.00  0.00     0.338 C 
ATOM      4  O   UNL A   1      35.900  32.661  27.595  1.00  0.00    -0.246 OA
BRANCH   3   5
ATOM      5  C   UNL A   1      36.367  31.080  29.262  1.00  0.00     0.060 A 
ATOM      6  C   UNL A   1      37.502  31.768  29.640  1.00  0.00     0.016 A 
ATOM      7  C   UNL A   1      36.286  29.693  29.408  1.00  0.00     0.016 A 
ATOM      8  C   UNL A   1      38.666  31.034  29.776  1.00  0.00     0.010 A 
ATOM      9  C   UNL A   1      37.463  28.959  29.573  1.00  0.00     0.010 A 
ATOM     10  C   UNL A   1      38.679  29.635  29.600  1.00  0.00    -0.014 A 
BRANCH  10  11
ATOM     11  C   UNL A   1      40.010  28.987  29.615  1.00  0.00     0.031 A 
ATOM     12  C   UNL A   1      40.496  28.829  31.015  1.00  0.00     0.074 A 
ATOM     13  C   UNL A   1      40.746  28.575  28.554  1.00  0.00     0.049 A 
ATOM     14  N   UNL A   1      41.577  29.305  31.549  1.00  0.00    -0.248 NA
ATOM     15  C   UNL A   1      39.507  28.319  31.989  1.00  0.00     0.031 C 
ATOM     16  C   UNL A   1      40.369  28.582  27.140  1.00  0.00     0.029 A 
ATOM     17  N   UNL A   1      41.977  27.956  28.519  1.00  0.00    -0.354 N 
ATOM     18  C   UNL A   1      41.478  28.962  32.891  1.00  0.00     0.074 A 
ATOM     19  C   UNL A   1      40.101  28.627  33.136  1.00  0.00     0.031 C 
ATOM     20  C   UNL A   1      41.201  27.792  26.435  1.00  0.00     0.029 A 
ATOM     21  C   UNL A   1      42.207  27.263  27.328  1.00  0.00     0.049 A 
ATOM     22  H   UNL A   1      42.626  27.997  29.257  1.00  0.00     0.167 HD
ATOM     23  C   UNL A   1      42.568  28.611  33.622  1.00  0.00     0.034 A 
ATOM     24  C   UNL A   1      43.056  26.230  27.093  1.00  0.00     0.034 A 
ATOM     25  C   UNL A   1      43.777  29.166  33.093  1.00  0.00     0.049 A 
ATOM     26  C   UNL A   1      44.077  26.207  28.152  1.00  0.00     0.074 A 
ATOM     27  C   UNL A   1      44.283  30.438  32.939  1.00  0.00     0.029 A 
ATOM     28  N   UNL A   1      44.536  28.337  32.311  1.00  0.00    -0.354 N 
ATOM     29  N   UNL A   1      45.064  27.048  28.235  1.00  0.00    -0.248 NA
ATOM     30  C   UNL A   1      43.792  25.451  29.362  1.00  0.00     0.031 C 
ATOM     31  C   UNL A   1      45.139  30.378  31.807  1.00  0.00     0.029 A 
ATOM     32  C   UNL A   1      45.149  29.066  31.330  1.00  0.00     0.049 A 
ATOM     33  H   UNL A   1      44.625  27.364  32.434  1.00  0.00     0.167 HD
ATOM     34  C   UNL A   1      45.181  27.287  29.591  1.00  0.00     0.074 A 
ATOM     35  C   UNL A   1      44.502  26.166  30.234  1.00  0.00     0.031 C 
ATOM     36  C   UNL A   1      45.546  28.519  30.047  1.00  0.00     0.034 A 
BRANCH  23  37
ATOM     37  C   UNL A   1      42.520  27.399  34.523  1.00  0.00     0.023 A 
ATOM     38  C   UNL A   1      43.249  26.226  34.236  1.00  0.00     0.031 A 
ATOM     39  C   UNL A   1      41.923  27.446  35.791  1.00  0.00     0.131 A 
ATOM     40  C   UNL A   1      43.293  25.135  35.100  1.00  0.00     0.055 A 
ATOM     41  C   UNL A   1      42.043  26.390  36.707  1.00  0.00     0.041 A 
ATOM     42  F   UNL A   1      41.255  28.538  36.195  1.00  0.00    -0.206 F 
ATOM     43  C   UNL A   1      42.716  25.218  36.358  1.00  0.00     0.022 A 
BRANCH  40  44
ATOM     44  S   UNL A   1      44.090  23.596  34.562  1.00  0.00     0.124 S 
ATOM     45  O   UNL A   1      44.490  23.004  35.832  1.00  0.00    -0.237 OA
ATOM     46  O   UNL A   1      42.996  22.928  33.862  1.00  0.00    -0.237 OA
ATOM     47  O   UNL A   1      45.178  24.055  33.703  1.00  0.00    -0.744 OA
ENDBRANCH  40  44
ENDBRANCH  23  37
BRANCH  24  48
ATOM     48  C   UNL A   1      42.774  25.024  26.269  1.00  0.00     0.023 A 
ATOM     49  C   UNL A   1      41.779  24.116  26.673  1.00  0.00     0.031 A 
ATOM     50  C   UNL A   1      43.673  24.584  25.280  1.00  0.00     0.131 A 
ATOM     51  C   UNL A   1      41.741  22.813  26.164  1.00  0.00     0.055 A 
ATOM     52  C   UNL A   1      43.626  23.284  24.757  1.00  0.00     0.041 A 
ATOM     53  F   UNL A   1      44.668  25.380  24.857  1.00  0.00    -0.206 F 
ATOM     54  C   UNL A   1      42.666  22.385  25.213  1.00  0.00     0.022 A 
BRANCH  51  55
ATOM     55  S   UNL A   1      40.540  21.624  26.822  1.00  0.00     0.124 S 
ATOM     56  O   UNL A   1      40.756  21.726  28.262  1.00  0.00    -0.237 OA
ATOM     57  O   UNL A   1      39.282  22.173  26.331  1.00  0.00    -0.237 OA
ATOM     58  O   UNL A   1      40.954  20.355  26.226  1.00  0.00    -0.744 OA
ENDBRANCH  51  55
ENDBRANCH  24  48
BRANCH  36  59
ATOM     59  C   UNL A   1      46.224  29.468  29.085  1.00  0.00     0.023 A 
ATOM     60  C   UNL A   1      45.410  30.456  28.505  1.00  0.00     0.031 A 
ATOM     61  C   UNL A   1      47.539  29.338  28.602  1.00  0.00     0.131 A 
ATOM     62  C   UNL A   1      45.889  31.244  27.454  1.00  0.00     0.055 A 
ATOM     63  C   UNL A   1      48.041  30.183  27.605  1.00  0.00     0.041 A 
ATOM     64  F   UNL A   1      48.348  28.352  29.016  1.00  0.00    -0.206 F 
ATOM     65  C   UNL A   1      47.209  31.130  27.013  1.00  0.00     0.022 A 
BRANCH  62  66
ATOM     66  S   UNL A   1      44.754  32.315  26.534  1.00  0.00     0.124 S 
ATOM     67  O   UNL A   1      43.812  31.354  25.969  1.00  0.00    -0.237 OA
ATOM     68  O   UNL A   1      44.219  33.175  27.589  1.00  0.00    -0.237 OA
ATOM     69  O   UNL A   1      45.613  32.992  25.568  1.00  0.00    -0.744 OA
ENDBRANCH  62  66
ENDBRANCH  36  59
ENDBRANCH  10  11
ENDBRANCH   3   5
ENDBRANCH   2   3
ENDBRANCH   1   2
BRANCH   1  70
ATOM     70  C   UNL A   1      33.201  29.349  27.065  1.00  0.00     0.274 C 
BRANCH  70  71
ATOM     71  O   UNL A   1      33.596  28.603  25.896  1.00  0.00    -0.462 OA
BRANCH  71  72
ATOM     72  C   UNL A   1      33.074  27.373  25.811  1.00  0.00     0.310 C 
ATOM     73  O   UNL A   1      32.375  26.924  26.717  1.00  0.00    -0.252 OA
BRANCH  72  74
ATOM     74  C   UNL A   1      33.412  26.541  24.553  1.00  0.00     0.115 C 
ATOM     75  C   UNL A   1      34.270  25.268  24.565  1.00  0.00     0.043 C 
ATOM     76  C   UNL A   1      32.138  26.222  23.736  1.00  0.00     0.094 C 
ATOM     77  C   UNL A   1      33.537  23.992  24.837  1.00  0.00    -0.030 C 
ATOM     78  C   UNL A   1      31.337  25.073  24.381  1.00  0.00     0.041 C 
ATOM     79  C   UNL A   1      32.203  23.905  24.762  1.00  0.00    -0.030 C 
BRANCH  76  80
ATOM     80  C   UNL A   1      31.332  27.455  23.527  1.00  0.00     0.199 A 
ATOM     81  N   UNL A   1      31.602  28.511  22.784  1.00  0.00    -0.213 NA
ATOM     82  O   UNL A   1      30.027  27.363  23.947  1.00  0.00    -0.440 OA
ATOM     83  C   UNL A   1      30.365  29.054  22.554  1.00  0.00     0.111 A 
ATOM     84  C   UNL A   1      29.396  28.340  23.242  1.00  0.00     0.154 A 
ATOM     85  C   UNL A   1      29.973  30.115  21.733  1.00  0.00     0.048 A 
ATOM     86  C   UNL A   1      28.028  28.554  23.148  1.00  0.00     0.050 A 
ATOM     87  C   UNL A   1      28.601  30.373  21.628  1.00  0.00     0.020 A 
ATOM     88  C   UNL A   1      27.645  29.603  22.306  1.00  0.00     0.019 A 
ATOM     89  Br  UNL A   1      28.022  31.797  20.520  1.00  0.00    -0.051 Br
ENDBRANCH  76  80
ENDBRANCH  72  74
ENDBRANCH  71  72
ENDBRANCH  70  71
ENDBRANCH   1  70
TORSDOF 15
ENDMDL
MODEL 2
REMARK VINA RESULT:     -12.4      1.634      2.899
REMARK SMILES O=C(OCCOC(=O)[C@H]1CC=CC[C@H]1c1nc2cc(Br)ccc2o1)c1ccc(-c2c3nc(c(-c4cc(S(=O)(=O)[O-])ccc4F)c4ccc([nH]4)c(-c4cc(S(=O)(=O)[O-])ccc4F)c4nc(c(-c5cc(S(=O)(=O)[O-])ccc5F)c5ccc2[nH]5)C=C4)C=C3)cc1
REMARK SMILES IDX 4 1 3 2 2 3 1 4 25 5 26 6 87 7 27 8 86 9 28 10 29 11 30 12
REMARK SMILES IDX 80 13 31 14 85 15 79 16 81 17 32 18 84 19 78 20 77 21 33 23
REMARK SMILES IDX 65 24 45 25 64 26 46 27 49 28 63 29 82 30 47 31 48 32 62 34
REMARK SMILES IDX 83 35 50 36 34 37 35 38 43 39 36 40 42 41 44 42 41 43 37 44
REMARK SMILES IDX 38 45 39 46 40 47 66 48 67 49 75 50 68 51 74 52 76 53 73 54
REMARK SMILES IDX 69 55 70 56 71 57 72 58 51 59 52 60 60 61 53 62 59 63 61 64
REMARK SMILES IDX 58 65 54 66 55 67 56 68 57 69 5 70 6 71 7 72 8 73 9 74 10 75
REMARK SMILES IDX 14 76 11 77 13 78 12 79 15 80 16 81 24 82 17 83 23 84 18 85
REMARK SMILES IDX 22 86 19 87 21 88 20 89
REMARK H PARENT 81 22 49 33
REMARK Flexibility Score: inf
ROOT
ATOM      1  C   UNL A   1      33.420  30.553  27.205  1.00  0.00     0.275 C 
ENDROOT
BRANCH   1   2
ATOM      2  O   UNL A   1      34.774  31.060  27.154  1.00  0.00    -0.458 OA
BRANCH   2   3
ATOM      3  C   UNL A   1      35.410  31.831  28.082  1.00  0.00     0.338 C 
ATOM      4  O   UNL A   1      35.391  33.042  28.045  1.00  0.00    -0.246 OA
BRANCH   3   5
ATOM      5  C   UNL A   1      36.319  31.109  28.993  1.00  0.00     0.060 A 
ATOM      6  C   UNL A   1      37.412  31.845  29.404  1.00  0.00     0.016 A 
ATOM      7  C   UNL A   1      36.297  29.719  29.131  1.00  0.00     0.016 A 
ATOM      8  C   UNL A   1      38.604  31.163  29.567  1.00  0.00     0.010 A 
ATOM      9  C   UNL A   1      37.501  29.038  29.324  1.00  0.00     0.010 A 
ATOM     10  C   UNL A   1      38.685  29.767  29.386  1.00  0.00    -0.014 A 
BRANCH  10  11
ATOM     11  C   UNL A   1      40.042  29.180  29.433  1.00  0.00     0.031 A 
ATOM     12  C   UNL A   1      40.503  29.047  30.844  1.00  0.00     0.074 A 
ATOM     13  C   UNL A   1      40.820  28.798  28.390  1.00  0.00     0.049 A 
ATOM     14  N   UNL A   1      41.550  29.572  31.400  1.00  0.00    -0.248 NA
ATOM     15  C   UNL A   1      39.516  28.496  31.797  1.00  0.00     0.031 C 
ATOM     16  C   UNL A   1      40.474  28.784  26.968  1.00  0.00     0.029 A 
ATOM     17  N   UNL A   1      42.077  28.234  28.385  1.00  0.00    -0.354 N 
ATOM     18  C   UNL A   1      41.436  29.229  32.741  1.00  0.00     0.074 A 
ATOM     19  C   UNL A   1      40.070  28.833  32.957  1.00  0.00     0.031 C 
ATOM     20  C   UNL A   1      41.357  28.030  26.285  1.00  0.00     0.029 A 
ATOM     21  C   UNL A   1      42.365  27.549  27.202  1.00  0.00     0.049 A 
ATOM     22  H   UNL A   1      42.708  28.306  29.137  1.00  0.00     0.167 HD
ATOM     23  C   UNL A   1      42.524  28.929  33.497  1.00  0.00     0.034 A 
ATOM     24  C   UNL A   1      43.264  26.554  26.990  1.00  0.00     0.034 A 
ATOM     25  C   UNL A   1      43.719  29.536  32.993  1.00  0.00     0.049 A 
ATOM     26  C   UNL A   1      44.261  26.579  28.072  1.00  0.00     0.074 A 
ATOM     27  C   UNL A   1      44.170  30.829  32.846  1.00  0.00     0.029 A 
ATOM     28  N   UNL A   1      44.531  28.740  32.231  1.00  0.00    -0.354 N 
ATOM     29  N   UNL A   1      45.208  27.464  28.173  1.00  0.00    -0.248 NA
ATOM     30  C   UNL A   1      43.983  25.815  29.278  1.00  0.00     0.031 C 
ATOM     31  C   UNL A   1      45.053  30.804  31.733  1.00  0.00     0.029 A 
ATOM     32  C   UNL A   1      45.133  29.493  31.261  1.00  0.00     0.049 A 
ATOM     33  H   UNL A   1      44.660  27.772  32.361  1.00  0.00     0.167 HD
ATOM     34  C   UNL A   1      45.283  27.712  29.531  1.00  0.00     0.074 A 
ATOM     35  C   UNL A   1      44.641  26.564  30.163  1.00  0.00     0.031 C 
ATOM     36  C   UNL A   1      45.583  28.960  29.990  1.00  0.00     0.034 A 
BRANCH  23  37
ATOM     37  C   UNL A   1      42.509  27.719  34.402  1.00  0.00     0.023 A 
ATOM     38  C   UNL A   1      43.256  26.559  34.107  1.00  0.00     0.031 A 
ATOM     39  C   UNL A   1      41.929  27.759  35.677  1.00  0.00     0.131 A 
ATOM     40  C   UNL A   1      43.330  25.470  34.973  1.00  0.00     0.055 A 
ATOM     41  C   UNL A   1      42.081  26.707  36.594  1.00  0.00     0.041 A 
ATOM     42  F   UNL A   1      41.248  28.839  36.088  1.00  0.00    -0.206 F 
ATOM     43  C   UNL A   1      42.769  25.546  36.239  1.00  0.00     0.022 A 
BRANCH  40  44
ATOM     44  S   UNL A   1      44.147  23.944  34.428  1.00  0.00     0.124 S 
ATOM     45  O   UNL A   1      43.341  22.921  35.079  1.00  0.00    -0.237 OA
ATOM     46  O   UNL A   1      44.010  24.040  32.978  1.00  0.00    -0.237 OA
ATOM     47  O   UNL A   1      45.514  24.089  34.925  1.00  0.00    -0.744 OA
ENDBRANCH  40  44
ENDBRANCH  23  37
BRANCH  24  48
ATOM     48  C   UNL A   1      43.055  25.334  26.164  1.00  0.00     0.023 A 
ATOM     49  C   UNL A   1      42.098  24.379  26.554  1.00  0.00     0.031 A 
ATOM     50  C   UNL A   1      43.990  24.936  25.191  1.00  0.00     0.131 A 
ATOM     51  C   UNL A   1      42.132  23.076  26.048  1.00  0.00     0.055 A 
ATOM     52  C   UNL A   1      44.015  23.635  24.671  1.00  0.00     0.041 A 
ATOM     53  F   UNL A   1      44.952  25.779  24.783  1.00  0.00    -0.206 F 
ATOM     54  C   UNL A   1      43.093  22.691  25.113  1.00  0.00     0.022 A 
BRANCH  51  55
ATOM     55  S   UNL A   1      40.979  21.830  26.689  1.00  0.00     0.124 S 
ATOM     56  O   UNL A   1      41.162  21.949  28.133  1.00  0.00    -0.237 OA
ATOM     57  O   UNL A   1      39.705  22.314  26.172  1.00  0.00    -0.237 OA
ATOM     58  O   UNL A   1      41.467  20.582  26.107  1.00  0.00    -0.744 OA
ENDBRANCH  51  55
ENDBRANCH  24  48
BRANCH  36  59
ATOM     59  C   UNL A   1      46.239  29.936  29.040  1.00  0.00     0.023 A 
ATOM     60  C   UNL A   1      45.388  30.858  28.405  1.00  0.00     0.031 A 
ATOM     61  C   UNL A   1      47.580  29.885  28.616  1.00  0.00     0.131 A 
ATOM     62  C   UNL A   1      45.861  31.658  27.362  1.00  0.00     0.055 A 
ATOM     63  C   UNL A   1      48.069  30.745  27.626  1.00  0.00     0.041 A 
ATOM     64  F   UNL A   1      48.433  28.962  29.085  1.00  0.00    -0.206 F 
ATOM     65  C   UNL A   1      47.204  31.625  26.980  1.00  0.00     0.022 A 
BRANCH  62  66
ATOM     66  S   UNL A   1      44.701  32.636  26.372  1.00  0.00     0.124 S 
ATOM     67  O   UNL A   1      43.812  31.610  25.834  1.00  0.00    -0.237 OA
ATOM     68  O   UNL A   1      44.107  33.518  27.376  1.00  0.00    -0.237 OA
ATOM     69  O   UNL A   1      45.549  33.305  25.392  1.00  0.00    -0.744 OA
ENDBRANCH  62  66
ENDBRANCH  36  59
ENDBRANCH  10  11
ENDBRANCH   3   5
ENDBRANCH   2   3
ENDBRANCH   1   2
BRANCH   1  70
ATOM     70  C   UNL A   1      33.074  29.193  26.548  1.00  0.00     0.274 C 
BRANCH  70  71
ATOM     71  O   UNL A   1      33.603  28.821  25.259  1.00  0.00    -0.462 OA
BRANCH  71  72
ATOM     72  C   UNL A   1      32.764  29.010  24.232  1.00  0.00     0.310 C 
ATOM     73  O   UNL A   1      33.192  29.326  23.124  1.00  0.00    -0.252 OA
BRANCH  72  74
ATOM     74  C   UNL A   1      31.253  28.844  24.506  1.00  0.00     0.115 C 
ATOM     75  C   UNL A   1      30.236  29.993  24.457  1.00  0.00     0.043 C 
ATOM     76  C   UNL A   1      30.660  27.677  23.680  1.00  0.00     0.094 C 
ATOM     77  C   UNL A   1      29.648  30.285  23.112  1.00  0.00    -0.030 C 
ATOM     78  C   UNL A   1      30.432  28.095  22.214  1.00  0.00     0.041 C 
ATOM     79  C   UNL A   1      29.744  29.426  22.090  1.00  0.00    -0.030 C 
BRANCH  76  80
ATOM     80  C   UNL A   1      31.504  26.460  23.821  1.00  0.00     0.199 A 
ATOM     81  N   UNL A   1      32.204  25.821  22.904  1.00  0.00    -0.213 NA
ATOM     82  O   UNL A   1      31.803  26.118  25.118  1.00  0.00    -0.440 OA
ATOM     83  C   UNL A   1      33.142  25.147  23.643  1.00  0.00     0.111 A 
ATOM     84  C   UNL A   1      32.916  25.348  24.995  1.00  0.00     0.154 A 
ATOM     85  C   UNL A   1      34.247  24.392  23.242  1.00  0.00     0.048 A 
ATOM     86  C   UNL A   1      33.739  24.898  26.018  1.00  0.00     0.050 A 
ATOM     87  C   UNL A   1      35.092  23.905  24.248  1.00  0.00     0.020 A 
ATOM     88  C   UNL A   1      34.855  24.163  25.606  1.00  0.00     0.019 A 
ATOM     89  Br  UNL A   1      36.607  22.882  23.752  1.00  0.00    -0.051 Br
ENDBRANCH  76  80
ENDBRANCH  72  74
ENDBRANCH  71  72
ENDBRANCH  70  71
ENDBRANCH   1  70
TORSDOF 15
ENDMDL
MODEL 3
REMARK VINA RESULT:     -12.3      4.077      9.512
REMARK SMILES O=C(OCCOC(=O)[C@H]1CC=CC[C@H]1c1nc2cc(Br)ccc2o1)c1ccc(-c2c3nc(c(-c4cc(S(=O)(=O)[O-])ccc4F)c4ccc([nH]4)c(-c4cc(S(=O)(=O)[O-])ccc4F)c4nc(c(-c5cc(S(=O)(=O)[O-])ccc5F)c5ccc2[nH]5)C=C4)C=C3)cc1
REMARK SMILES IDX 4 1 3 2 2 3 1 4 25 5 26 6 87 7 27 8 86 9 28 10 29 11 30 12
REMARK SMILES IDX 80 13 31 14 85 15 79 16 81 17 32 18 84 19 78 20 77 21 33 23
REMARK SMILES IDX 65 24 45 25 64 26 46 27 49 28 63 29 82 30 47 31 48 32 62 34
REMARK SMILES IDX 83 35 50 36 34 37 35 38 43 39 36 40 42 41 44 42 41 43 37 44
REMARK SMILES IDX 38 45 39 46 40 47 66 48 67 49 75 50 68 51 74 52 76 53 73 54
REMARK SMILES IDX 69 55 70 56 71 57 72 58 51 59 52 60 60 61 53 62 59 63 61 64
REMARK SMILES IDX 58 65 54 66 55 67 56 68 57 69 5 70 6 71 7 72 8 73 9 74 10 75
REMARK SMILES IDX 14 76 11 77 13 78 12 79 15 80 16 81 24 82 17 83 23 84 18 85
REMARK SMILES IDX 22 86 19 87 21 88 20 89
REMARK H PARENT 81 22 49 33
REMARK Flexibility Score: inf
ROOT
ATOM      1  C   UNL A   1      37.619  22.537  25.660  1.00  0.00     0.275 C 
ENDROOT
BRANCH   1   2
ATOM      2  O   UNL A   1      38.513  23.460  26.327  1.00  0.00    -0.458 OA
BRANCH   2   3
ATOM      3  C   UNL A   1      39.823  23.263  26.650  1.00  0.00     0.338 C 
ATOM      4  O   UNL A   1      40.264  22.172  26.939  1.00  0.00    -0.246 OA
BRANCH   3   5
ATOM      5  C   UNL A   1      40.617  24.489  26.860  1.00  0.00     0.060 A 
ATOM      6  C   UNL A   1      41.272  24.539  28.074  1.00  0.00     0.016 A 
ATOM      7  C   UNL A   1      40.433  25.644  26.096  1.00  0.00     0.016 A 
ATOM      8  C   UNL A   1      41.372  25.776  28.684  1.00  0.00     0.010 A 
ATOM      9  C   UNL A   1      40.563  26.891  26.710  1.00  0.00     0.010 A 
ATOM     10  C   UNL A   1      40.886  26.945  28.063  1.00  0.00    -0.014 A 
BRANCH  10  11
ATOM     11  C   UNL A   1      40.908  28.177  28.883  1.00  0.00     0.031 A 
ATOM     12  C   UNL A   1      42.013  29.075  28.442  1.00  0.00     0.074 A 
ATOM     13  C   UNL A   1      40.084  28.511  29.906  1.00  0.00     0.049 A 
ATOM     14  N   UNL A   1      43.013  29.519  29.135  1.00  0.00    -0.248 NA
ATOM     15  C   UNL A   1      42.154  29.255  26.980  1.00  0.00     0.031 C 
ATOM     16  C   UNL A   1      38.912  27.781  30.391  1.00  0.00     0.029 A 
ATOM     17  N   UNL A   1      40.056  29.648  30.684  1.00  0.00    -0.354 N 
ATOM     18  C   UNL A   1      43.794  30.206  28.214  1.00  0.00     0.074 A 
ATOM     19  C   UNL A   1      43.375  29.775  26.907  1.00  0.00     0.031 C 
ATOM     20  C   UNL A   1      38.162  28.579  31.175  1.00  0.00     0.029 A 
ATOM     21  C   UNL A   1      38.819  29.860  31.298  1.00  0.00     0.049 A 
ATOM     22  H   UNL A   1      40.828  30.249  30.794  1.00  0.00     0.167 HD
ATOM     23  C   UNL A   1      44.458  31.343  28.547  1.00  0.00     0.034 A 
ATOM     24  C   UNL A   1      38.285  31.020  31.760  1.00  0.00     0.034 A 
ATOM     25  C   UNL A   1      44.743  31.413  29.949  1.00  0.00     0.049 A 
ATOM     26  C   UNL A   1      39.370  31.993  31.962  1.00  0.00     0.074 A 
ATOM     27  C   UNL A   1      45.525  30.693  30.825  1.00  0.00     0.029 A 
ATOM     28  N   UNL A   1      43.890  32.172  30.705  1.00  0.00    -0.354 N 
ATOM     29  N   UNL A   1      40.218  31.949  32.946  1.00  0.00    -0.248 NA
ATOM     30  C   UNL A   1      39.753  32.836  30.840  1.00  0.00     0.031 C 
ATOM     31  C   UNL A   1      44.889  30.805  32.090  1.00  0.00     0.029 A 
ATOM     32  C   UNL A   1      43.761  31.615  31.948  1.00  0.00     0.049 A 
ATOM     33  H   UNL A   1      43.437  32.991  30.401  1.00  0.00     0.167 HD
ATOM     34  C   UNL A   1      41.415  32.328  32.367  1.00  0.00     0.074 A 
ATOM     35  C   UNL A   1      41.040  33.017  31.136  1.00  0.00     0.031 C 
ATOM     36  C   UNL A   1      42.590  31.780  32.787  1.00  0.00     0.034 A 
BRANCH  23  37
ATOM     37  C   UNL A   1      44.410  32.546  27.634  1.00  0.00     0.023 A 
ATOM     38  C   UNL A   1      43.705  33.718  27.982  1.00  0.00     0.031 A 
ATOM     39  C   UNL A   1      45.228  32.645  26.500  1.00  0.00     0.131 A 
ATOM     40  C   UNL A   1      43.726  34.870  27.199  1.00  0.00     0.055 A 
ATOM     41  C   UNL A   1      45.330  33.833  25.760  1.00  0.00     0.041 A 
ATOM     42  F   UNL A   1      45.990  31.611  26.112  1.00  0.00    -0.206 F 
ATOM     43  C   UNL A   1      44.563  34.949  26.097  1.00  0.00     0.022 A 
BRANCH  40  44
ATOM     44  S   UNL A   1      42.635  36.258  27.617  1.00  0.00     0.124 S 
ATOM     45  O   UNL A   1      42.529  36.954  26.341  1.00  0.00    -0.237 OA
ATOM     46  O   UNL A   1      41.433  35.562  28.067  1.00  0.00    -0.237 OA
ATOM     47  O   UNL A   1      43.364  36.964  28.668  1.00  0.00    -0.744 OA
ENDBRANCH  40  44
ENDBRANCH  23  37
BRANCH  24  48
ATOM     48  C   UNL A   1      36.872  31.462  31.615  1.00  0.00     0.023 A 
ATOM     49  C   UNL A   1      36.316  31.623  30.333  1.00  0.00     0.031 A 
ATOM     50  C   UNL A   1      36.167  32.034  32.690  1.00  0.00     0.131 A 
ATOM     51  C   UNL A   1      35.157  32.383  30.139  1.00  0.00     0.055 A 
ATOM     52  C   UNL A   1      34.997  32.781  32.499  1.00  0.00     0.041 A 
ATOM     53  F   UNL A   1      36.643  31.947  33.942  1.00  0.00    -0.206 F 
ATOM     54  C   UNL A   1      34.496  32.974  31.215  1.00  0.00     0.022 A 
BRANCH  51  55
ATOM     55  S   UNL A   1      34.557  32.697  28.456  1.00  0.00     0.124 S 
ATOM     56  O   UNL A   1      35.781  33.070  27.753  1.00  0.00    -0.237 OA
ATOM     57  O   UNL A   1      33.992  31.401  28.098  1.00  0.00    -0.237 OA
ATOM     58  O   UNL A   1      33.595  33.782  28.634  1.00  0.00    -0.744 OA
ENDBRANCH  51  55
ENDBRANCH  24  48
BRANCH  36  59
ATOM     59  C   UNL A   1      42.624  31.103  34.138  1.00  0.00     0.023 A 
ATOM     60  C   UNL A   1      42.444  29.708  34.143  1.00  0.00     0.031 A 
ATOM     61  C   UNL A   1      42.648  31.763  35.381  1.00  0.00     0.131 A 
ATOM     62  C   UNL A   1      42.252  29.021  35.345  1.00  0.00     0.055 A 
ATOM     63  C   UNL A   1      42.536  31.060  36.586  1.00  0.00     0.041 A 
ATOM     64  F   UNL A   1      42.702  33.100  35.468  1.00  0.00    -0.206 F 
ATOM     65  C   UNL A   1      42.319  29.685  36.572  1.00  0.00     0.022 A 
BRANCH  62  66
ATOM     66  S   UNL A   1      41.748  27.282  35.323  1.00  0.00     0.124 S 
ATOM     67  O   UNL A   1      40.795  27.249  34.218  1.00  0.00    -0.237 OA
ATOM     68  O   UNL A   1      43.017  26.596  35.080  1.00  0.00    -0.237 OA
ATOM     69  O   UNL A   1      41.178  27.063  36.649  1.00  0.00    -0.744 OA
ENDBRANCH  62  66
ENDBRANCH  36  59
ENDBRANCH  10  11
ENDBRANCH   3   5
ENDBRANCH   2   3
ENDBRANCH   1   2
BRANCH   1  70
ATOM     70  C   UNL A   1      36.180  22.326  26.195  1.00  0.00     0.274 C 
BRANCH  70  71
ATOM     71  O   UNL A   1      35.197  23.381  26.155  1.00  0.00    -0.462 OA
BRANCH  71  72
ATOM     72  C   UNL A   1      33.969  23.021  26.552  1.00  0.00     0.310 C 
ATOM     73  O   UNL A   1      33.785  22.554  27.674  1.00  0.00    -0.252 OA
BRANCH  72  74
ATOM     74  C   UNL A   1      32.816  23.189  25.538  1.00  0.00     0.115 C 
ATOM     75  C   UNL A   1      32.401  24.530  24.916  1.00  0.00     0.043 C 
ATOM     76  C   UNL A   1      32.937  22.170  24.380  1.00  0.00     0.094 C 
ATOM     77  C   UNL A   1      33.139  24.928  23.676  1.00  0.00    -0.030 C 
ATOM     78  C   UNL A   1      34.005  22.611  23.361  1.00  0.00     0.041 C 
ATOM     79  C   UNL A   1      33.875  24.059  22.974  1.00  0.00    -0.030 C 
BRANCH  76  80
ATOM     80  C   UNL A   1      33.165  20.800  24.915  1.00  0.00     0.199 A 
ATOM     81  N   UNL A   1      32.316  19.987  25.513  1.00  0.00    -0.213 NA
ATOM     82  O   UNL A   1      34.331  20.209  24.493  1.00  0.00    -0.440 OA
ATOM     83  C   UNL A   1      32.878  18.752  25.318  1.00  0.00     0.111 A 
ATOM     84  C   UNL A   1      34.096  18.881  24.672  1.00  0.00     0.154 A 
ATOM     85  C   UNL A   1      32.393  17.474  25.608  1.00  0.00     0.048 A 
ATOM     86  C   UNL A   1      34.881  17.826  24.227  1.00  0.00     0.050 A 
ATOM     87  C   UNL A   1      33.166  16.383  25.191  1.00  0.00     0.020 A 
ATOM     88  C   UNL A   1      34.376  16.551  24.501  1.00  0.00     0.019 A 
ATOM     89  Br  UNL A   1      32.546  14.632  25.555  1.00  0.00    -0.051 Br
ENDBRANCH  76  80
ENDBRANCH  72  74
ENDBRANCH  71  72
ENDBRANCH  70  71
ENDBRANCH   1  70
TORSDOF 15
ENDMDL
