MODEL 1
REMARK VINA RESULT:     -12.6      0.000      0.000
REMARK SMILES COc1cc(-c2ccc(F)c(C(F)(F)F)c2)ccc1C(=O)OCCOC(=O)c1ccc(-c2c3nc(c(-c4cc(S(=O)(=O)[O-])ccc4F)c4ccc([nH]4)c(-c4cc(S(=O)(=O)[O-])ccc4F)c4nc(c(-c5cc(S(=O)(=O)[O-])ccc5F)c5ccc2[nH]5)C=C4)C=C3)cc1
REMARK SMILES IDX 24 1 23 2 22 3 20 4 21 5 19 6 3 7 4 8 5 9 18 10 17 11 2 12
REMARK SMILES IDX 1 13 6 14 7 15 16 16 8 17 11 18 9 19 10 20 12 21 13 22 14 23
REMARK SMILES IDX 15 24 25 25 26 26 27 27 28 28 29 29 90 30 30 31 89 32 31 33
REMARK SMILES IDX 32 34 33 35 83 36 34 37 88 38 82 39 84 40 35 41 87 42 81 43
REMARK SMILES IDX 80 44 36 46 68 47 48 48 67 49 49 50 52 51 66 52 85 53 50 54
REMARK SMILES IDX 51 55 65 57 86 58 53 59 37 60 38 61 46 62 39 63 45 64 47 65
REMARK SMILES IDX 44 66 40 67 41 68 42 69 43 70 69 71 70 72 78 73 71 74 77 75
REMARK SMILES IDX 79 76 76 77 72 78 73 79 74 80 75 81 54 82 55 83 63 84 56 85
REMARK SMILES IDX 62 86 64 87 61 88 57 89 58 90 59 91 60 92
REMARK H PARENT 84 45 52 56
REMARK Flexibility Score: inf
ROOT
ATOM      1  C   UNL A   1      36.651  20.245  24.858  1.00  0.00     0.275 C 
ENDROOT
BRANCH   1   2
ATOM      2  C   UNL A   1      35.165  20.560  24.994  1.00  0.00     0.275 C 
BRANCH   2   3
ATOM      3  O   UNL A   1      34.964  21.949  25.325  1.00  0.00    -0.458 OA
BRANCH   3   4
ATOM      4  C   UNL A   1      34.239  22.209  26.439  1.00  0.00     0.342 C 
ATOM      5  O   UNL A   1      34.107  21.477  27.409  1.00  0.00    -0.246 OA
BRANCH   4   6
ATOM      6  C   UNL A   1      33.657  23.569  26.385  1.00  0.00     0.102 A 
ATOM      7  C   UNL A   1      32.362  23.884  26.808  1.00  0.00     0.134 A 
ATOM      8  C   UNL A   1      31.858  25.177  26.600  1.00  0.00     0.056 A 
ATOM      9  C   UNL A   1      32.646  26.179  26.007  1.00  0.00    -0.015 A 
ATOM     10  C   UNL A   1      34.472  24.587  25.866  1.00  0.00     0.020 A 
ATOM     11  C   UNL A   1      33.966  25.870  25.659  1.00  0.00     0.010 A 
BRANCH   7  12
ATOM     12  O   UNL A   1      31.499  22.999  27.402  1.00  0.00    -0.496 OA
ATOM     13  C   UNL A   1      30.293  22.828  26.655  1.00  0.00     0.278 C 
ENDBRANCH   7  12
BRANCH   9  14
ATOM     14  C   UNL A   1      32.118  27.525  25.758  1.00  0.00    -0.017 A 
ATOM     15  C   UNL A   1      32.451  28.596  26.600  1.00  0.00     0.012 A 
ATOM     16  C   UNL A   1      31.293  27.775  24.646  1.00  0.00     0.025 A 
ATOM     17  C   UNL A   1      31.970  29.880  26.341  1.00  0.00     0.040 A 
ATOM     18  C   UNL A   1      30.803  29.064  24.377  1.00  0.00     0.092 A 
ATOM     19  C   UNL A   1      31.150  30.101  25.238  1.00  0.00     0.135 A 
ATOM     20  F   UNL A   1      30.690  31.340  25.019  1.00  0.00    -0.206 F 
BRANCH  18  21
ATOM     21  C   UNL A   1      29.904  29.349  23.211  1.00  0.00     0.419 C 
ATOM     22  F   UNL A   1      30.588  29.852  22.145  1.00  0.00    -0.166 F 
ATOM     23  F   UNL A   1      29.251  28.245  22.758  1.00  0.00    -0.166 F 
ATOM     24  F   UNL A   1      28.939  30.266  23.495  1.00  0.00    -0.166 F 
ENDBRANCH  18  21
ENDBRANCH   9  14
ENDBRANCH   4   6
ENDBRANCH   3   4
ENDBRANCH   2   3
ENDBRANCH   1   2
BRANCH   1  25
ATOM     25  O   UNL A   1      37.421  21.337  25.388  1.00  0.00    -0.458 OA
BRANCH  25  26
ATOM     26  C   UNL A   1      38.658  21.012  25.827  1.00  0.00     0.338 C 
ATOM     27  O   UNL A   1      39.245  19.955  25.689  1.00  0.00    -0.246 OA
BRANCH  26  28
ATOM     28  C   UNL A   1      39.258  22.189  26.467  1.00  0.00     0.060 A 
ATOM     29  C   UNL A   1      38.777  23.447  26.115  1.00  0.00     0.016 A 
ATOM     30  C   UNL A   1      40.365  22.064  27.299  1.00  0.00     0.016 A 
ATOM     31  C   UNL A   1      39.450  24.595  26.526  1.00  0.00     0.010 A 
ATOM     32  C   UNL A   1      40.991  23.220  27.781  1.00  0.00     0.010 A 
ATOM     33  C   UNL A   1      40.565  24.499  27.370  1.00  0.00    -0.014 A 
BRANCH  33  34
ATOM     34  C   UNL A   1      41.329  25.718  27.768  1.00  0.00     0.031 A 
ATOM     35  C   UNL A   1      40.654  26.782  28.598  1.00  0.00     0.074 A 
ATOM     36  C   UNL A   1      42.616  25.881  27.402  1.00  0.00     0.049 A 
ATOM     37  N   UNL A   1      41.040  28.004  28.860  1.00  0.00    -0.248 NA
ATOM     38  C   UNL A   1      39.358  26.422  29.191  1.00  0.00     0.031 C 
ATOM     39  C   UNL A   1      43.415  24.908  26.656  1.00  0.00     0.029 A 
ATOM     40  N   UNL A   1      43.482  26.928  27.608  1.00  0.00    -0.354 N 
ATOM     41  C   UNL A   1      40.007  28.582  29.593  1.00  0.00     0.074 A 
ATOM     42  C   UNL A   1      38.974  27.575  29.721  1.00  0.00     0.031 C 
ATOM     43  C   UNL A   1      44.658  25.389  26.493  1.00  0.00     0.029 A 
ATOM     44  C   UNL A   1      44.718  26.744  27.030  1.00  0.00     0.049 A 
ATOM     45  H   UNL A   1      43.241  27.733  28.121  1.00  0.00     0.167 HD
ATOM     46  C   UNL A   1      39.929  29.838  30.105  1.00  0.00     0.034 A 
ATOM     47  C   UNL A   1      45.762  27.585  26.892  1.00  0.00     0.034 A 
ATOM     48  C   UNL A   1      40.993  30.809  30.006  1.00  0.00     0.049 A 
ATOM     49  C   UNL A   1      45.640  28.989  27.427  1.00  0.00     0.074 A 
ATOM     50  C   UNL A   1      41.029  32.103  30.498  1.00  0.00     0.029 A 
ATOM     51  N   UNL A   1      42.215  30.591  29.381  1.00  0.00    -0.354 N 
ATOM     52  N   UNL A   1      44.628  29.551  28.046  1.00  0.00    -0.248 NA
ATOM     53  C   UNL A   1      46.794  29.874  27.231  1.00  0.00     0.031 C 
ATOM     54  C   UNL A   1      42.246  32.685  30.119  1.00  0.00     0.029 A 
ATOM     55  C   UNL A   1      43.002  31.731  29.456  1.00  0.00     0.049 A 
ATOM     56  H   UNL A   1      42.484  29.749  28.948  1.00  0.00     0.167 HD
ATOM     57  C   UNL A   1      45.031  30.853  28.326  1.00  0.00     0.074 A 
ATOM     58  C   UNL A   1      46.385  30.984  27.826  1.00  0.00     0.031 C 
ATOM     59  C   UNL A   1      44.345  31.852  28.939  1.00  0.00     0.034 A 
BRANCH  46  60
ATOM     60  C   UNL A   1      38.625  30.247  30.753  1.00  0.00     0.023 A 
ATOM     61  C   UNL A   1      37.590  30.868  30.034  1.00  0.00     0.031 A 
ATOM     62  C   UNL A   1      38.434  30.044  32.132  1.00  0.00     0.131 A 
ATOM     63  C   UNL A   1      36.450  31.336  30.708  1.00  0.00     0.055 A 
ATOM     64  C   UNL A   1      37.262  30.434  32.782  1.00  0.00     0.041 A 
ATOM     65  F   UNL A   1      39.394  29.475  32.879  1.00  0.00    -0.206 F 
ATOM     66  C   UNL A   1      36.268  31.101  32.073  1.00  0.00     0.022 A 
BRANCH  63  67
ATOM     67  S   UNL A   1      35.282  32.394  29.809  1.00  0.00     0.124 S 
ATOM     68  O   UNL A   1      34.292  32.682  30.844  1.00  0.00    -0.237 OA
ATOM     69  O   UNL A   1      36.123  33.511  29.398  1.00  0.00    -0.237 OA
ATOM     70  O   UNL A   1      34.807  31.536  28.725  1.00  0.00    -0.744 OA
ENDBRANCH  63  67
ENDBRANCH  46  60
BRANCH  47  71
ATOM     71  C   UNL A   1      46.982  27.153  26.151  1.00  0.00     0.023 A 
ATOM     72  C   UNL A   1      48.045  26.514  26.808  1.00  0.00     0.031 A 
ATOM     73  C   UNL A   1      47.113  27.397  24.771  1.00  0.00     0.131 A 
ATOM     74  C   UNL A   1      49.201  26.165  26.092  1.00  0.00     0.055 A 
ATOM     75  C   UNL A   1      48.240  26.998  24.052  1.00  0.00     0.041 A 
ATOM     76  F   UNL A   1      46.128  28.009  24.093  1.00  0.00    -0.206 F 
ATOM     77  C   UNL A   1      49.298  26.387  24.717  1.00  0.00     0.022 A 
BRANCH  74  78
ATOM     78  S   UNL A   1      50.612  25.475  26.999  1.00  0.00     0.124 S 
ATOM     79  O   UNL A   1      50.989  26.592  27.857  1.00  0.00    -0.237 OA
ATOM     80  O   UNL A   1      50.010  24.326  27.668  1.00  0.00    -0.237 OA
ATOM     81  O   UNL A   1      51.568  25.146  25.944  1.00  0.00    -0.744 OA
ENDBRANCH  74  78
ENDBRANCH  47  71
BRANCH  59  82
ATOM     82  C   UNL A   1      45.076  33.156  29.139  1.00  0.00     0.023 A 
ATOM     83  C   UNL A   1      45.006  34.196  28.195  1.00  0.00     0.031 A 
ATOM     84  C   UNL A   1      45.873  33.349  30.281  1.00  0.00     0.131 A 
ATOM     85  C   UNL A   1      45.766  35.360  28.382  1.00  0.00     0.055 A 
ATOM     86  C   UNL A   1      46.581  34.533  30.490  1.00  0.00     0.041 A 
ATOM     87  F   UNL A   1      45.978  32.387  31.212  1.00  0.00    -0.206 F 
ATOM     88  C   UNL A   1      46.540  35.541  29.531  1.00  0.00     0.022 A 
BRANCH  85  89
ATOM     89  S   UNL A   1      45.802  36.600  27.059  1.00  0.00     0.124 S 
ATOM     90  O   UNL A   1      46.653  37.636  27.637  1.00  0.00    -0.237 OA
ATOM     91  O   UNL A   1      46.376  35.852  25.946  1.00  0.00    -0.237 OA
ATOM     92  O   UNL A   1      44.397  36.971  26.898  1.00  0.00    -0.744 OA
ENDBRANCH  85  89
ENDBRANCH  59  82
ENDBRANCH  33  34
ENDBRANCH  26  28
ENDBRANCH  25  26
ENDBRANCH   1  25
TORSDOF 17
ENDMDL
MODEL 2
REMARK VINA RESULT:     -12.6      1.333      1.694
REMARK SMILES COc1cc(-c2ccc(F)c(C(F)(F)F)c2)ccc1C(=O)OCCOC(=O)c1ccc(-c2c3nc(c(-c4cc(S(=O)(=O)[O-])ccc4F)c4ccc([nH]4)c(-c4cc(S(=O)(=O)[O-])ccc4F)c4nc(c(-c5cc(S(=O)(=O)[O-])ccc5F)c5ccc2[nH]5)C=C4)C=C3)cc1
REMARK SMILES IDX 24 1 23 2 22 3 20 4 21 5 19 6 3 7 4 8 5 9 18 10 17 11 2 12
REMARK SMILES IDX 1 13 6 14 7 15 16 16 8 17 11 18 9 19 10 20 12 21 13 22 14 23
REMARK SMILES IDX 15 24 25 25 26 26 27 27 28 28 29 29 90 30 30 31 89 32 31 33
REMARK SMILES IDX 32 34 33 35 83 36 34 37 88 38 82 39 84 40 35 41 87 42 81 43
REMARK SMILES IDX 80 44 36 46 68 47 48 48 67 49 49 50 52 51 66 52 85 53 50 54
REMARK SMILES IDX 51 55 65 57 86 58 53 59 37 60 38 61 46 62 39 63 45 64 47 65
REMARK SMILES IDX 44 66 40 67 41 68 42 69 43 70 69 71 70 72 78 73 71 74 77 75
REMARK SMILES IDX 79 76 76 77 72 78 73 79 74 80 75 81 54 82 55 83 63 84 56 85
REMARK SMILES IDX 62 86 64 87 61 88 57 89 58 90 59 91 60 92
REMARK H PARENT 84 45 52 56
REMARK Flexibility Score: inf
ROOT
ATOM      1  C   UNL A   1      36.633  20.540  24.643  1.00  0.00     0.275 C 
ENDROOT
BRANCH   1   2
ATOM      2  C   UNL A   1      35.198  20.373  25.132  1.00  0.00     0.275 C 
BRANCH   2   3
ATOM      3  O   UNL A   1      34.526  21.647  25.195  1.00  0.00    -0.458 OA
BRANCH   3   4
ATOM      4  C   UNL A   1      34.111  22.055  26.418  1.00  0.00     0.342 C 
ATOM      5  O   UNL A   1      34.217  21.435  27.466  1.00  0.00    -0.246 OA
BRANCH   4   6
ATOM      6  C   UNL A   1      33.557  23.426  26.358  1.00  0.00     0.102 A 
ATOM      7  C   UNL A   1      32.281  23.776  26.811  1.00  0.00     0.134 A 
ATOM      8  C   UNL A   1      31.800  25.077  26.596  1.00  0.00     0.056 A 
ATOM      9  C   UNL A   1      32.593  26.052  25.966  1.00  0.00    -0.015 A 
ATOM     10  C   UNL A   1      34.380  24.418  25.801  1.00  0.00     0.020 A 
ATOM     11  C   UNL A   1      33.896  25.708  25.587  1.00  0.00     0.010 A 
BRANCH   7  12
ATOM     12  O   UNL A   1      31.416  22.920  27.443  1.00  0.00    -0.496 OA
ATOM     13  C   UNL A   1      30.115  22.925  26.851  1.00  0.00     0.278 C 
ENDBRANCH   7  12
BRANCH   9  14
ATOM     14  C   UNL A   1      32.088  27.405  25.710  1.00  0.00    -0.017 A 
ATOM     15  C   UNL A   1      32.439  28.475  26.546  1.00  0.00     0.012 A 
ATOM     16  C   UNL A   1      31.267  27.662  24.596  1.00  0.00     0.025 A 
ATOM     17  C   UNL A   1      31.980  29.765  26.279  1.00  0.00     0.040 A 
ATOM     18  C   UNL A   1      30.799  28.959  24.321  1.00  0.00     0.092 A 
ATOM     19  C   UNL A   1      31.163  29.994  25.176  1.00  0.00     0.135 A 
ATOM     20  F   UNL A   1      30.724  31.239  24.950  1.00  0.00    -0.206 F 
BRANCH  18  21
ATOM     21  C   UNL A   1      29.904  29.252  23.153  1.00  0.00     0.419 C 
ATOM     22  F   UNL A   1      28.877  30.083  23.487  1.00  0.00    -0.166 F 
ATOM     23  F   UNL A   1      30.556  29.849  22.118  1.00  0.00    -0.166 F 
ATOM     24  F   UNL A   1      29.322  28.135  22.636  1.00  0.00    -0.166 F 
ENDBRANCH  18  21
ENDBRANCH   9  14
ENDBRANCH   4   6
ENDBRANCH   3   4
ENDBRANCH   2   3
ENDBRANCH   1   2
BRANCH   1  25
ATOM     25  O   UNL A   1      37.303  21.518  25.456  1.00  0.00    -0.458 OA
BRANCH  25  26
ATOM     26  C   UNL A   1      38.574  21.209  25.799  1.00  0.00     0.338 C 
ATOM     27  O   UNL A   1      39.180  20.178  25.571  1.00  0.00    -0.246 OA
BRANCH  26  28
ATOM     28  C   UNL A   1      39.182  22.372  26.458  1.00  0.00     0.060 A 
ATOM     29  C   UNL A   1      38.702  23.638  26.135  1.00  0.00     0.016 A 
ATOM     30  C   UNL A   1      40.296  22.227  27.279  1.00  0.00     0.016 A 
ATOM     31  C   UNL A   1      39.382  24.776  26.564  1.00  0.00     0.010 A 
ATOM     32  C   UNL A   1      40.928  23.371  27.780  1.00  0.00     0.010 A 
ATOM     33  C   UNL A   1      40.503  24.660  27.398  1.00  0.00    -0.014 A 
BRANCH  33  34
ATOM     34  C   UNL A   1      41.273  25.868  27.814  1.00  0.00     0.031 A 
ATOM     35  C   UNL A   1      40.602  26.925  28.657  1.00  0.00     0.074 A 
ATOM     36  C   UNL A   1      42.562  26.029  27.453  1.00  0.00     0.049 A 
ATOM     37  N   UNL A   1      40.995  28.141  28.937  1.00  0.00    -0.248 NA
ATOM     38  C   UNL A   1      39.303  26.564  29.243  1.00  0.00     0.031 C 
ATOM     39  C   UNL A   1      43.357  25.062  26.695  1.00  0.00     0.029 A 
ATOM     40  N   UNL A   1      43.433  27.068  27.675  1.00  0.00    -0.354 N 
ATOM     41  C   UNL A   1      39.964  28.715  29.676  1.00  0.00     0.074 A 
ATOM     42  C   UNL A   1      38.925  27.712  29.788  1.00  0.00     0.031 C 
ATOM     43  C   UNL A   1      44.602  25.538  26.541  1.00  0.00     0.029 A 
ATOM     44  C   UNL A   1      44.669  26.885  27.098  1.00  0.00     0.049 A 
ATOM     45  H   UNL A   1      43.196  27.867  28.199  1.00  0.00     0.167 HD
ATOM     46  C   UNL A   1      39.892  29.963  30.205  1.00  0.00     0.034 A 
ATOM     47  C   UNL A   1      45.718  27.722  26.973  1.00  0.00     0.034 A 
ATOM     48  C   UNL A   1      40.962  30.930  30.122  1.00  0.00     0.049 A 
ATOM     49  C   UNL A   1      45.603  29.118  27.528  1.00  0.00     0.074 A 
ATOM     50  C   UNL A   1      41.005  32.216  30.632  1.00  0.00     0.029 A 
ATOM     51  N   UNL A   1      42.184  30.713  29.497  1.00  0.00    -0.354 N 
ATOM     52  N   UNL A   1      44.593  29.678  28.152  1.00  0.00    -0.248 NA
ATOM     53  C   UNL A   1      46.763  29.999  27.346  1.00  0.00     0.031 C 
ATOM     54  C   UNL A   1      42.226  32.796  30.265  1.00  0.00     0.029 A 
ATOM     55  C   UNL A   1      42.977  31.848  29.589  1.00  0.00     0.049 A 
ATOM     56  H   UNL A   1      42.449  29.875  29.052  1.00  0.00     0.167 HD
ATOM     57  C   UNL A   1      45.003  30.973  28.451  1.00  0.00     0.074 A 
ATOM     58  C   UNL A   1      46.359  31.103  27.957  1.00  0.00     0.031 C 
ATOM     59  C   UNL A   1      44.322  31.967  29.077  1.00  0.00     0.034 A 
BRANCH  46  60
ATOM     60  C   UNL A   1      38.589  30.371  30.856  1.00  0.00     0.023 A 
ATOM     61  C   UNL A   1      37.553  30.994  30.141  1.00  0.00     0.031 A 
ATOM     62  C   UNL A   1      38.399  30.165  32.236  1.00  0.00     0.131 A 
ATOM     63  C   UNL A   1      36.414  31.460  30.818  1.00  0.00     0.055 A 
ATOM     64  C   UNL A   1      37.229  30.553  32.888  1.00  0.00     0.041 A 
ATOM     65  F   UNL A   1      39.361  29.593  32.979  1.00  0.00    -0.206 F 
ATOM     66  C   UNL A   1      36.234  31.222  32.182  1.00  0.00     0.022 A 
BRANCH  63  67
ATOM     67  S   UNL A   1      35.245  32.521  29.923  1.00  0.00     0.124 S 
ATOM     68  O   UNL A   1      34.813  31.636  28.844  1.00  0.00    -0.237 OA
ATOM     69  O   UNL A   1      34.248  32.819  30.944  1.00  0.00    -0.237 OA
ATOM     70  O   UNL A   1      36.064  33.654  29.500  1.00  0.00    -0.744 OA
ENDBRANCH  63  67
ENDBRANCH  46  60
BRANCH  47  71
ATOM     71  C   UNL A   1      46.938  27.293  26.229  1.00  0.00     0.023 A 
ATOM     72  C   UNL A   1      47.145  27.666  24.892  1.00  0.00     0.031 A 
ATOM     73  C   UNL A   1      47.909  26.480  26.843  1.00  0.00     0.131 A 
ATOM     74  C   UNL A   1      48.279  27.205  24.205  1.00  0.00     0.055 A 
ATOM     75  C   UNL A   1      49.062  26.069  26.173  1.00  0.00     0.041 A 
ATOM     76  F   UNL A   1      47.760  26.090  28.120  1.00  0.00    -0.206 F 
ATOM     77  C   UNL A   1      49.246  26.424  24.841  1.00  0.00     0.022 A 
BRANCH  74  78
ATOM     78  S   UNL A   1      48.440  27.583  22.439  1.00  0.00     0.124 S 
ATOM     79  O   UNL A   1      48.562  26.251  21.858  1.00  0.00    -0.237 OA
ATOM     80  O   UNL A   1      47.195  28.292  22.165  1.00  0.00    -0.237 OA
ATOM     81  O   UNL A   1      49.647  28.404  22.375  1.00  0.00    -0.744 OA
ENDBRANCH  74  78
ENDBRANCH  47  71
BRANCH  59  82
ATOM     82  C   UNL A   1      45.060  33.265  29.297  1.00  0.00     0.023 A 
ATOM     83  C   UNL A   1      44.900  34.362  28.433  1.00  0.00     0.031 A 
ATOM     84  C   UNL A   1      45.955  33.392  30.373  1.00  0.00     0.131 A 
ATOM     85  C   UNL A   1      45.666  35.521  28.629  1.00  0.00     0.055 A 
ATOM     86  C   UNL A   1      46.672  34.568  30.597  1.00  0.00     0.041 A 
ATOM     87  F   UNL A   1      46.149  32.373  31.226  1.00  0.00    -0.206 F 
ATOM     88  C   UNL A   1      46.539  35.636  29.713  1.00  0.00     0.022 A 
BRANCH  85  89
ATOM     89  S   UNL A   1      45.577  36.845  27.392  1.00  0.00     0.124 S 
ATOM     90  O   UNL A   1      44.265  36.614  26.794  1.00  0.00    -0.237 OA
ATOM     91  O   UNL A   1      45.702  38.046  28.210  1.00  0.00    -0.237 OA
ATOM     92  O   UNL A   1      46.714  36.572  26.514  1.00  0.00    -0.744 OA
ENDBRANCH  85  89
ENDBRANCH  59  82
ENDBRANCH  33  34
ENDBRANCH  26  28
ENDBRANCH  25  26
ENDBRANCH   1  25
TORSDOF 17
ENDMDL
MODEL 3
REMARK VINA RESULT:     -11.9      5.268     10.264
REMARK SMILES COc1cc(-c2ccc(F)c(C(F)(F)F)c2)ccc1C(=O)OCCOC(=O)c1ccc(-c2c3nc(c(-c4cc(S(=O)(=O)[O-])ccc4F)c4ccc([nH]4)c(-c4cc(S(=O)(=O)[O-])ccc4F)c4nc(c(-c5cc(S(=O)(=O)[O-])ccc5F)c5ccc2[nH]5)C=C4)C=C3)cc1
REMARK SMILES IDX 24 1 23 2 22 3 20 4 21 5 19 6 3 7 4 8 5 9 18 10 17 11 2 12
REMARK SMILES IDX 1 13 6 14 7 15 16 16 8 17 11 18 9 19 10 20 12 21 13 22 14 23
REMARK SMILES IDX 15 24 25 25 26 26 27 27 28 28 29 29 90 30 30 31 89 32 31 33
REMARK SMILES IDX 32 34 33 35 83 36 34 37 88 38 82 39 84 40 35 41 87 42 81 43
REMARK SMILES IDX 80 44 36 46 68 47 48 48 67 49 49 50 52 51 66 52 85 53 50 54
REMARK SMILES IDX 51 55 65 57 86 58 53 59 37 60 38 61 46 62 39 63 45 64 47 65
REMARK SMILES IDX 44 66 40 67 41 68 42 69 43 70 69 71 70 72 78 73 71 74 77 75
REMARK SMILES IDX 79 76 76 77 72 78 73 79 74 80 75 81 54 82 55 83 63 84 56 85
REMARK SMILES IDX 62 86 64 87 61 88 57 89 58 90 59 91 60 92
REMARK H PARENT 84 45 52 56
REMARK Flexibility Score: inf
ROOT
ATOM      1  C   UNL A   1      31.460  30.029  25.726  1.00  0.00     0.275 C 
ENDROOT
BRANCH   1   2
ATOM      2  C   UNL A   1      31.676  28.847  24.786  1.00  0.00     0.275 C 
BRANCH   2   3
ATOM      3  O   UNL A   1      31.339  27.606  25.439  1.00  0.00    -0.458 OA
BRANCH   3   4
ATOM      4  C   UNL A   1      30.917  26.596  24.641  1.00  0.00     0.342 C 
ATOM      5  O   UNL A   1      29.941  26.609  23.905  1.00  0.00    -0.246 OA
BRANCH   4   6
ATOM      6  C   UNL A   1      31.851  25.449  24.701  1.00  0.00     0.102 A 
ATOM      7  C   UNL A   1      33.072  25.398  24.022  1.00  0.00     0.134 A 
ATOM      8  C   UNL A   1      33.829  24.216  24.042  1.00  0.00     0.056 A 
ATOM      9  C   UNL A   1      33.402  23.090  24.767  1.00  0.00    -0.015 A 
ATOM     10  C   UNL A   1      31.461  24.356  25.490  1.00  0.00     0.020 A 
ATOM     11  C   UNL A   1      32.216  23.183  25.504  1.00  0.00     0.010 A 
BRANCH   7  12
ATOM     12  O   UNL A   1      33.599  26.428  23.286  1.00  0.00    -0.496 OA
ATOM     13  C   UNL A   1      33.199  26.379  21.915  1.00  0.00     0.278 C 
ENDBRANCH   7  12
BRANCH   9  14
ATOM     14  C   UNL A   1      34.171  21.841  24.769  1.00  0.00    -0.017 A 
ATOM     15  C   UNL A   1      35.552  21.846  25.013  1.00  0.00     0.012 A 
ATOM     16  C   UNL A   1      33.529  20.606  24.561  1.00  0.00     0.025 A 
ATOM     17  C   UNL A   1      36.273  20.652  25.044  1.00  0.00     0.040 A 
ATOM     18  C   UNL A   1      34.248  19.398  24.589  1.00  0.00     0.092 A 
ATOM     19  C   UNL A   1      35.618  19.443  24.828  1.00  0.00     0.135 A 
ATOM     20  F   UNL A   1      36.335  18.312  24.849  1.00  0.00    -0.206 F 
BRANCH  18  21
ATOM     21  C   UNL A   1      33.588  18.072  24.348  1.00  0.00     0.419 C 
ATOM     22  F   UNL A   1      34.094  17.439  23.252  1.00  0.00    -0.166 F 
ATOM     23  F   UNL A   1      33.732  17.207  25.388  1.00  0.00    -0.166 F 
ATOM     24  F   UNL A   1      32.249  18.177  24.128  1.00  0.00    -0.166 F 
ENDBRANCH  18  21
ENDBRANCH   9  14
ENDBRANCH   4   6
ENDBRANCH   3   4
ENDBRANCH   2   3
ENDBRANCH   1   2
BRANCH   1  25
ATOM     25  O   UNL A   1      32.451  29.999  26.766  1.00  0.00    -0.458 OA
BRANCH  25  26
ATOM     26  C   UNL A   1      32.989  31.198  27.085  1.00  0.00     0.338 C 
ATOM     27  O   UNL A   1      32.453  32.290  27.049  1.00  0.00    -0.246 OA
BRANCH  26  28
ATOM     28  C   UNL A   1      34.358  30.988  27.572  1.00  0.00     0.060 A 
ATOM     29  C   UNL A   1      34.796  29.681  27.762  1.00  0.00     0.016 A 
ATOM     30  C   UNL A   1      35.151  32.062  27.962  1.00  0.00     0.016 A 
ATOM     31  C   UNL A   1      35.998  29.432  28.421  1.00  0.00     0.010 A 
ATOM     32  C   UNL A   1      36.398  31.813  28.547  1.00  0.00     0.010 A 
ATOM     33  C   UNL A   1      36.821  30.496  28.819  1.00  0.00    -0.014 A 
BRANCH  33  34
ATOM     34  C   UNL A   1      38.081  30.244  29.577  1.00  0.00     0.031 A 
ATOM     35  C   UNL A   1      39.142  29.352  28.982  1.00  0.00     0.074 A 
ATOM     36  C   UNL A   1      38.289  30.806  30.785  1.00  0.00     0.049 A 
ATOM     37  N   UNL A   1      40.194  28.817  29.548  1.00  0.00    -0.248 NA
ATOM     38  C   UNL A   1      38.979  29.000  27.564  1.00  0.00     0.031 C 
ATOM     39  C   UNL A   1      37.380  31.739  31.454  1.00  0.00     0.029 A 
ATOM     40  N   UNL A   1      39.333  30.674  31.668  1.00  0.00    -0.354 N 
ATOM     41  C   UNL A   1      40.783  28.013  28.575  1.00  0.00     0.074 A 
ATOM     42  C   UNL A   1      39.960  28.126  27.388  1.00  0.00     0.031 C 
ATOM     43  C   UNL A   1      37.919  32.116  32.624  1.00  0.00     0.029 A 
ATOM     44  C   UNL A   1      39.158  31.378  32.838  1.00  0.00     0.049 A 
ATOM     45  H   UNL A   1      40.131  30.129  31.482  1.00  0.00     0.167 HD
ATOM     46  C   UNL A   1      41.902  27.251  28.668  1.00  0.00     0.034 A 
ATOM     47  C   UNL A   1      39.876  31.385  33.979  1.00  0.00     0.034 A 
ATOM     48  C   UNL A   1      42.734  27.193  29.847  1.00  0.00     0.049 A 
ATOM     49  C   UNL A   1      41.090  30.499  34.081  1.00  0.00     0.074 A 
ATOM     50  C   UNL A   1      43.896  26.467  30.049  1.00  0.00     0.029 A 
ATOM     51  N   UNL A   1      42.500  27.896  31.023  1.00  0.00    -0.354 N 
ATOM     52  N   UNL A   1      41.591  29.680  33.185  1.00  0.00    -0.248 NA
ATOM     53  C   UNL A   1      41.824  30.525  35.351  1.00  0.00     0.031 C 
ATOM     54  C   UNL A   1      44.330  26.685  31.363  1.00  0.00     0.029 A 
ATOM     55  C   UNL A   1      43.482  27.604  31.959  1.00  0.00     0.049 A 
ATOM     56  H   UNL A   1      41.747  28.512  31.170  1.00  0.00     0.167 HD
ATOM     57  C   UNL A   1      42.709  29.106  33.780  1.00  0.00     0.074 A 
ATOM     58  C   UNL A   1      42.819  29.687  35.103  1.00  0.00     0.031 C 
ATOM     59  C   UNL A   1      43.569  28.181  33.280  1.00  0.00     0.034 A 
BRANCH  46  60
ATOM     60  C   UNL A   1      42.246  26.369  27.488  1.00  0.00     0.023 A 
ATOM     61  C   UNL A   1      41.811  25.037  27.392  1.00  0.00     0.031 A 
ATOM     62  C   UNL A   1      43.063  26.867  26.456  1.00  0.00     0.131 A 
ATOM     63  C   UNL A   1      42.259  24.227  26.336  1.00  0.00     0.055 A 
ATOM     64  C   UNL A   1      43.435  26.082  25.363  1.00  0.00     0.041 A 
ATOM     65  F   UNL A   1      43.529  28.125  26.500  1.00  0.00    -0.206 F 
ATOM     66  C   UNL A   1      43.047  24.747  25.307  1.00  0.00     0.022 A 
BRANCH  63  67
ATOM     67  S   UNL A   1      41.926  22.444  26.406  1.00  0.00     0.124 S 
ATOM     68  O   UNL A   1      42.523  22.085  27.690  1.00  0.00    -0.237 OA
ATOM     69  O   UNL A   1      40.471  22.393  26.340  1.00  0.00    -0.237 OA
ATOM     70  O   UNL A   1      42.624  21.919  25.235  1.00  0.00    -0.744 OA
ENDBRANCH  63  67
ENDBRANCH  46  60
BRANCH  47  71
ATOM     71  C   UNL A   1      39.425  32.200  35.145  1.00  0.00     0.023 A 
ATOM     72  C   UNL A   1      39.946  33.481  35.384  1.00  0.00     0.031 A 
ATOM     73  C   UNL A   1      38.478  31.695  36.056  1.00  0.00     0.131 A 
ATOM     74  C   UNL A   1      39.538  34.202  36.517  1.00  0.00     0.055 A 
ATOM     75  C   UNL A   1      38.034  32.437  37.151  1.00  0.00     0.041 A 
ATOM     76  F   UNL A   1      37.950  30.473  35.878  1.00  0.00    -0.206 F 
ATOM     77  C   UNL A   1      38.574  33.696  37.392  1.00  0.00     0.022 A 
BRANCH  74  78
ATOM     78  S   UNL A   1      40.339  35.790  36.874  1.00  0.00     0.124 S 
ATOM     79  O   UNL A   1      39.961  36.008  38.265  1.00  0.00    -0.237 OA
ATOM     80  O   UNL A   1      41.744  35.483  36.630  1.00  0.00    -0.237 OA
ATOM     81  O   UNL A   1      39.728  36.703  35.910  1.00  0.00    -0.744 OA
ENDBRANCH  74  78
ENDBRANCH  47  71
BRANCH  59  82
ATOM     82  C   UNL A   1      44.726  27.781  34.162  1.00  0.00     0.023 A 
ATOM     83  C   UNL A   1      44.641  26.690  35.045  1.00  0.00     0.031 A 
ATOM     84  C   UNL A   1      45.921  28.520  34.134  1.00  0.00     0.131 A 
ATOM     85  C   UNL A   1      45.713  26.403  35.904  1.00  0.00     0.055 A 
ATOM     86  C   UNL A   1      47.006  28.195  34.949  1.00  0.00     0.041 A 
ATOM     87  F   UNL A   1      46.054  29.574  33.312  1.00  0.00    -0.206 F 
ATOM     88  C   UNL A   1      46.900  27.139  35.850  1.00  0.00     0.022 A 
BRANCH  85  89
ATOM     89  S   UNL A   1      45.503  25.111  37.159  1.00  0.00     0.124 S 
ATOM     90  O   UNL A   1      46.870  24.925  37.635  1.00  0.00    -0.237 OA
ATOM     91  O   UNL A   1      44.580  25.736  38.100  1.00  0.00    -0.237 OA
ATOM     92  O   UNL A   1      44.951  23.986  36.405  1.00  0.00    -0.744 OA
ENDBRANCH  85  89
ENDBRANCH  59  82
ENDBRANCH  33  34
ENDBRANCH  26  28
ENDBRANCH  25  26
ENDBRANCH   1  25
TORSDOF 17
ENDMDL
