MODEL 1
REMARK VINA RESULT:     -10.1      0.000      0.000
REMARK SMILES COc1ccc(-c2cccc(/C=C\C(=O)OCCOC(=O)c3ccc(-c4c5nc(c(-c6cc(S(=O)(=O)[O-])ccc6F)c6ccc([nH]6)c(-c6cc(S(=O)(=O)[O-])ccc6F)c6nc(c(-c7cc(S(=O)(=O)[O-])ccc7F)c7ccc4[nH]7)C=C6)C=C5)cc3)c2)c(Cl)c1OC
REMARK SMILES IDX 17 1 16 2 14 3 15 4 13 5 12 6 11 7 7 8 8 9 85 10 9 11 10 12
REMARK SMILES IDX 6 13 3 14 4 15 88 16 5 17 86 18 87 19 2 20 1 21 89 22 90 23
REMARK SMILES IDX 18 24 19 25 20 26 21 27 22 28 23 29 84 30 24 31 83 32 25 33
REMARK SMILES IDX 26 34 27 35 77 36 28 37 82 38 76 39 78 40 29 41 81 42 75 43
REMARK SMILES IDX 74 44 30 46 62 47 42 48 61 49 43 50 46 51 60 52 79 53 44 54
REMARK SMILES IDX 45 55 59 57 80 58 47 59 31 60 32 61 40 62 33 63 39 64 41 65
REMARK SMILES IDX 38 66 34 67 35 68 36 69 37 70 63 71 64 72 72 73 65 74 71 75
REMARK SMILES IDX 73 76 70 77 66 78 67 79 68 80 69 81 48 82 49 83 57 84 50 85
REMARK SMILES IDX 56 86 58 87 55 88 51 89 52 90 53 91 54 92
REMARK H PARENT 78 45 46 56
REMARK Flexibility Score: inf
ROOT
ATOM      1  C   UNL A   1      41.955  19.937  26.358  1.00  0.00     0.275 C 
ENDROOT
BRANCH   1   2
ATOM      2  O   UNL A   1      42.843  19.539  25.300  1.00  0.00    -0.459 OA
BRANCH   2   3
ATOM      3  C   UNL A   1      43.906  18.778  25.617  1.00  0.00     0.330 C 
ATOM      4  O   UNL A   1      43.871  17.748  26.273  1.00  0.00    -0.247 OA
BRANCH   3   5
ATOM      5  C   UNL A   1      45.154  19.226  24.951  1.00  0.00     0.094 C 
ATOM      6  C   UNL A   1      45.644  20.434  24.624  1.00  0.00     0.015 C 
BRANCH   6   7
ATOM      7  C   UNL A   1      45.136  21.768  24.957  1.00  0.00    -0.025 A 
ATOM      8  C   UNL A   1      45.014  23.569  26.592  1.00  0.00    -0.016 A 
ATOM      9  C   UNL A   1      44.048  24.210  25.806  1.00  0.00     0.009 A 
ATOM     10  C   UNL A   1      45.513  22.323  26.182  1.00  0.00     0.017 A 
ATOM     11  C   UNL A   1      43.725  23.702  24.555  1.00  0.00     0.001 A 
ATOM     12  C   UNL A   1      44.334  22.531  24.110  1.00  0.00     0.008 A 
BRANCH   8  13
ATOM     13  C   UNL A   1      45.576  24.245  27.765  1.00  0.00     0.004 A 
ATOM     14  C   UNL A   1      46.721  25.511  29.968  1.00  0.00     0.162 A 
ATOM     15  C   UNL A   1      47.448  25.387  28.779  1.00  0.00     0.051 A 
ATOM     16  C   UNL A   1      45.418  24.979  30.106  1.00  0.00     0.180 A 
ATOM     17  C   UNL A   1      46.871  24.771  27.679  1.00  0.00     0.014 A 
ATOM     18  C   UNL A   1      44.851  24.336  28.991  1.00  0.00     0.094 A 
ATOM     19  Cl  UNL A   1      43.289  23.559  29.039  1.00  0.00    -0.079 Cl
BRANCH  14  20
ATOM     20  O   UNL A   1      47.304  26.096  31.072  1.00  0.00    -0.493 OA
ATOM     21  C   UNL A   1      48.685  25.765  31.201  1.00  0.00     0.278 C 
ENDBRANCH  14  20
BRANCH  16  22
ATOM     22  O   UNL A   1      44.899  25.171  31.361  1.00  0.00    -0.491 OA
ATOM     23  C   UNL A   1      44.032  26.251  31.655  1.00  0.00     0.278 C 
ENDBRANCH  16  22
ENDBRANCH   8  13
ENDBRANCH   6   7
ENDBRANCH   3   5
ENDBRANCH   2   3
ENDBRANCH   1   2
BRANCH   1  24
ATOM     24  C   UNL A   1      41.401  21.342  26.095  1.00  0.00     0.275 C 
BRANCH  24  25
ATOM     25  O   UNL A   1      40.244  21.602  26.909  1.00  0.00    -0.458 OA
BRANCH  25  26
ATOM     26  C   UNL A   1      39.355  22.499  26.417  1.00  0.00     0.338 C 
ATOM     27  O   UNL A   1      38.345  22.255  25.776  1.00  0.00    -0.246 OA
BRANCH  26  28
ATOM     28  C   UNL A   1      39.708  23.838  26.916  1.00  0.00     0.060 A 
ATOM     29  C   UNL A   1      40.067  24.819  25.988  1.00  0.00     0.016 A 
ATOM     30  C   UNL A   1      39.690  24.126  28.282  1.00  0.00     0.016 A 
ATOM     31  C   UNL A   1      40.384  26.104  26.417  1.00  0.00     0.010 A 
ATOM     32  C   UNL A   1      40.015  25.415  28.713  1.00  0.00     0.010 A 
ATOM     33  C   UNL A   1      40.364  26.410  27.782  1.00  0.00    -0.014 A 
BRANCH  33  34
ATOM     34  C   UNL A   1      40.783  27.755  28.238  1.00  0.00     0.031 A 
ATOM     35  C   UNL A   1      42.238  28.120  28.204  1.00  0.00     0.074 A 
ATOM     36  C   UNL A   1      39.861  28.646  28.649  1.00  0.00     0.049 A 
ATOM     37  N   UNL A   1      42.831  29.212  28.608  1.00  0.00    -0.248 NA
ATOM     38  C   UNL A   1      43.149  27.111  27.640  1.00  0.00     0.031 C 
ATOM     39  C   UNL A   1      38.416  28.412  28.670  1.00  0.00     0.029 A 
ATOM     40  N   UNL A   1      40.000  29.924  29.124  1.00  0.00    -0.354 N 
ATOM     41  C   UNL A   1      44.185  29.023  28.355  1.00  0.00     0.074 A 
ATOM     42  C   UNL A   1      44.328  27.693  27.801  1.00  0.00     0.031 C 
ATOM     43  C   UNL A   1      37.803  29.515  29.130  1.00  0.00     0.029 A 
ATOM     44  C   UNL A   1      38.810  30.510  29.487  1.00  0.00     0.049 A 
ATOM     45  H   UNL A   1      40.870  30.381  29.199  1.00  0.00     0.167 HD
ATOM     46  C   UNL A   1      45.209  29.888  28.558  1.00  0.00     0.034 A 
ATOM     47  C   UNL A   1      38.566  31.703  30.068  1.00  0.00     0.034 A 
ATOM     48  C   UNL A   1      45.040  31.204  29.126  1.00  0.00     0.049 A 
ATOM     49  C   UNL A   1      39.735  32.606  30.379  1.00  0.00     0.074 A 
ATOM     50  C   UNL A   1      46.005  32.162  29.384  1.00  0.00     0.029 A 
ATOM     51  N   UNL A   1      43.826  31.746  29.534  1.00  0.00    -0.354 N 
ATOM     52  N   UNL A   1      41.014  32.415  30.146  1.00  0.00    -0.248 NA
ATOM     53  C   UNL A   1      39.428  33.889  31.025  1.00  0.00     0.031 C 
ATOM     54  C   UNL A   1      45.388  33.246  30.019  1.00  0.00     0.029 A 
ATOM     55  C   UNL A   1      44.024  33.008  30.073  1.00  0.00     0.049 A 
ATOM     56  H   UNL A   1      42.954  31.298  29.454  1.00  0.00     0.167 HD
ATOM     57  C   UNL A   1      41.658  33.571  30.583  1.00  0.00     0.074 A 
ATOM     58  C   UNL A   1      40.623  34.455  31.080  1.00  0.00     0.031 C 
ATOM     59  C   UNL A   1      42.980  33.877  30.569  1.00  0.00     0.034 A 
BRANCH  46  60
ATOM     60  C   UNL A   1      46.600  29.407  28.218  1.00  0.00     0.023 A 
ATOM     61  C   UNL A   1      46.973  29.092  26.900  1.00  0.00     0.031 A 
ATOM     62  C   UNL A   1      47.556  29.225  29.234  1.00  0.00     0.131 A 
ATOM     63  C   UNL A   1      48.239  28.541  26.643  1.00  0.00     0.055 A 
ATOM     64  C   UNL A   1      48.843  28.758  28.960  1.00  0.00     0.041 A 
ATOM     65  F   UNL A   1      47.250  29.482  30.515  1.00  0.00    -0.206 F 
ATOM     66  C   UNL A   1      49.186  28.399  27.660  1.00  0.00     0.022 A 
BRANCH  63  67
ATOM     67  S   UNL A   1      48.574  27.870  24.992  1.00  0.00     0.124 S 
ATOM     68  O   UNL A   1      47.433  28.374  24.231  1.00  0.00    -0.237 OA
ATOM     69  O   UNL A   1      49.869  28.459  24.668  1.00  0.00    -0.237 OA
ATOM     70  O   UNL A   1      48.581  26.424  25.204  1.00  0.00    -0.744 OA
ENDBRANCH  63  67
ENDBRANCH  46  60
BRANCH  47  71
ATOM     71  C   UNL A   1      37.175  32.101  30.434  1.00  0.00     0.023 A 
ATOM     72  C   UNL A   1      36.304  32.656  29.483  1.00  0.00     0.031 A 
ATOM     73  C   UNL A   1      36.715  31.992  31.760  1.00  0.00     0.131 A 
ATOM     74  C   UNL A   1      35.043  33.129  29.880  1.00  0.00     0.055 A 
ATOM     75  C   UNL A   1      35.437  32.404  32.136  1.00  0.00     0.041 A 
ATOM     76  F   UNL A   1      37.508  31.476  32.713  1.00  0.00    -0.206 F 
ATOM     77  C   UNL A   1      34.597  32.992  31.196  1.00  0.00     0.022 A 
BRANCH  74  78
ATOM     78  S   UNL A   1      34.032  34.028  28.670  1.00  0.00     0.124 S 
ATOM     79  O   UNL A   1      34.974  35.029  28.183  1.00  0.00    -0.237 OA
ATOM     80  O   UNL A   1      33.674  32.971  27.730  1.00  0.00    -0.237 OA
ATOM     81  O   UNL A   1      32.926  34.548  29.472  1.00  0.00    -0.744 OA
ENDBRANCH  74  78
ENDBRANCH  47  71
BRANCH  59  82
ATOM     82  C   UNL A   1      43.373  35.254  31.051  1.00  0.00     0.023 A 
ATOM     83  C   UNL A   1      43.578  35.538  32.413  1.00  0.00     0.031 A 
ATOM     84  C   UNL A   1      43.539  36.302  30.127  1.00  0.00     0.131 A 
ATOM     85  C   UNL A   1      43.876  36.848  32.816  1.00  0.00     0.055 A 
ATOM     86  C   UNL A   1      43.904  37.587  30.527  1.00  0.00     0.041 A 
ATOM     87  F   UNL A   1      43.354  36.092  28.814  1.00  0.00    -0.206 F 
ATOM     88  C   UNL A   1      44.060  37.870  31.881  1.00  0.00     0.022 A 
BRANCH  85  89
ATOM     89  S   UNL A   1      43.915  37.226  34.590  1.00  0.00     0.124 S 
ATOM     90  O   UNL A   1      43.071  36.172  35.143  1.00  0.00    -0.237 OA
ATOM     91  O   UNL A   1      45.338  37.131  34.898  1.00  0.00    -0.237 OA
ATOM     92  O   UNL A   1      43.353  38.574  34.666  1.00  0.00    -0.744 OA
ENDBRANCH  85  89
ENDBRANCH  59  82
ENDBRANCH  33  34
ENDBRANCH  26  28
ENDBRANCH  25  26
ENDBRANCH  24  25
ENDBRANCH   1  24
TORSDOF 18
ENDMDL
MODEL 2
REMARK VINA RESULT:      -9.9      1.891      2.182
REMARK SMILES COc1ccc(-c2cccc(/C=C\C(=O)OCCOC(=O)c3ccc(-c4c5nc(c(-c6cc(S(=O)(=O)[O-])ccc6F)c6ccc([nH]6)c(-c6cc(S(=O)(=O)[O-])ccc6F)c6nc(c(-c7cc(S(=O)(=O)[O-])ccc7F)c7ccc4[nH]7)C=C6)C=C5)cc3)c2)c(Cl)c1OC
REMARK SMILES IDX 17 1 16 2 14 3 15 4 13 5 12 6 11 7 7 8 8 9 85 10 9 11 10 12
REMARK SMILES IDX 6 13 3 14 4 15 88 16 5 17 86 18 87 19 2 20 1 21 89 22 90 23
REMARK SMILES IDX 18 24 19 25 20 26 21 27 22 28 23 29 84 30 24 31 83 32 25 33
REMARK SMILES IDX 26 34 27 35 77 36 28 37 82 38 76 39 78 40 29 41 81 42 75 43
REMARK SMILES IDX 74 44 30 46 62 47 42 48 61 49 43 50 46 51 60 52 79 53 44 54
REMARK SMILES IDX 45 55 59 57 80 58 47 59 31 60 32 61 40 62 33 63 39 64 41 65
REMARK SMILES IDX 38 66 34 67 35 68 36 69 37 70 63 71 64 72 72 73 65 74 71 75
REMARK SMILES IDX 73 76 70 77 66 78 67 79 68 80 69 81 48 82 49 83 57 84 50 85
REMARK SMILES IDX 56 86 58 87 55 88 51 89 52 90 53 91 54 92
REMARK H PARENT 78 45 46 56
REMARK Flexibility Score: inf
ROOT
ATOM      1  C   UNL A   1      41.196  19.352  26.090  1.00  0.00     0.275 C 
ENDROOT
BRANCH   1   2
ATOM      2  O   UNL A   1      42.409  19.273  25.323  1.00  0.00    -0.459 OA
BRANCH   2   3
ATOM      3  C   UNL A   1      43.476  18.674  25.883  1.00  0.00     0.330 C 
ATOM      4  O   UNL A   1      43.433  17.813  26.748  1.00  0.00    -0.247 OA
BRANCH   3   5
ATOM      5  C   UNL A   1      44.754  19.051  25.231  1.00  0.00     0.094 C 
ATOM      6  C   UNL A   1      45.304  20.228  24.885  1.00  0.00     0.015 C 
BRANCH   6   7
ATOM      7  C   UNL A   1      44.850  21.591  25.178  1.00  0.00    -0.025 A 
ATOM      8  C   UNL A   1      44.916  23.496  26.691  1.00  0.00    -0.016 A 
ATOM      9  C   UNL A   1      43.885  24.104  25.964  1.00  0.00     0.009 A 
ATOM     10  C   UNL A   1      45.355  22.217  26.319  1.00  0.00     0.017 A 
ATOM     11  C   UNL A   1      43.431  23.522  24.788  1.00  0.00     0.001 A 
ATOM     12  C   UNL A   1      43.977  22.312  24.364  1.00  0.00     0.008 A 
BRANCH   8  13
ATOM     13  C   UNL A   1      45.602  24.237  27.755  1.00  0.00     0.004 A 
ATOM     14  C   UNL A   1      46.979  25.633  29.736  1.00  0.00     0.162 A 
ATOM     15  C   UNL A   1      47.487  25.587  28.433  1.00  0.00     0.051 A 
ATOM     16  C   UNL A   1      45.790  24.959  30.097  1.00  0.00     0.180 A 
ATOM     17  C   UNL A   1      46.793  24.905  27.445  1.00  0.00     0.014 A 
ATOM     18  C   UNL A   1      45.106  24.251  29.093  1.00  0.00     0.094 A 
ATOM     19  Cl  UNL A   1      43.674  23.303  29.409  1.00  0.00    -0.079 Cl
BRANCH  14  20
ATOM     20  O   UNL A   1      47.682  26.285  30.726  1.00  0.00    -0.493 OA
ATOM     21  C   UNL A   1      48.879  25.601  31.087  1.00  0.00     0.278 C 
ENDBRANCH  14  20
BRANCH  16  22
ATOM     22  O   UNL A   1      45.488  25.096  31.429  1.00  0.00    -0.491 OA
ATOM     23  C   UNL A   1      44.358  25.827  31.868  1.00  0.00     0.278 C 
ENDBRANCH  16  22
ENDBRANCH   8  13
ENDBRANCH   6   7
ENDBRANCH   3   5
ENDBRANCH   2   3
ENDBRANCH   1   2
BRANCH   1  24
ATOM     24  C   UNL A   1      41.218  20.582  27.007  1.00  0.00     0.275 C 
BRANCH  24  25
ATOM     25  O   UNL A   1      41.113  21.796  26.245  1.00  0.00    -0.458 OA
BRANCH  25  26
ATOM     26  C   UNL A   1      39.952  22.484  26.373  1.00  0.00     0.338 C 
ATOM     27  O   UNL A   1      38.820  22.051  26.223  1.00  0.00    -0.246 OA
BRANCH  26  28
ATOM     28  C   UNL A   1      40.255  23.829  26.889  1.00  0.00     0.060 A 
ATOM     29  C   UNL A   1      40.263  24.899  25.990  1.00  0.00     0.016 A 
ATOM     30  C   UNL A   1      40.530  24.038  28.242  1.00  0.00     0.016 A 
ATOM     31  C   UNL A   1      40.519  26.189  26.442  1.00  0.00     0.010 A 
ATOM     32  C   UNL A   1      40.795  25.332  28.694  1.00  0.00     0.010 A 
ATOM     33  C   UNL A   1      40.791  26.415  27.796  1.00  0.00    -0.014 A 
BRANCH  33  34
ATOM     34  C   UNL A   1      41.146  27.778  28.255  1.00  0.00     0.031 A 
ATOM     35  C   UNL A   1      42.579  28.218  28.203  1.00  0.00     0.074 A 
ATOM     36  C   UNL A   1      40.185  28.616  28.685  1.00  0.00     0.049 A 
ATOM     37  N   UNL A   1      43.120  29.337  28.607  1.00  0.00    -0.248 NA
ATOM     38  C   UNL A   1      43.533  27.262  27.619  1.00  0.00     0.031 C 
ATOM     39  C   UNL A   1      38.754  28.307  28.725  1.00  0.00     0.029 A 
ATOM     40  N   UNL A   1      40.263  29.897  29.168  1.00  0.00    -0.354 N 
ATOM     41  C   UNL A   1      44.478  29.222  28.333  1.00  0.00     0.074 A 
ATOM     42  C   UNL A   1      44.682  27.904  27.768  1.00  0.00     0.031 C 
ATOM     43  C   UNL A   1      38.091  29.373  29.202  1.00  0.00     0.029 A 
ATOM     44  C   UNL A   1      39.049  30.417  29.552  1.00  0.00     0.049 A 
ATOM     45  H   UNL A   1      41.109  30.398  29.234  1.00  0.00     0.167 HD
ATOM     46  C   UNL A   1      45.458  30.138  28.528  1.00  0.00     0.034 A 
ATOM     47  C   UNL A   1      38.752  31.592  30.144  1.00  0.00     0.034 A 
ATOM     48  C   UNL A   1      45.229  31.440  29.108  1.00  0.00     0.049 A 
ATOM     49  C   UNL A   1      39.877  32.553  30.445  1.00  0.00     0.074 A 
ATOM     50  C   UNL A   1      46.146  32.445  29.358  1.00  0.00     0.029 A 
ATOM     51  N   UNL A   1      43.995  31.914  29.536  1.00  0.00    -0.354 N 
ATOM     52  N   UNL A   1      41.160  32.431  30.193  1.00  0.00    -0.248 NA
ATOM     53  C   UNL A   1      39.512  33.814  31.105  1.00  0.00     0.031 C 
ATOM     54  C   UNL A   1      45.482  33.491  30.010  1.00  0.00     0.029 A 
ATOM     55  C   UNL A   1      44.133  33.182  30.081  1.00  0.00     0.049 A 
ATOM     56  H   UNL A   1      43.145  31.421  29.465  1.00  0.00     0.167 HD
ATOM     57  C   UNL A   1      41.749  33.616  30.629  1.00  0.00     0.074 A 
ATOM     58  C   UNL A   1      40.677  34.442  31.147  1.00  0.00     0.031 C 
ATOM     59  C   UNL A   1      43.053  33.992  30.598  1.00  0.00     0.034 A 
BRANCH  46  60
ATOM     60  C   UNL A   1      46.867  29.732  28.165  1.00  0.00     0.023 A 
ATOM     61  C   UNL A   1      47.819  29.401  29.145  1.00  0.00     0.031 A 
ATOM     62  C   UNL A   1      47.276  29.714  26.819  1.00  0.00     0.131 A 
ATOM     63  C   UNL A   1      49.146  29.139  28.773  1.00  0.00     0.055 A 
ATOM     64  C   UNL A   1      48.577  29.368  26.448  1.00  0.00     0.041 A 
ATOM     65  F   UNL A   1      46.421  30.048  25.840  1.00  0.00    -0.206 F 
ATOM     66  C   UNL A   1      49.525  29.093  27.429  1.00  0.00     0.022 A 
BRANCH  63  67
ATOM     67  S   UNL A   1      50.404  29.013  30.073  1.00  0.00     0.124 S 
ATOM     68  O   UNL A   1      51.180  30.231  29.853  1.00  0.00    -0.237 OA
ATOM     69  O   UNL A   1      49.599  28.980  31.289  1.00  0.00    -0.237 OA
ATOM     70  O   UNL A   1      51.104  27.771  29.754  1.00  0.00    -0.744 OA
ENDBRANCH  63  67
ENDBRANCH  46  60
BRANCH  47  71
ATOM     71  C   UNL A   1      37.347  31.914  30.533  1.00  0.00     0.023 A 
ATOM     72  C   UNL A   1      36.472  32.546  29.635  1.00  0.00     0.031 A 
ATOM     73  C   UNL A   1      36.877  31.653  31.833  1.00  0.00     0.131 A 
ATOM     74  C   UNL A   1      35.195  32.942  30.064  1.00  0.00     0.055 A 
ATOM     75  C   UNL A   1      35.585  31.990  32.235  1.00  0.00     0.041 A 
ATOM     76  F   UNL A   1      37.673  31.057  32.737  1.00  0.00    -0.206 F 
ATOM     77  C   UNL A   1      34.740  32.654  31.352  1.00  0.00     0.022 A 
BRANCH  74  78
ATOM     78  S   UNL A   1      34.174  33.940  28.944  1.00  0.00     0.124 S 
ATOM     79  O   UNL A   1      33.232  34.557  29.871  1.00  0.00    -0.237 OA
ATOM     80  O   UNL A   1      35.162  34.830  28.345  1.00  0.00    -0.237 OA
ATOM     81  O   UNL A   1      33.599  32.950  28.036  1.00  0.00    -0.744 OA
ENDBRANCH  74  78
ENDBRANCH  47  71
BRANCH  59  82
ATOM     82  C   UNL A   1      43.380  35.384  31.084  1.00  0.00     0.023 A 
ATOM     83  C   UNL A   1      43.471  36.479  30.206  1.00  0.00     0.031 A 
ATOM     84  C   UNL A   1      43.612  35.615  32.452  1.00  0.00     0.131 A 
ATOM     85  C   UNL A   1      43.844  37.739  30.698  1.00  0.00     0.055 A 
ATOM     86  C   UNL A   1      43.914  36.885  32.945  1.00  0.00     0.041 A 
ATOM     87  F   UNL A   1      43.543  34.607  33.338  1.00  0.00    -0.206 F 
ATOM     88  C   UNL A   1      44.047  37.953  32.063  1.00  0.00     0.022 A 
BRANCH  85  89
ATOM     89  S   UNL A   1      44.167  39.075  29.514  1.00  0.00     0.124 S 
ATOM     90  O   UNL A   1      44.548  38.333  28.316  1.00  0.00    -0.237 OA
ATOM     91  O   UNL A   1      42.879  39.759  29.457  1.00  0.00    -0.237 OA
ATOM     92  O   UNL A   1      45.246  39.836  30.141  1.00  0.00    -0.744 OA
ENDBRANCH  85  89
ENDBRANCH  59  82
ENDBRANCH  33  34
ENDBRANCH  26  28
ENDBRANCH  25  26
ENDBRANCH  24  25
ENDBRANCH   1  24
TORSDOF 18
ENDMDL
MODEL 3
REMARK VINA RESULT:      -9.8      5.041     11.567
REMARK SMILES COc1ccc(-c2cccc(/C=C\C(=O)OCCOC(=O)c3ccc(-c4c5nc(c(-c6cc(S(=O)(=O)[O-])ccc6F)c6ccc([nH]6)c(-c6cc(S(=O)(=O)[O-])ccc6F)c6nc(c(-c7cc(S(=O)(=O)[O-])ccc7F)c7ccc4[nH]7)C=C6)C=C5)cc3)c2)c(Cl)c1OC
REMARK SMILES IDX 17 1 16 2 14 3 15 4 13 5 12 6 11 7 7 8 8 9 85 10 9 11 10 12
REMARK SMILES IDX 6 13 3 14 4 15 88 16 5 17 86 18 87 19 2 20 1 21 89 22 90 23
REMARK SMILES IDX 18 24 19 25 20 26 21 27 22 28 23 29 84 30 24 31 83 32 25 33
REMARK SMILES IDX 26 34 27 35 77 36 28 37 82 38 76 39 78 40 29 41 81 42 75 43
REMARK SMILES IDX 74 44 30 46 62 47 42 48 61 49 43 50 46 51 60 52 79 53 44 54
REMARK SMILES IDX 45 55 59 57 80 58 47 59 31 60 32 61 40 62 33 63 39 64 41 65
REMARK SMILES IDX 38 66 34 67 35 68 36 69 37 70 63 71 64 72 72 73 65 74 71 75
REMARK SMILES IDX 73 76 70 77 66 78 67 79 68 80 69 81 48 82 49 83 57 84 50 85
REMARK SMILES IDX 56 86 58 87 55 88 51 89 52 90 53 91 54 92
REMARK H PARENT 78 45 46 56
REMARK Flexibility Score: inf
ROOT
ATOM      1  C   UNL A   1      31.806  31.464  26.832  1.00  0.00     0.275 C 
ENDROOT
BRANCH   1   2
ATOM      2  O   UNL A   1      33.159  30.980  26.841  1.00  0.00    -0.459 OA
BRANCH   2   3
ATOM      3  C   UNL A   1      33.361  29.657  26.706  1.00  0.00     0.330 C 
ATOM      4  O   UNL A   1      34.450  29.105  26.668  1.00  0.00    -0.247 OA
BRANCH   3   5
ATOM      5  C   UNL A   1      32.101  28.875  26.760  1.00  0.00     0.094 C 
ATOM      6  C   UNL A   1      31.577  27.912  25.982  1.00  0.00     0.015 C 
BRANCH   6   7
ATOM      7  C   UNL A   1      32.175  27.199  24.850  1.00  0.00    -0.025 A 
ATOM      8  C   UNL A   1      33.608  25.382  24.093  1.00  0.00    -0.016 A 
ATOM      9  C   UNL A   1      33.555  25.890  22.789  1.00  0.00     0.009 A 
ATOM     10  C   UNL A   1      32.956  26.074  25.124  1.00  0.00     0.017 A 
ATOM     11  C   UNL A   1      32.722  26.961  22.496  1.00  0.00     0.001 A 
ATOM     12  C   UNL A   1      31.978  27.552  23.515  1.00  0.00     0.008 A 
BRANCH   8  13
ATOM     13  C   UNL A   1      34.241  24.086  24.353  1.00  0.00     0.004 A 
ATOM     14  C   UNL A   1      35.519  21.654  24.826  1.00  0.00     0.162 A 
ATOM     15  C   UNL A   1      36.239  22.849  24.917  1.00  0.00     0.051 A 
ATOM     16  C   UNL A   1      34.152  21.631  24.465  1.00  0.00     0.180 A 
ATOM     17  C   UNL A   1      35.599  24.059  24.696  1.00  0.00     0.014 A 
ATOM     18  C   UNL A   1      33.518  22.863  24.221  1.00  0.00     0.094 A 
ATOM     19  Cl  UNL A   1      31.860  22.986  23.685  1.00  0.00    -0.079 Cl
BRANCH  14  20
ATOM     20  O   UNL A   1      36.160  20.448  25.015  1.00  0.00    -0.493 OA
ATOM     21  C   UNL A   1      37.578  20.562  24.916  1.00  0.00     0.278 C 
ENDBRANCH  14  20
BRANCH  16  22
ATOM     22  O   UNL A   1      33.645  20.358  24.392  1.00  0.00    -0.491 OA
ATOM     23  C   UNL A   1      32.715  19.869  25.341  1.00  0.00     0.278 C 
ENDBRANCH  16  22
ENDBRANCH   8  13
ENDBRANCH   6   7
ENDBRANCH   3   5
ENDBRANCH   2   3
ENDBRANCH   1   2
BRANCH   1  24
ATOM     24  C   UNL A   1      31.779  32.990  26.987  1.00  0.00     0.275 C 
BRANCH  24  25
ATOM     25  O   UNL A   1      33.111  33.526  27.049  1.00  0.00    -0.458 OA
BRANCH  25  26
ATOM     26  C   UNL A   1      33.462  34.124  28.214  1.00  0.00     0.338 C 
ATOM     27  O   UNL A   1      32.859  35.013  28.795  1.00  0.00    -0.246 OA
BRANCH  26  28
ATOM     28  C   UNL A   1      34.624  33.416  28.776  1.00  0.00     0.060 A 
ATOM     29  C   UNL A   1      34.393  32.317  29.608  1.00  0.00     0.016 A 
ATOM     30  C   UNL A   1      35.927  33.829  28.492  1.00  0.00     0.016 A 
ATOM     31  C   UNL A   1      35.464  31.606  30.139  1.00  0.00     0.010 A 
ATOM     32  C   UNL A   1      37.002  33.120  29.033  1.00  0.00     0.010 A 
ATOM     33  C   UNL A   1      36.776  32.004  29.859  1.00  0.00    -0.014 A 
BRANCH  33  34
ATOM     34  C   UNL A   1      37.909  31.294  30.496  1.00  0.00     0.031 A 
ATOM     35  C   UNL A   1      38.299  31.649  31.900  1.00  0.00     0.074 A 
ATOM     36  C   UNL A   1      38.559  30.324  29.826  1.00  0.00     0.049 A 
ATOM     37  N   UNL A   1      39.289  31.200  32.625  1.00  0.00    -0.248 NA
ATOM     38  C   UNL A   1      37.459  32.649  32.576  1.00  0.00     0.031 C 
ATOM     39  C   UNL A   1      38.225  29.864  28.477  1.00  0.00     0.029 A 
ATOM     40  N   UNL A   1      39.630  29.548  30.188  1.00  0.00    -0.354 N 
ATOM     41  C   UNL A   1      39.198  31.866  33.843  1.00  0.00     0.074 A 
ATOM     42  C   UNL A   1      38.080  32.780  33.739  1.00  0.00     0.031 C 
ATOM     43  C   UNL A   1      39.074  28.882  28.128  1.00  0.00     0.029 A 
ATOM     44  C   UNL A   1      40.041  28.681  29.203  1.00  0.00     0.049 A 
ATOM     45  H   UNL A   1      40.064  29.606  31.070  1.00  0.00     0.167 HD
ATOM     46  C   UNL A   1      39.973  31.717  34.946  1.00  0.00     0.034 A 
ATOM     47  C   UNL A   1      41.097  27.842  29.164  1.00  0.00     0.034 A 
ATOM     48  C   UNL A   1      41.092  30.808  35.017  1.00  0.00     0.049 A 
ATOM     49  C   UNL A   1      42.005  27.770  30.368  1.00  0.00     0.074 A 
ATOM     50  C   UNL A   1      41.949  30.578  36.078  1.00  0.00     0.029 A 
ATOM     51  N   UNL A   1      41.515  29.983  33.981  1.00  0.00    -0.354 N 
ATOM     52  N   UNL A   1      41.918  28.412  31.511  1.00  0.00    -0.248 NA
ATOM     53  C   UNL A   1      43.152  26.856  30.279  1.00  0.00     0.031 C 
ATOM     54  C   UNL A   1      42.935  29.679  35.658  1.00  0.00     0.029 A 
ATOM     55  C   UNL A   1      42.641  29.272  34.366  1.00  0.00     0.049 A 
ATOM     56  H   UNL A   1      41.080  29.915  33.100  1.00  0.00     0.167 HD
ATOM     57  C   UNL A   1      42.976  27.948  32.290  1.00  0.00     0.074 A 
ATOM     58  C   UNL A   1      43.677  26.965  31.489  1.00  0.00     0.031 C 
ATOM     59  C   UNL A   1      43.332  28.297  33.553  1.00  0.00     0.034 A 
BRANCH  46  60
ATOM     60  C   UNL A   1      39.666  32.600  36.132  1.00  0.00     0.023 A 
ATOM     61  C   UNL A   1      38.848  32.163  37.189  1.00  0.00     0.031 A 
ATOM     62  C   UNL A   1      40.169  33.912  36.189  1.00  0.00     0.131 A 
ATOM     63  C   UNL A   1      38.496  33.053  38.216  1.00  0.00     0.055 A 
ATOM     64  C   UNL A   1      39.886  34.764  37.258  1.00  0.00     0.041 A 
ATOM     65  F   UNL A   1      40.932  34.395  35.196  1.00  0.00    -0.206 F 
ATOM     66  C   UNL A   1      39.032  34.342  38.272  1.00  0.00     0.022 A 
BRANCH  63  67
ATOM     67  S   UNL A   1      37.209  32.555  39.392  1.00  0.00     0.124 S 
ATOM     68  O   UNL A   1      37.373  33.550  40.449  1.00  0.00    -0.237 OA
ATOM     69  O   UNL A   1      35.992  32.665  38.595  1.00  0.00    -0.237 OA
ATOM     70  O   UNL A   1      37.591  31.194  39.763  1.00  0.00    -0.744 OA
ENDBRANCH  63  67
ENDBRANCH  46  60
BRANCH  47  71
ATOM     71  C   UNL A   1      41.384  27.035  27.942  1.00  0.00     0.023 A 
ATOM     72  C   UNL A   1      41.021  25.681  27.863  1.00  0.00     0.031 A 
ATOM     73  C   UNL A   1      42.084  27.591  26.855  1.00  0.00     0.131 A 
ATOM     74  C   UNL A   1      41.406  24.917  26.749  1.00  0.00     0.055 A 
ATOM     75  C   UNL A   1      42.407  26.844  25.723  1.00  0.00     0.041 A 
ATOM     76  F   UNL A   1      42.463  28.880  26.878  1.00  0.00    -0.206 F 
ATOM     77  C   UNL A   1      42.082  25.493  25.672  1.00  0.00     0.022 A 
BRANCH  74  78
ATOM     78  S   UNL A   1      41.105  23.128  26.779  1.00  0.00     0.124 S 
ATOM     79  O   UNL A   1      39.662  23.067  26.581  1.00  0.00    -0.237 OA
ATOM     80  O   UNL A   1      41.926  22.664  25.666  1.00  0.00    -0.237 OA
ATOM     81  O   UNL A   1      41.572  22.727  28.105  1.00  0.00    -0.744 OA
ENDBRANCH  74  78
ENDBRANCH  47  71
BRANCH  59  82
ATOM     82  C   UNL A   1      44.499  27.560  34.167  1.00  0.00     0.023 A 
ATOM     83  C   UNL A   1      44.335  26.346  34.858  1.00  0.00     0.031 A 
ATOM     84  C   UNL A   1      45.798  28.090  34.063  1.00  0.00     0.131 A 
ATOM     85  C   UNL A   1      45.442  25.735  35.468  1.00  0.00     0.055 A 
ATOM     86  C   UNL A   1      46.905  27.442  34.612  1.00  0.00     0.041 A 
ATOM     87  F   UNL A   1      46.016  29.248  33.418  1.00  0.00    -0.206 F 
ATOM     88  C   UNL A   1      46.728  26.265  35.333  1.00  0.00     0.022 A 
BRANCH  85  89
ATOM     89  S   UNL A   1      45.162  24.295  36.534  1.00  0.00     0.124 S 
ATOM     90  O   UNL A   1      44.305  23.461  35.698  1.00  0.00    -0.237 OA
ATOM     91  O   UNL A   1      46.518  23.800  36.752  1.00  0.00    -0.237 OA
ATOM     92  O   UNL A   1      44.513  24.862  37.715  1.00  0.00    -0.744 OA
ENDBRANCH  85  89
ENDBRANCH  59  82
ENDBRANCH  33  34
ENDBRANCH  26  28
ENDBRANCH  25  26
ENDBRANCH  24  25
ENDBRANCH   1  24
TORSDOF 18
ENDMDL
