MODEL 1
REMARK VINA RESULT:     -11.7      0.000      0.000
REMARK SMILES Cc1cc(C(=O)OCCOC(=O)c2ccc(-c3c4nc(c(-c5cc(S(=O)(=O)[O-])ccc5F)c5ccc([nH]5)c(-c5cc(S(=O)(=O)[O-])ccc5F)c5nc(c(-c6cc(S(=O)(=O)[O-])ccc6F)c6ccc3[nH]6)C=C5)C=C4)cc2)cc(C)c1OC[C@H]1C[N@@H+](C)CCO1
REMARK SMILES IDX 8 1 7 2 5 3 6 4 4 5 1 6 2 7 3 8 79 9 77 10 76 11 78 12 80 13
REMARK SMILES IDX 81 14 82 15 83 16 88 17 84 18 87 19 85 20 86 21 9 23 10 24
REMARK SMILES IDX 11 25 12 26 13 27 14 28 75 29 15 30 74 31 16 32 17 33 18 34
REMARK SMILES IDX 68 35 19 36 73 37 67 38 69 39 20 40 72 41 66 42 65 43 21 45
REMARK SMILES IDX 53 46 33 47 52 48 34 49 37 50 51 51 70 52 35 53 36 54 50 56
REMARK SMILES IDX 71 57 38 58 22 59 23 60 31 61 24 62 30 63 32 64 29 65 25 66
REMARK SMILES IDX 26 67 27 68 28 69 54 70 55 71 63 72 56 73 62 74 64 75 61 76
REMARK SMILES IDX 57 77 58 78 59 79 60 80 39 81 40 82 48 83 41 84 47 85 49 86
REMARK SMILES IDX 46 87 42 88 43 89 44 90 45 91
REMARK H PARENT 84 22 69 44 37 55
REMARK Flexibility Score: inf
ROOT
ATOM      1  C   UNL A   1      35.374  21.496  25.710  1.00  0.00     0.275 C 
ENDROOT
BRANCH   1   2
ATOM      2  O   UNL A   1      34.772  22.342  24.708  1.00  0.00    -0.458 OA
BRANCH   2   3
ATOM      3  C   UNL A   1      34.637  23.634  25.076  1.00  0.00     0.338 C 
ATOM      4  O   UNL A   1      35.420  24.297  25.746  1.00  0.00    -0.246 OA
BRANCH   3   5
ATOM      5  C   UNL A   1      33.458  24.234  24.438  1.00  0.00     0.060 A 
ATOM      6  C   UNL A   1      32.787  25.271  20.903  1.00  0.00     0.048 C 
ATOM      7  C   UNL A   1      32.542  25.206  22.381  1.00  0.00    -0.008 A 
ATOM      8  C   UNL A   1      33.521  24.473  23.074  1.00  0.00     0.023 A 
ATOM      9  C   UNL A   1      31.497  25.779  23.116  1.00  0.00     0.125 A 
ATOM     10  C   UNL A   1      31.357  25.418  24.488  1.00  0.00    -0.008 A 
ATOM     11  C   UNL A   1      32.345  24.652  25.146  1.00  0.00     0.023 A 
ATOM     12  C   UNL A   1      30.126  25.774  25.284  1.00  0.00     0.048 C 
BRANCH   9  13
ATOM     13  O   UNL A   1      30.549  26.661  22.674  1.00  0.00    -0.490 OA
BRANCH  13  14
ATOM     14  C   UNL A   1      30.793  28.067  22.489  1.00  0.00     0.267 C 
BRANCH  14  15
ATOM     15  C   UNL A   1      29.692  29.026  22.991  1.00  0.00     0.210 C 
ATOM     16  C   UNL A   1      29.711  30.351  22.193  1.00  0.00     0.298 C 
ATOM     17  O   UNL A   1      28.386  28.418  22.793  1.00  0.00    -0.363 OA
ATOM     18  N   UNL A   1      28.761  31.280  22.828  1.00  0.00    -0.333 N 
ATOM     19  C   UNL A   1      27.337  29.296  23.256  1.00  0.00     0.222 C 
ATOM     20  C   UNL A   1      28.870  32.630  22.281  1.00  0.00     0.332 C 
ATOM     21  C   UNL A   1      27.411  30.718  22.658  1.00  0.00     0.290 C 
ATOM     22  H   UNL A   1      28.973  31.376  23.820  1.00  0.00     0.348 HD
ENDBRANCH  14  15
ENDBRANCH  13  14
ENDBRANCH   9  13
ENDBRANCH   3   5
ENDBRANCH   2   3
ENDBRANCH   1   2
BRANCH   1  23
ATOM     23  C   UNL A   1      36.402  20.562  25.073  1.00  0.00     0.275 C 
BRANCH  23  24
ATOM     24  O   UNL A   1      37.627  21.272  24.806  1.00  0.00    -0.458 OA
BRANCH  24  25
ATOM     25  C   UNL A   1      38.662  20.970  25.623  1.00  0.00     0.338 C 
ATOM     26  O   UNL A   1      39.120  19.852  25.832  1.00  0.00    -0.246 OA
BRANCH  25  27
ATOM     27  C   UNL A   1      39.202  22.177  26.283  1.00  0.00     0.060 A 
ATOM     28  C   UNL A   1      38.643  23.436  26.073  1.00  0.00     0.016 A 
ATOM     29  C   UNL A   1      40.383  22.066  27.020  1.00  0.00     0.016 A 
ATOM     30  C   UNL A   1      39.356  24.582  26.442  1.00  0.00     0.010 A 
ATOM     31  C   UNL A   1      41.007  23.213  27.526  1.00  0.00     0.010 A 
ATOM     32  C   UNL A   1      40.539  24.496  27.196  1.00  0.00    -0.014 A 
BRANCH  32  33
ATOM     33  C   UNL A   1      41.296  25.721  27.621  1.00  0.00     0.031 A 
ATOM     34  C   UNL A   1      40.642  26.768  28.499  1.00  0.00     0.074 A 
ATOM     35  C   UNL A   1      42.568  25.925  27.217  1.00  0.00     0.049 A 
ATOM     36  N   UNL A   1      41.034  27.989  28.773  1.00  0.00    -0.248 NA
ATOM     37  C   UNL A   1      39.365  26.401  29.128  1.00  0.00     0.031 C 
ATOM     38  C   UNL A   1      43.357  25.009  26.391  1.00  0.00     0.029 A 
ATOM     39  N   UNL A   1      43.429  26.972  27.453  1.00  0.00    -0.354 N 
ATOM     40  C   UNL A   1      40.017  28.560  29.536  1.00  0.00     0.074 A 
ATOM     41  C   UNL A   1      38.990  27.548  29.676  1.00  0.00     0.031 C 
ATOM     42  C   UNL A   1      44.596  25.500  26.241  1.00  0.00     0.029 A 
ATOM     43  C   UNL A   1      44.660  26.820  26.855  1.00  0.00     0.049 A 
ATOM     44  H   UNL A   1      43.188  27.756  27.998  1.00  0.00     0.167 HD
ATOM     45  C   UNL A   1      39.944  29.809  30.066  1.00  0.00     0.034 A 
ATOM     46  C   UNL A   1      45.710  27.659  26.751  1.00  0.00     0.034 A 
ATOM     47  C   UNL A   1      41.004  30.787  29.985  1.00  0.00     0.049 A 
ATOM     48  C   UNL A   1      45.607  29.040  27.337  1.00  0.00     0.074 A 
ATOM     49  C   UNL A   1      41.045  32.064  30.522  1.00  0.00     0.029 A 
ATOM     50  N   UNL A   1      42.219  30.595  29.341  1.00  0.00    -0.354 N 
ATOM     51  N   UNL A   1      44.605  29.590  27.981  1.00  0.00    -0.248 NA
ATOM     52  C   UNL A   1      46.770  29.918  27.161  1.00  0.00     0.031 C 
ATOM     53  C   UNL A   1      42.259  32.659  30.162  1.00  0.00     0.029 A 
ATOM     54  C   UNL A   1      43.006  31.733  29.453  1.00  0.00     0.049 A 
ATOM     55  H   UNL A   1      42.485  29.771  28.873  1.00  0.00     0.167 HD
ATOM     56  C   UNL A   1      45.020  30.883  28.287  1.00  0.00     0.074 A 
ATOM     57  C   UNL A   1      46.371  31.018  27.782  1.00  0.00     0.031 C 
ATOM     58  C   UNL A   1      44.341  31.869  28.924  1.00  0.00     0.034 A 
BRANCH  45  59
ATOM     59  C   UNL A   1      38.648  30.210  30.735  1.00  0.00     0.023 A 
ATOM     60  C   UNL A   1      37.621  30.875  30.046  1.00  0.00     0.031 A 
ATOM     61  C   UNL A   1      38.449  29.935  32.102  1.00  0.00     0.131 A 
ATOM     62  C   UNL A   1      36.480  31.312  30.740  1.00  0.00     0.055 A 
ATOM     63  C   UNL A   1      37.278  30.301  32.768  1.00  0.00     0.041 A 
ATOM     64  F   UNL A   1      39.400  29.314  32.819  1.00  0.00    -0.206 F 
ATOM     65  C   UNL A   1      36.290  31.009  32.090  1.00  0.00     0.022 A 
BRANCH  62  66
ATOM     66  S   UNL A   1      35.314  32.407  29.886  1.00  0.00     0.124 S 
ATOM     67  O   UNL A   1      34.369  32.723  30.954  1.00  0.00    -0.237 OA
ATOM     68  O   UNL A   1      36.172  33.502  29.448  1.00  0.00    -0.237 OA
ATOM     69  O   UNL A   1      34.776  31.569  28.816  1.00  0.00    -0.744 OA
ENDBRANCH  62  66
ENDBRANCH  45  59
BRANCH  46  70
ATOM     70  C   UNL A   1      46.923  27.245  25.993  1.00  0.00     0.023 A 
ATOM     71  C   UNL A   1      47.125  27.662  24.669  1.00  0.00     0.031 A 
ATOM     72  C   UNL A   1      47.894  26.413  26.582  1.00  0.00     0.131 A 
ATOM     73  C   UNL A   1      48.261  27.229  23.968  1.00  0.00     0.055 A 
ATOM     74  C   UNL A   1      49.047  26.028  25.898  1.00  0.00     0.041 A 
ATOM     75  F   UNL A   1      47.746  25.988  27.847  1.00  0.00    -0.206 F 
ATOM     76  C   UNL A   1      49.232  26.429  24.580  1.00  0.00     0.022 A 
BRANCH  73  77
ATOM     77  S   UNL A   1      48.428  27.681  22.220  1.00  0.00     0.124 S 
ATOM     78  O   UNL A   1      48.504  26.373  21.581  1.00  0.00    -0.237 OA
ATOM     79  O   UNL A   1      47.203  28.439  21.985  1.00  0.00    -0.237 OA
ATOM     80  O   UNL A   1      49.660  28.466  22.187  1.00  0.00    -0.744 OA
ENDBRANCH  73  77
ENDBRANCH  46  70
BRANCH  58  81
ATOM     81  C   UNL A   1      45.075  33.169  29.131  1.00  0.00     0.023 A 
ATOM     82  C   UNL A   1      44.992  34.217  28.196  1.00  0.00     0.031 A 
ATOM     83  C   UNL A   1      45.898  33.346  30.256  1.00  0.00     0.131 A 
ATOM     84  C   UNL A   1      45.763  35.375  28.378  1.00  0.00     0.055 A 
ATOM     85  C   UNL A   1      46.624  34.521  30.456  1.00  0.00     0.041 A 
ATOM     86  F   UNL A   1      46.015  32.374  31.175  1.00  0.00    -0.206 F 
ATOM     87  C   UNL A   1      46.569  35.539  29.508  1.00  0.00     0.022 A 
BRANCH  84  88
ATOM     88  S   UNL A   1      45.768  36.632  27.069  1.00  0.00     0.124 S 
ATOM     89  O   UNL A   1      46.393  35.917  25.963  1.00  0.00    -0.237 OA
ATOM     90  O   UNL A   1      44.348  36.929  26.917  1.00  0.00    -0.237 OA
ATOM     91  O   UNL A   1      46.569  37.716  27.638  1.00  0.00    -0.744 OA
ENDBRANCH  84  88
ENDBRANCH  58  81
ENDBRANCH  32  33
ENDBRANCH  25  27
ENDBRANCH  24  25
ENDBRANCH  23  24
ENDBRANCH   1  23
TORSDOF 17
ENDMDL
MODEL 2
REMARK VINA RESULT:     -11.7      5.363     10.595
REMARK SMILES Cc1cc(C(=O)OCCOC(=O)c2ccc(-c3c4nc(c(-c5cc(S(=O)(=O)[O-])ccc5F)c5ccc([nH]5)c(-c5cc(S(=O)(=O)[O-])ccc5F)c5nc(c(-c6cc(S(=O)(=O)[O-])ccc6F)c6ccc3[nH]6)C=C5)C=C4)cc2)cc(C)c1OC[C@H]1C[N@@H+](C)CCO1
REMARK SMILES IDX 8 1 7 2 5 3 6 4 4 5 1 6 2 7 3 8 79 9 77 10 76 11 78 12 80 13
REMARK SMILES IDX 81 14 82 15 83 16 88 17 84 18 87 19 85 20 86 21 9 23 10 24
REMARK SMILES IDX 11 25 12 26 13 27 14 28 75 29 15 30 74 31 16 32 17 33 18 34
REMARK SMILES IDX 68 35 19 36 73 37 67 38 69 39 20 40 72 41 66 42 65 43 21 45
REMARK SMILES IDX 53 46 33 47 52 48 34 49 37 50 51 51 70 52 35 53 36 54 50 56
REMARK SMILES IDX 71 57 38 58 22 59 23 60 31 61 24 62 30 63 32 64 29 65 25 66
REMARK SMILES IDX 26 67 27 68 28 69 54 70 55 71 63 72 56 73 62 74 64 75 61 76
REMARK SMILES IDX 57 77 58 78 59 79 60 80 39 81 40 82 48 83 41 84 47 85 49 86
REMARK SMILES IDX 46 87 42 88 43 89 44 90 45 91
REMARK H PARENT 84 22 69 44 37 55
REMARK Flexibility Score: inf
ROOT
ATOM      1  C   UNL A   1      31.416  29.015  25.310  1.00  0.00     0.275 C 
ENDROOT
BRANCH   1   2
ATOM      2  O   UNL A   1      32.366  28.098  25.890  1.00  0.00    -0.458 OA
BRANCH   2   3
ATOM      3  C   UNL A   1      31.834  27.220  26.768  1.00  0.00     0.338 C 
ATOM      4  O   UNL A   1      31.061  27.471  27.686  1.00  0.00    -0.246 OA
BRANCH   3   5
ATOM      5  C   UNL A   1      32.184  25.842  26.402  1.00  0.00     0.060 A 
ATOM      6  C   UNL A   1      35.272  24.372  24.877  1.00  0.00     0.048 C 
ATOM      7  C   UNL A   1      33.839  24.393  25.317  1.00  0.00    -0.008 A 
ATOM      8  C   UNL A   1      33.447  25.622  25.874  1.00  0.00     0.023 A 
ATOM      9  C   UNL A   1      32.887  23.371  25.227  1.00  0.00     0.125 A 
ATOM     10  C   UNL A   1      31.638  23.548  25.893  1.00  0.00    -0.008 A 
ATOM     11  C   UNL A   1      31.289  24.789  26.472  1.00  0.00     0.023 A 
ATOM     12  C   UNL A   1      30.662  22.413  26.073  1.00  0.00     0.048 C 
BRANCH   9  13
ATOM     13  O   UNL A   1      33.002  22.174  24.575  1.00  0.00    -0.490 OA
BRANCH  13  14
ATOM     14  C   UNL A   1      33.647  21.018  25.139  1.00  0.00     0.267 C 
BRANCH  14  15
ATOM     15  C   UNL A   1      33.693  19.756  24.251  1.00  0.00     0.210 C 
ATOM     16  C   UNL A   1      33.984  18.496  25.099  1.00  0.00     0.298 C 
ATOM     17  O   UNL A   1      32.401  19.560  23.612  1.00  0.00    -0.363 OA
ATOM     18  N   UNL A   1      34.184  17.363  24.181  1.00  0.00    -0.333 N 
ATOM     19  C   UNL A   1      32.417  18.385  22.773  1.00  0.00     0.222 C 
ATOM     20  C   UNL A   1      34.683  16.179  24.875  1.00  0.00     0.332 C 
ATOM     21  C   UNL A   1      32.902  17.112  23.501  1.00  0.00     0.290 C 
ATOM     22  H   UNL A   1      34.901  17.591  23.493  1.00  0.00     0.348 HD
ENDBRANCH  14  15
ENDBRANCH  13  14
ENDBRANCH   9  13
ENDBRANCH   3   5
ENDBRANCH   2   3
ENDBRANCH   1   2
BRANCH   1  23
ATOM     23  C   UNL A   1      31.810  30.459  25.615  1.00  0.00     0.275 C 
BRANCH  23  24
ATOM     24  O   UNL A   1      32.231  30.584  26.987  1.00  0.00    -0.458 OA
BRANCH  24  25
ATOM     25  C   UNL A   1      32.964  31.686  27.270  1.00  0.00     0.338 C 
ATOM     26  O   UNL A   1      32.590  32.850  27.179  1.00  0.00    -0.246 OA
BRANCH  25  27
ATOM     27  C   UNL A   1      34.332  31.330  27.705  1.00  0.00     0.060 A 
ATOM     28  C   UNL A   1      34.697  30.009  27.959  1.00  0.00     0.016 A 
ATOM     29  C   UNL A   1      35.229  32.358  28.000  1.00  0.00     0.016 A 
ATOM     30  C   UNL A   1      35.873  29.739  28.667  1.00  0.00     0.010 A 
ATOM     31  C   UNL A   1      36.476  32.064  28.563  1.00  0.00     0.010 A 
ATOM     32  C   UNL A   1      36.798  30.755  28.963  1.00  0.00    -0.014 A 
BRANCH  32  33
ATOM     33  C   UNL A   1      38.077  30.470  29.698  1.00  0.00     0.031 A 
ATOM     34  C   UNL A   1      39.144  29.591  29.079  1.00  0.00     0.074 A 
ATOM     35  C   UNL A   1      38.296  30.977  30.929  1.00  0.00     0.049 A 
ATOM     36  N   UNL A   1      40.193  29.037  29.637  1.00  0.00    -0.248 NA
ATOM     37  C   UNL A   1      38.994  29.271  27.652  1.00  0.00     0.031 C 
ATOM     38  C   UNL A   1      37.387  31.861  31.661  1.00  0.00     0.029 A 
ATOM     39  N   UNL A   1      39.360  30.825  31.788  1.00  0.00    -0.354 N 
ATOM     40  C   UNL A   1      40.779  28.242  28.654  1.00  0.00     0.074 A 
ATOM     41  C   UNL A   1      39.962  28.386  27.466  1.00  0.00     0.031 C 
ATOM     42  C   UNL A   1      37.954  32.220  32.822  1.00  0.00     0.029 A 
ATOM     43  C   UNL A   1      39.212  31.501  32.978  1.00  0.00     0.049 A 
ATOM     44  H   UNL A   1      40.154  30.284  31.571  1.00  0.00     0.167 HD
ATOM     45  C   UNL A   1      41.890  27.463  28.734  1.00  0.00     0.034 A 
ATOM     46  C   UNL A   1      39.961  31.507  34.098  1.00  0.00     0.034 A 
ATOM     47  C   UNL A   1      42.741  27.383  29.898  1.00  0.00     0.049 A 
ATOM     48  C   UNL A   1      41.182  30.633  34.171  1.00  0.00     0.074 A 
ATOM     49  C   UNL A   1      43.909  26.656  30.066  1.00  0.00     0.029 A 
ATOM     50  N   UNL A   1      42.530  28.063  31.089  1.00  0.00    -0.354 N 
ATOM     51  N   UNL A   1      41.672  29.824  33.262  1.00  0.00    -0.248 NA
ATOM     52  C   UNL A   1      41.935  30.657  35.430  1.00  0.00     0.031 C 
ATOM     53  C   UNL A   1      44.375  26.858  31.371  1.00  0.00     0.029 A 
ATOM     54  C   UNL A   1      43.534  27.761  31.999  1.00  0.00     0.049 A 
ATOM     55  H   UNL A   1      41.777  28.673  31.264  1.00  0.00     0.167 HD
ATOM     56  C   UNL A   1      42.795  29.243  33.843  1.00  0.00     0.074 A 
ATOM     57  C   UNL A   1      42.923  29.814  35.167  1.00  0.00     0.031 C 
ATOM     58  C   UNL A   1      43.639  28.315  33.327  1.00  0.00     0.034 A 
BRANCH  45  59
ATOM     59  C   UNL A   1      42.219  26.590  27.543  1.00  0.00     0.023 A 
ATOM     60  C   UNL A   1      41.802  25.252  27.456  1.00  0.00     0.031 A 
ATOM     61  C   UNL A   1      42.986  27.108  26.483  1.00  0.00     0.131 A 
ATOM     62  C   UNL A   1      42.218  24.457  26.374  1.00  0.00     0.055 A 
ATOM     63  C   UNL A   1      43.330  26.336  25.371  1.00  0.00     0.041 A 
ATOM     64  F   UNL A   1      43.427  28.376  26.515  1.00  0.00    -0.206 F 
ATOM     65  C   UNL A   1      42.959  24.996  25.320  1.00  0.00     0.022 A 
BRANCH  62  66
ATOM     66  S   UNL A   1      41.899  22.673  26.437  1.00  0.00     0.124 S 
ATOM     67  O   UNL A   1      40.448  22.638  26.601  1.00  0.00    -0.237 OA
ATOM     68  O   UNL A   1      42.407  22.216  25.149  1.00  0.00    -0.237 OA
ATOM     69  O   UNL A   1      42.661  22.228  27.602  1.00  0.00    -0.744 OA
ENDBRANCH  62  66
ENDBRANCH  45  59
BRANCH  46  70
ATOM     70  C   UNL A   1      39.532  32.312  35.277  1.00  0.00     0.023 A 
ATOM     71  C   UNL A   1      38.785  31.733  36.313  1.00  0.00     0.031 A 
ATOM     72  C   UNL A   1      39.857  33.677  35.376  1.00  0.00     0.131 A 
ATOM     73  C   UNL A   1      38.366  32.523  37.395  1.00  0.00     0.055 A 
ATOM     74  C   UNL A   1      39.483  34.446  36.477  1.00  0.00     0.041 A 
ATOM     75  F   UNL A   1      40.572  34.277  34.410  1.00  0.00    -0.206 F 
ATOM     76  C   UNL A   1      38.726  33.871  37.492  1.00  0.00     0.022 A 
BRANCH  73  77
ATOM     77  S   UNL A   1      37.294  31.776  38.652  1.00  0.00     0.124 S 
ATOM     78  O   UNL A   1      36.122  32.641  38.595  1.00  0.00    -0.237 OA
ATOM     79  O   UNL A   1      37.118  30.423  38.135  1.00  0.00    -0.237 OA
ATOM     80  O   UNL A   1      38.085  31.875  39.876  1.00  0.00    -0.744 OA
ENDBRANCH  73  77
ENDBRANCH  46  70
BRANCH  58  81
ATOM     81  C   UNL A   1      44.793  27.893  34.200  1.00  0.00     0.023 A 
ATOM     82  C   UNL A   1      44.678  26.820  35.102  1.00  0.00     0.031 A 
ATOM     83  C   UNL A   1      46.008  28.597  34.157  1.00  0.00     0.131 A 
ATOM     84  C   UNL A   1      45.743  26.516  35.964  1.00  0.00     0.055 A 
ATOM     85  C   UNL A   1      47.081  28.259  34.983  1.00  0.00     0.041 A 
ATOM     86  F   UNL A   1      46.167  29.632  33.317  1.00  0.00    -0.206 F 
ATOM     87  C   UNL A   1      46.948  27.221  35.901  1.00  0.00     0.022 A 
BRANCH  84  88
ATOM     88  S   UNL A   1      45.501  25.243  37.233  1.00  0.00     0.124 S 
ATOM     89  O   UNL A   1      46.794  24.568  37.237  1.00  0.00    -0.237 OA
ATOM     90  O   UNL A   1      45.190  26.037  38.417  1.00  0.00    -0.237 OA
ATOM     91  O   UNL A   1      44.389  24.448  36.713  1.00  0.00    -0.744 OA
ENDBRANCH  84  88
ENDBRANCH  58  81
ENDBRANCH  32  33
ENDBRANCH  25  27
ENDBRANCH  24  25
ENDBRANCH  23  24
ENDBRANCH   1  23
TORSDOF 17
ENDMDL
MODEL 3
REMARK VINA RESULT:     -11.4      5.050      9.133
REMARK SMILES Cc1cc(C(=O)OCCOC(=O)c2ccc(-c3c4nc(c(-c5cc(S(=O)(=O)[O-])ccc5F)c5ccc([nH]5)c(-c5cc(S(=O)(=O)[O-])ccc5F)c5nc(c(-c6cc(S(=O)(=O)[O-])ccc6F)c6ccc3[nH]6)C=C5)C=C4)cc2)cc(C)c1OC[C@H]1C[N@@H+](C)CCO1
REMARK SMILES IDX 8 1 7 2 5 3 6 4 4 5 1 6 2 7 3 8 79 9 77 10 76 11 78 12 80 13
REMARK SMILES IDX 81 14 82 15 83 16 88 17 84 18 87 19 85 20 86 21 9 23 10 24
REMARK SMILES IDX 11 25 12 26 13 27 14 28 75 29 15 30 74 31 16 32 17 33 18 34
REMARK SMILES IDX 68 35 19 36 73 37 67 38 69 39 20 40 72 41 66 42 65 43 21 45
REMARK SMILES IDX 53 46 33 47 52 48 34 49 37 50 51 51 70 52 35 53 36 54 50 56
REMARK SMILES IDX 71 57 38 58 22 59 23 60 31 61 24 62 30 63 32 64 29 65 25 66
REMARK SMILES IDX 26 67 27 68 28 69 54 70 55 71 63 72 56 73 62 74 64 75 61 76
REMARK SMILES IDX 57 77 58 78 59 79 60 80 39 81 40 82 48 83 41 84 47 85 49 86
REMARK SMILES IDX 46 87 42 88 43 89 44 90 45 91
REMARK H PARENT 84 22 69 44 37 55
REMARK Flexibility Score: inf
ROOT
ATOM      1  C   UNL A   1      42.902  19.640  25.926  1.00  0.00     0.275 C 
ENDROOT
BRANCH   1   2
ATOM      2  O   UNL A   1      41.531  19.911  25.565  1.00  0.00    -0.458 OA
BRANCH   2   3
ATOM      3  C   UNL A   1      40.726  20.207  26.609  1.00  0.00     0.338 C 
ATOM      4  O   UNL A   1      40.941  19.982  27.794  1.00  0.00    -0.246 OA
BRANCH   3   5
ATOM      5  C   UNL A   1      39.569  20.994  26.164  1.00  0.00     0.060 A 
ATOM      6  C   UNL A   1      38.709  24.616  26.563  1.00  0.00     0.048 C 
ATOM      7  C   UNL A   1      38.448  23.174  26.248  1.00  0.00    -0.008 A 
ATOM      8  C   UNL A   1      39.568  22.350  26.452  1.00  0.00     0.023 A 
ATOM      9  C   UNL A   1      37.261  22.582  25.802  1.00  0.00     0.125 A 
ATOM     10  C   UNL A   1      37.301  21.222  25.375  1.00  0.00    -0.008 A 
ATOM     11  C   UNL A   1      38.456  20.430  25.566  1.00  0.00     0.023 A 
ATOM     12  C   UNL A   1      36.148  20.582  24.642  1.00  0.00     0.048 C 
BRANCH   9  13
ATOM     13  O   UNL A   1      36.023  23.157  25.704  1.00  0.00    -0.490 OA
BRANCH  13  14
ATOM     14  C   UNL A   1      35.687  24.163  24.731  1.00  0.00     0.267 C 
BRANCH  14  15
ATOM     15  C   UNL A   1      34.251  24.118  24.166  1.00  0.00     0.210 C 
ATOM     16  C   UNL A   1      33.389  25.253  24.766  1.00  0.00     0.298 C 
ATOM     17  O   UNL A   1      34.286  24.314  22.726  1.00  0.00    -0.363 OA
ATOM     18  N   UNL A   1      31.998  25.054  24.324  1.00  0.00    -0.333 N 
ATOM     19  C   UNL A   1      32.952  24.275  22.172  1.00  0.00     0.222 C 
ATOM     20  C   UNL A   1      31.072  25.945  25.017  1.00  0.00     0.332 C 
ATOM     21  C   UNL A   1      31.967  25.242  22.864  1.00  0.00     0.290 C 
ATOM     22  H   UNL A   1      31.688  24.111  24.558  1.00  0.00     0.348 HD
ENDBRANCH  14  15
ENDBRANCH  13  14
ENDBRANCH   9  13
ENDBRANCH   3   5
ENDBRANCH   2   3
ENDBRANCH   1   2
BRANCH   1  23
ATOM     23  C   UNL A   1      43.830  20.703  25.339  1.00  0.00     0.275 C 
BRANCH  23  24
ATOM     24  O   UNL A   1      43.703  21.938  26.070  1.00  0.00    -0.458 OA
BRANCH  24  25
ATOM     25  C   UNL A   1      43.276  22.998  25.346  1.00  0.00     0.338 C 
ATOM     26  O   UNL A   1      43.349  23.123  24.128  1.00  0.00    -0.246 OA
BRANCH  25  27
ATOM     27  C   UNL A   1      42.700  24.050  26.211  1.00  0.00     0.060 A 
ATOM     28  C   UNL A   1      42.744  25.396  25.852  1.00  0.00     0.016 A 
ATOM     29  C   UNL A   1      42.231  23.693  27.477  1.00  0.00     0.016 A 
ATOM     30  C   UNL A   1      42.491  26.379  26.815  1.00  0.00     0.010 A 
ATOM     31  C   UNL A   1      41.826  24.682  28.382  1.00  0.00     0.010 A 
ATOM     32  C   UNL A   1      42.005  26.045  28.090  1.00  0.00    -0.014 A 
BRANCH  32  33
ATOM     33  C   UNL A   1      41.704  27.095  29.122  1.00  0.00     0.031 A 
ATOM     34  C   UNL A   1      42.537  27.201  30.382  1.00  0.00     0.074 A 
ATOM     35  C   UNL A   1      40.676  27.955  28.956  1.00  0.00     0.049 A 
ATOM     36  N   UNL A   1      42.297  27.868  31.486  1.00  0.00    -0.248 NA
ATOM     37  C   UNL A   1      43.791  26.435  30.414  1.00  0.00     0.031 C 
ATOM     38  C   UNL A   1      39.789  28.008  27.793  1.00  0.00     0.029 A 
ATOM     39  N   UNL A   1      40.203  28.958  29.770  1.00  0.00    -0.354 N 
ATOM     40  C   UNL A   1      43.324  27.537  32.368  1.00  0.00     0.074 A 
ATOM     41  C   UNL A   1      44.185  26.606  31.667  1.00  0.00     0.031 C 
ATOM     42  C   UNL A   1      38.926  29.024  27.938  1.00  0.00     0.029 A 
ATOM     43  C   UNL A   1      39.113  29.621  29.253  1.00  0.00     0.049 A 
ATOM     44  H   UNL A   1      40.607  29.181  30.640  1.00  0.00     0.167 HD
ATOM     45  C   UNL A   1      43.527  27.964  33.642  1.00  0.00     0.034 A 
ATOM     46  C   UNL A   1      38.309  30.562  29.786  1.00  0.00     0.034 A 
ATOM     47  C   UNL A   1      42.706  28.948  34.307  1.00  0.00     0.049 A 
ATOM     48  C   UNL A   1      38.545  31.017  31.199  1.00  0.00     0.074 A 
ATOM     49  C   UNL A   1      42.851  29.477  35.580  1.00  0.00     0.029 A 
ATOM     50  N   UNL A   1      41.594  29.567  33.752  1.00  0.00    -0.354 N 
ATOM     51  N   UNL A   1      39.469  30.631  32.046  1.00  0.00    -0.248 NA
ATOM     52  C   UNL A   1      37.613  32.017  31.734  1.00  0.00     0.031 C 
ATOM     53  C   UNL A   1      41.802  30.376  35.811  1.00  0.00     0.029 A 
ATOM     54  C   UNL A   1      41.036  30.457  34.660  1.00  0.00     0.049 A 
ATOM     55  H   UNL A   1      41.250  29.400  32.845  1.00  0.00     0.167 HD
ATOM     56  C   UNL A   1      39.228  31.344  33.216  1.00  0.00     0.074 A 
ATOM     57  C   UNL A   1      38.091  32.202  32.955  1.00  0.00     0.031 C 
ATOM     58  C   UNL A   1      39.887  31.289  34.401  1.00  0.00     0.034 A 
BRANCH  45  59
ATOM     59  C   UNL A   1      44.655  27.326  34.422  1.00  0.00     0.023 A 
ATOM     60  C   UNL A   1      44.536  26.058  35.013  1.00  0.00     0.031 A 
ATOM     61  C   UNL A   1      45.870  28.017  34.592  1.00  0.00     0.131 A 
ATOM     62  C   UNL A   1      45.579  25.554  35.809  1.00  0.00     0.055 A 
ATOM     63  C   UNL A   1      46.934  27.477  35.318  1.00  0.00     0.041 A 
ATOM     64  F   UNL A   1      46.040  29.240  34.063  1.00  0.00    -0.206 F 
ATOM     65  C   UNL A   1      46.786  26.245  35.946  1.00  0.00     0.022 A 
BRANCH  62  66
ATOM     66  S   UNL A   1      45.280  24.052  36.779  1.00  0.00     0.124 S 
ATOM     67  O   UNL A   1      44.207  23.417  36.018  1.00  0.00    -0.237 OA
ATOM     68  O   UNL A   1      46.576  23.385  36.735  1.00  0.00    -0.237 OA
ATOM     69  O   UNL A   1      44.885  24.563  38.090  1.00  0.00    -0.744 OA
ENDBRANCH  62  66
ENDBRANCH  45  59
BRANCH  46  70
ATOM     70  C   UNL A   1      37.151  31.082  29.005  1.00  0.00     0.023 A 
ATOM     71  C   UNL A   1      36.126  30.226  28.577  1.00  0.00     0.031 A 
ATOM     72  C   UNL A   1      37.062  32.445  28.665  1.00  0.00     0.131 A 
ATOM     73  C   UNL A   1      35.064  30.738  27.815  1.00  0.00     0.055 A 
ATOM     74  C   UNL A   1      35.980  32.958  27.951  1.00  0.00     0.041 A 
ATOM     75  F   UNL A   1      38.019  33.304  29.052  1.00  0.00    -0.206 F 
ATOM     76  C   UNL A   1      34.976  32.100  27.514  1.00  0.00     0.022 A 
BRANCH  73  77
ATOM     77  S   UNL A   1      33.823  29.584  27.170  1.00  0.00     0.124 S 
ATOM     78  O   UNL A   1      34.486  29.069  25.978  1.00  0.00    -0.237 OA
ATOM     79  O   UNL A   1      33.677  28.645  28.278  1.00  0.00    -0.237 OA
ATOM     80  O   UNL A   1      32.662  30.436  26.922  1.00  0.00    -0.744 OA
ENDBRANCH  73  77
ENDBRANCH  46  70
BRANCH  58  81
ATOM     81  C   UNL A   1      39.400  32.213  35.488  1.00  0.00     0.023 A 
ATOM     82  C   UNL A   1      39.940  33.501  35.654  1.00  0.00     0.031 A 
ATOM     83  C   UNL A   1      38.415  31.784  36.393  1.00  0.00     0.131 A 
ATOM     84  C   UNL A   1      39.527  34.296  36.734  1.00  0.00     0.055 A 
ATOM     85  C   UNL A   1      37.973  32.598  37.436  1.00  0.00     0.041 A 
ATOM     86  F   UNL A   1      37.872  30.561  36.281  1.00  0.00    -0.206 F 
ATOM     87  C   UNL A   1      38.539  33.857  37.619  1.00  0.00     0.022 A 
BRANCH  84  88
ATOM     88  S   UNL A   1      40.366  35.879  37.021  1.00  0.00     0.124 S 
ATOM     89  O   UNL A   1      39.732  36.742  36.030  1.00  0.00    -0.237 OA
ATOM     90  O   UNL A   1      40.037  36.158  38.415  1.00  0.00    -0.237 OA
ATOM     91  O   UNL A   1      41.773  35.572  36.766  1.00  0.00    -0.744 OA
ENDBRANCH  84  88
ENDBRANCH  58  81
ENDBRANCH  32  33
ENDBRANCH  25  27
ENDBRANCH  24  25
ENDBRANCH  23  24
ENDBRANCH   1  23
TORSDOF 17
ENDMDL
