MODEL 1
REMARK VINA RESULT:     -14.4      0.000      0.000
REMARK SMILES Cc1ccc([C@@]23C[C@@H]4C[C@@H](C[C@@](C(=O)N5CCC(C(=O)OCCOC(=O)c6ccc(-c7c8nc(c(-c9cc(S(=O)(=O)[O-])ccc9F)c9ccc([nH]9)c(-c9cc(S(=O)(=O)[O-])ccc9F)c9nc(c(-c%10cc(S(=O)(=O)[O-])ccc%10F)c%10ccc7[nH]%10)C=C9)C=C8)cc6)CC5)(C4)C2)C3)cc1
REMARK SMILES IDX 23 1 22 2 21 3 19 4 20 5 18 6 13 7 14 8 15 9 16 10 91 11
REMARK SMILES IDX 17 12 90 13 12 14 6 15 7 16 93 17 94 18 8 19 10 20 9 21
REMARK SMILES IDX 92 22 11 23 5 24 1 25 2 26 3 27 96 28 4 29 95 30 24 31 25 32
REMARK SMILES IDX 26 33 27 34 28 35 89 36 29 37 88 38 30 39 31 40 32 41 82 42
REMARK SMILES IDX 33 43 87 44 81 45 83 46 34 47 86 48 80 49 79 50 35 52 67 53
REMARK SMILES IDX 47 54 66 55 48 56 51 57 65 58 84 59 49 60 50 61 64 63 85 64
REMARK SMILES IDX 52 65 36 66 37 67 45 68 38 69 44 70 46 71 43 72 39 73 40 74
REMARK SMILES IDX 41 75 42 76 68 77 69 78 77 79 70 80 76 81 78 82 75 83 71 84
REMARK SMILES IDX 72 85 73 86 74 87 53 88 54 89 62 90 55 91 61 92 63 93 60 94
REMARK SMILES IDX 56 95 57 96 58 97 59 98
REMARK H PARENT 83 51 51 62
REMARK Flexibility Score: inf
ROOT
ATOM      1  C   UNL A   1      33.591  28.624  27.266  1.00  0.00     0.275 C 
ENDROOT
BRANCH   1   2
ATOM      2  C   UNL A   1      32.198  28.951  26.712  1.00  0.00     0.274 C 
BRANCH   2   3
ATOM      3  O   UNL A   1      31.863  28.106  25.618  1.00  0.00    -0.462 OA
BRANCH   3   4
ATOM      4  C   UNL A   1      31.482  28.775  24.497  1.00  0.00     0.309 C 
ATOM      5  O   UNL A   1      30.766  29.769  24.499  1.00  0.00    -0.252 OA
BRANCH   4   6
ATOM      6  C   UNL A   1      32.020  28.068  23.275  1.00  0.00     0.103 C 
ATOM      7  C   UNL A   1      32.579  24.390  23.393  1.00  0.00     0.228 C 
ATOM      8  O   UNL A   1      31.462  23.872  23.467  1.00  0.00    -0.274 OA
ATOM      9  N   UNL A   1      32.816  25.483  22.553  1.00  0.00    -0.342 N 
ATOM     10  C   UNL A   1      31.680  26.007  21.817  1.00  0.00     0.120 C 
ATOM     11  C   UNL A   1      33.874  26.480  22.685  1.00  0.00     0.120 C 
ATOM     12  C   UNL A   1      31.014  27.045  22.704  1.00  0.00     0.037 C 
ATOM     13  C   UNL A   1      33.396  27.536  23.658  1.00  0.00     0.037 C 
BRANCH   7  14
ATOM     14  C   UNL A   1      33.750  23.775  24.173  1.00  0.00     0.051 C 
ATOM     15  C   UNL A   1      34.525  21.492  25.035  1.00  0.00    -0.003 C 
ATOM     16  C   UNL A   1      35.867  21.769  24.292  1.00  0.00     0.015 C 
ATOM     17  C   UNL A   1      33.420  22.289  24.326  1.00  0.00     0.028 C 
ATOM     18  C   UNL A   1      34.631  22.077  26.468  1.00  0.00     0.015 C 
ATOM     19  C   UNL A   1      36.220  23.271  24.298  1.00  0.00    -0.009 C 
ATOM     20  C   UNL A   1      34.932  23.594  26.419  1.00  0.00    -0.009 C 
ATOM     21  C   UNL A   1      36.287  23.806  25.729  1.00  0.00     0.007 C 
ATOM     22  C   UNL A   1      35.132  24.026  23.540  1.00  0.00     0.020 C 
ATOM     23  C   UNL A   1      33.836  24.338  25.620  1.00  0.00     0.020 C 
BRANCH  15  24
ATOM     24  C   UNL A   1      34.180  19.992  25.020  1.00  0.00    -0.042 A 
ATOM     25  C   UNL A   1      33.117  15.795  24.717  1.00  0.00     0.044 C 
ATOM     26  C   UNL A   1      33.508  17.235  24.832  1.00  0.00    -0.051 A 
ATOM     27  C   UNL A   1      32.556  18.163  25.243  1.00  0.00     0.004 A 
ATOM     28  C   UNL A   1      34.797  17.682  24.532  1.00  0.00     0.004 A 
ATOM     29  C   UNL A   1      32.892  19.512  25.344  1.00  0.00     0.004 A 
ATOM     30  C   UNL A   1      35.130  19.040  24.627  1.00  0.00     0.004 A 
ENDBRANCH  15  24
ENDBRANCH   7  14
ENDBRANCH   4   6
ENDBRANCH   3   4
ENDBRANCH   2   3
ENDBRANCH   1   2
BRANCH   1  31
ATOM     31  O   UNL A   1      34.753  29.467  26.990  1.00  0.00    -0.458 OA
BRANCH  31  32
ATOM     32  C   UNL A   1      35.378  30.316  27.851  1.00  0.00     0.338 C 
ATOM     33  O   UNL A   1      34.793  31.273  28.342  1.00  0.00    -0.246 OA
BRANCH  32  34
ATOM     34  C   UNL A   1      36.763  29.950  28.235  1.00  0.00     0.060 A 
ATOM     35  C   UNL A   1      36.982  29.209  29.407  1.00  0.00     0.016 A 
ATOM     36  C   UNL A   1      37.795  30.131  27.328  1.00  0.00     0.016 A 
ATOM     37  C   UNL A   1      38.151  28.452  29.544  1.00  0.00     0.010 A 
ATOM     38  C   UNL A   1      38.889  29.297  27.399  1.00  0.00     0.010 A 
ATOM     39  C   UNL A   1      39.059  28.427  28.485  1.00  0.00    -0.014 A 
BRANCH  39  40
ATOM     40  C   UNL A   1      40.369  27.785  28.535  1.00  0.00     0.031 A 
ATOM     41  C   UNL A   1      40.647  26.392  28.130  1.00  0.00     0.074 A 
ATOM     42  C   UNL A   1      41.341  28.626  28.943  1.00  0.00     0.049 A 
ATOM     43  N   UNL A   1      41.464  25.598  28.740  1.00  0.00    -0.248 NA
ATOM     44  C   UNL A   1      39.996  25.754  26.988  1.00  0.00     0.031 C 
ATOM     45  C   UNL A   1      42.776  28.453  28.969  1.00  0.00     0.029 A 
ATOM     46  N   UNL A   1      41.136  29.829  29.625  1.00  0.00    -0.354 N 
ATOM     47  C   UNL A   1      41.672  24.515  27.901  1.00  0.00     0.074 A 
ATOM     48  C   UNL A   1      40.607  24.563  26.934  1.00  0.00     0.031 C 
ATOM     49  C   UNL A   1      43.272  29.291  29.903  1.00  0.00     0.029 A 
ATOM     50  C   UNL A   1      42.129  29.891  30.589  1.00  0.00     0.049 A 
ATOM     51  H   UNL A   1      40.433  30.495  29.455  1.00  0.00     0.167 HD
ATOM     52  C   UNL A   1      42.857  23.838  27.914  1.00  0.00     0.034 A 
ATOM     53  C   UNL A   1      41.836  29.793  31.920  1.00  0.00     0.034 A 
ATOM     54  C   UNL A   1      43.800  24.511  28.787  1.00  0.00     0.049 A 
ATOM     55  C   UNL A   1      42.614  28.650  32.519  1.00  0.00     0.074 A 
ATOM     56  C   UNL A   1      44.770  25.458  28.505  1.00  0.00     0.029 A 
ATOM     57  N   UNL A   1      43.604  24.519  30.157  1.00  0.00    -0.354 N 
ATOM     58  N   UNL A   1      42.868  27.531  31.896  1.00  0.00    -0.248 NA
ATOM     59  C   UNL A   1      43.245  28.740  33.827  1.00  0.00     0.031 C 
ATOM     60  C   UNL A   1      45.112  26.094  29.720  1.00  0.00     0.029 A 
ATOM     61  C   UNL A   1      44.369  25.511  30.732  1.00  0.00     0.049 A 
ATOM     62  H   UNL A   1      43.008  23.908  30.647  1.00  0.00     0.167 HD
ATOM     63  C   UNL A   1      43.786  26.820  32.632  1.00  0.00     0.074 A 
ATOM     64  C   UNL A   1      43.957  27.600  33.847  1.00  0.00     0.031 C 
ATOM     65  C   UNL A   1      44.392  25.685  32.168  1.00  0.00     0.034 A 
BRANCH  52  66
ATOM     66  C   UNL A   1      43.311  22.837  26.873  1.00  0.00     0.023 A 
ATOM     67  C   UNL A   1      42.787  21.524  26.901  1.00  0.00     0.031 A 
ATOM     68  C   UNL A   1      44.221  23.104  25.835  1.00  0.00     0.131 A 
ATOM     69  C   UNL A   1      43.220  20.529  26.008  1.00  0.00     0.055 A 
ATOM     70  C   UNL A   1      44.668  22.108  24.950  1.00  0.00     0.041 A 
ATOM     71  F   UNL A   1      44.688  24.345  25.626  1.00  0.00    -0.206 F 
ATOM     72  C   UNL A   1      44.179  20.808  25.042  1.00  0.00     0.022 A 
BRANCH  69  73
ATOM     73  S   UNL A   1      42.511  18.863  26.147  1.00  0.00     0.124 S 
ATOM     74  O   UNL A   1      43.336  18.097  25.219  1.00  0.00    -0.237 OA
ATOM     75  O   UNL A   1      42.688  18.564  27.564  1.00  0.00    -0.237 OA
ATOM     76  O   UNL A   1      41.123  19.048  25.727  1.00  0.00    -0.744 OA
ENDBRANCH  69  73
ENDBRANCH  52  66
BRANCH  53  77
ATOM     77  C   UNL A   1      40.449  30.199  32.334  1.00  0.00     0.023 A 
ATOM     78  C   UNL A   1      39.937  31.427  31.851  1.00  0.00     0.031 A 
ATOM     79  C   UNL A   1      39.531  29.312  32.918  1.00  0.00     0.131 A 
ATOM     80  C   UNL A   1      38.553  31.665  31.811  1.00  0.00     0.055 A 
ATOM     81  C   UNL A   1      38.153  29.589  32.946  1.00  0.00     0.041 A 
ATOM     82  F   UNL A   1      39.928  28.120  33.386  1.00  0.00    -0.206 F 
ATOM     83  C   UNL A   1      37.654  30.752  32.359  1.00  0.00     0.022 A 
BRANCH  80  84
ATOM     84  S   UNL A   1      37.933  33.034  30.782  1.00  0.00     0.124 S 
ATOM     85  O   UNL A   1      36.495  32.791  30.785  1.00  0.00    -0.237 OA
ATOM     86  O   UNL A   1      38.384  34.212  31.517  1.00  0.00    -0.237 OA
ATOM     87  O   UNL A   1      38.608  32.827  29.504  1.00  0.00    -0.744 OA
ENDBRANCH  80  84
ENDBRANCH  53  77
BRANCH  65  88
ATOM     88  C   UNL A   1      45.195  24.697  32.980  1.00  0.00     0.023 A 
ATOM     89  C   UNL A   1      46.500  24.955  33.399  1.00  0.00     0.031 A 
ATOM     90  C   UNL A   1      44.627  23.484  33.451  1.00  0.00     0.131 A 
ATOM     91  C   UNL A   1      47.221  24.013  34.148  1.00  0.00     0.055 A 
ATOM     92  C   UNL A   1      45.312  22.593  34.280  1.00  0.00     0.041 A 
ATOM     93  F   UNL A   1      43.374  23.113  33.149  1.00  0.00    -0.206 F 
ATOM     94  C   UNL A   1      46.629  22.845  34.620  1.00  0.00     0.022 A 
BRANCH  91  95
ATOM     95  S   UNL A   1      48.980  24.331  34.414  1.00  0.00     0.124 S 
ATOM     96  O   UNL A   1      49.577  23.068  33.986  1.00  0.00    -0.237 OA
ATOM     97  O   UNL A   1      49.228  25.473  33.538  1.00  0.00    -0.237 OA
ATOM     98  O   UNL A   1      49.069  24.609  35.844  1.00  0.00    -0.744 OA
ENDBRANCH  91  95
ENDBRANCH  65  88
ENDBRANCH  39  40
ENDBRANCH  32  34
ENDBRANCH  31  32
ENDBRANCH   1  31
TORSDOF 16
ENDMDL
MODEL 2
REMARK VINA RESULT:     -14.3      1.778      2.258
REMARK SMILES Cc1ccc([C@@]23C[C@@H]4C[C@@H](C[C@@](C(=O)N5CCC(C(=O)OCCOC(=O)c6ccc(-c7c8nc(c(-c9cc(S(=O)(=O)[O-])ccc9F)c9ccc([nH]9)c(-c9cc(S(=O)(=O)[O-])ccc9F)c9nc(c(-c%10cc(S(=O)(=O)[O-])ccc%10F)c%10ccc7[nH]%10)C=C9)C=C8)cc6)CC5)(C4)C2)C3)cc1
REMARK SMILES IDX 23 1 22 2 21 3 19 4 20 5 18 6 13 7 14 8 15 9 16 10 91 11
REMARK SMILES IDX 17 12 90 13 12 14 6 15 7 16 93 17 94 18 8 19 10 20 9 21
REMARK SMILES IDX 92 22 11 23 5 24 1 25 2 26 3 27 96 28 4 29 95 30 24 31 25 32
REMARK SMILES IDX 26 33 27 34 28 35 89 36 29 37 88 38 30 39 31 40 32 41 82 42
REMARK SMILES IDX 33 43 87 44 81 45 83 46 34 47 86 48 80 49 79 50 35 52 67 53
REMARK SMILES IDX 47 54 66 55 48 56 51 57 65 58 84 59 49 60 50 61 64 63 85 64
REMARK SMILES IDX 52 65 36 66 37 67 45 68 38 69 44 70 46 71 43 72 39 73 40 74
REMARK SMILES IDX 41 75 42 76 68 77 69 78 77 79 70 80 76 81 78 82 75 83 71 84
REMARK SMILES IDX 72 85 73 86 74 87 53 88 54 89 62 90 55 91 61 92 63 93 60 94
REMARK SMILES IDX 56 95 57 96 58 97 59 98
REMARK H PARENT 83 51 51 62
REMARK Flexibility Score: inf
ROOT
ATOM      1  C   UNL A   1      33.971  31.387  27.617  1.00  0.00     0.275 C 
ENDROOT
BRANCH   1   2
ATOM      2  C   UNL A   1      32.797  30.543  27.104  1.00  0.00     0.274 C 
BRANCH   2   3
ATOM      3  O   UNL A   1      32.959  29.170  27.440  1.00  0.00    -0.462 OA
BRANCH   3   4
ATOM      4  C   UNL A   1      31.912  28.383  27.074  1.00  0.00     0.309 C 
ATOM      5  O   UNL A   1      31.054  27.974  27.848  1.00  0.00    -0.252 OA
BRANCH   4   6
ATOM      6  C   UNL A   1      32.016  28.051  25.604  1.00  0.00     0.103 C 
ATOM      7  C   UNL A   1      32.477  24.509  24.561  1.00  0.00     0.228 C 
ATOM      8  O   UNL A   1      31.427  23.926  24.840  1.00  0.00    -0.274 OA
ATOM      9  N   UNL A   1      32.468  25.794  24.011  1.00  0.00    -0.342 N 
ATOM     10  C   UNL A   1      31.173  26.426  23.833  1.00  0.00     0.120 C 
ATOM     11  C   UNL A   1      33.542  26.782  24.065  1.00  0.00     0.120 C 
ATOM     12  C   UNL A   1      30.852  27.157  25.125  1.00  0.00     0.037 C 
ATOM     13  C   UNL A   1      33.426  27.518  25.383  1.00  0.00     0.037 C 
BRANCH   7  14
ATOM     14  C   UNL A   1      33.817  23.780  24.744  1.00  0.00     0.051 C 
ATOM     15  C   UNL A   1      34.725  21.390  24.880  1.00  0.00    -0.003 C 
ATOM     16  C   UNL A   1      35.717  21.801  23.749  1.00  0.00     0.015 C 
ATOM     17  C   UNL A   1      33.484  22.287  24.767  1.00  0.00     0.028 C 
ATOM     18  C   UNL A   1      35.379  21.724  26.246  1.00  0.00     0.015 C 
ATOM     19  C   UNL A   1      36.130  23.282  23.867  1.00  0.00    -0.009 C 
ATOM     20  C   UNL A   1      35.724  23.230  26.335  1.00  0.00    -0.009 C 
ATOM     21  C   UNL A   1      36.743  23.567  25.239  1.00  0.00     0.007 C 
ATOM     22  C   UNL A   1      34.884  24.147  23.695  1.00  0.00     0.020 C 
ATOM     23  C   UNL A   1      34.454  24.089  26.128  1.00  0.00     0.020 C 
BRANCH  15  24
ATOM     24  C   UNL A   1      34.317  19.911  24.751  1.00  0.00    -0.042 A 
ATOM     25  C   UNL A   1      33.183  15.723  24.662  1.00  0.00     0.044 C 
ATOM     26  C   UNL A   1      33.554  17.173  24.676  1.00  0.00    -0.051 A 
ATOM     27  C   UNL A   1      34.899  17.528  24.653  1.00  0.00     0.004 A 
ATOM     28  C   UNL A   1      32.592  18.186  24.720  1.00  0.00     0.004 A 
ATOM     29  C   UNL A   1      35.269  18.871  24.679  1.00  0.00     0.004 A 
ATOM     30  C   UNL A   1      32.968  19.536  24.754  1.00  0.00     0.004 A 
ENDBRANCH  15  24
ENDBRANCH   7  14
ENDBRANCH   4   6
ENDBRANCH   3   4
ENDBRANCH   2   3
ENDBRANCH   1   2
BRANCH   1  31
ATOM     31  O   UNL A   1      35.082  30.800  28.360  1.00  0.00    -0.458 OA
BRANCH  31  32
ATOM     32  C   UNL A   1      36.402  31.114  28.255  1.00  0.00     0.338 C 
ATOM     33  O   UNL A   1      36.799  32.264  28.398  1.00  0.00    -0.246 OA
BRANCH  32  34
ATOM     34  C   UNL A   1      37.331  29.973  28.066  1.00  0.00     0.060 A 
ATOM     35  C   UNL A   1      38.142  29.926  26.921  1.00  0.00     0.016 A 
ATOM     36  C   UNL A   1      37.566  29.101  29.116  1.00  0.00     0.016 A 
ATOM     37  C   UNL A   1      39.325  29.179  26.935  1.00  0.00     0.010 A 
ATOM     38  C   UNL A   1      38.784  28.463  29.184  1.00  0.00     0.010 A 
ATOM     39  C   UNL A   1      39.688  28.525  28.114  1.00  0.00    -0.014 A 
BRANCH  39  40
ATOM     40  C   UNL A   1      40.823  27.615  28.238  1.00  0.00     0.031 A 
ATOM     41  C   UNL A   1      40.755  26.149  28.072  1.00  0.00     0.074 A 
ATOM     42  C   UNL A   1      41.983  28.264  28.466  1.00  0.00     0.049 A 
ATOM     43  N   UNL A   1      41.415  25.298  28.787  1.00  0.00    -0.248 NA
ATOM     44  C   UNL A   1      39.903  25.502  27.077  1.00  0.00     0.031 C 
ATOM     45  C   UNL A   1      43.342  27.771  28.481  1.00  0.00     0.029 A 
ATOM     46  N   UNL A   1      42.098  29.576  28.934  1.00  0.00    -0.354 N 
ATOM     47  C   UNL A   1      41.319  24.074  28.143  1.00  0.00     0.074 A 
ATOM     48  C   UNL A   1      40.229  24.209  27.212  1.00  0.00     0.031 C 
ATOM     49  C   UNL A   1      44.073  28.611  29.241  1.00  0.00     0.029 A 
ATOM     50  C   UNL A   1      43.142  29.562  29.845  1.00  0.00     0.049 A 
ATOM     51  H   UNL A   1      41.550  30.349  28.672  1.00  0.00     0.167 HD
ATOM     52  C   UNL A   1      42.322  23.153  28.239  1.00  0.00     0.034 A 
ATOM     53  C   UNL A   1      42.924  29.752  31.181  1.00  0.00     0.034 A 
ATOM     54  C   UNL A   1      43.447  23.723  28.956  1.00  0.00     0.049 A 
ATOM     55  C   UNL A   1      43.467  28.573  31.947  1.00  0.00     0.074 A 
ATOM     56  C   UNL A   1      44.582  24.362  28.486  1.00  0.00     0.029 A 
ATOM     57  N   UNL A   1      43.350  23.998  30.308  1.00  0.00    -0.354 N 
ATOM     58  N   UNL A   1      43.422  27.339  31.519  1.00  0.00    -0.248 NA
ATOM     59  C   UNL A   1      44.188  28.725  33.200  1.00  0.00     0.031 C 
ATOM     60  C   UNL A   1      45.139  25.089  29.562  1.00  0.00     0.029 A 
ATOM     61  C   UNL A   1      44.354  24.866  30.681  1.00  0.00     0.049 A 
ATOM     62  H   UNL A   1      42.667  23.629  30.913  1.00  0.00     0.167 HD
ATOM     63  C   UNL A   1      44.206  26.565  32.341  1.00  0.00     0.074 A 
ATOM     64  C   UNL A   1      44.628  27.471  33.397  1.00  0.00     0.031 C 
ATOM     65  C   UNL A   1      44.512  25.261  32.063  1.00  0.00     0.034 A 
BRANCH  52  66
ATOM     66  C   UNL A   1      42.470  21.920  27.375  1.00  0.00     0.023 A 
ATOM     67  C   UNL A   1      43.503  21.872  26.410  1.00  0.00     0.031 A 
ATOM     68  C   UNL A   1      41.664  20.771  27.456  1.00  0.00     0.131 A 
ATOM     69  C   UNL A   1      43.651  20.788  25.529  1.00  0.00     0.055 A 
ATOM     70  C   UNL A   1      41.799  19.691  26.567  1.00  0.00     0.041 A 
ATOM     71  F   UNL A   1      40.735  20.644  28.416  1.00  0.00    -0.206 F 
ATOM     72  C   UNL A   1      42.787  19.701  25.587  1.00  0.00     0.022 A 
BRANCH  69  73
ATOM     73  S   UNL A   1      44.989  20.837  24.301  1.00  0.00     0.124 S 
ATOM     74  O   UNL A   1      44.779  19.593  23.565  1.00  0.00    -0.237 OA
ATOM     75  O   UNL A   1      44.703  22.070  23.576  1.00  0.00    -0.237 OA
ATOM     76  O   UNL A   1      46.200  20.871  25.119  1.00  0.00    -0.744 OA
ENDBRANCH  69  73
ENDBRANCH  52  66
BRANCH  53  77
ATOM     77  C   UNL A   1      41.693  30.529  31.557  1.00  0.00     0.023 A 
ATOM     78  C   UNL A   1      40.502  29.811  31.820  1.00  0.00     0.031 A 
ATOM     79  C   UNL A   1      41.724  31.876  31.949  1.00  0.00     0.131 A 
ATOM     80  C   UNL A   1      39.472  30.382  32.586  1.00  0.00     0.055 A 
ATOM     81  C   UNL A   1      40.657  32.466  32.647  1.00  0.00     0.041 A 
ATOM     82  F   UNL A   1      42.819  32.624  31.752  1.00  0.00    -0.206 F 
ATOM     83  C   UNL A   1      39.540  31.710  33.001  1.00  0.00     0.022 A 
BRANCH  80  84
ATOM     84  S   UNL A   1      38.187  29.287  33.272  1.00  0.00     0.124 S 
ATOM     85  O   UNL A   1      38.121  29.727  34.661  1.00  0.00    -0.237 OA
ATOM     86  O   UNL A   1      37.026  29.603  32.445  1.00  0.00    -0.237 OA
ATOM     87  O   UNL A   1      38.734  27.950  33.056  1.00  0.00    -0.744 OA
ENDBRANCH  80  84
ENDBRANCH  53  77
BRANCH  65  88
ATOM     88  C   UNL A   1      45.127  24.259  33.011  1.00  0.00     0.023 A 
ATOM     89  C   UNL A   1      46.413  24.408  33.531  1.00  0.00     0.031 A 
ATOM     90  C   UNL A   1      44.388  23.153  33.510  1.00  0.00     0.131 A 
ATOM     91  C   UNL A   1      46.957  23.456  34.406  1.00  0.00     0.055 A 
ATOM     92  C   UNL A   1      44.896  22.262  34.458  1.00  0.00     0.041 A 
ATOM     93  F   UNL A   1      43.131  22.896  33.120  1.00  0.00    -0.206 F 
ATOM     94  C   UNL A   1      46.200  22.399  34.900  1.00  0.00     0.022 A 
BRANCH  91  95
ATOM     95  S   UNL A   1      48.713  23.606  34.810  1.00  0.00     0.124 S 
ATOM     96  O   UNL A   1      49.069  22.218  35.097  1.00  0.00    -0.237 OA
ATOM     97  O   UNL A   1      49.272  24.159  33.580  1.00  0.00    -0.237 OA
ATOM     98  O   UNL A   1      48.726  24.503  35.961  1.00  0.00    -0.744 OA
ENDBRANCH  91  95
ENDBRANCH  65  88
ENDBRANCH  39  40
ENDBRANCH  32  34
ENDBRANCH  31  32
ENDBRANCH   1  31
TORSDOF 16
ENDMDL
MODEL 3
REMARK VINA RESULT:     -13.9      1.388      2.331
REMARK SMILES Cc1ccc([C@@]23C[C@@H]4C[C@@H](C[C@@](C(=O)N5CCC(C(=O)OCCOC(=O)c6ccc(-c7c8nc(c(-c9cc(S(=O)(=O)[O-])ccc9F)c9ccc([nH]9)c(-c9cc(S(=O)(=O)[O-])ccc9F)c9nc(c(-c%10cc(S(=O)(=O)[O-])ccc%10F)c%10ccc7[nH]%10)C=C9)C=C8)cc6)CC5)(C4)C2)C3)cc1
REMARK SMILES IDX 23 1 22 2 21 3 19 4 20 5 18 6 13 7 14 8 15 9 16 10 91 11
REMARK SMILES IDX 17 12 90 13 12 14 6 15 7 16 93 17 94 18 8 19 10 20 9 21
REMARK SMILES IDX 92 22 11 23 5 24 1 25 2 26 3 27 96 28 4 29 95 30 24 31 25 32
REMARK SMILES IDX 26 33 27 34 28 35 89 36 29 37 88 38 30 39 31 40 32 41 82 42
REMARK SMILES IDX 33 43 87 44 81 45 83 46 34 47 86 48 80 49 79 50 35 52 67 53
REMARK SMILES IDX 47 54 66 55 48 56 51 57 65 58 84 59 49 60 50 61 64 63 85 64
REMARK SMILES IDX 52 65 36 66 37 67 45 68 38 69 44 70 46 71 43 72 39 73 40 74
REMARK SMILES IDX 41 75 42 76 68 77 69 78 77 79 70 80 76 81 78 82 75 83 71 84
REMARK SMILES IDX 72 85 73 86 74 87 53 88 54 89 62 90 55 91 61 92 63 93 60 94
REMARK SMILES IDX 56 95 57 96 58 97 59 98
REMARK H PARENT 83 51 51 62
REMARK Flexibility Score: inf
ROOT
ATOM      1  C   UNL A   1      34.198  32.176  27.801  1.00  0.00     0.275 C 
ENDROOT
BRANCH   1   2
ATOM      2  C   UNL A   1      33.068  31.202  27.442  1.00  0.00     0.274 C 
BRANCH   2   3
ATOM      3  O   UNL A   1      33.514  30.199  26.538  1.00  0.00    -0.462 OA
BRANCH   3   4
ATOM      4  C   UNL A   1      32.656  29.957  25.512  1.00  0.00     0.309 C 
ATOM      5  O   UNL A   1      31.494  30.344  25.480  1.00  0.00    -0.252 OA
BRANCH   4   6
ATOM      6  C   UNL A   1      33.337  29.097  24.472  1.00  0.00     0.103 C 
ATOM      7  C   UNL A   1      31.816  25.838  23.517  1.00  0.00     0.228 C 
ATOM      8  O   UNL A   1      30.769  26.105  22.923  1.00  0.00    -0.274 OA
ATOM      9  N   UNL A   1      32.981  26.580  23.300  1.00  0.00    -0.342 N 
ATOM     10  C   UNL A   1      32.887  27.705  22.388  1.00  0.00     0.120 C 
ATOM     11  C   UNL A   1      34.115  26.724  24.210  1.00  0.00     0.120 C 
ATOM     12  C   UNL A   1      32.469  28.912  23.210  1.00  0.00     0.037 C 
ATOM     13  C   UNL A   1      33.784  27.829  25.189  1.00  0.00     0.037 C 
BRANCH   7  14
ATOM     14  C   UNL A   1      31.865  24.619  24.450  1.00  0.00     0.051 C 
ATOM     15  C   UNL A   1      33.576  22.967  25.399  1.00  0.00    -0.003 C 
ATOM     16  C   UNL A   1      33.026  23.348  26.807  1.00  0.00     0.015 C 
ATOM     17  C   UNL A   1      33.322  24.153  24.457  1.00  0.00     0.028 C 
ATOM     18  C   UNL A   1      32.731  21.788  24.849  1.00  0.00     0.015 C 
ATOM     19  C   UNL A   1      31.517  23.666  26.761  1.00  0.00    -0.009 C 
ATOM     20  C   UNL A   1      31.234  22.176  24.771  1.00  0.00    -0.009 C 
ATOM     21  C   UNL A   1      30.732  22.486  26.188  1.00  0.00     0.007 C 
ATOM     22  C   UNL A   1      31.307  24.882  25.862  1.00  0.00     0.020 C 
ATOM     23  C   UNL A   1      31.045  23.427  23.882  1.00  0.00     0.020 C 
BRANCH  15  24
ATOM     24  C   UNL A   1      35.082  22.655  25.455  1.00  0.00    -0.042 A 
ATOM     25  C   UNL A   1      39.307  21.765  25.889  1.00  0.00     0.044 C 
ATOM     26  C   UNL A   1      37.848  22.054  25.719  1.00  0.00    -0.051 A 
ATOM     27  C   UNL A   1      37.408  23.372  25.778  1.00  0.00     0.004 A 
ATOM     28  C   UNL A   1      36.909  21.039  25.513  1.00  0.00     0.004 A 
ATOM     29  C   UNL A   1      36.053  23.664  25.637  1.00  0.00     0.004 A 
ATOM     30  C   UNL A   1      35.546  21.336  25.379  1.00  0.00     0.004 A 
ENDBRANCH  15  24
ENDBRANCH   7  14
ENDBRANCH   4   6
ENDBRANCH   3   4
ENDBRANCH   2   3
ENDBRANCH   1   2
BRANCH   1  31
ATOM     31  O   UNL A   1      35.551  31.715  28.105  1.00  0.00    -0.458 OA
BRANCH  31  32
ATOM     32  C   UNL A   1      35.946  30.960  29.166  1.00  0.00     0.338 C 
ATOM     33  O   UNL A   1      35.397  31.053  30.256  1.00  0.00    -0.246 OA
BRANCH  32  34
ATOM     34  C   UNL A   1      36.999  29.951  28.892  1.00  0.00     0.060 A 
ATOM     35  C   UNL A   1      37.758  30.048  27.715  1.00  0.00     0.016 A 
ATOM     36  C   UNL A   1      37.384  29.076  29.895  1.00  0.00     0.016 A 
ATOM     37  C   UNL A   1      39.024  29.454  27.652  1.00  0.00     0.010 A 
ATOM     38  C   UNL A   1      38.674  28.593  29.888  1.00  0.00     0.010 A 
ATOM     39  C   UNL A   1      39.515  28.807  28.787  1.00  0.00    -0.014 A 
BRANCH  39  40
ATOM     40  C   UNL A   1      40.758  28.042  28.828  1.00  0.00     0.031 A 
ATOM     41  C   UNL A   1      40.909  26.646  28.367  1.00  0.00     0.074 A 
ATOM     42  C   UNL A   1      41.797  28.768  29.286  1.00  0.00     0.049 A 
ATOM     43  N   UNL A   1      41.636  25.754  28.953  1.00  0.00    -0.248 NA
ATOM     44  C   UNL A   1      40.221  26.122  27.190  1.00  0.00     0.031 C 
ATOM     45  C   UNL A   1      43.209  28.458  29.324  1.00  0.00     0.029 A 
ATOM     46  N   UNL A   1      41.696  29.955  30.016  1.00  0.00    -0.354 N 
ATOM     47  C   UNL A   1      41.755  24.691  28.071  1.00  0.00     0.074 A 
ATOM     48  C   UNL A   1      40.717  24.881  27.092  1.00  0.00     0.031 C 
ATOM     49  C   UNL A   1      43.766  29.204  30.299  1.00  0.00     0.029 A 
ATOM     50  C   UNL A   1      42.673  29.882  30.995  1.00  0.00     0.049 A 
ATOM     51  H   UNL A   1      41.062  30.692  29.865  1.00  0.00     0.167 HD
ATOM     52  C   UNL A   1      42.870  23.904  28.071  1.00  0.00     0.034 A 
ATOM     53  C   UNL A   1      42.348  29.757  32.317  1.00  0.00     0.034 A 
ATOM     54  C   UNL A   1      43.856  24.446  28.986  1.00  0.00     0.049 A 
ATOM     55  C   UNL A   1      43.003  28.521  32.877  1.00  0.00     0.074 A 
ATOM     56  C   UNL A   1      44.917  25.308  28.759  1.00  0.00     0.029 A 
ATOM     57  N   UNL A   1      43.638  24.416  30.352  1.00  0.00    -0.354 N 
ATOM     58  N   UNL A   1      43.160  27.409  32.209  1.00  0.00    -0.248 NA
ATOM     59  C   UNL A   1      43.616  28.495  34.195  1.00  0.00     0.031 C 
ATOM     60  C   UNL A   1      45.297  25.856  30.004  1.00  0.00     0.029 A 
ATOM     61  C   UNL A   1      44.483  25.305  30.980  1.00  0.00     0.049 A 
ATOM     62  H   UNL A   1      42.977  23.845  30.806  1.00  0.00     0.167 HD
ATOM     63  C   UNL A   1      43.993  26.584  32.927  1.00  0.00     0.074 A 
ATOM     64  C   UNL A   1      44.216  27.293  34.176  1.00  0.00     0.031 C 
ATOM     65  C   UNL A   1      44.497  25.417  32.422  1.00  0.00     0.034 A 
BRANCH  52  66
ATOM     66  C   UNL A   1      43.245  22.909  26.994  1.00  0.00     0.023 A 
ATOM     67  C   UNL A   1      42.768  21.581  27.084  1.00  0.00     0.031 A 
ATOM     68  C   UNL A   1      44.035  23.194  25.867  1.00  0.00     0.131 A 
ATOM     69  C   UNL A   1      43.138  20.591  26.156  1.00  0.00     0.055 A 
ATOM     70  C   UNL A   1      44.420  22.204  24.946  1.00  0.00     0.041 A 
ATOM     71  F   UNL A   1      44.440  24.446  25.605  1.00  0.00    -0.206 F 
ATOM     72  C   UNL A   1      43.983  20.891  25.095  1.00  0.00     0.022 A 
BRANCH  69  73
ATOM     73  S   UNL A   1      42.498  18.906  26.377  1.00  0.00     0.124 S 
ATOM     74  O   UNL A   1      43.569  18.092  25.810  1.00  0.00    -0.237 OA
ATOM     75  O   UNL A   1      42.324  18.824  27.823  1.00  0.00    -0.237 OA
ATOM     76  O   UNL A   1      41.255  18.910  25.607  1.00  0.00    -0.744 OA
ENDBRANCH  69  73
ENDBRANCH  52  66
BRANCH  53  77
ATOM     77  C   UNL A   1      40.998  30.276  32.729  1.00  0.00     0.023 A 
ATOM     78  C   UNL A   1      40.690  31.631  32.458  1.00  0.00     0.031 A 
ATOM     79  C   UNL A   1      39.930  29.440  33.089  1.00  0.00     0.131 A 
ATOM     80  C   UNL A   1      39.356  32.067  32.394  1.00  0.00     0.055 A 
ATOM     81  C   UNL A   1      38.603  29.901  33.099  1.00  0.00     0.041 A 
ATOM     82  F   UNL A   1      40.132  28.140  33.346  1.00  0.00    -0.206 F 
ATOM     83  C   UNL A   1      38.307  31.209  32.716  1.00  0.00     0.022 A 
BRANCH  80  84
ATOM     84  S   UNL A   1      39.000  33.672  31.609  1.00  0.00     0.124 S 
ATOM     85  O   UNL A   1      37.684  33.441  31.025  1.00  0.00    -0.237 OA
ATOM     86  O   UNL A   1      39.045  34.594  32.740  1.00  0.00    -0.237 OA
ATOM     87  O   UNL A   1      40.097  33.832  30.658  1.00  0.00    -0.744 OA
ENDBRANCH  80  84
ENDBRANCH  53  77
BRANCH  65  88
ATOM     88  C   UNL A   1      45.187  24.323  33.201  1.00  0.00     0.023 A 
ATOM     89  C   UNL A   1      46.496  24.446  33.670  1.00  0.00     0.031 A 
ATOM     90  C   UNL A   1      44.504  23.140  33.592  1.00  0.00     0.131 A 
ATOM     91  C   UNL A   1      47.110  23.409  34.387  1.00  0.00     0.055 A 
ATOM     92  C   UNL A   1      45.085  22.153  34.390  1.00  0.00     0.041 A 
ATOM     93  F   UNL A   1      43.235  22.895  33.236  1.00  0.00    -0.206 F 
ATOM     94  C   UNL A   1      46.408  22.274  34.779  1.00  0.00     0.022 A 
BRANCH  91  95
ATOM     95  S   UNL A   1      48.881  23.561  34.717  1.00  0.00     0.124 S 
ATOM     96  O   UNL A   1      49.172  24.882  34.163  1.00  0.00    -0.237 OA
ATOM     97  O   UNL A   1      48.938  23.462  36.173  1.00  0.00    -0.237 OA
ATOM     98  O   UNL A   1      49.466  22.438  33.991  1.00  0.00    -0.744 OA
ENDBRANCH  91  95
ENDBRANCH  65  88
ENDBRANCH  39  40
ENDBRANCH  32  34
ENDBRANCH  31  32
ENDBRANCH   1  31
TORSDOF 16
ENDMDL
