MODEL 1
REMARK VINA RESULT:     -11.9      0.000      0.000
REMARK SMILES C[C@H]1[C@H](C(=O)OCCOC(=O)c2ccc(-c3c4nc(c(-c5cc(S(=O)(=O)[O-])ccc5F)c5ccc([nH]5)c(-c5cc(S(=O)(=O)[O-])ccc5F)c5nc(c(-c6cc(S(=O)(=O)[O-])ccc6F)c6ccc3[nH]6)C=C5)C=C4)cc2)CCN1C(=O)[C@H]1CC=CCC1
REMARK SMILES IDX 8 1 7 2 6 3 4 4 5 5 3 6 1 7 2 8 77 9 75 10 76 11 78 12 79 13
REMARK SMILES IDX 80 14 81 15 85 16 82 17 84 18 83 19 9 20 10 21 11 22 12 23
REMARK SMILES IDX 13 24 74 25 14 26 73 27 15 28 16 29 17 30 67 31 18 32 72 33
REMARK SMILES IDX 66 34 68 35 19 36 71 37 65 38 64 39 20 41 52 42 32 43 51 44
REMARK SMILES IDX 33 45 36 46 50 47 69 48 34 49 35 50 49 52 70 53 37 54 21 55
REMARK SMILES IDX 22 56 30 57 23 58 29 59 31 60 28 61 24 62 25 63 26 64 27 65
REMARK SMILES IDX 53 66 54 67 62 68 55 69 61 70 63 71 60 72 56 73 57 74 58 75
REMARK SMILES IDX 59 76 38 77 39 78 47 79 40 80 46 81 48 82 45 83 41 84 42 85
REMARK SMILES IDX 43 86 44 87
REMARK H PARENT 68 40 36 51
REMARK Flexibility Score: inf
ROOT
ATOM      1  C   UNL A   1      31.674  29.622  26.858  1.00  0.00     0.275 C 
ENDROOT
BRANCH   1   2
ATOM      2  C   UNL A   1      31.896  28.174  27.309  1.00  0.00     0.274 C 
BRANCH   2   3
ATOM      3  O   UNL A   1      30.810  27.307  26.923  1.00  0.00    -0.462 OA
BRANCH   3   4
ATOM      4  C   UNL A   1      31.166  26.175  26.265  1.00  0.00     0.311 C 
ATOM      5  O   UNL A   1      31.789  25.247  26.770  1.00  0.00    -0.252 OA
BRANCH   4   6
ATOM      6  C   UNL A   1      30.797  26.178  24.800  1.00  0.00     0.123 C 
ATOM      7  C   UNL A   1      28.491  26.518  23.877  1.00  0.00     0.032 C 
ATOM      8  C   UNL A   1      29.762  27.237  24.347  1.00  0.00     0.096 C 
ATOM      9  N   UNL A   1      30.417  27.941  23.235  1.00  0.00    -0.339 N 
ATOM     10  C   UNL A   1      32.037  26.416  23.939  1.00  0.00     0.039 C 
ATOM     11  C   UNL A   1      31.492  27.116  22.713  1.00  0.00     0.121 C 
BRANCH   9  12
ATOM     12  C   UNL A   1      30.189  29.177  22.679  1.00  0.00     0.226 C 
ATOM     13  O   UNL A   1      31.085  29.710  22.005  1.00  0.00    -0.275 OA
BRANCH  12  14
ATOM     14  C   UNL A   1      28.904  29.996  22.890  1.00  0.00     0.083 C 
ATOM     15  C   UNL A   1      29.007  31.223  23.795  1.00  0.00     0.040 C 
ATOM     16  C   UNL A   1      28.031  30.164  21.639  1.00  0.00     0.018 C 
ATOM     17  C   UNL A   1      28.822  32.540  23.113  1.00  0.00    -0.030 C 
ATOM     18  C   UNL A   1      28.073  31.526  20.950  1.00  0.00     0.028 C 
ATOM     19  C   UNL A   1      28.403  32.673  21.849  1.00  0.00    -0.031 C 
ENDBRANCH  12  14
ENDBRANCH   9  12
ENDBRANCH   4   6
ENDBRANCH   3   4
ENDBRANCH   2   3
ENDBRANCH   1   2
BRANCH   1  20
ATOM     20  O   UNL A   1      32.883  30.237  26.378  1.00  0.00    -0.458 OA
BRANCH  20  21
ATOM     21  C   UNL A   1      33.301  31.295  27.107  1.00  0.00     0.338 C 
ATOM     22  O   UNL A   1      32.657  32.293  27.386  1.00  0.00    -0.246 OA
BRANCH  21  23
ATOM     23  C   UNL A   1      34.639  31.052  27.653  1.00  0.00     0.060 A 
ATOM     24  C   UNL A   1      34.997  29.736  27.956  1.00  0.00     0.016 A 
ATOM     25  C   UNL A   1      35.476  32.116  27.985  1.00  0.00     0.016 A 
ATOM     26  C   UNL A   1      36.184  29.473  28.628  1.00  0.00     0.010 A 
ATOM     27  C   UNL A   1      36.682  31.848  28.636  1.00  0.00     0.010 A 
ATOM     28  C   UNL A   1      37.033  30.528  28.973  1.00  0.00    -0.014 A 
BRANCH  28  29
ATOM     29  C   UNL A   1      38.288  30.260  29.711  1.00  0.00     0.031 A 
ATOM     30  C   UNL A   1      39.282  29.287  29.153  1.00  0.00     0.074 A 
ATOM     31  C   UNL A   1      38.513  30.882  30.882  1.00  0.00     0.049 A 
ATOM     32  N   UNL A   1      40.336  28.763  29.722  1.00  0.00    -0.248 NA
ATOM     33  C   UNL A   1      39.053  28.840  27.772  1.00  0.00     0.031 C 
ATOM     34  C   UNL A   1      37.644  31.900  31.476  1.00  0.00     0.029 A 
ATOM     35  N   UNL A   1      39.526  30.733  31.792  1.00  0.00    -0.354 N 
ATOM     36  C   UNL A   1      40.884  27.901  28.780  1.00  0.00     0.074 A 
ATOM     37  C   UNL A   1      40.038  27.967  27.605  1.00  0.00     0.031 C 
ATOM     38  C   UNL A   1      38.153  32.269  32.662  1.00  0.00     0.029 A 
ATOM     39  C   UNL A   1      39.338  31.466  32.940  1.00  0.00     0.049 A 
ATOM     40  H   UNL A   1      40.312  30.158  31.640  1.00  0.00     0.167 HD
ATOM     41  C   UNL A   1      41.988  27.122  28.896  1.00  0.00     0.034 A 
ATOM     42  C   UNL A   1      40.012  31.446  34.107  1.00  0.00     0.034 A 
ATOM     43  C   UNL A   1      42.809  27.076  30.081  1.00  0.00     0.049 A 
ATOM     44  C   UNL A   1      41.183  30.509  34.248  1.00  0.00     0.074 A 
ATOM     45  C   UNL A   1      43.944  26.321  30.321  1.00  0.00     0.029 A 
ATOM     46  N   UNL A   1      42.575  27.816  31.235  1.00  0.00    -0.354 N 
ATOM     47  N   UNL A   1      41.667  29.659  33.372  1.00  0.00    -0.248 NA
ATOM     48  C   UNL A   1      41.893  30.522  35.532  1.00  0.00     0.031 C 
ATOM     49  C   UNL A   1      44.363  26.563  31.635  1.00  0.00     0.029 A 
ATOM     50  C   UNL A   1      43.528  27.517  32.195  1.00  0.00     0.049 A 
ATOM     51  H   UNL A   1      41.838  28.458  31.353  1.00  0.00     0.167 HD
ATOM     52  C   UNL A   1      42.756  29.056  33.991  1.00  0.00     0.074 A 
ATOM     53  C   UNL A   1      42.857  29.639  35.314  1.00  0.00     0.031 C 
ATOM     54  C   UNL A   1      43.603  28.113  33.508  1.00  0.00     0.034 A 
BRANCH  41  55
ATOM     55  C   UNL A   1      42.321  26.215  27.738  1.00  0.00     0.023 A 
ATOM     56  C   UNL A   1      41.869  24.885  27.680  1.00  0.00     0.031 A 
ATOM     57  C   UNL A   1      43.139  26.680  26.692  1.00  0.00     0.131 A 
ATOM     58  C   UNL A   1      42.290  24.048  26.635  1.00  0.00     0.055 A 
ATOM     59  C   UNL A   1      43.495  25.864  25.617  1.00  0.00     0.041 A 
ATOM     60  F   UNL A   1      43.619  27.933  26.706  1.00  0.00    -0.206 F 
ATOM     61  C   UNL A   1      43.082  24.535  25.591  1.00  0.00     0.022 A 
BRANCH  58  62
ATOM     62  S   UNL A   1      41.900  22.279  26.727  1.00  0.00     0.124 S 
ATOM     63  O   UNL A   1      40.492  22.307  27.115  1.00  0.00    -0.237 OA
ATOM     64  O   UNL A   1      42.182  21.822  25.371  1.00  0.00    -0.237 OA
ATOM     65  O   UNL A   1      42.812  21.780  27.755  1.00  0.00    -0.744 OA
ENDBRANCH  58  62
ENDBRANCH  41  55
BRANCH  42  66
ATOM     66  C   UNL A   1      39.551  32.281  35.250  1.00  0.00     0.023 A 
ATOM     67  C   UNL A   1      38.802  31.730  36.297  1.00  0.00     0.031 A 
ATOM     68  C   UNL A   1      39.847  33.656  35.298  1.00  0.00     0.131 A 
ATOM     69  C   UNL A   1      38.346  32.555  37.338  1.00  0.00     0.055 A 
ATOM     70  C   UNL A   1      39.432  34.464  36.357  1.00  0.00     0.041 A 
ATOM     71  F   UNL A   1      40.564  34.233  34.320  1.00  0.00    -0.206 F 
ATOM     72  C   UNL A   1      38.667  33.915  37.382  1.00  0.00     0.022 A 
BRANCH  69  73
ATOM     73  S   UNL A   1      37.270  31.837  38.608  1.00  0.00     0.124 S 
ATOM     74  O   UNL A   1      38.099  31.953  39.803  1.00  0.00    -0.237 OA
ATOM     75  O   UNL A   1      36.105  32.712  38.547  1.00  0.00    -0.237 OA
ATOM     76  O   UNL A   1      37.048  30.473  38.133  1.00  0.00    -0.744 OA
ENDBRANCH  69  73
ENDBRANCH  42  66
BRANCH  54  77
ATOM     77  C   UNL A   1      44.745  27.704  34.400  1.00  0.00     0.023 A 
ATOM     78  C   UNL A   1      44.614  26.675  35.346  1.00  0.00     0.031 A 
ATOM     79  C   UNL A   1      45.987  28.355  34.286  1.00  0.00     0.131 A 
ATOM     80  C   UNL A   1      45.701  26.347  36.170  1.00  0.00     0.055 A 
ATOM     81  C   UNL A   1      47.076  27.996  35.078  1.00  0.00     0.041 A 
ATOM     82  F   UNL A   1      46.158  29.345  33.395  1.00  0.00    -0.206 F 
ATOM     83  C   UNL A   1      46.935  26.992  36.032  1.00  0.00     0.022 A 
BRANCH  80  84
ATOM     84  S   UNL A   1      45.474  25.092  37.458  1.00  0.00     0.124 S 
ATOM     85  O   UNL A   1      45.014  23.944  36.683  1.00  0.00    -0.237 OA
ATOM     86  O   UNL A   1      46.812  24.980  38.030  1.00  0.00    -0.237 OA
ATOM     87  O   UNL A   1      44.472  25.685  38.342  1.00  0.00    -0.744 OA
ENDBRANCH  80  84
ENDBRANCH  54  77
ENDBRANCH  28  29
ENDBRANCH  21  23
ENDBRANCH  20  21
ENDBRANCH   1  20
TORSDOF 16
ENDMDL
MODEL 2
REMARK VINA RESULT:     -11.8      1.873      3.541
REMARK SMILES C[C@H]1[C@H](C(=O)OCCOC(=O)c2ccc(-c3c4nc(c(-c5cc(S(=O)(=O)[O-])ccc5F)c5ccc([nH]5)c(-c5cc(S(=O)(=O)[O-])ccc5F)c5nc(c(-c6cc(S(=O)(=O)[O-])ccc6F)c6ccc3[nH]6)C=C5)C=C4)cc2)CCN1C(=O)[C@H]1CC=CCC1
REMARK SMILES IDX 8 1 7 2 6 3 4 4 5 5 3 6 1 7 2 8 77 9 75 10 76 11 78 12 79 13
REMARK SMILES IDX 80 14 81 15 85 16 82 17 84 18 83 19 9 20 10 21 11 22 12 23
REMARK SMILES IDX 13 24 74 25 14 26 73 27 15 28 16 29 17 30 67 31 18 32 72 33
REMARK SMILES IDX 66 34 68 35 19 36 71 37 65 38 64 39 20 41 52 42 32 43 51 44
REMARK SMILES IDX 33 45 36 46 50 47 69 48 34 49 35 50 49 52 70 53 37 54 21 55
REMARK SMILES IDX 22 56 30 57 23 58 29 59 31 60 28 61 24 62 25 63 26 64 27 65
REMARK SMILES IDX 53 66 54 67 62 68 55 69 61 70 63 71 60 72 56 73 57 74 58 75
REMARK SMILES IDX 59 76 38 77 39 78 47 79 40 80 46 81 48 82 45 83 41 84 42 85
REMARK SMILES IDX 43 86 44 87
REMARK H PARENT 68 40 36 51
REMARK Flexibility Score: inf
ROOT
ATOM      1  C   UNL A   1      32.578  30.005  25.455  1.00  0.00     0.275 C 
ENDROOT
BRANCH   1   2
ATOM      2  C   UNL A   1      31.308  29.259  25.032  1.00  0.00     0.274 C 
BRANCH   2   3
ATOM      3  O   UNL A   1      31.519  27.837  24.916  1.00  0.00    -0.462 OA
BRANCH   3   4
ATOM      4  C   UNL A   1      31.433  27.132  26.072  1.00  0.00     0.311 C 
ATOM      5  O   UNL A   1      30.699  27.426  27.010  1.00  0.00    -0.252 OA
BRANCH   4   6
ATOM      6  C   UNL A   1      32.396  25.971  26.153  1.00  0.00     0.123 C 
ATOM      7  C   UNL A   1      31.811  23.562  25.772  1.00  0.00     0.032 C 
ATOM      8  C   UNL A   1      32.240  24.863  25.081  1.00  0.00     0.096 C 
ATOM      9  N   UNL A   1      33.577  24.735  24.485  1.00  0.00    -0.339 N 
ATOM     10  C   UNL A   1      33.837  26.464  26.031  1.00  0.00     0.039 C 
ATOM     11  C   UNL A   1      34.562  25.298  25.393  1.00  0.00     0.121 C 
BRANCH   9  12
ATOM     12  C   UNL A   1      33.992  24.219  23.281  1.00  0.00     0.226 C 
ATOM     13  O   UNL A   1      33.705  24.823  22.235  1.00  0.00    -0.275 OA
BRANCH  12  14
ATOM     14  C   UNL A   1      34.746  22.887  23.126  1.00  0.00     0.083 C 
ATOM     15  C   UNL A   1      36.272  22.953  23.126  1.00  0.00     0.040 C 
ATOM     16  C   UNL A   1      34.131  21.703  23.885  1.00  0.00     0.018 C 
ATOM     17  C   UNL A   1      36.941  22.313  24.300  1.00  0.00    -0.030 C 
ATOM     18  C   UNL A   1      34.839  21.266  25.166  1.00  0.00     0.028 C 
ATOM     19  C   UNL A   1      36.303  21.561  25.204  1.00  0.00    -0.031 C 
ENDBRANCH  12  14
ENDBRANCH   9  12
ENDBRANCH   4   6
ENDBRANCH   3   4
ENDBRANCH   2   3
ENDBRANCH   1   2
BRANCH   1  20
ATOM     20  O   UNL A   1      32.617  30.260  26.871  1.00  0.00    -0.458 OA
BRANCH  20  21
ATOM     21  C   UNL A   1      33.242  31.407  27.216  1.00  0.00     0.338 C 
ATOM     22  O   UNL A   1      32.766  32.531  27.211  1.00  0.00    -0.246 OA
BRANCH  21  23
ATOM     23  C   UNL A   1      34.585  31.131  27.733  1.00  0.00     0.060 A 
ATOM     24  C   UNL A   1      34.879  29.825  28.133  1.00  0.00     0.016 A 
ATOM     25  C   UNL A   1      35.493  32.167  27.945  1.00  0.00     0.016 A 
ATOM     26  C   UNL A   1      36.075  29.548  28.783  1.00  0.00     0.010 A 
ATOM     27  C   UNL A   1      36.707  31.882  28.574  1.00  0.00     0.010 A 
ATOM     28  C   UNL A   1      36.996  30.576  29.008  1.00  0.00    -0.014 A 
BRANCH  28  29
ATOM     29  C   UNL A   1      38.262  30.295  29.721  1.00  0.00     0.031 A 
ATOM     30  C   UNL A   1      39.244  29.327  29.134  1.00  0.00     0.074 A 
ATOM     31  C   UNL A   1      38.507  30.900  30.897  1.00  0.00     0.049 A 
ATOM     32  N   UNL A   1      40.306  28.793  29.678  1.00  0.00    -0.248 NA
ATOM     33  C   UNL A   1      38.992  28.899  27.750  1.00  0.00     0.031 C 
ATOM     34  C   UNL A   1      37.651  31.911  31.519  1.00  0.00     0.029 A 
ATOM     35  N   UNL A   1      39.535  30.736  31.788  1.00  0.00    -0.354 N 
ATOM     36  C   UNL A   1      40.837  27.943  28.715  1.00  0.00     0.074 A 
ATOM     37  C   UNL A   1      39.971  28.027  27.556  1.00  0.00     0.031 C 
ATOM     38  C   UNL A   1      38.180  32.262  32.702  1.00  0.00     0.029 A 
ATOM     39  C   UNL A   1      39.368  31.453  32.949  1.00  0.00     0.049 A 
ATOM     40  H   UNL A   1      40.316  30.162  31.615  1.00  0.00     0.167 HD
ATOM     41  C   UNL A   1      41.941  27.160  28.803  1.00  0.00     0.034 A 
ATOM     42  C   UNL A   1      40.060  31.416  34.104  1.00  0.00     0.034 A 
ATOM     43  C   UNL A   1      42.780  27.095  29.974  1.00  0.00     0.049 A 
ATOM     44  C   UNL A   1      41.231  30.475  34.213  1.00  0.00     0.074 A 
ATOM     45  C   UNL A   1      43.917  26.335  30.184  1.00  0.00     0.029 A 
ATOM     46  N   UNL A   1      42.567  27.820  31.141  1.00  0.00    -0.354 N 
ATOM     47  N   UNL A   1      41.699  29.636  33.318  1.00  0.00    -0.248 NA
ATOM     48  C   UNL A   1      41.962  30.468  35.486  1.00  0.00     0.031 C 
ATOM     49  C   UNL A   1      44.359  26.558  31.495  1.00  0.00     0.029 A 
ATOM     50  C   UNL A   1      43.535  27.506  32.081  1.00  0.00     0.049 A 
ATOM     51  H   UNL A   1      41.834  28.462  31.280  1.00  0.00     0.167 HD
ATOM     52  C   UNL A   1      42.797  29.022  33.910  1.00  0.00     0.074 A 
ATOM     53  C   UNL A   1      42.921  29.586  35.239  1.00  0.00     0.031 C 
ATOM     54  C   UNL A   1      43.633  28.083  33.400  1.00  0.00     0.034 A 
BRANCH  41  55
ATOM     55  C   UNL A   1      42.252  26.268  27.627  1.00  0.00     0.023 A 
ATOM     56  C   UNL A   1      41.762  24.953  27.539  1.00  0.00     0.031 A 
ATOM     57  C   UNL A   1      43.087  26.731  26.594  1.00  0.00     0.131 A 
ATOM     58  C   UNL A   1      42.165  24.127  26.478  1.00  0.00     0.055 A 
ATOM     59  C   UNL A   1      43.425  25.928  25.503  1.00  0.00     0.041 A 
ATOM     60  F   UNL A   1      43.603  27.969  26.636  1.00  0.00    -0.206 F 
ATOM     61  C   UNL A   1      42.974  24.612  25.448  1.00  0.00     0.022 A 
BRANCH  58  62
ATOM     62  S   UNL A   1      41.723  22.368  26.532  1.00  0.00     0.124 S 
ATOM     63  O   UNL A   1      40.268  22.425  26.422  1.00  0.00    -0.237 OA
ATOM     64  O   UNL A   1      42.432  21.829  25.376  1.00  0.00    -0.237 OA
ATOM     65  O   UNL A   1      42.226  21.928  27.832  1.00  0.00    -0.744 OA
ENDBRANCH  58  62
ENDBRANCH  41  55
BRANCH  42  66
ATOM     66  C   UNL A   1      39.621  32.236  35.266  1.00  0.00     0.023 A 
ATOM     67  C   UNL A   1      38.839  31.685  36.291  1.00  0.00     0.031 A 
ATOM     68  C   UNL A   1      39.969  33.597  35.356  1.00  0.00     0.131 A 
ATOM     69  C   UNL A   1      38.405  32.499  37.350  1.00  0.00     0.055 A 
ATOM     70  C   UNL A   1      39.574  34.390  36.434  1.00  0.00     0.041 A 
ATOM     71  F   UNL A   1      40.718  34.172  34.401  1.00  0.00    -0.206 F 
ATOM     72  C   UNL A   1      38.778  33.843  37.435  1.00  0.00     0.022 A 
BRANCH  69  73
ATOM     73  S   UNL A   1      37.289  31.788  38.588  1.00  0.00     0.124 S 
ATOM     74  O   UNL A   1      38.105  31.848  39.796  1.00  0.00    -0.237 OA
ATOM     75  O   UNL A   1      36.154  32.703  38.534  1.00  0.00    -0.237 OA
ATOM     76  O   UNL A   1      37.027  30.443  38.079  1.00  0.00    -0.744 OA
ENDBRANCH  69  73
ENDBRANCH  42  66
BRANCH  54  77
ATOM     77  C   UNL A   1      44.789  27.660  34.268  1.00  0.00     0.023 A 
ATOM     78  C   UNL A   1      44.675  26.608  35.191  1.00  0.00     0.031 A 
ATOM     79  C   UNL A   1      46.026  28.320  34.154  1.00  0.00     0.131 A 
ATOM     80  C   UNL A   1      45.774  26.267  35.993  1.00  0.00     0.055 A 
ATOM     81  C   UNL A   1      47.127  27.948  34.923  1.00  0.00     0.041 A 
ATOM     82  F   UNL A   1      46.180  29.331  33.285  1.00  0.00    -0.206 F 
ATOM     83  C   UNL A   1      47.003  26.922  35.855  1.00  0.00     0.022 A 
BRANCH  80  84
ATOM     84  S   UNL A   1      45.570  24.980  37.254  1.00  0.00     0.124 S 
ATOM     85  O   UNL A   1      46.231  25.580  38.408  1.00  0.00    -0.237 OA
ATOM     86  O   UNL A   1      44.119  24.854  37.345  1.00  0.00    -0.237 OA
ATOM     87  O   UNL A   1      46.256  23.824  36.678  1.00  0.00    -0.744 OA
ENDBRANCH  80  84
ENDBRANCH  54  77
ENDBRANCH  28  29
ENDBRANCH  21  23
ENDBRANCH  20  21
ENDBRANCH   1  20
TORSDOF 16
ENDMDL
MODEL 3
REMARK VINA RESULT:     -11.8      5.330     10.114
REMARK SMILES C[C@H]1[C@H](C(=O)OCCOC(=O)c2ccc(-c3c4nc(c(-c5cc(S(=O)(=O)[O-])ccc5F)c5ccc([nH]5)c(-c5cc(S(=O)(=O)[O-])ccc5F)c5nc(c(-c6cc(S(=O)(=O)[O-])ccc6F)c6ccc3[nH]6)C=C5)C=C4)cc2)CCN1C(=O)[C@H]1CC=CCC1
REMARK SMILES IDX 8 1 7 2 6 3 4 4 5 5 3 6 1 7 2 8 77 9 75 10 76 11 78 12 79 13
REMARK SMILES IDX 80 14 81 15 85 16 82 17 84 18 83 19 9 20 10 21 11 22 12 23
REMARK SMILES IDX 13 24 74 25 14 26 73 27 15 28 16 29 17 30 67 31 18 32 72 33
REMARK SMILES IDX 66 34 68 35 19 36 71 37 65 38 64 39 20 41 52 42 32 43 51 44
REMARK SMILES IDX 33 45 36 46 50 47 69 48 34 49 35 50 49 52 70 53 37 54 21 55
REMARK SMILES IDX 22 56 30 57 23 58 29 59 31 60 28 61 24 62 25 63 26 64 27 65
REMARK SMILES IDX 53 66 54 67 62 68 55 69 61 70 63 71 60 72 56 73 57 74 58 75
REMARK SMILES IDX 59 76 38 77 39 78 47 79 40 80 46 81 48 82 45 83 41 84 42 85
REMARK SMILES IDX 43 86 44 87
REMARK H PARENT 68 40 36 51
REMARK Flexibility Score: inf
ROOT
ATOM      1  C   UNL A   1      37.221  20.725  24.987  1.00  0.00     0.275 C 
ENDROOT
BRANCH   1   2
ATOM      2  C   UNL A   1      35.705  20.949  25.013  1.00  0.00     0.274 C 
BRANCH   2   3
ATOM      3  O   UNL A   1      35.356  22.346  24.936  1.00  0.00    -0.462 OA
BRANCH   3   4
ATOM      4  C   UNL A   1      34.851  22.763  23.748  1.00  0.00     0.311 C 
ATOM      5  O   UNL A   1      35.532  23.058  22.771  1.00  0.00    -0.252 OA
BRANCH   4   6
ATOM      6  C   UNL A   1      33.348  22.919  23.743  1.00  0.00     0.123 C 
ATOM      7  C   UNL A   1      31.768  21.872  25.385  1.00  0.00     0.032 C 
ATOM      8  C   UNL A   1      32.663  23.089  25.123  1.00  0.00     0.096 C 
ATOM      9  N   UNL A   1      31.867  24.318  24.990  1.00  0.00    -0.339 N 
ATOM     10  C   UNL A   1      32.942  24.144  22.926  1.00  0.00     0.039 C 
ATOM     11  C   UNL A   1      31.657  24.602  23.581  1.00  0.00     0.121 C 
BRANCH   9  12
ATOM     12  C   UNL A   1      31.353  25.176  25.932  1.00  0.00     0.226 C 
ATOM     13  O   UNL A   1      30.327  24.849  26.550  1.00  0.00    -0.275 OA
BRANCH  12  14
ATOM     14  C   UNL A   1      31.929  26.570  26.237  1.00  0.00     0.083 C 
ATOM     15  C   UNL A   1      33.443  26.734  26.110  1.00  0.00     0.040 C 
ATOM     16  C   UNL A   1      31.087  27.745  25.723  1.00  0.00     0.018 C 
ATOM     17  C   UNL A   1      33.900  27.629  25.003  1.00  0.00    -0.030 C 
ATOM     18  C   UNL A   1      31.599  28.463  24.476  1.00  0.00     0.028 C 
ATOM     19  C   UNL A   1      33.079  28.400  24.280  1.00  0.00    -0.031 C 
ENDBRANCH  12  14
ENDBRANCH   9  12
ENDBRANCH   4   6
ENDBRANCH   3   4
ENDBRANCH   2   3
ENDBRANCH   1   2
BRANCH   1  20
ATOM     20  O   UNL A   1      37.953  21.882  25.431  1.00  0.00    -0.458 OA
BRANCH  20  21
ATOM     21  C   UNL A   1      39.080  21.601  26.121  1.00  0.00     0.338 C 
ATOM     22  O   UNL A   1      39.667  20.531  26.162  1.00  0.00    -0.246 OA
BRANCH  21  23
ATOM     23  C   UNL A   1      39.617  22.809  26.752  1.00  0.00     0.060 A 
ATOM     24  C   UNL A   1      39.126  24.046  26.328  1.00  0.00     0.016 A 
ATOM     25  C   UNL A   1      40.679  22.731  27.651  1.00  0.00     0.016 A 
ATOM     26  C   UNL A   1      39.718  25.221  26.773  1.00  0.00     0.010 A 
ATOM     27  C   UNL A   1      41.256  23.913  28.119  1.00  0.00     0.010 A 
ATOM     28  C   UNL A   1      40.788  25.162  27.671  1.00  0.00    -0.014 A 
BRANCH  28  29
ATOM     29  C   UNL A   1      41.441  26.407  28.132  1.00  0.00     0.031 A 
ATOM     30  C   UNL A   1      40.634  27.445  28.851  1.00  0.00     0.074 A 
ATOM     31  C   UNL A   1      42.749  26.600  27.882  1.00  0.00     0.049 A 
ATOM     32  N   UNL A   1      40.953  28.674  29.161  1.00  0.00    -0.248 NA
ATOM     33  C   UNL A   1      39.283  27.044  29.273  1.00  0.00     0.031 C 
ATOM     34  C   UNL A   1      43.639  25.623  27.254  1.00  0.00     0.029 A 
ATOM     35  N   UNL A   1      43.549  27.689  28.107  1.00  0.00    -0.354 N 
ATOM     36  C   UNL A   1      39.835  29.207  29.790  1.00  0.00     0.074 A 
ATOM     37  C   UNL A   1      38.825  28.168  29.808  1.00  0.00     0.031 C 
ATOM     38  C   UNL A   1      44.860  26.166  27.125  1.00  0.00     0.029 A 
ATOM     39  C   UNL A   1      44.817  27.546  27.595  1.00  0.00     0.049 A 
ATOM     40  H   UNL A   1      43.247  28.494  28.587  1.00  0.00     0.167 HD
ATOM     41  C   UNL A   1      39.670  30.455  30.295  1.00  0.00     0.034 A 
ATOM     42  C   UNL A   1      45.812  28.446  27.467  1.00  0.00     0.034 A 
ATOM     43  C   UNL A   1      40.694  31.470  30.259  1.00  0.00     0.049 A 
ATOM     44  C   UNL A   1      45.579  29.852  27.954  1.00  0.00     0.074 A 
ATOM     45  C   UNL A   1      40.643  32.771  30.729  1.00  0.00     0.029 A 
ATOM     46  N   UNL A   1      41.961  31.297  29.712  1.00  0.00    -0.354 N 
ATOM     47  N   UNL A   1      44.502  30.366  28.502  1.00  0.00    -0.248 NA
ATOM     48  C   UNL A   1      46.689  30.801  27.800  1.00  0.00     0.031 C 
ATOM     49  C   UNL A   1      41.856  33.399  30.417  1.00  0.00     0.029 A 
ATOM     50  C   UNL A   1      42.688  32.472  29.811  1.00  0.00     0.049 A 
ATOM     51  H   UNL A   1      42.292  30.461  29.311  1.00  0.00     0.167 HD
ATOM     52  C   UNL A   1      44.816  31.691  28.784  1.00  0.00     0.074 A 
ATOM     53  C   UNL A   1      46.181  31.898  28.344  1.00  0.00     0.031 C 
ATOM     54  C   UNL A   1      44.049  32.649  29.362  1.00  0.00     0.034 A 
BRANCH  41  55
ATOM     55  C   UNL A   1      38.316  30.800  30.861  1.00  0.00     0.023 A 
ATOM     56  C   UNL A   1      37.331  31.448  30.095  1.00  0.00     0.031 A 
ATOM     57  C   UNL A   1      38.020  30.510  32.206  1.00  0.00     0.131 A 
ATOM     58  C   UNL A   1      36.125  31.842  30.696  1.00  0.00     0.055 A 
ATOM     59  C   UNL A   1      36.790  30.840  32.777  1.00  0.00     0.041 A 
ATOM     60  F   UNL A   1      38.930  29.914  32.992  1.00  0.00    -0.206 F 
ATOM     61  C   UNL A   1      35.839  31.523  32.025  1.00  0.00     0.022 A 
BRANCH  58  62
ATOM     62  S   UNL A   1      34.990  32.897  29.752  1.00  0.00     0.124 S 
ATOM     63  O   UNL A   1      34.399  31.937  28.822  1.00  0.00    -0.237 OA
ATOM     64  O   UNL A   1      34.103  33.413  30.789  1.00  0.00    -0.237 OA
ATOM     65  O   UNL A   1      35.872  33.887  29.137  1.00  0.00    -0.744 OA
ENDBRANCH  58  62
ENDBRANCH  41  55
BRANCH  42  66
ATOM     66  C   UNL A   1      47.080  28.066  26.786  1.00  0.00     0.023 A 
ATOM     67  C   UNL A   1      47.168  28.017  25.388  1.00  0.00     0.031 A 
ATOM     68  C   UNL A   1      48.223  27.730  27.535  1.00  0.00     0.131 A 
ATOM     69  C   UNL A   1      48.367  27.613  24.779  1.00  0.00     0.055 A 
ATOM     70  C   UNL A   1      49.426  27.373  26.925  1.00  0.00     0.041 A 
ATOM     71  F   UNL A   1      48.191  27.764  28.877  1.00  0.00    -0.206 F 
ATOM     72  C   UNL A   1      49.500  27.303  25.537  1.00  0.00     0.022 A 
BRANCH  69  73
ATOM     73  S   UNL A   1      48.408  27.434  22.976  1.00  0.00     0.124 S 
ATOM     74  O   UNL A   1      48.317  25.987  22.817  1.00  0.00    -0.237 OA
ATOM     75  O   UNL A   1      47.233  28.200  22.570  1.00  0.00    -0.237 OA
ATOM     76  O   UNL A   1      49.692  28.024  22.604  1.00  0.00    -0.744 OA
ENDBRANCH  69  73
ENDBRANCH  42  66
BRANCH  54  77
ATOM     77  C   UNL A   1      44.699  33.986  29.603  1.00  0.00     0.023 A 
ATOM     78  C   UNL A   1      44.565  35.049  28.696  1.00  0.00     0.031 A 
ATOM     79  C   UNL A   1      45.455  34.193  30.771  1.00  0.00     0.131 A 
ATOM     80  C   UNL A   1      45.210  36.268  28.955  1.00  0.00     0.055 A 
ATOM     81  C   UNL A   1      46.058  35.420  31.043  1.00  0.00     0.041 A 
ATOM     82  F   UNL A   1      45.611  33.205  31.666  1.00  0.00    -0.206 F 
ATOM     83  C   UNL A   1      45.944  36.463  30.129  1.00  0.00     0.022 A 
BRANCH  80  84
ATOM     84  S   UNL A   1      45.113  37.588  27.716  1.00  0.00     0.124 S 
ATOM     85  O   UNL A   1      43.920  37.211  26.965  1.00  0.00    -0.237 OA
ATOM     86  O   UNL A   1      44.995  38.787  28.540  1.00  0.00    -0.237 OA
ATOM     87  O   UNL A   1      46.372  37.463  26.983  1.00  0.00    -0.744 OA
ENDBRANCH  80  84
ENDBRANCH  54  77
ENDBRANCH  28  29
ENDBRANCH  21  23
ENDBRANCH  20  21
ENDBRANCH   1  20
TORSDOF 16
ENDMDL
