MODEL 1
REMARK VINA RESULT:     -13.3      0.000      0.000
REMARK SMILES CC1(C)[C@@]2(C(=O)OCCOC(=O)c3ccc(-c4c5nc(c(-c6cc(S(=O)(=O)[O-])ccc6F)c6ccc([nH]6)c(-c6cc(S(=O)(=O)[O-])ccc6F)c6nc(c(-c7cc(S(=O)(=O)[O-])ccc7F)c7ccc4[nH]7)C=C6)C=C5)cc3)CC[C@]1(C)/C(=N/NC(=O)c1ccc(Cl)cc1)C2
REMARK SMILES IDX 9 1 8 2 7 3 5 4 6 5 4 6 1 7 2 8 3 9 78 10 76 11 92 12 77 13
REMARK SMILES IDX 79 14 80 15 81 16 82 17 83 18 84 20 85 21 86 22 91 23 87 24
REMARK SMILES IDX 90 25 88 26 89 27 10 28 11 29 12 30 13 31 14 32 75 33 15 34
REMARK SMILES IDX 74 35 16 36 17 37 18 38 68 39 19 40 73 41 67 42 69 43 20 44
REMARK SMILES IDX 72 45 66 46 65 47 21 49 53 50 33 51 52 52 34 53 37 54 51 55
REMARK SMILES IDX 70 56 35 57 36 58 50 60 71 61 38 62 22 63 23 64 31 65 24 66
REMARK SMILES IDX 30 67 32 68 29 69 25 70 26 71 27 72 28 73 54 74 55 75 63 76
REMARK SMILES IDX 56 77 62 78 64 79 61 80 57 81 58 82 59 83 60 84 39 85 40 86
REMARK SMILES IDX 48 87 41 88 47 89 49 90 46 91 42 92 43 93 44 94 45 95
REMARK H PARENT 82 19 69 48 37 59
REMARK Flexibility Score: inf
ROOT
ATOM      1  C   UNL A   1      38.906  19.378  25.800  1.00  0.00     0.275 C 
ENDROOT
BRANCH   1   2
ATOM      2  C   UNL A   1      38.042  20.041  24.732  1.00  0.00     0.274 C 
BRANCH   2   3
ATOM      3  O   UNL A   1      36.715  20.277  25.252  1.00  0.00    -0.462 OA
BRANCH   3   4
ATOM      4  C   UNL A   1      36.312  21.570  25.394  1.00  0.00     0.313 C 
ATOM      5  O   UNL A   1      36.975  22.452  25.923  1.00  0.00    -0.252 OA
BRANCH   4   6
ATOM      6  C   UNL A   1      34.863  21.741  24.972  1.00  0.00     0.079 C 
ATOM      7  C   UNL A   1      33.738  21.633  27.320  1.00  0.00     0.013 C 
ATOM      8  C   UNL A   1      33.807  22.332  25.951  1.00  0.00    -0.008 C 
ATOM      9  C   UNL A   1      33.925  23.854  26.205  1.00  0.00     0.013 C 
ATOM     10  C   UNL A   1      32.629  21.997  24.970  1.00  0.00     0.014 C 
ATOM     11  C   UNL A   1      34.300  20.313  24.662  1.00  0.00     0.021 C 
ATOM     12  C   UNL A   1      34.671  22.624  23.717  1.00  0.00     0.073 C 
ATOM     13  C   UNL A   1      32.776  20.494  24.700  1.00  0.00     0.014 C 
ATOM     14  C   UNL A   1      31.243  22.425  25.405  1.00  0.00     0.018 C 
ATOM     15  C   UNL A   1      33.168  22.658  23.676  1.00  0.00     0.046 C 
ATOM     16  N   UNL A   1      32.349  23.158  22.807  1.00  0.00    -0.181 NA
BRANCH  16  17
ATOM     17  N   UNL A   1      32.693  23.905  21.725  1.00  0.00    -0.243 N 
ATOM     18  C   UNL A   1      32.773  25.247  21.433  1.00  0.00     0.271 C 
ATOM     19  H   UNL A   1      32.947  23.344  20.957  1.00  0.00     0.194 HD
ATOM     20  O   UNL A   1      33.048  25.613  20.288  1.00  0.00    -0.267 OA
BRANCH  18  21
ATOM     21  C   UNL A   1      32.585  26.302  22.435  1.00  0.00     0.041 A 
ATOM     22  C   UNL A   1      31.386  27.033  22.387  1.00  0.00     0.015 A 
ATOM     23  C   UNL A   1      33.544  26.574  23.416  1.00  0.00     0.015 A 
ATOM     24  C   UNL A   1      31.109  27.980  23.373  1.00  0.00     0.021 A 
ATOM     25  C   UNL A   1      33.265  27.534  24.396  1.00  0.00     0.021 A 
ATOM     26  C   UNL A   1      32.044  28.216  24.380  1.00  0.00     0.041 A 
ATOM     27  Cl  UNL A   1      31.675  29.336  25.633  1.00  0.00    -0.084 Cl
ENDBRANCH  18  21
ENDBRANCH  16  17
ENDBRANCH   4   6
ENDBRANCH   3   4
ENDBRANCH   2   3
ENDBRANCH   1   2
BRANCH   1  28
ATOM     28  O   UNL A   1      40.212  19.967  25.725  1.00  0.00    -0.458 OA
BRANCH  28  29
ATOM     29  C   UNL A   1      40.892  20.093  26.883  1.00  0.00     0.338 C 
ATOM     30  O   UNL A   1      41.457  19.198  27.501  1.00  0.00    -0.246 OA
BRANCH  29  31
ATOM     31  C   UNL A   1      40.933  21.522  27.265  1.00  0.00     0.060 A 
ATOM     32  C   UNL A   1      40.183  22.452  26.543  1.00  0.00     0.016 A 
ATOM     33  C   UNL A   1      41.819  21.972  28.240  1.00  0.00     0.016 A 
ATOM     34  C   UNL A   1      40.423  23.815  26.687  1.00  0.00     0.010 A 
ATOM     35  C   UNL A   1      41.963  23.349  28.467  1.00  0.00     0.010 A 
ATOM     36  C   UNL A   1      41.314  24.296  27.650  1.00  0.00    -0.014 A 
BRANCH  36  37
ATOM     37  C   UNL A   1      41.656  25.751  27.729  1.00  0.00     0.031 A 
ATOM     38  C   UNL A   1      42.879  26.262  27.005  1.00  0.00     0.074 A 
ATOM     39  C   UNL A   1      40.884  26.644  28.386  1.00  0.00     0.049 A 
ATOM     40  N   UNL A   1      43.572  27.352  27.210  1.00  0.00    -0.248 NA
ATOM     41  C   UNL A   1      43.408  25.409  25.930  1.00  0.00     0.031 C 
ATOM     42  C   UNL A   1      39.611  26.358  29.051  1.00  0.00     0.029 A 
ATOM     43  N   UNL A   1      41.058  27.994  28.591  1.00  0.00    -0.354 N 
ATOM     44  C   UNL A   1      44.685  27.256  26.378  1.00  0.00     0.074 A 
ATOM     45  C   UNL A   1      44.552  26.015  25.643  1.00  0.00     0.031 C 
ATOM     46  C   UNL A   1      39.090  27.499  29.524  1.00  0.00     0.029 A 
ATOM     47  C   UNL A   1      40.054  28.574  29.334  1.00  0.00     0.049 A 
ATOM     48  H   UNL A   1      41.828  28.497  28.239  1.00  0.00     0.167 HD
ATOM     49  C   UNL A   1      45.727  28.117  26.265  1.00  0.00     0.034 A 
ATOM     50  C   UNL A   1      39.950  29.806  29.872  1.00  0.00     0.034 A 
ATOM     51  C   UNL A   1      45.778  29.398  26.928  1.00  0.00     0.049 A 
ATOM     52  C   UNL A   1      41.103  30.762  29.720  1.00  0.00     0.074 A 
ATOM     53  C   UNL A   1      46.791  30.343  26.919  1.00  0.00     0.029 A 
ATOM     54  N   UNL A   1      44.745  29.935  27.685  1.00  0.00    -0.354 N 
ATOM     55  N   UNL A   1      42.249  30.582  29.106  1.00  0.00    -0.248 NA
ATOM     56  C   UNL A   1      40.963  32.073  30.368  1.00  0.00     0.031 C 
ATOM     57  C   UNL A   1      46.381  31.437  27.693  1.00  0.00     0.029 A 
ATOM     58  C   UNL A   1      45.091  31.199  28.139  1.00  0.00     0.049 A 
ATOM     59  H   UNL A   1      43.890  29.485  27.873  1.00  0.00     0.167 HD
ATOM     60  C   UNL A   1      42.970  31.756  29.301  1.00  0.00     0.074 A 
ATOM     61  C   UNL A   1      42.115  32.648  30.059  1.00  0.00     0.031 C 
ATOM     62  C   UNL A   1      44.230  32.066  28.904  1.00  0.00     0.034 A 
BRANCH  49  63
ATOM     63  C   UNL A   1      46.927  27.658  25.471  1.00  0.00     0.023 A 
ATOM     64  C   UNL A   1      47.139  28.026  24.132  1.00  0.00     0.031 A 
ATOM     65  C   UNL A   1      47.862  26.792  26.071  1.00  0.00     0.131 A 
ATOM     66  C   UNL A   1      48.217  27.475  23.419  1.00  0.00     0.055 A 
ATOM     67  C   UNL A   1      48.974  26.310  25.379  1.00  0.00     0.041 A 
ATOM     68  F   UNL A   1      47.700  26.386  27.340  1.00  0.00    -0.206 F 
ATOM     69  C   UNL A   1      49.149  26.639  24.039  1.00  0.00     0.022 A 
BRANCH  66  70
ATOM     70  S   UNL A   1      48.306  27.753  21.629  1.00  0.00     0.124 S 
ATOM     71  O   UNL A   1      46.964  28.255  21.342  1.00  0.00    -0.237 OA
ATOM     72  O   UNL A   1      49.389  28.723  21.515  1.00  0.00    -0.237 OA
ATOM     73  O   UNL A   1      48.597  26.427  21.090  1.00  0.00    -0.744 OA
ENDBRANCH  66  70
ENDBRANCH  49  63
BRANCH  50  74
ATOM     74  C   UNL A   1      38.762  30.171  30.698  1.00  0.00     0.023 A 
ATOM     75  C   UNL A   1      37.712  30.934  30.166  1.00  0.00     0.031 A 
ATOM     76  C   UNL A   1      38.676  29.780  32.047  1.00  0.00     0.131 A 
ATOM     77  C   UNL A   1      36.633  31.305  30.985  1.00  0.00     0.055 A 
ATOM     78  C   UNL A   1      37.575  30.102  32.841  1.00  0.00     0.041 A 
ATOM     79  F   UNL A   1      39.656  29.053  32.609  1.00  0.00    -0.206 F 
ATOM     80  C   UNL A   1      36.549  30.878  32.313  1.00  0.00     0.022 A 
BRANCH  77  81
ATOM     81  S   UNL A   1      35.366  32.414  30.310  1.00  0.00     0.124 S 
ATOM     82  O   UNL A   1      34.940  31.689  29.119  1.00  0.00    -0.237 OA
ATOM     83  O   UNL A   1      34.403  32.476  31.405  1.00  0.00    -0.237 OA
ATOM     84  O   UNL A   1      36.099  33.654  30.058  1.00  0.00    -0.744 OA
ENDBRANCH  77  81
ENDBRANCH  50  74
BRANCH  62  85
ATOM     85  C   UNL A   1      44.727  33.443  29.255  1.00  0.00     0.023 A 
ATOM     86  C   UNL A   1      44.468  34.549  28.427  1.00  0.00     0.031 A 
ATOM     87  C   UNL A   1      45.498  33.641  30.412  1.00  0.00     0.131 A 
ATOM     88  C   UNL A   1      45.025  35.797  28.739  1.00  0.00     0.055 A 
ATOM     89  C   UNL A   1      46.011  34.896  30.742  1.00  0.00     0.041 A 
ATOM     90  F   UNL A   1      45.774  32.615  31.232  1.00  0.00    -0.206 F 
ATOM     91  C   UNL A   1      45.787  35.979  29.897  1.00  0.00     0.022 A 
BRANCH  88  92
ATOM     92  S   UNL A   1      44.819  37.163  27.564  1.00  0.00     0.124 S 
ATOM     93  O   UNL A   1      43.597  36.781  26.864  1.00  0.00    -0.237 OA
ATOM     94  O   UNL A   1      44.712  38.320  28.448  1.00  0.00    -0.237 OA
ATOM     95  O   UNL A   1      46.037  37.111  26.758  1.00  0.00    -0.744 OA
ENDBRANCH  88  92
ENDBRANCH  62  85
ENDBRANCH  36  37
ENDBRANCH  29  31
ENDBRANCH  28  29
ENDBRANCH   1  28
TORSDOF 16
ENDMDL
MODEL 2
REMARK VINA RESULT:     -13.0      4.929     10.885
REMARK SMILES CC1(C)[C@@]2(C(=O)OCCOC(=O)c3ccc(-c4c5nc(c(-c6cc(S(=O)(=O)[O-])ccc6F)c6ccc([nH]6)c(-c6cc(S(=O)(=O)[O-])ccc6F)c6nc(c(-c7cc(S(=O)(=O)[O-])ccc7F)c7ccc4[nH]7)C=C6)C=C5)cc3)CC[C@]1(C)/C(=N/NC(=O)c1ccc(Cl)cc1)C2
REMARK SMILES IDX 9 1 8 2 7 3 5 4 6 5 4 6 1 7 2 8 3 9 78 10 76 11 92 12 77 13
REMARK SMILES IDX 79 14 80 15 81 16 82 17 83 18 84 20 85 21 86 22 91 23 87 24
REMARK SMILES IDX 90 25 88 26 89 27 10 28 11 29 12 30 13 31 14 32 75 33 15 34
REMARK SMILES IDX 74 35 16 36 17 37 18 38 68 39 19 40 73 41 67 42 69 43 20 44
REMARK SMILES IDX 72 45 66 46 65 47 21 49 53 50 33 51 52 52 34 53 37 54 51 55
REMARK SMILES IDX 70 56 35 57 36 58 50 60 71 61 38 62 22 63 23 64 31 65 24 66
REMARK SMILES IDX 30 67 32 68 29 69 25 70 26 71 27 72 28 73 54 74 55 75 63 76
REMARK SMILES IDX 56 77 62 78 64 79 61 80 57 81 58 82 59 83 60 84 39 85 40 86
REMARK SMILES IDX 48 87 41 88 47 89 49 90 46 91 42 92 43 93 44 94 45 95
REMARK H PARENT 82 19 69 48 37 59
REMARK Flexibility Score: inf
ROOT
ATOM      1  C   UNL A   1      32.034  33.086  26.855  1.00  0.00     0.275 C 
ENDROOT
BRANCH   1   2
ATOM      2  C   UNL A   1      31.404  31.701  26.965  1.00  0.00     0.274 C 
BRANCH   2   3
ATOM      3  O   UNL A   1      31.592  30.978  25.728  1.00  0.00    -0.462 OA
BRANCH   3   4
ATOM      4  C   UNL A   1      32.369  29.859  25.762  1.00  0.00     0.313 C 
ATOM      5  O   UNL A   1      33.488  29.804  26.254  1.00  0.00    -0.252 OA
BRANCH   4   6
ATOM      6  C   UNL A   1      31.745  28.735  24.953  1.00  0.00     0.079 C 
ATOM      7  C   UNL A   1      33.169  28.953  22.782  1.00  0.00     0.013 C 
ATOM      8  C   UNL A   1      32.546  28.014  23.830  1.00  0.00    -0.008 C 
ATOM      9  C   UNL A   1      33.657  27.058  24.325  1.00  0.00     0.013 C 
ATOM     10  C   UNL A   1      31.275  27.229  23.352  1.00  0.00     0.014 C 
ATOM     11  C   UNL A   1      30.523  29.342  24.185  1.00  0.00     0.021 C 
ATOM     12  C   UNL A   1      31.243  27.548  25.807  1.00  0.00     0.073 C 
ATOM     13  C   UNL A   1      30.236  28.323  23.073  1.00  0.00     0.014 C 
ATOM     14  C   UNL A   1      31.473  26.247  22.216  1.00  0.00     0.018 C 
ATOM     15  C   UNL A   1      30.816  26.621  24.702  1.00  0.00     0.046 C 
ATOM     16  N   UNL A   1      30.216  25.476  24.733  1.00  0.00    -0.181 NA
BRANCH  16  17
ATOM     17  N   UNL A   1      29.915  24.762  25.850  1.00  0.00    -0.243 N 
ATOM     18  C   UNL A   1      30.446  23.673  26.502  1.00  0.00     0.271 C 
ATOM     19  H   UNL A   1      29.117  25.113  26.306  1.00  0.00     0.194 HD
ATOM     20  O   UNL A   1      29.868  23.201  27.483  1.00  0.00    -0.267 OA
BRANCH  18  21
ATOM     21  C   UNL A   1      31.714  23.043  26.116  1.00  0.00     0.041 A 
ATOM     22  C   UNL A   1      32.900  23.686  26.508  1.00  0.00     0.015 A 
ATOM     23  C   UNL A   1      31.760  21.842  25.401  1.00  0.00     0.015 A 
ATOM     24  C   UNL A   1      34.134  23.085  26.256  1.00  0.00     0.021 A 
ATOM     25  C   UNL A   1      33.001  21.250  25.141  1.00  0.00     0.021 A 
ATOM     26  C   UNL A   1      34.177  21.863  25.586  1.00  0.00     0.041 A 
ATOM     27  Cl  UNL A   1      35.693  21.089  25.335  1.00  0.00    -0.084 Cl
ENDBRANCH  18  21
ENDBRANCH  16  17
ENDBRANCH   4   6
ENDBRANCH   3   4
ENDBRANCH   2   3
ENDBRANCH   1   2
BRANCH   1  28
ATOM     28  O   UNL A   1      32.741  33.336  28.078  1.00  0.00    -0.458 OA
BRANCH  28  29
ATOM     29  C   UNL A   1      33.905  34.013  27.982  1.00  0.00     0.338 C 
ATOM     30  O   UNL A   1      34.038  35.208  27.747  1.00  0.00    -0.246 OA
BRANCH  29  31
ATOM     31  C   UNL A   1      35.022  33.096  28.297  1.00  0.00     0.060 A 
ATOM     32  C   UNL A   1      34.761  31.750  28.553  1.00  0.00     0.016 A 
ATOM     33  C   UNL A   1      36.312  33.587  28.483  1.00  0.00     0.016 A 
ATOM     34  C   UNL A   1      35.735  30.940  29.129  1.00  0.00     0.010 A 
ATOM     35  C   UNL A   1      37.322  32.730  28.945  1.00  0.00     0.010 A 
ATOM     36  C   UNL A   1      37.035  31.408  29.337  1.00  0.00    -0.014 A 
BRANCH  36  37
ATOM     37  C   UNL A   1      38.050  30.576  30.058  1.00  0.00     0.031 A 
ATOM     38  C   UNL A   1      38.172  30.697  31.558  1.00  0.00     0.074 A 
ATOM     39  C   UNL A   1      38.836  29.678  29.425  1.00  0.00     0.049 A 
ATOM     40  N   UNL A   1      39.173  30.384  32.339  1.00  0.00    -0.248 NA
ATOM     41  C   UNL A   1      37.023  31.283  32.264  1.00  0.00     0.031 C 
ATOM     42  C   UNL A   1      38.786  29.343  28.000  1.00  0.00     0.029 A 
ATOM     43  N   UNL A   1      39.833  28.864  29.912  1.00  0.00    -0.354 N 
ATOM     44  C   UNL A   1      38.825  30.847  33.606  1.00  0.00     0.074 A 
ATOM     45  C   UNL A   1      37.505  31.432  33.490  1.00  0.00     0.031 C 
ATOM     46  C   UNL A   1      39.654  28.354  27.745  1.00  0.00     0.029 A 
ATOM     47  C   UNL A   1      40.430  28.083  28.948  1.00  0.00     0.049 A 
ATOM     48  H   UNL A   1      40.094  28.842  30.861  1.00  0.00     0.167 HD
ATOM     49  C   UNL A   1      39.558  30.806  34.747  1.00  0.00     0.034 A 
ATOM     50  C   UNL A   1      41.525  27.298  28.997  1.00  0.00     0.034 A 
ATOM     51  C   UNL A   1      40.822  30.119  34.858  1.00  0.00     0.049 A 
ATOM     52  C   UNL A   1      42.318  27.242  30.276  1.00  0.00     0.074 A 
ATOM     53  C   UNL A   1      41.673  30.033  35.947  1.00  0.00     0.029 A 
ATOM     54  N   UNL A   1      41.396  29.357  33.849  1.00  0.00    -0.354 N 
ATOM     55  N   UNL A   1      42.095  27.857  31.414  1.00  0.00    -0.248 NA
ATOM     56  C   UNL A   1      43.532  26.414  30.264  1.00  0.00     0.031 C 
ATOM     57  C   UNL A   1      42.774  29.243  35.587  1.00  0.00     0.029 A 
ATOM     58  C   UNL A   1      42.582  28.791  34.291  1.00  0.00     0.049 A 
ATOM     59  H   UNL A   1      41.017  29.236  32.948  1.00  0.00     0.167 HD
ATOM     60  C   UNL A   1      43.146  27.497  32.250  1.00  0.00     0.074 A 
ATOM     61  C   UNL A   1      43.982  26.582  31.498  1.00  0.00     0.031 C 
ATOM     62  C   UNL A   1      43.407  27.894  33.521  1.00  0.00     0.034 A 
BRANCH  49  63
ATOM     63  C   UNL A   1      39.052  31.598  35.929  1.00  0.00     0.023 A 
ATOM     64  C   UNL A   1      38.314  31.018  36.974  1.00  0.00     0.031 A 
ATOM     65  C   UNL A   1      39.287  32.986  35.982  1.00  0.00     0.131 A 
ATOM     66  C   UNL A   1      37.780  31.832  37.987  1.00  0.00     0.055 A 
ATOM     67  C   UNL A   1      38.819  33.777  37.032  1.00  0.00     0.041 A 
ATOM     68  F   UNL A   1      39.965  33.601  35.000  1.00  0.00    -0.206 F 
ATOM     69  C   UNL A   1      38.047  33.203  38.036  1.00  0.00     0.022 A 
BRANCH  66  70
ATOM     70  S   UNL A   1      36.611  31.099  39.164  1.00  0.00     0.124 S 
ATOM     71  O   UNL A   1      36.283  29.836  38.505  1.00  0.00    -0.237 OA
ATOM     72  O   UNL A   1      37.411  30.997  40.379  1.00  0.00    -0.237 OA
ATOM     73  O   UNL A   1      35.520  32.069  39.215  1.00  0.00    -0.744 OA
ENDBRANCH  66  70
ENDBRANCH  49  63
BRANCH  50  74
ATOM     74  C   UNL A   1      42.004  26.593  27.773  1.00  0.00     0.023 A 
ATOM     75  C   UNL A   1      41.766  25.223  27.583  1.00  0.00     0.031 A 
ATOM     76  C   UNL A   1      42.734  27.279  26.784  1.00  0.00     0.131 A 
ATOM     77  C   UNL A   1      42.275  24.577  26.444  1.00  0.00     0.055 A 
ATOM     78  C   UNL A   1      43.188  26.646  25.627  1.00  0.00     0.041 A 
ATOM     79  F   UNL A   1      42.995  28.590  26.919  1.00  0.00    -0.206 F 
ATOM     80  C   UNL A   1      42.968  25.284  25.456  1.00  0.00     0.022 A 
BRANCH  77  81
ATOM     81  S   UNL A   1      42.079  22.780  26.300  1.00  0.00     0.124 S 
ATOM     82  O   UNL A   1      42.841  22.304  27.448  1.00  0.00    -0.237 OA
ATOM     83  O   UNL A   1      40.630  22.626  26.381  1.00  0.00    -0.237 OA
ATOM     84  O   UNL A   1      42.662  22.477  24.994  1.00  0.00    -0.744 OA
ENDBRANCH  77  81
ENDBRANCH  50  74
BRANCH  62  85
ATOM     85  C   UNL A   1      44.627  27.302  34.174  1.00  0.00     0.023 A 
ATOM     86  C   UNL A   1      44.563  26.093  34.889  1.00  0.00     0.031 A 
ATOM     87  C   UNL A   1      45.858  27.975  34.111  1.00  0.00     0.131 A 
ATOM     88  C   UNL A   1      45.699  25.621  35.561  1.00  0.00     0.055 A 
ATOM     89  C   UNL A   1      46.998  27.475  34.743  1.00  0.00     0.041 A 
ATOM     90  F   UNL A   1      45.969  29.133  33.443  1.00  0.00    -0.206 F 
ATOM     91  C   UNL A   1      46.918  26.300  35.484  1.00  0.00     0.022 A 
BRANCH  88  92
ATOM     92  S   UNL A   1      45.542  24.153  36.615  1.00  0.00     0.124 S 
ATOM     93  O   UNL A   1      44.523  23.380  35.912  1.00  0.00    -0.237 OA
ATOM     94  O   UNL A   1      46.894  23.603  36.586  1.00  0.00    -0.237 OA
ATOM     95  O   UNL A   1      45.123  24.699  37.905  1.00  0.00    -0.744 OA
ENDBRANCH  88  92
ENDBRANCH  62  85
ENDBRANCH  36  37
ENDBRANCH  29  31
ENDBRANCH  28  29
ENDBRANCH   1  28
TORSDOF 16
ENDMDL
MODEL 3
REMARK VINA RESULT:     -12.9      1.578      1.812
REMARK SMILES CC1(C)[C@@]2(C(=O)OCCOC(=O)c3ccc(-c4c5nc(c(-c6cc(S(=O)(=O)[O-])ccc6F)c6ccc([nH]6)c(-c6cc(S(=O)(=O)[O-])ccc6F)c6nc(c(-c7cc(S(=O)(=O)[O-])ccc7F)c7ccc4[nH]7)C=C6)C=C5)cc3)CC[C@]1(C)/C(=N/NC(=O)c1ccc(Cl)cc1)C2
REMARK SMILES IDX 9 1 8 2 7 3 5 4 6 5 4 6 1 7 2 8 3 9 78 10 76 11 92 12 77 13
REMARK SMILES IDX 79 14 80 15 81 16 82 17 83 18 84 20 85 21 86 22 91 23 87 24
REMARK SMILES IDX 90 25 88 26 89 27 10 28 11 29 12 30 13 31 14 32 75 33 15 34
REMARK SMILES IDX 74 35 16 36 17 37 18 38 68 39 19 40 73 41 67 42 69 43 20 44
REMARK SMILES IDX 72 45 66 46 65 47 21 49 53 50 33 51 52 52 34 53 37 54 51 55
REMARK SMILES IDX 70 56 35 57 36 58 50 60 71 61 38 62 22 63 23 64 31 65 24 66
REMARK SMILES IDX 30 67 32 68 29 69 25 70 26 71 27 72 28 73 54 74 55 75 63 76
REMARK SMILES IDX 56 77 62 78 64 79 61 80 57 81 58 82 59 83 60 84 39 85 40 86
REMARK SMILES IDX 48 87 41 88 47 89 49 90 46 91 42 92 43 93 44 94 45 95
REMARK H PARENT 82 19 69 48 37 59
REMARK Flexibility Score: inf
ROOT
ATOM      1  C   UNL A   1      38.903  19.234  25.789  1.00  0.00     0.275 C 
ENDROOT
BRANCH   1   2
ATOM      2  C   UNL A   1      38.037  19.824  24.680  1.00  0.00     0.274 C 
BRANCH   2   3
ATOM      3  O   UNL A   1      36.717  20.114  25.191  1.00  0.00    -0.462 OA
BRANCH   3   4
ATOM      4  C   UNL A   1      36.370  21.424  25.337  1.00  0.00     0.313 C 
ATOM      5  O   UNL A   1      37.087  22.283  25.832  1.00  0.00    -0.252 OA
BRANCH   4   6
ATOM      6  C   UNL A   1      34.913  21.647  24.970  1.00  0.00     0.079 C 
ATOM      7  C   UNL A   1      33.879  21.608  27.362  1.00  0.00     0.013 C 
ATOM      8  C   UNL A   1      33.920  22.290  25.983  1.00  0.00    -0.008 C 
ATOM      9  C   UNL A   1      34.108  23.808  26.214  1.00  0.00     0.013 C 
ATOM     10  C   UNL A   1      32.693  21.991  25.053  1.00  0.00     0.014 C 
ATOM     11  C   UNL A   1      34.283  20.239  24.700  1.00  0.00     0.021 C 
ATOM     12  C   UNL A   1      34.706  22.524  23.713  1.00  0.00     0.073 C 
ATOM     13  C   UNL A   1      32.770  20.481  24.796  1.00  0.00     0.014 C 
ATOM     14  C   UNL A   1      31.342  22.478  25.537  1.00  0.00     0.018 C 
ATOM     15  C   UNL A   1      33.205  22.617  23.731  1.00  0.00     0.046 C 
ATOM     16  N   UNL A   1      32.373  23.140  22.889  1.00  0.00    -0.181 NA
BRANCH  16  17
ATOM     17  N   UNL A   1      32.701  23.861  21.785  1.00  0.00    -0.243 N 
ATOM     18  C   UNL A   1      32.803  25.197  21.469  1.00  0.00     0.271 C 
ATOM     19  H   UNL A   1      32.922  23.283  21.020  1.00  0.00     0.194 HD
ATOM     20  O   UNL A   1      33.054  25.537  20.311  1.00  0.00    -0.267 OA
BRANCH  18  21
ATOM     21  C   UNL A   1      32.667  26.271  22.458  1.00  0.00     0.041 A 
ATOM     22  C   UNL A   1      33.634  26.339  23.475  1.00  0.00     0.015 A 
ATOM     23  C   UNL A   1      31.631  27.209  22.399  1.00  0.00     0.015 A 
ATOM     24  C   UNL A   1      33.613  27.396  24.386  1.00  0.00     0.021 A 
ATOM     25  C   UNL A   1      31.608  28.260  23.323  1.00  0.00     0.021 A 
ATOM     26  C   UNL A   1      32.608  28.359  24.296  1.00  0.00     0.041 A 
ATOM     27  Cl  UNL A   1      32.620  29.698  25.376  1.00  0.00    -0.084 Cl
ENDBRANCH  18  21
ENDBRANCH  16  17
ENDBRANCH   4   6
ENDBRANCH   3   4
ENDBRANCH   2   3
ENDBRANCH   1   2
BRANCH   1  28
ATOM     28  O   UNL A   1      40.260  19.613  25.523  1.00  0.00    -0.458 OA
BRANCH  28  29
ATOM     29  C   UNL A   1      41.076  19.751  26.589  1.00  0.00     0.338 C 
ATOM     30  O   UNL A   1      41.757  18.873  27.107  1.00  0.00    -0.246 OA
BRANCH  29  31
ATOM     31  C   UNL A   1      41.096  21.172  27.000  1.00  0.00     0.060 A 
ATOM     32  C   UNL A   1      40.444  22.127  26.220  1.00  0.00     0.016 A 
ATOM     33  C   UNL A   1      41.878  21.589  28.074  1.00  0.00     0.016 A 
ATOM     34  C   UNL A   1      40.687  23.483  26.415  1.00  0.00     0.010 A 
ATOM     35  C   UNL A   1      42.017  22.959  28.342  1.00  0.00     0.010 A 
ATOM     36  C   UNL A   1      41.475  23.931  27.477  1.00  0.00    -0.014 A 
BRANCH  36  37
ATOM     37  C   UNL A   1      41.829  25.379  27.621  1.00  0.00     0.031 A 
ATOM     38  C   UNL A   1      43.139  25.878  27.060  1.00  0.00     0.074 A 
ATOM     39  C   UNL A   1      40.997  26.277  28.194  1.00  0.00     0.049 A 
ATOM     40  N   UNL A   1      43.820  26.951  27.365  1.00  0.00    -0.248 NA
ATOM     41  C   UNL A   1      43.781  25.031  26.043  1.00  0.00     0.031 C 
ATOM     42  C   UNL A   1      39.648  26.004  28.694  1.00  0.00     0.029 A 
ATOM     43  N   UNL A   1      41.167  27.620  28.441  1.00  0.00    -0.354 N 
ATOM     44  C   UNL A   1      45.024  26.848  26.673  1.00  0.00     0.074 A 
ATOM     45  C   UNL A   1      44.961  25.620  25.907  1.00  0.00     0.031 C 
ATOM     46  C   UNL A   1      39.092  27.147  29.119  1.00  0.00     0.029 A 
ATOM     47  C   UNL A   1      40.089  28.208  29.065  1.00  0.00     0.049 A 
ATOM     48  H   UNL A   1      41.982  28.114  28.193  1.00  0.00     0.167 HD
ATOM     49  C   UNL A   1      46.086  27.691  26.702  1.00  0.00     0.034 A 
ATOM     50  C   UNL A   1      39.941  29.434  29.606  1.00  0.00     0.034 A 
ATOM     51  C   UNL A   1      46.076  28.962  27.386  1.00  0.00     0.049 A 
ATOM     52  C   UNL A   1      41.119  30.370  29.612  1.00  0.00     0.074 A 
ATOM     53  C   UNL A   1      47.098  29.888  27.516  1.00  0.00     0.029 A 
ATOM     54  N   UNL A   1      44.968  29.507  28.021  1.00  0.00    -0.354 N 
ATOM     55  N   UNL A   1      42.329  30.179  29.139  1.00  0.00    -0.248 NA
ATOM     56  C   UNL A   1      40.923  31.674  30.259  1.00  0.00     0.031 C 
ATOM     57  C   UNL A   1      46.615  30.978  28.252  1.00  0.00     0.029 A 
ATOM     58  C   UNL A   1      45.276  30.757  28.534  1.00  0.00     0.049 A 
ATOM     59  H   UNL A   1      44.089  29.069  28.097  1.00  0.00     0.167 HD
ATOM     60  C   UNL A   1      43.039  31.336  29.439  1.00  0.00     0.074 A 
ATOM     61  C   UNL A   1      42.113  32.233  30.101  1.00  0.00     0.031 C 
ATOM     62  C   UNL A   1      44.343  31.629  29.203  1.00  0.00     0.034 A 
BRANCH  49  63
ATOM     63  C   UNL A   1      47.366  27.222  26.052  1.00  0.00     0.023 A 
ATOM     64  C   UNL A   1      48.306  26.418  26.718  1.00  0.00     0.031 A 
ATOM     65  C   UNL A   1      47.665  27.632  24.738  1.00  0.00     0.131 A 
ATOM     66  C   UNL A   1      49.527  26.110  26.094  1.00  0.00     0.055 A 
ATOM     67  C   UNL A   1      48.845  27.257  24.096  1.00  0.00     0.041 A 
ATOM     68  F   UNL A   1      46.816  28.421  24.060  1.00  0.00    -0.206 F 
ATOM     69  C   UNL A   1      49.792  26.502  24.780  1.00  0.00     0.022 A 
BRANCH  66  70
ATOM     70  S   UNL A   1      50.824  25.305  27.074  1.00  0.00     0.124 S 
ATOM     71  O   UNL A   1      51.337  26.426  27.858  1.00  0.00    -0.237 OA
ATOM     72  O   UNL A   1      50.078  24.295  27.814  1.00  0.00    -0.237 OA
ATOM     73  O   UNL A   1      51.745  24.786  26.065  1.00  0.00    -0.744 OA
ENDBRANCH  66  70
ENDBRANCH  49  63
BRANCH  50  74
ATOM     74  C   UNL A   1      38.667  29.808  30.288  1.00  0.00     0.023 A 
ATOM     75  C   UNL A   1      37.682  30.558  29.628  1.00  0.00     0.031 A 
ATOM     76  C   UNL A   1      38.431  29.440  31.626  1.00  0.00     0.131 A 
ATOM     77  C   UNL A   1      36.517  30.939  30.315  1.00  0.00     0.055 A 
ATOM     78  C   UNL A   1      37.247  29.772  32.286  1.00  0.00     0.041 A 
ATOM     79  F   UNL A   1      39.343  28.727  32.306  1.00  0.00    -0.206 F 
ATOM     80  C   UNL A   1      36.285  30.534  31.632  1.00  0.00     0.022 A 
BRANCH  77  81
ATOM     81  S   UNL A   1      35.332  32.032  29.483  1.00  0.00     0.124 S 
ATOM     82  O   UNL A   1      34.713  31.124  28.524  1.00  0.00    -0.237 OA
ATOM     83  O   UNL A   1      34.490  32.466  30.593  1.00  0.00    -0.237 OA
ATOM     84  O   UNL A   1      36.179  33.072  28.902  1.00  0.00    -0.744 OA
ENDBRANCH  77  81
ENDBRANCH  50  74
BRANCH  62  85
ATOM     85  C   UNL A   1      44.816  32.992  29.634  1.00  0.00     0.023 A 
ATOM     86  C   UNL A   1      44.746  34.099  28.770  1.00  0.00     0.031 A 
ATOM     87  C   UNL A   1      45.375  33.173  30.909  1.00  0.00     0.131 A 
ATOM     88  C   UNL A   1      45.281  35.330  29.175  1.00  0.00     0.055 A 
ATOM     89  C   UNL A   1      45.863  34.413  31.323  1.00  0.00     0.041 A 
ATOM     90  F   UNL A   1      45.465  32.146  31.768  1.00  0.00    -0.206 F 
ATOM     91  C   UNL A   1      45.830  35.496  30.449  1.00  0.00     0.022 A 
BRANCH  88  92
ATOM     92  S   UNL A   1      45.334  36.693  27.979  1.00  0.00     0.124 S 
ATOM     93  O   UNL A   1      45.412  35.980  26.707  1.00  0.00    -0.237 OA
ATOM     94  O   UNL A   1      44.079  37.389  28.244  1.00  0.00    -0.237 OA
ATOM     95  O   UNL A   1      46.540  37.430  28.350  1.00  0.00    -0.744 OA
ENDBRANCH  88  92
ENDBRANCH  62  85
ENDBRANCH  36  37
ENDBRANCH  29  31
ENDBRANCH  28  29
ENDBRANCH   1  28
TORSDOF 16
ENDMDL
