MODEL 1
REMARK VINA RESULT:     -10.7      0.000      0.000
REMARK SMILES Cc1ccc([C@H]2C[C@]2([NH3+])C(=O)OCCOC(=O)c2ccc(-c3c4nc(c(-c5cc(S(=O)(=O)[O-])ccc5F)c5ccc([nH]5)c(-c5cc(S(=O)(=O)[O-])ccc5F)c5nc(c(-c6cc(S(=O)(=O)[O-])ccc6F)c6ccc3[nH]6)C=C5)C=C4)cc2)cc1C
REMARK SMILES IDX 14 1 13 2 12 3 10 4 11 5 8 6 6 7 7 8 5 9 1 10 2 11 3 12
REMARK SMILES IDX 82 13 4 14 81 15 83 16 9 17 15 21 16 22 17 23 18 24 19 25
REMARK SMILES IDX 80 26 20 27 79 28 21 29 22 30 23 31 73 32 24 33 78 34 72 35
REMARK SMILES IDX 74 36 25 37 77 38 71 39 70 40 26 42 58 43 38 44 57 45 39 46
REMARK SMILES IDX 42 47 56 48 75 49 40 50 41 51 55 53 76 54 43 55 27 56 28 57
REMARK SMILES IDX 36 58 29 59 35 60 37 61 34 62 30 63 31 64 32 65 33 66 59 67
REMARK SMILES IDX 60 68 68 69 61 70 67 71 69 72 66 73 62 74 63 75 64 76 65 77
REMARK SMILES IDX 44 78 45 79 53 80 46 81 52 82 54 83 51 84 47 85 48 86 49 87
REMARK SMILES IDX 50 88
REMARK H PARENT 9 18 9 19 9 20 74 41 42 52
REMARK Flexibility Score: inf
ROOT
ATOM      1  C   UNL A   1      40.413  19.671  26.131  1.00  0.00     0.275 C 
ENDROOT
BRANCH   1   2
ATOM      2  C   UNL A   1      41.847  19.154  26.173  1.00  0.00     0.274 C 
BRANCH   2   3
ATOM      3  O   UNL A   1      42.560  19.589  25.001  1.00  0.00    -0.457 OA
BRANCH   3   4
ATOM      4  C   UNL A   1      43.860  19.193  24.908  1.00  0.00     0.368 C 
ATOM      5  O   UNL A   1      44.257  18.079  24.605  1.00  0.00    -0.245 OA
BRANCH   4   6
ATOM      6  C   UNL A   1      44.826  20.308  25.253  1.00  0.00     0.200 C 
ATOM      7  C   UNL A   1      44.236  21.645  25.679  1.00  0.00     0.099 C 
ATOM      8  C   UNL A   1      44.890  21.500  24.323  1.00  0.00     0.097 C 
BRANCH   7   9
ATOM      9  C   UNL A   1      44.853  22.635  26.636  1.00  0.00    -0.037 A 
ATOM     10  C   UNL A   1      46.709  25.599  29.225  1.00  0.00     0.044 C 
ATOM     11  C   UNL A   1      46.043  24.568  28.358  1.00  0.00    -0.048 A 
ATOM     12  C   UNL A   1      46.600  24.278  27.106  1.00  0.00     0.004 A 
ATOM     13  C   UNL A   1      44.877  23.891  28.755  1.00  0.00    -0.048 A 
ATOM     14  C   UNL A   1      46.016  23.327  26.267  1.00  0.00     0.004 A 
ATOM     15  C   UNL A   1      44.292  22.954  27.879  1.00  0.00     0.008 A 
ATOM     16  C   UNL A   1      44.199  24.122  30.075  1.00  0.00     0.044 C 
ENDBRANCH   7   9
BRANCH   6  17
ATOM     17  N   UNL A   1      46.133  19.800  25.753  1.00  0.00    -0.343 N 
ATOM     18  H   UNL A   1      46.005  18.875  26.162  1.00  0.00     0.345 HD
ATOM     19  H   UNL A   1      46.498  20.437  26.461  1.00  0.00     0.345 HD
ATOM     20  H   UNL A   1      46.794  19.741  24.977  1.00  0.00     0.345 HD
ENDBRANCH   6  17
ENDBRANCH   4   6
ENDBRANCH   3   4
ENDBRANCH   2   3
ENDBRANCH   1   2
BRANCH   1  21
ATOM     21  O   UNL A   1      40.352  20.923  26.834  1.00  0.00    -0.458 OA
BRANCH  21  22
ATOM     22  C   UNL A   1      39.342  21.748  26.478  1.00  0.00     0.338 C 
ATOM     23  O   UNL A   1      38.294  21.452  25.932  1.00  0.00    -0.246 OA
BRANCH  22  24
ATOM     24  C   UNL A   1      39.690  23.120  26.877  1.00  0.00     0.060 A 
ATOM     25  C   UNL A   1      39.152  24.196  26.172  1.00  0.00     0.016 A 
ATOM     26  C   UNL A   1      40.622  23.335  27.889  1.00  0.00     0.016 A 
ATOM     27  C   UNL A   1      39.606  25.489  26.418  1.00  0.00     0.010 A 
ATOM     28  C   UNL A   1      40.997  24.644  28.205  1.00  0.00     0.010 A 
ATOM     29  C   UNL A   1      40.516  25.734  27.454  1.00  0.00    -0.014 A 
BRANCH  29  30
ATOM     30  C   UNL A   1      40.982  27.117  27.755  1.00  0.00     0.031 A 
ATOM     31  C   UNL A   1      42.408  27.506  27.473  1.00  0.00     0.074 A 
ATOM     32  C   UNL A   1      40.139  28.016  28.302  1.00  0.00     0.049 A 
ATOM     33  N   UNL A   1      43.073  28.566  27.857  1.00  0.00    -0.248 NA
ATOM     34  C   UNL A   1      43.196  26.567  26.661  1.00  0.00     0.031 C 
ATOM     35  C   UNL A   1      38.717  27.788  28.578  1.00  0.00     0.029 A 
ATOM     36  N   UNL A   1      40.355  29.301  28.735  1.00  0.00    -0.354 N 
ATOM     37  C   UNL A   1      44.369  28.399  27.378  1.00  0.00     0.074 A 
ATOM     38  C   UNL A   1      44.396  27.127  26.687  1.00  0.00     0.031 C 
ATOM     39  C   UNL A   1      38.189  28.898  29.113  1.00  0.00     0.029 A 
ATOM     40  C   UNL A   1      39.248  29.881  29.312  1.00  0.00     0.049 A 
ATOM     41  H   UNL A   1      41.219  29.764  28.642  1.00  0.00     0.167 HD
ATOM     42  C   UNL A   1      45.432  29.232  27.506  1.00  0.00     0.034 A 
ATOM     43  C   UNL A   1      39.108  31.045  29.979  1.00  0.00     0.034 A 
ATOM     44  C   UNL A   1      45.374  30.510  28.175  1.00  0.00     0.049 A 
ATOM     45  C   UNL A   1      40.319  31.919  30.174  1.00  0.00     0.074 A 
ATOM     46  C   UNL A   1      46.385  31.441  28.348  1.00  0.00     0.029 A 
ATOM     47  N   UNL A   1      44.243  31.040  28.782  1.00  0.00    -0.354 N 
ATOM     48  N   UNL A   1      41.551  31.726  29.763  1.00  0.00    -0.248 NA
ATOM     49  C   UNL A   1      40.123  33.160  30.933  1.00  0.00     0.031 C 
ATOM     50  C   UNL A   1      45.882  32.501  29.112  1.00  0.00     0.029 A 
ATOM     51  C   UNL A   1      44.537  32.270  29.354  1.00  0.00     0.049 A 
ATOM     52  H   UNL A   1      43.359  30.607  28.802  1.00  0.00     0.167 HD
ATOM     53  C   UNL A   1      42.273  32.830  30.203  1.00  0.00     0.074 A 
ATOM     54  C   UNL A   1      41.335  33.694  30.891  1.00  0.00     0.031 C 
ATOM     55  C   UNL A   1      43.593  33.109  30.052  1.00  0.00     0.034 A 
BRANCH  42  56
ATOM     56  C   UNL A   1      46.760  28.753  26.966  1.00  0.00     0.023 A 
ATOM     57  C   UNL A   1      46.972  28.526  25.596  1.00  0.00     0.031 A 
ATOM     58  C   UNL A   1      47.824  28.490  27.848  1.00  0.00     0.131 A 
ATOM     59  C   UNL A   1      48.191  27.985  25.155  1.00  0.00     0.055 A 
ATOM     60  C   UNL A   1      49.060  28.025  27.395  1.00  0.00     0.041 A 
ATOM     61  F   UNL A   1      47.675  28.667  29.170  1.00  0.00    -0.206 F 
ATOM     62  C   UNL A   1      49.245  27.756  26.043  1.00  0.00     0.022 A 
BRANCH  59  63
ATOM     63  S   UNL A   1      48.329  27.453  23.427  1.00  0.00     0.124 S 
ATOM     64  O   UNL A   1      49.673  27.913  23.082  1.00  0.00    -0.237 OA
ATOM     65  O   UNL A   1      48.154  26.009  23.526  1.00  0.00    -0.237 OA
ATOM     66  O   UNL A   1      47.244  28.169  22.759  1.00  0.00    -0.744 OA
ENDBRANCH  59  63
ENDBRANCH  42  56
BRANCH  43  67
ATOM     67  C   UNL A   1      37.794  31.415  30.580  1.00  0.00     0.023 A 
ATOM     68  C   UNL A   1      36.835  32.126  29.844  1.00  0.00     0.031 A 
ATOM     69  C   UNL A   1      37.495  31.092  31.917  1.00  0.00     0.131 A 
ATOM     70  C   UNL A   1      35.636  32.523  30.459  1.00  0.00     0.055 A 
ATOM     71  C   UNL A   1      36.278  31.440  32.506  1.00  0.00     0.041 A 
ATOM     72  F   UNL A   1      38.378  30.415  32.667  1.00  0.00    -0.206 F 
ATOM     73  C   UNL A   1      35.346  32.171  31.779  1.00  0.00     0.022 A 
BRANCH  70  74
ATOM     74  S   UNL A   1      34.492  33.580  29.530  1.00  0.00     0.124 S 
ATOM     75  O   UNL A   1      33.661  34.127  30.597  1.00  0.00    -0.237 OA
ATOM     76  O   UNL A   1      35.403  34.518  28.882  1.00  0.00    -0.237 OA
ATOM     77  O   UNL A   1      33.820  32.645  28.631  1.00  0.00    -0.744 OA
ENDBRANCH  70  74
ENDBRANCH  43  67
BRANCH  55  78
ATOM     78  C   UNL A   1      44.079  34.423  30.611  1.00  0.00     0.023 A 
ATOM     79  C   UNL A   1      44.489  34.548  31.950  1.00  0.00     0.031 A 
ATOM     80  C   UNL A   1      44.115  35.567  29.796  1.00  0.00     0.131 A 
ATOM     81  C   UNL A   1      44.868  35.804  32.449  1.00  0.00     0.055 A 
ATOM     82  C   UNL A   1      44.546  36.802  30.282  1.00  0.00     0.041 A 
ATOM     83  F   UNL A   1      43.731  35.503  28.510  1.00  0.00    -0.206 F 
ATOM     84  C   UNL A   1      44.914  36.928  31.619  1.00  0.00     0.022 A 
BRANCH  81  85
ATOM     85  S   UNL A   1      45.222  35.969  34.219  1.00  0.00     0.124 S 
ATOM     86  O   UNL A   1      44.059  35.325  34.823  1.00  0.00    -0.237 OA
ATOM     87  O   UNL A   1      46.487  35.254  34.354  1.00  0.00    -0.237 OA
ATOM     88  O   UNL A   1      45.303  37.414  34.421  1.00  0.00    -0.744 OA
ENDBRANCH  81  85
ENDBRANCH  55  78
ENDBRANCH  29  30
ENDBRANCH  22  24
ENDBRANCH  21  22
ENDBRANCH   1  21
TORSDOF 16
ENDMDL
MODEL 2
REMARK VINA RESULT:     -10.5      4.999      8.838
REMARK SMILES Cc1ccc([C@H]2C[C@]2([NH3+])C(=O)OCCOC(=O)c2ccc(-c3c4nc(c(-c5cc(S(=O)(=O)[O-])ccc5F)c5ccc([nH]5)c(-c5cc(S(=O)(=O)[O-])ccc5F)c5nc(c(-c6cc(S(=O)(=O)[O-])ccc6F)c6ccc3[nH]6)C=C5)C=C4)cc2)cc1C
REMARK SMILES IDX 14 1 13 2 12 3 10 4 11 5 8 6 6 7 7 8 5 9 1 10 2 11 3 12
REMARK SMILES IDX 82 13 4 14 81 15 83 16 9 17 15 21 16 22 17 23 18 24 19 25
REMARK SMILES IDX 80 26 20 27 79 28 21 29 22 30 23 31 73 32 24 33 78 34 72 35
REMARK SMILES IDX 74 36 25 37 77 38 71 39 70 40 26 42 58 43 38 44 57 45 39 46
REMARK SMILES IDX 42 47 56 48 75 49 40 50 41 51 55 53 76 54 43 55 27 56 28 57
REMARK SMILES IDX 36 58 29 59 35 60 37 61 34 62 30 63 31 64 32 65 33 66 59 67
REMARK SMILES IDX 60 68 68 69 61 70 67 71 69 72 66 73 62 74 63 75 64 76 65 77
REMARK SMILES IDX 44 78 45 79 53 80 46 81 52 82 54 83 51 84 47 85 48 86 49 87
REMARK SMILES IDX 50 88
REMARK H PARENT 9 18 9 19 9 20 74 41 42 52
REMARK Flexibility Score: inf
ROOT
ATOM      1  C   UNL A   1      31.489  30.416  25.724  1.00  0.00     0.275 C 
ENDROOT
BRANCH   1   2
ATOM      2  C   UNL A   1      31.324  29.264  24.739  1.00  0.00     0.274 C 
BRANCH   2   3
ATOM      3  O   UNL A   1      31.459  28.007  25.426  1.00  0.00    -0.457 OA
BRANCH   3   4
ATOM      4  C   UNL A   1      31.545  26.898  24.639  1.00  0.00     0.368 C 
ATOM      5  O   UNL A   1      30.624  26.358  24.049  1.00  0.00    -0.245 OA
BRANCH   4   6
ATOM      6  C   UNL A   1      32.956  26.350  24.572  1.00  0.00     0.200 C 
ATOM      7  C   UNL A   1      33.341  25.269  25.572  1.00  0.00     0.099 C 
ATOM      8  C   UNL A   1      33.893  26.671  25.716  1.00  0.00     0.097 C 
BRANCH   7   9
ATOM      9  C   UNL A   1      34.338  24.158  25.353  1.00  0.00    -0.037 A 
ATOM     10  C   UNL A   1      37.354  21.063  24.848  1.00  0.00     0.044 C 
ATOM     11  C   UNL A   1      36.286  22.106  25.017  1.00  0.00    -0.048 A 
ATOM     12  C   UNL A   1      36.669  23.437  25.220  1.00  0.00     0.004 A 
ATOM     13  C   UNL A   1      34.916  21.792  24.986  1.00  0.00    -0.048 A 
ATOM     14  C   UNL A   1      35.712  24.440  25.380  1.00  0.00     0.004 A 
ATOM     15  C   UNL A   1      33.968  22.818  25.177  1.00  0.00     0.008 A 
ATOM     16  C   UNL A   1      34.394  20.399  24.772  1.00  0.00     0.044 C 
ENDBRANCH   7   9
BRANCH   6  17
ATOM     17  N   UNL A   1      33.541  26.440  23.206  1.00  0.00    -0.343 N 
ATOM     18  H   UNL A   1      33.540  25.517  22.774  1.00  0.00     0.345 HD
ATOM     19  H   UNL A   1      34.499  26.785  23.268  1.00  0.00     0.345 HD
ATOM     20  H   UNL A   1      32.985  27.081  22.639  1.00  0.00     0.345 HD
ENDBRANCH   6  17
ENDBRANCH   4   6
ENDBRANCH   3   4
ENDBRANCH   2   3
ENDBRANCH   1   2
BRANCH   1  21
ATOM     21  O   UNL A   1      32.859  30.461  26.158  1.00  0.00    -0.458 OA
BRANCH  21  22
ATOM     22  C   UNL A   1      33.173  31.462  27.010  1.00  0.00     0.338 C 
ATOM     23  O   UNL A   1      32.515  32.454  27.270  1.00  0.00    -0.246 OA
BRANCH  22  24
ATOM     24  C   UNL A   1      34.474  31.166  27.628  1.00  0.00     0.060 A 
ATOM     25  C   UNL A   1      34.781  29.853  27.985  1.00  0.00     0.016 A 
ATOM     26  C   UNL A   1      35.349  32.204  27.938  1.00  0.00     0.016 A 
ATOM     27  C   UNL A   1      35.926  29.582  28.729  1.00  0.00     0.010 A 
ATOM     28  C   UNL A   1      36.549  31.914  28.594  1.00  0.00     0.010 A 
ATOM     29  C   UNL A   1      36.838  30.604  29.023  1.00  0.00    -0.014 A 
BRANCH  29  30
ATOM     30  C   UNL A   1      38.086  30.321  29.785  1.00  0.00     0.031 A 
ATOM     31  C   UNL A   1      39.121  29.391  29.212  1.00  0.00     0.074 A 
ATOM     32  C   UNL A   1      38.284  30.876  30.999  1.00  0.00     0.049 A 
ATOM     33  N   UNL A   1      40.156  28.839  29.792  1.00  0.00    -0.248 NA
ATOM     34  C   UNL A   1      38.957  29.020  27.798  1.00  0.00     0.031 C 
ATOM     35  C   UNL A   1      37.388  31.836  31.649  1.00  0.00     0.029 A 
ATOM     36  N   UNL A   1      39.298  30.705  31.909  1.00  0.00    -0.354 N 
ATOM     37  C   UNL A   1      40.740  28.018  28.832  1.00  0.00     0.074 A 
ATOM     38  C   UNL A   1      39.931  28.136  27.636  1.00  0.00     0.031 C 
ATOM     39  C   UNL A   1      37.901  32.180  32.839  1.00  0.00     0.029 A 
ATOM     40  C   UNL A   1      39.106  31.396  33.083  1.00  0.00     0.049 A 
ATOM     41  H   UNL A   1      40.087  30.140  31.738  1.00  0.00     0.167 HD
ATOM     42  C   UNL A   1      41.846  27.241  28.941  1.00  0.00     0.034 A 
ATOM     43  C   UNL A   1      39.784  31.363  34.248  1.00  0.00     0.034 A 
ATOM     44  C   UNL A   1      42.654  27.161  30.135  1.00  0.00     0.049 A 
ATOM     45  C   UNL A   1      40.965  30.436  34.373  1.00  0.00     0.074 A 
ATOM     46  C   UNL A   1      43.804  26.420  30.352  1.00  0.00     0.029 A 
ATOM     47  N   UNL A   1      42.400  27.847  31.316  1.00  0.00    -0.354 N 
ATOM     48  N   UNL A   1      41.476  29.624  33.476  1.00  0.00    -0.248 NA
ATOM     49  C   UNL A   1      41.653  30.412  35.670  1.00  0.00     0.031 C 
ATOM     50  C   UNL A   1      44.207  26.609  31.679  1.00  0.00     0.029 A 
ATOM     51  C   UNL A   1      43.353  27.525  32.272  1.00  0.00     0.049 A 
ATOM     52  H   UNL A   1      41.653  28.472  31.455  1.00  0.00     0.167 HD
ATOM     53  C   UNL A   1      42.554  29.004  34.099  1.00  0.00     0.074 A 
ATOM     54  C   UNL A   1      42.632  29.551  35.438  1.00  0.00     0.031 C 
ATOM     55  C   UNL A   1      43.406  28.067  33.609  1.00  0.00     0.034 A 
BRANCH  42  56
ATOM     56  C   UNL A   1      42.204  26.368  27.761  1.00  0.00     0.023 A 
ATOM     57  C   UNL A   1      41.764  25.038  27.655  1.00  0.00     0.031 A 
ATOM     58  C   UNL A   1      43.026  26.872  26.737  1.00  0.00     0.131 A 
ATOM     59  C   UNL A   1      42.207  24.237  26.589  1.00  0.00     0.055 A 
ATOM     60  C   UNL A   1      43.399  26.094  25.640  1.00  0.00     0.041 A 
ATOM     61  F   UNL A   1      43.495  28.129  26.793  1.00  0.00    -0.206 F 
ATOM     62  C   UNL A   1      43.002  24.763  25.568  1.00  0.00     0.022 A 
BRANCH  59  63
ATOM     63  S   UNL A   1      41.844  22.460  26.631  1.00  0.00     0.124 S 
ATOM     64  O   UNL A   1      40.383  22.457  26.687  1.00  0.00    -0.237 OA
ATOM     65  O   UNL A   1      42.437  21.987  25.387  1.00  0.00    -0.237 OA
ATOM     66  O   UNL A   1      42.506  22.003  27.852  1.00  0.00    -0.744 OA
ENDBRANCH  59  63
ENDBRANCH  42  56
BRANCH  43  67
ATOM     67  C   UNL A   1      39.321  32.169  35.413  1.00  0.00     0.023 A 
ATOM     68  C   UNL A   1      39.735  33.498  35.586  1.00  0.00     0.031 A 
ATOM     69  C   UNL A   1      38.482  31.607  36.393  1.00  0.00     0.131 A 
ATOM     70  C   UNL A   1      39.340  34.211  36.730  1.00  0.00     0.055 A 
ATOM     71  C   UNL A   1      38.046  32.337  37.500  1.00  0.00     0.041 A 
ATOM     72  F   UNL A   1      38.059  30.338  36.279  1.00  0.00    -0.206 F 
ATOM     73  C   UNL A   1      38.485  33.644  37.679  1.00  0.00     0.022 A 
BRANCH  70  74
ATOM     74  S   UNL A   1      40.025  35.867  37.002  1.00  0.00     0.124 S 
ATOM     75  O   UNL A   1      39.651  36.549  35.767  1.00  0.00    -0.237 OA
ATOM     76  O   UNL A   1      39.322  36.293  38.207  1.00  0.00    -0.237 OA
ATOM     77  O   UNL A   1      41.455  35.620  37.171  1.00  0.00    -0.744 OA
ENDBRANCH  70  74
ENDBRANCH  43  67
BRANCH  55  78
ATOM     78  C   UNL A   1      44.515  27.611  34.524  1.00  0.00     0.023 A 
ATOM     79  C   UNL A   1      44.260  26.814  35.652  1.00  0.00     0.031 A 
ATOM     80  C   UNL A   1      45.842  27.998  34.269  1.00  0.00     0.131 A 
ATOM     81  C   UNL A   1      45.312  26.471  36.516  1.00  0.00     0.055 A 
ATOM     82  C   UNL A   1      46.893  27.606  35.100  1.00  0.00     0.041 A 
ATOM     83  F   UNL A   1      46.140  28.762  33.205  1.00  0.00    -0.206 F 
ATOM     84  C   UNL A   1      46.629  26.849  36.238  1.00  0.00     0.022 A 
BRANCH  81  85
ATOM     85  S   UNL A   1      44.927  25.592  38.054  1.00  0.00     0.124 S 
ATOM     86  O   UNL A   1      44.632  24.247  37.570  1.00  0.00    -0.237 OA
ATOM     87  O   UNL A   1      46.162  25.738  38.817  1.00  0.00    -0.237 OA
ATOM     88  O   UNL A   1      43.780  26.323  38.590  1.00  0.00    -0.744 OA
ENDBRANCH  81  85
ENDBRANCH  55  78
ENDBRANCH  29  30
ENDBRANCH  22  24
ENDBRANCH  21  22
ENDBRANCH   1  21
TORSDOF 16
ENDMDL
MODEL 3
REMARK VINA RESULT:     -10.5      3.866      9.958
REMARK SMILES Cc1ccc([C@H]2C[C@]2([NH3+])C(=O)OCCOC(=O)c2ccc(-c3c4nc(c(-c5cc(S(=O)(=O)[O-])ccc5F)c5ccc([nH]5)c(-c5cc(S(=O)(=O)[O-])ccc5F)c5nc(c(-c6cc(S(=O)(=O)[O-])ccc6F)c6ccc3[nH]6)C=C5)C=C4)cc2)cc1C
REMARK SMILES IDX 14 1 13 2 12 3 10 4 11 5 8 6 6 7 7 8 5 9 1 10 2 11 3 12
REMARK SMILES IDX 82 13 4 14 81 15 83 16 9 17 15 21 16 22 17 23 18 24 19 25
REMARK SMILES IDX 80 26 20 27 79 28 21 29 22 30 23 31 73 32 24 33 78 34 72 35
REMARK SMILES IDX 74 36 25 37 77 38 71 39 70 40 26 42 58 43 38 44 57 45 39 46
REMARK SMILES IDX 42 47 56 48 75 49 40 50 41 51 55 53 76 54 43 55 27 56 28 57
REMARK SMILES IDX 36 58 29 59 35 60 37 61 34 62 30 63 31 64 32 65 33 66 59 67
REMARK SMILES IDX 60 68 68 69 61 70 67 71 69 72 66 73 62 74 63 75 64 76 65 77
REMARK SMILES IDX 44 78 45 79 53 80 46 81 52 82 54 83 51 84 47 85 48 86 49 87
REMARK SMILES IDX 50 88
REMARK H PARENT 9 18 9 19 9 20 74 41 42 52
REMARK Flexibility Score: inf
ROOT
ATOM      1  C   UNL A   1      36.169  20.506  24.976  1.00  0.00     0.275 C 
ENDROOT
BRANCH   1   2
ATOM      2  C   UNL A   1      34.761  20.639  25.544  1.00  0.00     0.274 C 
BRANCH   2   3
ATOM      3  O   UNL A   1      33.890  21.233  24.564  1.00  0.00    -0.457 OA
BRANCH   3   4
ATOM      4  C   UNL A   1      32.564  21.262  24.878  1.00  0.00     0.368 C 
ATOM      5  O   UNL A   1      31.841  20.294  25.051  1.00  0.00    -0.245 OA
BRANCH   4   6
ATOM      6  C   UNL A   1      32.029  22.676  24.978  1.00  0.00     0.200 C 
ATOM      7  C   UNL A   1      32.663  23.600  26.007  1.00  0.00     0.099 C 
ATOM      8  C   UNL A   1      31.268  23.057  26.229  1.00  0.00     0.097 C 
BRANCH   7   9
ATOM      9  C   UNL A   1      32.808  25.098  25.902  1.00  0.00    -0.037 A 
ATOM     10  C   UNL A   1      33.270  29.393  25.385  1.00  0.00     0.044 C 
ATOM     11  C   UNL A   1      33.088  27.916  25.592  1.00  0.00    -0.048 A 
ATOM     12  C   UNL A   1      33.797  27.027  24.774  1.00  0.00     0.004 A 
ATOM     13  C   UNL A   1      32.226  27.395  26.573  1.00  0.00    -0.048 A 
ATOM     14  C   UNL A   1      33.660  25.647  24.932  1.00  0.00     0.004 A 
ATOM     15  C   UNL A   1      32.085  25.997  26.695  1.00  0.00     0.008 A 
ATOM     16  C   UNL A   1      31.421  28.256  27.505  1.00  0.00     0.044 C 
ENDBRANCH   7   9
BRANCH   6  17
ATOM     17  N   UNL A   1      31.455  23.163  23.693  1.00  0.00    -0.343 N 
ATOM     18  H   UNL A   1      32.069  22.899  22.923  1.00  0.00     0.345 HD
ATOM     19  H   UNL A   1      31.365  24.179  23.723  1.00  0.00     0.345 HD
ATOM     20  H   UNL A   1      30.534  22.745  23.552  1.00  0.00     0.345 HD
ENDBRANCH   6  17
ENDBRANCH   4   6
ENDBRANCH   3   4
ENDBRANCH   2   3
ENDBRANCH   1   2
BRANCH   1  21
ATOM     21  O   UNL A   1      36.999  21.529  25.554  1.00  0.00    -0.458 OA
BRANCH  21  22
ATOM     22  C   UNL A   1      38.294  21.195  25.744  1.00  0.00     0.338 C 
ATOM     23  O   UNL A   1      38.841  20.141  25.470  1.00  0.00    -0.246 OA
BRANCH  22  24
ATOM     24  C   UNL A   1      38.995  22.342  26.340  1.00  0.00     0.060 A 
ATOM     25  C   UNL A   1      38.530  23.633  26.092  1.00  0.00     0.016 A 
ATOM     26  C   UNL A   1      40.167  22.142  27.064  1.00  0.00     0.016 A 
ATOM     27  C   UNL A   1      39.279  24.735  26.496  1.00  0.00     0.010 A 
ATOM     28  C   UNL A   1      40.862  23.249  27.560  1.00  0.00     0.010 A 
ATOM     29  C   UNL A   1      40.443  24.559  27.257  1.00  0.00    -0.014 A 
BRANCH  29  30
ATOM     30  C   UNL A   1      41.234  25.729  27.730  1.00  0.00     0.031 A 
ATOM     31  C   UNL A   1      40.572  26.797  28.558  1.00  0.00     0.074 A 
ATOM     32  C   UNL A   1      42.536  25.850  27.399  1.00  0.00     0.049 A 
ATOM     33  N   UNL A   1      41.006  27.989  28.879  1.00  0.00    -0.248 NA
ATOM     34  C   UNL A   1      39.233  26.485  29.081  1.00  0.00     0.031 C 
ATOM     35  C   UNL A   1      43.316  24.863  26.647  1.00  0.00     0.029 A 
ATOM     36  N   UNL A   1      43.434  26.860  27.643  1.00  0.00    -0.354 N 
ATOM     37  C   UNL A   1      39.977  28.589  29.599  1.00  0.00     0.074 A 
ATOM     38  C   UNL A   1      38.892  27.631  29.653  1.00  0.00     0.031 C 
ATOM     39  C   UNL A   1      44.573  25.307  26.510  1.00  0.00     0.029 A 
ATOM     40  C   UNL A   1      44.668  26.649  27.073  1.00  0.00     0.049 A 
ATOM     41  H   UNL A   1      43.215  27.659  28.176  1.00  0.00     0.167 HD
ATOM     42  C   UNL A   1      39.944  29.824  30.160  1.00  0.00     0.034 A 
ATOM     43  C   UNL A   1      45.739  27.461  26.961  1.00  0.00     0.034 A 
ATOM     44  C   UNL A   1      41.049  30.753  30.119  1.00  0.00     0.049 A 
ATOM     45  C   UNL A   1      45.654  28.855  27.525  1.00  0.00     0.074 A 
ATOM     46  C   UNL A   1      41.131  32.022  30.667  1.00  0.00     0.029 A 
ATOM     47  N   UNL A   1      42.266  30.514  29.494  1.00  0.00    -0.354 N 
ATOM     48  N   UNL A   1      44.657  29.431  28.156  1.00  0.00    -0.248 NA
ATOM     49  C   UNL A   1      46.834  29.711  27.351  1.00  0.00     0.031 C 
ATOM     50  C   UNL A   1      42.371  32.572  30.321  1.00  0.00     0.029 A 
ATOM     51  C   UNL A   1      43.094  31.621  29.619  1.00  0.00     0.049 A 
ATOM     52  H   UNL A   1      42.508  29.680  29.031  1.00  0.00     0.167 HD
ATOM     53  C   UNL A   1      45.097  30.713  28.466  1.00  0.00     0.074 A 
ATOM     54  C   UNL A   1      46.454  30.818  27.972  1.00  0.00     0.031 C 
ATOM     55  C   UNL A   1      44.439  31.716  29.104  1.00  0.00     0.034 A 
BRANCH  42  56
ATOM     56  C   UNL A   1      38.650  30.261  30.807  1.00  0.00     0.023 A 
ATOM     57  C   UNL A   1      37.637  30.913  30.085  1.00  0.00     0.031 A 
ATOM     58  C   UNL A   1      38.442  30.044  32.182  1.00  0.00     0.131 A 
ATOM     59  C   UNL A   1      36.497  31.389  30.753  1.00  0.00     0.055 A 
ATOM     60  C   UNL A   1      37.272  30.452  32.824  1.00  0.00     0.041 A 
ATOM     61  F   UNL A   1      39.383  29.445  32.929  1.00  0.00    -0.206 F 
ATOM     62  C   UNL A   1      36.297  31.142  32.113  1.00  0.00     0.022 A 
BRANCH  59  63
ATOM     63  S   UNL A   1      35.345  32.460  29.847  1.00  0.00     0.124 S 
ATOM     64  O   UNL A   1      36.197  33.603  29.522  1.00  0.00    -0.237 OA
ATOM     65  O   UNL A   1      34.948  31.619  28.725  1.00  0.00    -0.237 OA
ATOM     66  O   UNL A   1      34.293  32.736  30.824  1.00  0.00    -0.744 OA
ENDBRANCH  59  63
ENDBRANCH  42  56
BRANCH  43  67
ATOM     67  C   UNL A   1      46.951  27.010  26.219  1.00  0.00     0.023 A 
ATOM     68  C   UNL A   1      48.010  26.371  26.880  1.00  0.00     0.031 A 
ATOM     69  C   UNL A   1      47.083  27.247  24.837  1.00  0.00     0.131 A 
ATOM     70  C   UNL A   1      49.170  26.023  26.169  1.00  0.00     0.055 A 
ATOM     71  C   UNL A   1      48.214  26.847  24.123  1.00  0.00     0.041 A 
ATOM     72  F   UNL A   1      46.101  27.857  24.156  1.00  0.00    -0.206 F 
ATOM     73  C   UNL A   1      49.271  26.242  24.793  1.00  0.00     0.022 A 
BRANCH  70  74
ATOM     74  S   UNL A   1      50.582  25.348  27.085  1.00  0.00     0.124 S 
ATOM     75  O   UNL A   1      50.983  26.493  27.896  1.00  0.00    -0.237 OA
ATOM     76  O   UNL A   1      49.973  24.236  27.806  1.00  0.00    -0.237 OA
ATOM     77  O   UNL A   1      51.521  24.968  26.033  1.00  0.00    -0.744 OA
ENDBRANCH  70  74
ENDBRANCH  43  67
BRANCH  55  78
ATOM     78  C   UNL A   1      45.206  32.994  29.332  1.00  0.00     0.023 A 
ATOM     79  C   UNL A   1      45.113  34.078  28.443  1.00  0.00     0.031 A 
ATOM     80  C   UNL A   1      46.054  33.120  30.446  1.00  0.00     0.131 A 
ATOM     81  C   UNL A   1      45.897  35.223  28.654  1.00  0.00     0.055 A 
ATOM     82  C   UNL A   1      46.788  34.283  30.683  1.00  0.00     0.041 A 
ATOM     83  F   UNL A   1      46.180  32.112  31.326  1.00  0.00    -0.206 F 
ATOM     84  C   UNL A   1      46.721  35.338  29.777  1.00  0.00     0.022 A 
BRANCH  81  85
ATOM     85  S   UNL A   1      45.889  36.531  27.398  1.00  0.00     0.124 S 
ATOM     86  O   UNL A   1      44.471  36.621  27.062  1.00  0.00    -0.237 OA
ATOM     87  O   UNL A   1      46.445  37.668  28.125  1.00  0.00    -0.237 OA
ATOM     88  O   UNL A   1      46.743  35.996  26.340  1.00  0.00    -0.744 OA
ENDBRANCH  81  85
ENDBRANCH  55  78
ENDBRANCH  29  30
ENDBRANCH  22  24
ENDBRANCH  21  22
ENDBRANCH   1  21
TORSDOF 16
ENDMDL
