MODEL 1
REMARK VINA RESULT:     -10.1      0.000      0.000
REMARK SMILES CCCOc1cc(NC[C@H]2CC[C@@H](C(=O)OCCOC(=O)c3ccc(-c4c5nc(c(-c6cc(S(=O)(=O)[O-])ccc6F)c6ccc([nH]6)c(-c6cc(S(=O)(=O)[O-])ccc6F)c6nc(c(-c7cc(S(=O)(=O)[O-])ccc7F)c7ccc4[nH]7)C=C6)C=C5)cc3)O2)ncn1
REMARK SMILES IDX 16 1 14 2 15 3 13 4 10 5 11 6 85 7 12 8 9 9 8 10 7 12 5 13
REMARK SMILES IDX 6 14 88 15 87 16 86 17 4 18 3 19 2 20 1 21 17 22 18 23 19 24
REMARK SMILES IDX 20 25 21 26 22 27 23 28 84 29 24 30 83 31 25 32 26 33 27 34
REMARK SMILES IDX 77 35 28 36 82 37 76 38 78 39 29 40 81 41 75 42 74 43 30 45
REMARK SMILES IDX 62 46 42 47 61 48 43 49 46 50 60 51 79 52 44 53 45 54 59 56
REMARK SMILES IDX 80 57 47 58 31 59 32 60 40 61 33 62 39 63 41 64 38 65 34 66
REMARK SMILES IDX 35 67 36 68 37 69 63 70 64 71 72 72 65 73 71 74 73 75 70 76
REMARK SMILES IDX 66 77 67 78 68 79 69 80 48 81 49 82 57 83 50 84 56 85 58 86
REMARK SMILES IDX 55 87 51 88 52 89 53 90 54 91
REMARK H PARENT 8 11 78 44 46 55
REMARK Flexibility Score: inf
ROOT
ATOM      1  O   UNL A   1      35.558  21.096  25.946  1.00  0.00    -0.460 OA
ENDROOT
BRANCH   1   2
ATOM      2  C   UNL A   1      34.256  21.487  25.830  1.00  0.00     0.335 C 
ATOM      3  O   UNL A   1      33.315  20.889  26.338  1.00  0.00    -0.249 OA
BRANCH   2   4
ATOM      4  C   UNL A   1      34.099  22.736  24.948  1.00  0.00     0.228 C 
ATOM      5  C   UNL A   1      32.908  24.768  25.141  1.00  0.00     0.138 C 
ATOM      6  C   UNL A   1      34.333  25.063  24.701  1.00  0.00     0.037 C 
ATOM      7  O   UNL A   1      32.789  23.325  25.050  1.00  0.00    -0.361 OA
ATOM      8  C   UNL A   1      35.087  23.860  25.210  1.00  0.00     0.047 C 
BRANCH   5   9
ATOM      9  C   UNL A   1      32.593  25.212  26.582  1.00  0.00     0.146 C 
BRANCH   9  10
ATOM     10  N   UNL A   1      31.547  26.215  26.659  1.00  0.00    -0.367 N 
ATOM     11  H   UNL A   1      30.676  25.987  27.056  1.00  0.00     0.162 HD
BRANCH  10  12
ATOM     12  C   UNL A   1      31.777  27.496  26.171  1.00  0.00     0.133 A 
ATOM     13  C   UNL A   1      33.126  29.403  26.113  1.00  0.00     0.218 A 
ATOM     14  C   UNL A   1      32.786  28.232  26.746  1.00  0.00     0.115 A 
ATOM     15  N   UNL A   1      32.488  29.901  25.050  1.00  0.00    -0.202 NA
ATOM     16  C   UNL A   1      31.461  29.161  24.626  1.00  0.00     0.228 A 
ATOM     17  N   UNL A   1      31.102  27.954  25.105  1.00  0.00    -0.219 NA
BRANCH  13  18
ATOM     18  O   UNL A   1      34.213  30.090  26.590  1.00  0.00    -0.478 OA
BRANCH  18  19
ATOM     19  C   UNL A   1      34.304  29.989  28.013  1.00  0.00     0.231 C 
BRANCH  19  20
ATOM     20  C   UNL A   1      35.725  29.585  28.429  1.00  0.00     0.038 C 
ATOM     21  C   UNL A   1      36.776  29.932  27.381  1.00  0.00     0.007 C 
ENDBRANCH  19  20
ENDBRANCH  18  19
ENDBRANCH  13  18
ENDBRANCH  10  12
ENDBRANCH   9  10
ENDBRANCH   5   9
ENDBRANCH   2   4
ENDBRANCH   1   2
BRANCH   1  22
ATOM     22  C   UNL A   1      36.013  20.127  24.980  1.00  0.00     0.274 C 
BRANCH  22  23
ATOM     23  C   UNL A   1      37.539  20.097  24.908  1.00  0.00     0.275 C 
BRANCH  23  24
ATOM     24  O   UNL A   1      38.090  21.301  25.470  1.00  0.00    -0.458 OA
BRANCH  24  25
ATOM     25  C   UNL A   1      39.245  21.157  26.153  1.00  0.00     0.338 C 
ATOM     26  O   UNL A   1      39.897  20.128  26.297  1.00  0.00    -0.246 OA
BRANCH  25  27
ATOM     27  C   UNL A   1      39.669  22.451  26.703  1.00  0.00     0.060 A 
ATOM     28  C   UNL A   1      39.075  23.618  26.226  1.00  0.00     0.016 A 
ATOM     29  C   UNL A   1      40.768  22.523  27.560  1.00  0.00     0.016 A 
ATOM     30  C   UNL A   1      39.644  24.854  26.520  1.00  0.00     0.010 A 
ATOM     31  C   UNL A   1      41.278  23.775  27.929  1.00  0.00     0.010 A 
ATOM     32  C   UNL A   1      40.750  24.955  27.376  1.00  0.00    -0.014 A 
BRANCH  32  33
ATOM     33  C   UNL A   1      41.362  26.288  27.646  1.00  0.00     0.031 A 
ATOM     34  C   UNL A   1      42.698  26.654  27.047  1.00  0.00     0.074 A 
ATOM     35  C   UNL A   1      40.705  27.187  28.407  1.00  0.00     0.049 A 
ATOM     36  N   UNL A   1      43.445  27.708  27.267  1.00  0.00    -0.248 NA
ATOM     37  C   UNL A   1      43.277  25.703  26.088  1.00  0.00     0.031 C 
ATOM     38  C   UNL A   1      39.388  26.977  29.014  1.00  0.00     0.029 A 
ATOM     39  N   UNL A   1      41.042  28.461  28.788  1.00  0.00    -0.354 N 
ATOM     40  C   UNL A   1      44.611  27.515  26.529  1.00  0.00     0.074 A 
ATOM     41  C   UNL A   1      44.466  26.243  25.852  1.00  0.00     0.031 C 
ATOM     42  C   UNL A   1      39.010  28.096  29.648  1.00  0.00     0.029 A 
ATOM     43  C   UNL A   1      40.089  29.074  29.568  1.00  0.00     0.049 A 
ATOM     44  H   UNL A   1      41.885  28.897  28.526  1.00  0.00     0.167 HD
ATOM     45  C   UNL A   1      45.699  28.321  26.436  1.00  0.00     0.034 A 
ATOM     46  C   UNL A   1      40.091  30.270  30.187  1.00  0.00     0.034 A 
ATOM     47  C   UNL A   1      45.803  29.613  27.079  1.00  0.00     0.049 A 
ATOM     48  C   UNL A   1      41.305  31.148  30.064  1.00  0.00     0.074 A 
ATOM     49  C   UNL A   1      46.842  30.526  27.021  1.00  0.00     0.029 A 
ATOM     50  N   UNL A   1      44.830  30.179  27.895  1.00  0.00    -0.354 N 
ATOM     51  N   UNL A   1      42.422  30.924  29.414  1.00  0.00    -0.248 NA
ATOM     52  C   UNL A   1      41.261  32.434  30.772  1.00  0.00     0.031 C 
ATOM     53  C   UNL A   1      46.523  31.616  27.842  1.00  0.00     0.029 A 
ATOM     54  C   UNL A   1      45.255  31.416  28.363  1.00  0.00     0.049 A 
ATOM     55  H   UNL A   1      43.963  29.764  28.110  1.00  0.00     0.167 HD
ATOM     56  C   UNL A   1      43.219  32.042  29.638  1.00  0.00     0.074 A 
ATOM     57  C   UNL A   1      42.439  32.951  30.455  1.00  0.00     0.031 C 
ATOM     58  C   UNL A   1      44.483  32.293  29.212  1.00  0.00     0.034 A 
BRANCH  45  59
ATOM     59  C   UNL A   1      46.899  27.791  25.681  1.00  0.00     0.023 A 
ATOM     60  C   UNL A   1      47.148  28.089  24.329  1.00  0.00     0.031 A 
ATOM     61  C   UNL A   1      47.806  26.940  26.343  1.00  0.00     0.131 A 
ATOM     62  C   UNL A   1      48.238  27.493  23.671  1.00  0.00     0.055 A 
ATOM     63  C   UNL A   1      48.928  26.410  25.703  1.00  0.00     0.041 A 
ATOM     64  F   UNL A   1      47.610  26.597  27.626  1.00  0.00    -0.206 F 
ATOM     65  C   UNL A   1      49.142  26.676  24.356  1.00  0.00     0.022 A 
BRANCH  62  66
ATOM     66  S   UNL A   1      48.396  27.683  21.871  1.00  0.00     0.124 S 
ATOM     67  O   UNL A   1      49.506  28.628  21.770  1.00  0.00    -0.237 OA
ATOM     68  O   UNL A   1      48.656  26.318  21.430  1.00  0.00    -0.237 OA
ATOM     69  O   UNL A   1      47.099  28.225  21.467  1.00  0.00    -0.744 OA
ENDBRANCH  62  66
ENDBRANCH  45  59
BRANCH  46  70
ATOM     70  C   UNL A   1      38.934  30.678  31.033  1.00  0.00     0.023 A 
ATOM     71  C   UNL A   1      37.940  31.536  30.540  1.00  0.00     0.031 A 
ATOM     72  C   UNL A   1      38.821  30.222  32.359  1.00  0.00     0.131 A 
ATOM     73  C   UNL A   1      36.887  31.935  31.378  1.00  0.00     0.055 A 
ATOM     74  C   UNL A   1      37.747  30.584  33.172  1.00  0.00     0.041 A 
ATOM     75  F   UNL A   1      39.746  29.398  32.875  1.00  0.00    -0.206 F 
ATOM     76  C   UNL A   1      36.777  31.453  32.686  1.00  0.00     0.022 A 
BRANCH  73  77
ATOM     77  S   UNL A   1      35.687  33.144  30.755  1.00  0.00     0.124 S 
ATOM     78  O   UNL A   1      36.176  33.379  29.400  1.00  0.00    -0.237 OA
ATOM     79  O   UNL A   1      34.430  32.410  30.865  1.00  0.00    -0.237 OA
ATOM     80  O   UNL A   1      35.829  34.271  31.674  1.00  0.00    -0.744 OA
ENDBRANCH  73  77
ENDBRANCH  46  70
BRANCH  58  81
ATOM     81  C   UNL A   1      45.078  33.616  29.626  1.00  0.00     0.023 A 
ATOM     82  C   UNL A   1      44.949  34.761  28.820  1.00  0.00     0.031 A 
ATOM     83  C   UNL A   1      45.826  33.717  30.811  1.00  0.00     0.131 A 
ATOM     84  C   UNL A   1      45.612  35.944  29.179  1.00  0.00     0.055 A 
ATOM     85  C   UNL A   1      46.440  34.912  31.189  1.00  0.00     0.041 A 
ATOM     86  F   UNL A   1      45.984  32.653  31.612  1.00  0.00    -0.206 F 
ATOM     87  C   UNL A   1      46.348  36.030  30.364  1.00  0.00     0.022 A 
BRANCH  84  88
ATOM     88  S   UNL A   1      45.587  37.343  28.023  1.00  0.00     0.124 S 
ATOM     89  O   UNL A   1      46.712  38.146  28.490  1.00  0.00    -0.237 OA
ATOM     90  O   UNL A   1      45.763  36.686  26.733  1.00  0.00    -0.237 OA
ATOM     91  O   UNL A   1      44.270  37.941  28.237  1.00  0.00    -0.744 OA
ENDBRANCH  84  88
ENDBRANCH  58  81
ENDBRANCH  32  33
ENDBRANCH  25  27
ENDBRANCH  24  25
ENDBRANCH  23  24
ENDBRANCH  22  23
ENDBRANCH   1  22
TORSDOF 20
ENDMDL
MODEL 2
REMARK VINA RESULT:     -10.0      1.440      3.381
REMARK SMILES CCCOc1cc(NC[C@H]2CC[C@@H](C(=O)OCCOC(=O)c3ccc(-c4c5nc(c(-c6cc(S(=O)(=O)[O-])ccc6F)c6ccc([nH]6)c(-c6cc(S(=O)(=O)[O-])ccc6F)c6nc(c(-c7cc(S(=O)(=O)[O-])ccc7F)c7ccc4[nH]7)C=C6)C=C5)cc3)O2)ncn1
REMARK SMILES IDX 16 1 14 2 15 3 13 4 10 5 11 6 85 7 12 8 9 9 8 10 7 12 5 13
REMARK SMILES IDX 6 14 88 15 87 16 86 17 4 18 3 19 2 20 1 21 17 22 18 23 19 24
REMARK SMILES IDX 20 25 21 26 22 27 23 28 84 29 24 30 83 31 25 32 26 33 27 34
REMARK SMILES IDX 77 35 28 36 82 37 76 38 78 39 29 40 81 41 75 42 74 43 30 45
REMARK SMILES IDX 62 46 42 47 61 48 43 49 46 50 60 51 79 52 44 53 45 54 59 56
REMARK SMILES IDX 80 57 47 58 31 59 32 60 40 61 33 62 39 63 41 64 38 65 34 66
REMARK SMILES IDX 35 67 36 68 37 69 63 70 64 71 72 72 65 73 71 74 73 75 70 76
REMARK SMILES IDX 66 77 67 78 68 79 69 80 48 81 49 82 57 83 50 84 56 85 58 86
REMARK SMILES IDX 55 87 51 88 52 89 53 90 54 91
REMARK H PARENT 8 11 78 44 46 55
REMARK Flexibility Score: inf
ROOT
ATOM      1  O   UNL A   1      35.201  23.333  24.572  1.00  0.00    -0.460 OA
ENDROOT
BRANCH   1   2
ATOM      2  C   UNL A   1      34.471  23.909  23.574  1.00  0.00     0.335 C 
ATOM      3  O   UNL A   1      34.267  23.384  22.486  1.00  0.00    -0.249 OA
BRANCH   2   4
ATOM      4  C   UNL A   1      33.971  25.313  23.953  1.00  0.00     0.228 C 
ATOM      5  C   UNL A   1      32.000  26.167  24.935  1.00  0.00     0.138 C 
ATOM      6  C   UNL A   1      33.208  26.794  25.613  1.00  0.00     0.037 C 
ATOM      7  O   UNL A   1      32.547  25.455  23.796  1.00  0.00    -0.361 OA
ATOM      8  C   UNL A   1      34.288  25.768  25.367  1.00  0.00     0.047 C 
BRANCH   5   9
ATOM      9  C   UNL A   1      31.226  25.178  25.827  1.00  0.00     0.146 C 
BRANCH   9  10
ATOM     10  N   UNL A   1      31.257  23.814  25.334  1.00  0.00    -0.367 N 
ATOM     11  H   UNL A   1      30.771  23.577  24.511  1.00  0.00     0.162 HD
BRANCH  10  12
ATOM     12  C   UNL A   1      31.975  22.842  26.023  1.00  0.00     0.133 A 
ATOM     13  C   UNL A   1      33.219  20.866  25.978  1.00  0.00     0.218 A 
ATOM     14  C   UNL A   1      32.342  21.708  25.340  1.00  0.00     0.115 A 
ATOM     15  N   UNL A   1      33.656  21.036  27.230  1.00  0.00    -0.202 NA
ATOM     16  C   UNL A   1      33.165  22.116  27.843  1.00  0.00     0.228 A 
ATOM     17  N   UNL A   1      32.381  23.058  27.284  1.00  0.00    -0.219 NA
BRANCH  13  18
ATOM     18  O   UNL A   1      33.702  19.796  25.271  1.00  0.00    -0.478 OA
BRANCH  18  19
ATOM     19  C   UNL A   1      32.638  18.960  24.808  1.00  0.00     0.231 C 
BRANCH  19  20
ATOM     20  C   UNL A   1      33.145  18.006  23.719  1.00  0.00     0.038 C 
ATOM     21  C   UNL A   1      32.344  18.095  22.424  1.00  0.00     0.007 C 
ENDBRANCH  19  20
ENDBRANCH  18  19
ENDBRANCH  13  18
ENDBRANCH  10  12
ENDBRANCH   9  10
ENDBRANCH   5   9
ENDBRANCH   2   4
ENDBRANCH   1   2
BRANCH   1  22
ATOM     22  C   UNL A   1      35.959  22.162  24.202  1.00  0.00     0.274 C 
BRANCH  22  23
ATOM     23  C   UNL A   1      36.800  21.658  25.374  1.00  0.00     0.275 C 
BRANCH  23  24
ATOM     24  O   UNL A   1      38.138  21.362  24.937  1.00  0.00    -0.458 OA
BRANCH  24  25
ATOM     25  C   UNL A   1      39.041  21.140  25.915  1.00  0.00     0.338 C 
ATOM     26  O   UNL A   1      39.489  20.057  26.277  1.00  0.00    -0.246 OA
BRANCH  25  27
ATOM     27  C   UNL A   1      39.472  22.416  26.502  1.00  0.00     0.060 A 
ATOM     28  C   UNL A   1      38.878  23.598  26.065  1.00  0.00     0.016 A 
ATOM     29  C   UNL A   1      40.576  22.458  27.354  1.00  0.00     0.016 A 
ATOM     30  C   UNL A   1      39.452  24.823  26.393  1.00  0.00     0.010 A 
ATOM     31  C   UNL A   1      41.091  23.697  27.758  1.00  0.00     0.010 A 
ATOM     32  C   UNL A   1      40.563  24.894  27.245  1.00  0.00    -0.014 A 
BRANCH  32  33
ATOM     33  C   UNL A   1      41.181  26.217  27.552  1.00  0.00     0.031 A 
ATOM     34  C   UNL A   1      42.531  26.584  26.986  1.00  0.00     0.074 A 
ATOM     35  C   UNL A   1      40.516  27.106  28.317  1.00  0.00     0.049 A 
ATOM     36  N   UNL A   1      43.282  27.627  27.240  1.00  0.00    -0.248 NA
ATOM     37  C   UNL A   1      43.121  25.646  26.019  1.00  0.00     0.031 C 
ATOM     38  C   UNL A   1      39.186  26.896  28.895  1.00  0.00     0.029 A 
ATOM     39  N   UNL A   1      40.855  28.371  28.729  1.00  0.00    -0.354 N 
ATOM     40  C   UNL A   1      44.459  27.438  26.520  1.00  0.00     0.074 A 
ATOM     41  C   UNL A   1      44.317  26.181  25.817  1.00  0.00     0.031 C 
ATOM     42  C   UNL A   1      38.804  28.006  29.543  1.00  0.00     0.029 A 
ATOM     43  C   UNL A   1      39.892  28.976  29.503  1.00  0.00     0.049 A 
ATOM     44  H   UNL A   1      41.707  28.804  28.492  1.00  0.00     0.167 HD
ATOM     45  C   UNL A   1      45.555  28.238  26.464  1.00  0.00     0.034 A 
ATOM     46  C   UNL A   1      39.893  30.160  30.144  1.00  0.00     0.034 A 
ATOM     47  C   UNL A   1      45.657  29.516  27.133  1.00  0.00     0.049 A 
ATOM     48  C   UNL A   1      41.115  31.031  30.061  1.00  0.00     0.074 A 
ATOM     49  C   UNL A   1      46.705  30.422  27.113  1.00  0.00     0.029 A 
ATOM     50  N   UNL A   1      44.673  30.074  27.942  1.00  0.00    -0.354 N 
ATOM     51  N   UNL A   1      42.243  30.810  29.428  1.00  0.00    -0.248 NA
ATOM     52  C   UNL A   1      41.068  32.303  30.793  1.00  0.00     0.031 C 
ATOM     53  C   UNL A   1      46.378  31.498  27.948  1.00  0.00     0.029 A 
ATOM     54  C   UNL A   1      45.099  31.299  28.441  1.00  0.00     0.049 A 
ATOM     55  H   UNL A   1      43.799  29.662  28.132  1.00  0.00     0.167 HD
ATOM     56  C   UNL A   1      43.044  31.917  29.689  1.00  0.00     0.074 A 
ATOM     57  C   UNL A   1      42.256  32.817  30.509  1.00  0.00     0.031 C 
ATOM     58  C   UNL A   1      44.317  32.165  29.292  1.00  0.00     0.034 A 
BRANCH  45  59
ATOM     59  C   UNL A   1      46.766  27.712  25.722  1.00  0.00     0.023 A 
ATOM     60  C   UNL A   1      47.047  28.040  24.383  1.00  0.00     0.031 A 
ATOM     61  C   UNL A   1      47.648  26.834  26.381  1.00  0.00     0.131 A 
ATOM     62  C   UNL A   1      48.144  27.448  23.734  1.00  0.00     0.055 A 
ATOM     63  C   UNL A   1      48.778  26.307  25.753  1.00  0.00     0.041 A 
ATOM     64  F   UNL A   1      47.421  26.463  27.651  1.00  0.00    -0.206 F 
ATOM     65  C   UNL A   1      49.024  26.603  24.417  1.00  0.00     0.022 A 
BRANCH  62  66
ATOM     66  S   UNL A   1      48.343  27.680  21.943  1.00  0.00     0.124 S 
ATOM     67  O   UNL A   1      49.471  28.607  21.889  1.00  0.00    -0.237 OA
ATOM     68  O   UNL A   1      48.589  26.322  21.473  1.00  0.00    -0.237 OA
ATOM     69  O   UNL A   1      47.064  28.255  21.527  1.00  0.00    -0.744 OA
ENDBRANCH  62  66
ENDBRANCH  45  59
BRANCH  46  70
ATOM     70  C   UNL A   1      38.722  30.561  30.976  1.00  0.00     0.023 A 
ATOM     71  C   UNL A   1      37.645  31.268  30.422  1.00  0.00     0.031 A 
ATOM     72  C   UNL A   1      38.680  30.254  32.348  1.00  0.00     0.131 A 
ATOM     73  C   UNL A   1      36.579  31.668  31.243  1.00  0.00     0.055 A 
ATOM     74  C   UNL A   1      37.596  30.613  33.149  1.00  0.00     0.041 A 
ATOM     75  F   UNL A   1      39.687  29.578  32.924  1.00  0.00    -0.206 F 
ATOM     76  C   UNL A   1      36.542  31.332  32.599  1.00  0.00     0.022 A 
BRANCH  73  77
ATOM     77  S   UNL A   1      35.262  32.689  30.526  1.00  0.00     0.124 S 
ATOM     78  O   UNL A   1      35.983  33.910  30.184  1.00  0.00    -0.237 OA
ATOM     79  O   UNL A   1      34.819  31.869  29.403  1.00  0.00    -0.237 OA
ATOM     80  O   UNL A   1      34.298  32.818  31.617  1.00  0.00    -0.744 OA
ENDBRANCH  73  77
ENDBRANCH  46  70
BRANCH  58  81
ATOM     81  C   UNL A   1      44.914  33.475  29.742  1.00  0.00     0.023 A 
ATOM     82  C   UNL A   1      44.796  34.640  28.963  1.00  0.00     0.031 A 
ATOM     83  C   UNL A   1      45.655  33.544  30.935  1.00  0.00     0.131 A 
ATOM     84  C   UNL A   1      45.462  35.812  29.356  1.00  0.00     0.055 A 
ATOM     85  C   UNL A   1      46.271  34.728  31.346  1.00  0.00     0.041 A 
ATOM     86  F   UNL A   1      45.802  32.460  31.711  1.00  0.00    -0.206 F 
ATOM     87  C   UNL A   1      46.189  35.866  30.548  1.00  0.00     0.022 A 
BRANCH  84  88
ATOM     88  S   UNL A   1      45.450  37.238  28.235  1.00  0.00     0.124 S 
ATOM     89  O   UNL A   1      45.773  38.339  29.137  1.00  0.00    -0.237 OA
ATOM     90  O   UNL A   1      46.482  36.884  27.267  1.00  0.00    -0.237 OA
ATOM     91  O   UNL A   1      44.087  37.251  27.708  1.00  0.00    -0.744 OA
ENDBRANCH  84  88
ENDBRANCH  58  81
ENDBRANCH  32  33
ENDBRANCH  25  27
ENDBRANCH  24  25
ENDBRANCH  23  24
ENDBRANCH  22  23
ENDBRANCH   1  22
TORSDOF 20
ENDMDL
MODEL 3
REMARK VINA RESULT:     -10.0      4.812      7.779
REMARK SMILES CCCOc1cc(NC[C@H]2CC[C@@H](C(=O)OCCOC(=O)c3ccc(-c4c5nc(c(-c6cc(S(=O)(=O)[O-])ccc6F)c6ccc([nH]6)c(-c6cc(S(=O)(=O)[O-])ccc6F)c6nc(c(-c7cc(S(=O)(=O)[O-])ccc7F)c7ccc4[nH]7)C=C6)C=C5)cc3)O2)ncn1
REMARK SMILES IDX 16 1 14 2 15 3 13 4 10 5 11 6 85 7 12 8 9 9 8 10 7 12 5 13
REMARK SMILES IDX 6 14 88 15 87 16 86 17 4 18 3 19 2 20 1 21 17 22 18 23 19 24
REMARK SMILES IDX 20 25 21 26 22 27 23 28 84 29 24 30 83 31 25 32 26 33 27 34
REMARK SMILES IDX 77 35 28 36 82 37 76 38 78 39 29 40 81 41 75 42 74 43 30 45
REMARK SMILES IDX 62 46 42 47 61 48 43 49 46 50 60 51 79 52 44 53 45 54 59 56
REMARK SMILES IDX 80 57 47 58 31 59 32 60 40 61 33 62 39 63 41 64 38 65 34 66
REMARK SMILES IDX 35 67 36 68 37 69 63 70 64 71 72 72 65 73 71 74 73 75 70 76
REMARK SMILES IDX 66 77 67 78 68 79 69 80 48 81 49 82 57 83 50 84 56 85 58 86
REMARK SMILES IDX 55 87 51 88 52 89 53 90 54 91
REMARK H PARENT 8 11 78 44 46 55
REMARK Flexibility Score: inf
ROOT
ATOM      1  O   UNL A   1      32.443  29.262  23.578  1.00  0.00    -0.460 OA
ENDROOT
BRANCH   1   2
ATOM      2  C   UNL A   1      32.530  28.093  22.881  1.00  0.00     0.335 C 
ATOM      3  O   UNL A   1      33.562  27.680  22.364  1.00  0.00    -0.249 OA
BRANCH   2   4
ATOM      4  C   UNL A   1      31.175  27.374  22.776  1.00  0.00     0.228 C 
ATOM      5  C   UNL A   1      29.942  25.936  24.188  1.00  0.00     0.138 C 
ATOM      6  C   UNL A   1      29.019  27.014  23.643  1.00  0.00     0.037 C 
ATOM      7  O   UNL A   1      31.174  26.095  23.439  1.00  0.00    -0.361 OA
ATOM      8  C   UNL A   1      29.979  28.133  23.323  1.00  0.00     0.047 C 
BRANCH   5   9
ATOM      9  C   UNL A   1      30.244  26.073  25.693  1.00  0.00     0.146 C 
BRANCH   9  10
ATOM     10  N   UNL A   1      31.654  25.942  26.010  1.00  0.00    -0.367 N 
ATOM     11  H   UNL A   1      32.244  26.729  25.962  1.00  0.00     0.162 HD
BRANCH  10  12
ATOM     12  C   UNL A   1      32.170  24.706  26.383  1.00  0.00     0.133 A 
ATOM     13  C   UNL A   1      34.015  23.290  26.593  1.00  0.00     0.218 A 
ATOM     14  C   UNL A   1      33.469  24.421  26.038  1.00  0.00     0.115 A 
ATOM     15  N   UNL A   1      33.345  22.422  27.357  1.00  0.00    -0.202 NA
ATOM     16  C   UNL A   1      32.062  22.737  27.554  1.00  0.00     0.228 A 
ATOM     17  N   UNL A   1      31.451  23.865  27.143  1.00  0.00    -0.219 NA
BRANCH  13  18
ATOM     18  O   UNL A   1      35.347  23.052  26.370  1.00  0.00    -0.478 OA
BRANCH  18  19
ATOM     19  C   UNL A   1      35.578  21.682  26.031  1.00  0.00     0.231 C 
BRANCH  19  20
ATOM     20  C   UNL A   1      35.692  21.522  24.509  1.00  0.00     0.038 C 
ATOM     21  C   UNL A   1      36.968  22.130  23.938  1.00  0.00     0.007 C 
ENDBRANCH  19  20
ENDBRANCH  18  19
ENDBRANCH  13  18
ENDBRANCH  10  12
ENDBRANCH   9  10
ENDBRANCH   5   9
ENDBRANCH   2   4
ENDBRANCH   1   2
BRANCH   1  22
ATOM     22  C   UNL A   1      32.553  29.149  25.012  1.00  0.00     0.274 C 
BRANCH  22  23
ATOM     23  C   UNL A   1      31.835  30.301  25.712  1.00  0.00     0.275 C 
BRANCH  23  24
ATOM     24  O   UNL A   1      32.337  30.465  27.050  1.00  0.00    -0.458 OA
BRANCH  24  25
ATOM     25  C   UNL A   1      33.038  31.594  27.282  1.00  0.00     0.338 C 
ATOM     26  O   UNL A   1      32.641  32.749  27.168  1.00  0.00    -0.246 OA
BRANCH  25  27
ATOM     27  C   UNL A   1      34.392  31.260  27.743  1.00  0.00     0.060 A 
ATOM     28  C   UNL A   1      34.696  29.936  28.049  1.00  0.00     0.016 A 
ATOM     29  C   UNL A   1      35.303  32.276  28.036  1.00  0.00     0.016 A 
ATOM     30  C   UNL A   1      35.865  29.637  28.744  1.00  0.00     0.010 A 
ATOM     31  C   UNL A   1      36.521  31.956  28.650  1.00  0.00     0.010 A 
ATOM     32  C   UNL A   1      36.797  30.638  29.053  1.00  0.00    -0.014 A 
BRANCH  32  33
ATOM     33  C   UNL A   1      38.024  30.298  29.830  1.00  0.00     0.031 A 
ATOM     34  C   UNL A   1      39.078  29.392  29.243  1.00  0.00     0.074 A 
ATOM     35  C   UNL A   1      38.209  30.827  31.057  1.00  0.00     0.049 A 
ATOM     36  N   UNL A   1      40.145  28.883  29.810  1.00  0.00    -0.248 NA
ATOM     37  C   UNL A   1      38.902  28.993  27.839  1.00  0.00     0.031 C 
ATOM     38  C   UNL A   1      37.288  31.749  31.728  1.00  0.00     0.029 A 
ATOM     39  N   UNL A   1      39.238  30.682  31.954  1.00  0.00    -0.354 N 
ATOM     40  C   UNL A   1      40.728  28.052  28.856  1.00  0.00     0.074 A 
ATOM     41  C   UNL A   1      39.895  28.131  27.674  1.00  0.00     0.031 C 
ATOM     42  C   UNL A   1      37.814  32.122  32.903  1.00  0.00     0.029 A 
ATOM     43  C   UNL A   1      39.065  31.404  33.113  1.00  0.00     0.049 A 
ATOM     44  H   UNL A   1      40.025  30.116  31.784  1.00  0.00     0.167 HD
ATOM     45  C   UNL A   1      41.846  27.290  28.966  1.00  0.00     0.034 A 
ATOM     46  C   UNL A   1      39.805  31.457  34.237  1.00  0.00     0.034 A 
ATOM     47  C   UNL A   1      42.693  27.265  30.139  1.00  0.00     0.049 A 
ATOM     48  C   UNL A   1      41.043  30.609  34.332  1.00  0.00     0.074 A 
ATOM     49  C   UNL A   1      43.868  26.559  30.342  1.00  0.00     0.029 A 
ATOM     50  N   UNL A   1      42.460  27.982  31.307  1.00  0.00    -0.354 N 
ATOM     51  N   UNL A   1      41.545  29.782  33.447  1.00  0.00    -0.248 NA
ATOM     52  C   UNL A   1      41.802  30.693  35.586  1.00  0.00     0.031 C 
ATOM     53  C   UNL A   1      44.314  26.805  31.647  1.00  0.00     0.029 A 
ATOM     54  C   UNL A   1      43.455  27.717  32.240  1.00  0.00     0.049 A 
ATOM     55  H   UNL A   1      41.700  28.590  31.453  1.00  0.00     0.167 HD
ATOM     56  C   UNL A   1      42.682  29.242  34.039  1.00  0.00     0.074 A 
ATOM     57  C   UNL A   1      42.806  29.863  35.343  1.00  0.00     0.031 C 
ATOM     58  C   UNL A   1      43.542  28.313  33.552  1.00  0.00     0.034 A 
BRANCH  45  59
ATOM     59  C   UNL A   1      42.170  26.354  27.821  1.00  0.00     0.023 A 
ATOM     60  C   UNL A   1      41.802  24.997  27.812  1.00  0.00     0.031 A 
ATOM     61  C   UNL A   1      42.893  26.845  26.716  1.00  0.00     0.131 A 
ATOM     62  C   UNL A   1      42.210  24.168  26.752  1.00  0.00     0.055 A 
ATOM     63  C   UNL A   1      43.232  26.034  25.632  1.00  0.00     0.041 A 
ATOM     64  F   UNL A   1      43.296  28.126  26.677  1.00  0.00    -0.206 F 
ATOM     65  C   UNL A   1      42.901  24.684  25.651  1.00  0.00     0.022 A 
BRANCH  62  66
ATOM     66  S   UNL A   1      41.951  22.375  26.880  1.00  0.00     0.124 S 
ATOM     67  O   UNL A   1      41.528  22.236  28.271  1.00  0.00    -0.237 OA
ATOM     68  O   UNL A   1      40.940  22.127  25.859  1.00  0.00    -0.237 OA
ATOM     69  O   UNL A   1      43.271  21.816  26.588  1.00  0.00    -0.744 OA
ENDBRANCH  62  66
ENDBRANCH  45  59
BRANCH  46  70
ATOM     70  C   UNL A   1      39.359  32.292  35.387  1.00  0.00     0.023 A 
ATOM     71  C   UNL A   1      39.797  33.616  35.538  1.00  0.00     0.031 A 
ATOM     72  C   UNL A   1      38.496  31.763  36.364  1.00  0.00     0.131 A 
ATOM     73  C   UNL A   1      39.392  34.360  36.657  1.00  0.00     0.055 A 
ATOM     74  C   UNL A   1      38.059  32.523  37.450  1.00  0.00     0.041 A 
ATOM     75  F   UNL A   1      38.048  30.502  36.264  1.00  0.00    -0.206 F 
ATOM     76  C   UNL A   1      38.515  33.827  37.605  1.00  0.00     0.022 A 
BRANCH  73  77
ATOM     77  S   UNL A   1      40.075  36.025  36.891  1.00  0.00     0.124 S 
ATOM     78  O   UNL A   1      41.474  35.735  37.189  1.00  0.00    -0.237 OA
ATOM     79  O   UNL A   1      39.811  36.647  35.598  1.00  0.00    -0.237 OA
ATOM     80  O   UNL A   1      39.297  36.560  38.006  1.00  0.00    -0.744 OA
ENDBRANCH  73  77
ENDBRANCH  46  70
BRANCH  58  81
ATOM     81  C   UNL A   1      44.695  27.934  34.449  1.00  0.00     0.023 A 
ATOM     82  C   UNL A   1      44.585  26.885  35.380  1.00  0.00     0.031 A 
ATOM     83  C   UNL A   1      45.894  28.665  34.409  1.00  0.00     0.131 A 
ATOM     84  C   UNL A   1      45.635  26.636  36.276  1.00  0.00     0.055 A 
ATOM     85  C   UNL A   1      46.956  28.377  35.269  1.00  0.00     0.041 A 
ATOM     86  F   UNL A   1      46.048  29.678  33.543  1.00  0.00    -0.206 F 
ATOM     87  C   UNL A   1      46.824  27.368  36.219  1.00  0.00     0.022 A 
BRANCH  84  88
ATOM     88  S   UNL A   1      45.389  25.408  37.589  1.00  0.00     0.124 S 
ATOM     89  O   UNL A   1      45.883  24.187  36.962  1.00  0.00    -0.237 OA
ATOM     90  O   UNL A   1      46.204  25.943  38.674  1.00  0.00    -0.237 OA
ATOM     91  O   UNL A   1      43.946  25.442  37.825  1.00  0.00    -0.744 OA
ENDBRANCH  84  88
ENDBRANCH  58  81
ENDBRANCH  32  33
ENDBRANCH  25  27
ENDBRANCH  24  25
ENDBRANCH  23  24
ENDBRANCH  22  23
ENDBRANCH   1  22
TORSDOF 20
ENDMDL
