MODEL 1
REMARK VINA RESULT:     -12.3      0.000      0.000
REMARK SMILES Cc1ccc(Nc2c(F)cccc2Cl)c(CC(=O)OCCOC(=O)c2ccc(-c3c4nc(c(-c5cc(S(=O)(=O)[O-])ccc5F)c5ccc([nH]5)c(-c5cc(S(=O)(=O)[O-])ccc5F)c5nc(c(-c6cc(S(=O)(=O)[O-])ccc6F)c6ccc3[nH]6)C=C5)C=C4)cc2)c1
REMARK SMILES IDX 20 1 19 2 17 3 18 4 16 5 15 6 1 7 2 8 3 9 88 10 4 11 5 12
REMARK SMILES IDX 6 13 7 15 8 16 13 17 9 18 10 19 12 20 14 21 11 22 21 23
REMARK SMILES IDX 22 24 23 25 24 26 25 27 26 28 87 29 27 30 86 31 28 32 29 33
REMARK SMILES IDX 30 34 80 35 31 36 85 37 79 38 81 39 32 40 84 41 78 42 77 43
REMARK SMILES IDX 33 45 65 46 45 47 64 48 46 49 49 50 63 51 82 52 47 53 48 54
REMARK SMILES IDX 62 56 83 57 50 58 34 59 35 60 43 61 36 62 42 63 44 64 41 65
REMARK SMILES IDX 37 66 38 67 39 68 40 69 66 70 67 71 75 72 68 73 74 74 76 75
REMARK SMILES IDX 73 76 69 77 70 78 71 79 72 80 51 81 52 82 60 83 53 84 59 85
REMARK SMILES IDX 61 86 58 87 54 88 55 89 56 90 57 91
REMARK H PARENT 6 14 81 44 49 55
REMARK Flexibility Score: inf
ROOT
ATOM      1  C   UNL A   1      36.543  22.679  24.558  1.00  0.00     0.274 C 
ENDROOT
BRANCH   1   2
ATOM      2  O   UNL A   1      36.157  24.044  24.619  1.00  0.00    -0.462 OA
BRANCH   2   3
ATOM      3  C   UNL A   1      34.927  24.350  25.107  1.00  0.00     0.310 C 
ATOM      4  O   UNL A   1      34.457  23.967  26.153  1.00  0.00    -0.252 OA
BRANCH   3   5
ATOM      5  C   UNL A   1      34.224  25.228  24.088  1.00  0.00     0.160 C 
BRANCH   5   6
ATOM      6  C   UNL A   1      33.201  26.071  24.801  1.00  0.00    -0.013 A 
ATOM      7  C   UNL A   1      33.563  28.734  27.482  1.00  0.00     0.044 C 
ATOM      8  C   UNL A   1      32.941  27.770  26.523  1.00  0.00    -0.051 A 
ATOM      9  C   UNL A   1      31.582  27.462  26.586  1.00  0.00     0.005 A 
ATOM     10  C   UNL A   1      33.736  27.094  25.606  1.00  0.00     0.009 A 
ATOM     11  C   UNL A   1      31.033  26.481  25.755  1.00  0.00     0.026 A 
ATOM     12  C   UNL A   1      31.824  25.749  24.864  1.00  0.00     0.042 A 
BRANCH  12  13
ATOM     13  N   UNL A   1      31.264  24.658  24.172  1.00  0.00    -0.352 N 
ATOM     14  H   UNL A   1      30.596  24.897  23.490  1.00  0.00     0.167 HD
BRANCH  13  15
ATOM     15  C   UNL A   1      31.514  23.268  24.307  1.00  0.00     0.094 A 
ATOM     16  C   UNL A   1      32.172  22.566  23.290  1.00  0.00     0.148 A 
ATOM     17  C   UNL A   1      31.321  22.587  25.524  1.00  0.00     0.067 A 
ATOM     18  F   UNL A   1      32.379  23.146  22.098  1.00  0.00    -0.205 F 
ATOM     19  C   UNL A   1      32.623  21.257  23.470  1.00  0.00     0.041 A 
ATOM     20  C   UNL A   1      31.846  21.307  25.740  1.00  0.00     0.023 A 
ATOM     21  Cl  UNL A   1      30.247  23.180  26.736  1.00  0.00    -0.082 Cl
ATOM     22  C   UNL A   1      32.493  20.637  24.709  1.00  0.00     0.005 A 
ENDBRANCH  13  15
ENDBRANCH  12  13
ENDBRANCH   5   6
ENDBRANCH   3   5
ENDBRANCH   2   3
ENDBRANCH   1   2
BRANCH   1  23
ATOM     23  C   UNL A   1      37.646  22.446  25.601  1.00  0.00     0.275 C 
BRANCH  23  24
ATOM     24  O   UNL A   1      38.387  23.636  26.073  1.00  0.00    -0.458 OA
BRANCH  24  25
ATOM     25  C   UNL A   1      39.595  23.759  26.703  1.00  0.00     0.338 C 
ATOM     26  O   UNL A   1      40.504  22.952  26.529  1.00  0.00    -0.246 OA
BRANCH  25  27
ATOM     27  C   UNL A   1      39.866  25.021  27.399  1.00  0.00     0.060 A 
ATOM     28  C   UNL A   1      40.426  26.139  26.751  1.00  0.00     0.016 A 
ATOM     29  C   UNL A   1      39.341  25.134  28.661  1.00  0.00     0.016 A 
ATOM     30  C   UNL A   1      40.304  27.392  27.344  1.00  0.00     0.010 A 
ATOM     31  C   UNL A   1      38.893  26.358  29.040  1.00  0.00     0.010 A 
ATOM     32  C   UNL A   1      39.492  27.484  28.475  1.00  0.00    -0.014 A 
BRANCH  32  33
ATOM     33  C   UNL A   1      39.452  28.605  29.398  1.00  0.00     0.031 A 
ATOM     34  C   UNL A   1      38.482  29.681  29.212  1.00  0.00     0.074 A 
ATOM     35  C   UNL A   1      40.335  28.458  30.417  1.00  0.00     0.049 A 
ATOM     36  N   UNL A   1      38.769  30.935  29.211  1.00  0.00    -0.248 NA
ATOM     37  C   UNL A   1      37.066  29.420  28.938  1.00  0.00     0.031 C 
ATOM     38  C   UNL A   1      40.552  29.184  31.647  1.00  0.00     0.029 A 
ATOM     39  N   UNL A   1      41.378  27.525  30.420  1.00  0.00    -0.354 N 
ATOM     40  C   UNL A   1      37.565  31.582  29.401  1.00  0.00     0.074 A 
ATOM     41  C   UNL A   1      36.547  30.653  28.976  1.00  0.00     0.031 C 
ATOM     42  C   UNL A   1      41.796  28.895  32.096  1.00  0.00     0.029 A 
ATOM     43  C   UNL A   1      42.453  28.022  31.125  1.00  0.00     0.049 A 
ATOM     44  H   UNL A   1      41.348  26.644  29.983  1.00  0.00     0.167 HD
ATOM     45  C   UNL A   1      37.500  32.656  30.239  1.00  0.00     0.034 A 
ATOM     46  C   UNL A   1      43.570  28.265  30.378  1.00  0.00     0.034 A 
ATOM     47  C   UNL A   1      38.779  32.819  30.928  1.00  0.00     0.049 A 
ATOM     48  C   UNL A   1      43.703  29.754  30.179  1.00  0.00     0.074 A 
ATOM     49  C   UNL A   1      39.193  32.432  32.193  1.00  0.00     0.029 A 
ATOM     50  N   UNL A   1      39.929  33.071  30.197  1.00  0.00    -0.354 N 
ATOM     51  N   UNL A   1      42.702  30.592  30.240  1.00  0.00    -0.248 NA
ATOM     52  C   UNL A   1      44.986  30.415  30.003  1.00  0.00     0.031 C 
ATOM     53  C   UNL A   1      40.611  32.393  32.193  1.00  0.00     0.029 A 
ATOM     54  C   UNL A   1      41.054  32.749  30.931  1.00  0.00     0.049 A 
ATOM     55  H   UNL A   1      39.943  33.431  29.281  1.00  0.00     0.167 HD
ATOM     56  C   UNL A   1      43.180  31.872  30.216  1.00  0.00     0.074 A 
ATOM     57  C   UNL A   1      44.617  31.706  30.054  1.00  0.00     0.031 C 
ATOM     58  C   UNL A   1      42.372  32.966  30.365  1.00  0.00     0.034 A 
BRANCH  45  59
ATOM     59  C   UNL A   1      36.219  33.284  30.731  1.00  0.00     0.023 A 
ATOM     60  C   UNL A   1      35.447  34.068  29.849  1.00  0.00     0.031 A 
ATOM     61  C   UNL A   1      35.685  33.113  32.022  1.00  0.00     0.131 A 
ATOM     62  C   UNL A   1      34.256  34.688  30.258  1.00  0.00     0.055 A 
ATOM     63  C   UNL A   1      34.507  33.752  32.443  1.00  0.00     0.041 A 
ATOM     64  F   UNL A   1      36.266  32.293  32.912  1.00  0.00    -0.206 F 
ATOM     65  C   UNL A   1      33.787  34.550  31.560  1.00  0.00     0.022 A 
BRANCH  62  66
ATOM     66  S   UNL A   1      33.317  35.651  29.040  1.00  0.00     0.124 S 
ATOM     67  O   UNL A   1      32.537  34.617  28.367  1.00  0.00    -0.237 OA
ATOM     68  O   UNL A   1      32.568  36.575  29.884  1.00  0.00    -0.237 OA
ATOM     69  O   UNL A   1      34.358  36.271  28.221  1.00  0.00    -0.744 OA
ENDBRANCH  62  66
ENDBRANCH  45  59
BRANCH  46  70
ATOM     70  C   UNL A   1      43.853  27.188  29.350  1.00  0.00     0.023 A 
ATOM     71  C   UNL A   1      43.825  27.573  27.984  1.00  0.00     0.031 A 
ATOM     72  C   UNL A   1      44.445  25.950  29.640  1.00  0.00     0.131 A 
ATOM     73  C   UNL A   1      44.493  26.825  26.998  1.00  0.00     0.055 A 
ATOM     74  C   UNL A   1      45.045  25.164  28.637  1.00  0.00     0.041 A 
ATOM     75  F   UNL A   1      44.540  25.515  30.904  1.00  0.00    -0.206 F 
ATOM     76  C   UNL A   1      45.106  25.615  27.317  1.00  0.00     0.022 A 
BRANCH  73  77
ATOM     77  S   UNL A   1      44.820  27.595  25.379  1.00  0.00     0.124 S 
ATOM     78  O   UNL A   1      45.462  28.849  25.756  1.00  0.00    -0.237 OA
ATOM     79  O   UNL A   1      45.674  26.608  24.722  1.00  0.00    -0.237 OA
ATOM     80  O   UNL A   1      43.489  27.711  24.791  1.00  0.00    -0.744 OA
ENDBRANCH  73  77
ENDBRANCH  46  70
BRANCH  58  81
ATOM     81  C   UNL A   1      42.785  34.385  30.077  1.00  0.00     0.023 A 
ATOM     82  C   UNL A   1      42.559  34.983  28.837  1.00  0.00     0.031 A 
ATOM     83  C   UNL A   1      43.340  35.222  31.077  1.00  0.00     0.131 A 
ATOM     84  C   UNL A   1      43.000  36.284  28.577  1.00  0.00     0.055 A 
ATOM     85  C   UNL A   1      43.651  36.563  30.854  1.00  0.00     0.041 A 
ATOM     86  F   UNL A   1      43.600  34.781  32.316  1.00  0.00    -0.206 F 
ATOM     87  C   UNL A   1      43.512  37.096  29.585  1.00  0.00     0.022 A 
BRANCH  84  88
ATOM     88  S   UNL A   1      43.014  36.818  26.852  1.00  0.00     0.124 S 
ATOM     89  O   UNL A   1      44.381  37.313  26.708  1.00  0.00    -0.237 OA
ATOM     90  O   UNL A   1      42.712  35.582  26.138  1.00  0.00    -0.237 OA
ATOM     91  O   UNL A   1      41.973  37.841  26.803  1.00  0.00    -0.744 OA
ENDBRANCH  84  88
ENDBRANCH  58  81
ENDBRANCH  32  33
ENDBRANCH  25  27
ENDBRANCH  24  25
ENDBRANCH  23  24
ENDBRANCH   1  23
TORSDOF 17
ENDMDL
MODEL 2
REMARK VINA RESULT:     -12.1      4.313      9.996
REMARK SMILES Cc1ccc(Nc2c(F)cccc2Cl)c(CC(=O)OCCOC(=O)c2ccc(-c3c4nc(c(-c5cc(S(=O)(=O)[O-])ccc5F)c5ccc([nH]5)c(-c5cc(S(=O)(=O)[O-])ccc5F)c5nc(c(-c6cc(S(=O)(=O)[O-])ccc6F)c6ccc3[nH]6)C=C5)C=C4)cc2)c1
REMARK SMILES IDX 20 1 19 2 17 3 18 4 16 5 15 6 1 7 2 8 3 9 88 10 4 11 5 12
REMARK SMILES IDX 6 13 7 15 8 16 13 17 9 18 10 19 12 20 14 21 11 22 21 23
REMARK SMILES IDX 22 24 23 25 24 26 25 27 26 28 87 29 27 30 86 31 28 32 29 33
REMARK SMILES IDX 30 34 80 35 31 36 85 37 79 38 81 39 32 40 84 41 78 42 77 43
REMARK SMILES IDX 33 45 65 46 45 47 64 48 46 49 49 50 63 51 82 52 47 53 48 54
REMARK SMILES IDX 62 56 83 57 50 58 34 59 35 60 43 61 36 62 42 63 44 64 41 65
REMARK SMILES IDX 37 66 38 67 39 68 40 69 66 70 67 71 75 72 68 73 74 74 76 75
REMARK SMILES IDX 73 76 69 77 70 78 71 79 72 80 51 81 52 82 60 83 53 84 59 85
REMARK SMILES IDX 61 86 58 87 54 88 55 89 56 90 57 91
REMARK H PARENT 6 14 81 44 49 55
REMARK Flexibility Score: inf
ROOT
ATOM      1  C   UNL A   1      33.925  30.255  26.870  1.00  0.00     0.274 C 
ENDROOT
BRANCH   1   2
ATOM      2  O   UNL A   1      32.732  29.901  27.554  1.00  0.00    -0.462 OA
BRANCH   2   3
ATOM      3  C   UNL A   1      32.145  28.711  27.261  1.00  0.00     0.310 C 
ATOM      4  O   UNL A   1      31.316  28.140  27.930  1.00  0.00    -0.252 OA
BRANCH   3   5
ATOM      5  C   UNL A   1      32.743  28.201  25.963  1.00  0.00     0.160 C 
BRANCH   5   6
ATOM      6  C   UNL A   1      31.657  27.535  25.160  1.00  0.00    -0.013 A 
ATOM      7  C   UNL A   1      29.031  28.955  22.816  1.00  0.00     0.044 C 
ATOM      8  C   UNL A   1      29.806  27.983  23.647  1.00  0.00    -0.051 A 
ATOM      9  C   UNL A   1      29.318  26.702  23.904  1.00  0.00     0.005 A 
ATOM     10  C   UNL A   1      30.992  28.379  24.251  1.00  0.00     0.009 A 
ATOM     11  C   UNL A   1      30.000  25.839  24.768  1.00  0.00     0.026 A 
ATOM     12  C   UNL A   1      31.165  26.236  25.432  1.00  0.00     0.042 A 
BRANCH  12  13
ATOM     13  N   UNL A   1      31.722  25.400  26.419  1.00  0.00    -0.352 N 
ATOM     14  H   UNL A   1      31.527  25.665  27.346  1.00  0.00     0.167 HD
BRANCH  13  15
ATOM     15  C   UNL A   1      32.520  24.236  26.281  1.00  0.00     0.094 A 
ATOM     16  C   UNL A   1      33.900  24.346  26.072  1.00  0.00     0.148 A 
ATOM     17  C   UNL A   1      32.022  22.950  26.561  1.00  0.00     0.067 A 
ATOM     18  F   UNL A   1      34.444  25.538  25.786  1.00  0.00    -0.205 F 
ATOM     19  C   UNL A   1      34.747  23.238  26.142  1.00  0.00     0.041 A 
ATOM     20  C   UNL A   1      32.876  21.850  26.718  1.00  0.00     0.023 A 
ATOM     21  Cl  UNL A   1      30.336  22.597  26.507  1.00  0.00    -0.082 Cl
ATOM     22  C   UNL A   1      34.241  21.992  26.501  1.00  0.00     0.005 A 
ENDBRANCH  13  15
ENDBRANCH  12  13
ENDBRANCH   5   6
ENDBRANCH   3   5
ENDBRANCH   2   3
ENDBRANCH   1   2
BRANCH   1  23
ATOM     23  C   UNL A   1      35.006  30.558  27.919  1.00  0.00     0.275 C 
BRANCH  23  24
ATOM     24  O   UNL A   1      35.642  29.398  28.583  1.00  0.00    -0.458 OA
BRANCH  24  25
ATOM     25  C   UNL A   1      36.566  29.327  29.589  1.00  0.00     0.338 C 
ATOM     26  O   UNL A   1      36.249  29.424  30.771  1.00  0.00    -0.246 OA
BRANCH  25  27
ATOM     27  C   UNL A   1      37.916  28.878  29.231  1.00  0.00     0.060 A 
ATOM     28  C   UNL A   1      38.744  29.598  28.349  1.00  0.00     0.016 A 
ATOM     29  C   UNL A   1      38.418  27.838  29.971  1.00  0.00     0.016 A 
ATOM     30  C   UNL A   1      40.111  29.340  28.348  1.00  0.00     0.010 A 
ATOM     31  C   UNL A   1      39.747  27.856  30.246  1.00  0.00     0.010 A 
ATOM     32  C   UNL A   1      40.598  28.490  29.341  1.00  0.00    -0.014 A 
BRANCH  32  33
ATOM     33  C   UNL A   1      41.913  27.872  29.355  1.00  0.00     0.031 A 
ATOM     34  C   UNL A   1      42.152  26.626  28.630  1.00  0.00     0.074 A 
ATOM     35  C   UNL A   1      42.822  28.621  30.026  1.00  0.00     0.049 A 
ATOM     36  N   UNL A   1      42.717  25.583  29.130  1.00  0.00    -0.248 NA
ATOM     37  C   UNL A   1      41.699  26.423  27.251  1.00  0.00     0.031 C 
ATOM     38  C   UNL A   1      44.257  28.537  30.172  1.00  0.00     0.029 A 
ATOM     39  N   UNL A   1      42.487  29.681  30.876  1.00  0.00    -0.354 N 
ATOM     40  C   UNL A   1      43.090  24.818  28.043  1.00  0.00     0.074 A 
ATOM     41  C   UNL A   1      42.236  25.233  26.957  1.00  0.00     0.031 C 
ATOM     42  C   UNL A   1      44.616  29.258  31.260  1.00  0.00     0.029 A 
ATOM     43  C   UNL A   1      43.407  29.777  31.897  1.00  0.00     0.049 A 
ATOM     44  H   UNL A   1      41.708  30.272  30.760  1.00  0.00     0.167 HD
ATOM     45  C   UNL A   1      44.306  24.202  28.038  1.00  0.00     0.034 A 
ATOM     46  C   UNL A   1      42.916  29.508  33.143  1.00  0.00     0.034 A 
ATOM     47  C   UNL A   1      45.080  24.631  29.201  1.00  0.00     0.049 A 
ATOM     48  C   UNL A   1      43.396  28.141  33.565  1.00  0.00     0.074 A 
ATOM     49  C   UNL A   1      46.074  25.587  29.337  1.00  0.00     0.029 A 
ATOM     50  N   UNL A   1      44.610  24.367  30.478  1.00  0.00    -0.354 N 
ATOM     51  N   UNL A   1      43.750  27.201  32.730  1.00  0.00    -0.248 NA
ATOM     52  C   UNL A   1      43.611  27.776  34.956  1.00  0.00     0.031 C 
ATOM     53  C   UNL A   1      46.151  25.943  30.708  1.00  0.00     0.029 A 
ATOM     54  C   UNL A   1      45.202  25.209  31.399  1.00  0.00     0.049 A 
ATOM     55  H   UNL A   1      43.946  23.676  30.698  1.00  0.00     0.167 HD
ATOM     56  C   UNL A   1      44.319  26.169  33.423  1.00  0.00     0.074 A 
ATOM     57  C   UNL A   1      44.196  26.574  34.816  1.00  0.00     0.031 C 
ATOM     58  C   UNL A   1      44.876  25.082  32.807  1.00  0.00     0.034 A 
BRANCH  45  59
ATOM     59  C   UNL A   1      44.937  23.560  26.826  1.00  0.00     0.023 A 
ATOM     60  C   UNL A   1      44.594  22.236  26.485  1.00  0.00     0.031 A 
ATOM     61  C   UNL A   1      45.831  24.204  25.951  1.00  0.00     0.131 A 
ATOM     62  C   UNL A   1      45.163  21.585  25.378  1.00  0.00     0.055 A 
ATOM     63  C   UNL A   1      46.422  23.549  24.857  1.00  0.00     0.041 A 
ATOM     64  F   UNL A   1      46.141  25.502  26.102  1.00  0.00    -0.206 F 
ATOM     65  C   UNL A   1      46.092  22.229  24.568  1.00  0.00     0.022 A 
BRANCH  62  66
ATOM     66  S   UNL A   1      44.634  19.891  25.002  1.00  0.00     0.124 S 
ATOM     67  O   UNL A   1      45.798  19.109  25.406  1.00  0.00    -0.237 OA
ATOM     68  O   UNL A   1      43.442  19.744  25.830  1.00  0.00    -0.237 OA
ATOM     69  O   UNL A   1      44.383  19.925  23.561  1.00  0.00    -0.744 OA
ENDBRANCH  62  66
ENDBRANCH  45  59
BRANCH  46  70
ATOM     70  C   UNL A   1      41.543  30.098  33.390  1.00  0.00     0.023 A 
ATOM     71  C   UNL A   1      41.416  31.508  33.284  1.00  0.00     0.031 A 
ATOM     72  C   UNL A   1      40.351  29.360  33.393  1.00  0.00     0.131 A 
ATOM     73  C   UNL A   1      40.170  32.115  33.038  1.00  0.00     0.055 A 
ATOM     74  C   UNL A   1      39.096  29.979  33.226  1.00  0.00     0.041 A 
ATOM     75  F   UNL A   1      40.373  28.022  33.464  1.00  0.00    -0.206 F 
ATOM     76  C   UNL A   1      39.003  31.356  33.010  1.00  0.00     0.022 A 
BRANCH  73  77
ATOM     77  S   UNL A   1      40.132  33.839  32.451  1.00  0.00     0.124 S 
ATOM     78  O   UNL A   1      38.705  34.141  32.467  1.00  0.00    -0.237 OA
ATOM     79  O   UNL A   1      40.945  34.535  33.447  1.00  0.00    -0.237 OA
ATOM     80  O   UNL A   1      40.753  33.757  31.133  1.00  0.00    -0.744 OA
ENDBRANCH  73  77
ENDBRANCH  46  70
BRANCH  58  81
ATOM     81  C   UNL A   1      45.264  23.804  33.503  1.00  0.00     0.023 A 
ATOM     82  C   UNL A   1      46.560  23.579  33.967  1.00  0.00     0.031 A 
ATOM     83  C   UNL A   1      44.312  22.799  33.807  1.00  0.00     0.131 A 
ATOM     84  C   UNL A   1      46.908  22.362  34.561  1.00  0.00     0.055 A 
ATOM     85  C   UNL A   1      44.633  21.646  34.524  1.00  0.00     0.041 A 
ATOM     86  F   UNL A   1      43.029  22.890  33.431  1.00  0.00    -0.206 F 
ATOM     87  C   UNL A   1      45.949  21.405  34.879  1.00  0.00     0.022 A 
BRANCH  84  88
ATOM     88  S   UNL A   1      48.669  22.022  34.767  1.00  0.00     0.124 S 
ATOM     89  O   UNL A   1      48.766  21.840  36.214  1.00  0.00    -0.237 OA
ATOM     90  O   UNL A   1      48.853  20.817  33.966  1.00  0.00    -0.237 OA
ATOM     91  O   UNL A   1      49.313  23.225  34.248  1.00  0.00    -0.744 OA
ENDBRANCH  84  88
ENDBRANCH  58  81
ENDBRANCH  32  33
ENDBRANCH  25  27
ENDBRANCH  24  25
ENDBRANCH  23  24
ENDBRANCH   1  23
TORSDOF 17
ENDMDL
MODEL 3
REMARK VINA RESULT:     -12.0      4.148      9.686
REMARK SMILES Cc1ccc(Nc2c(F)cccc2Cl)c(CC(=O)OCCOC(=O)c2ccc(-c3c4nc(c(-c5cc(S(=O)(=O)[O-])ccc5F)c5ccc([nH]5)c(-c5cc(S(=O)(=O)[O-])ccc5F)c5nc(c(-c6cc(S(=O)(=O)[O-])ccc6F)c6ccc3[nH]6)C=C5)C=C4)cc2)c1
REMARK SMILES IDX 20 1 19 2 17 3 18 4 16 5 15 6 1 7 2 8 3 9 88 10 4 11 5 12
REMARK SMILES IDX 6 13 7 15 8 16 13 17 9 18 10 19 12 20 14 21 11 22 21 23
REMARK SMILES IDX 22 24 23 25 24 26 25 27 26 28 87 29 27 30 86 31 28 32 29 33
REMARK SMILES IDX 30 34 80 35 31 36 85 37 79 38 81 39 32 40 84 41 78 42 77 43
REMARK SMILES IDX 33 45 65 46 45 47 64 48 46 49 49 50 63 51 82 52 47 53 48 54
REMARK SMILES IDX 62 56 83 57 50 58 34 59 35 60 43 61 36 62 42 63 44 64 41 65
REMARK SMILES IDX 37 66 38 67 39 68 40 69 66 70 67 71 75 72 68 73 74 74 76 75
REMARK SMILES IDX 73 76 69 77 70 78 71 79 72 80 51 81 52 82 60 83 53 84 59 85
REMARK SMILES IDX 61 86 58 87 54 88 55 89 56 90 57 91
REMARK H PARENT 6 14 81 44 49 55
REMARK Flexibility Score: inf
ROOT
ATOM      1  C   UNL A   1      32.409  29.196  26.903  1.00  0.00     0.274 C 
ENDROOT
BRANCH   1   2
ATOM      2  O   UNL A   1      32.988  27.910  27.065  1.00  0.00    -0.462 OA
BRANCH   2   3
ATOM      3  C   UNL A   1      33.174  27.138  25.962  1.00  0.00     0.310 C 
ATOM      4  O   UNL A   1      33.644  27.499  24.909  1.00  0.00    -0.252 OA
BRANCH   3   5
ATOM      5  C   UNL A   1      32.650  25.748  26.270  1.00  0.00     0.160 C 
BRANCH   5   6
ATOM      6  C   UNL A   1      33.374  24.755  25.401  1.00  0.00    -0.013 A 
ATOM      7  C   UNL A   1      37.042  23.802  25.189  1.00  0.00     0.044 C 
ATOM      8  C   UNL A   1      35.581  23.872  24.882  1.00  0.00    -0.051 A 
ATOM      9  C   UNL A   1      35.065  23.351  23.695  1.00  0.00     0.005 A 
ATOM     10  C   UNL A   1      34.722  24.542  25.744  1.00  0.00     0.009 A 
ATOM     11  C   UNL A   1      33.715  23.517  23.369  1.00  0.00     0.026 A 
ATOM     12  C   UNL A   1      32.846  24.237  24.195  1.00  0.00     0.042 A 
BRANCH  12  13
ATOM     13  N   UNL A   1      31.541  24.523  23.748  1.00  0.00    -0.352 N 
ATOM     14  H   UNL A   1      30.930  23.752  23.729  1.00  0.00     0.167 HD
BRANCH  13  15
ATOM     15  C   UNL A   1      30.974  25.751  23.321  1.00  0.00     0.094 A 
ATOM     16  C   UNL A   1      29.964  26.362  24.074  1.00  0.00     0.148 A 
ATOM     17  C   UNL A   1      31.530  26.509  22.275  1.00  0.00     0.067 A 
ATOM     18  F   UNL A   1      29.376  25.694  25.078  1.00  0.00    -0.205 F 
ATOM     19  C   UNL A   1      29.529  27.662  23.808  1.00  0.00     0.041 A 
ATOM     20  C   UNL A   1      31.162  27.843  22.058  1.00  0.00     0.023 A 
ATOM     21  Cl  UNL A   1      32.526  25.792  21.063  1.00  0.00    -0.082 Cl
ATOM     22  C   UNL A   1      30.153  28.419  22.821  1.00  0.00     0.005 A 
ENDBRANCH  13  15
ENDBRANCH  12  13
ENDBRANCH   5   6
ENDBRANCH   3   5
ENDBRANCH   2   3
ENDBRANCH   1   2
BRANCH   1  23
ATOM     23  C   UNL A   1      33.531  30.242  26.990  1.00  0.00     0.275 C 
BRANCH  23  24
ATOM     24  O   UNL A   1      34.724  29.881  27.788  1.00  0.00    -0.458 OA
BRANCH  24  25
ATOM     25  C   UNL A   1      35.626  30.654  28.466  1.00  0.00     0.338 C 
ATOM     26  O   UNL A   1      35.295  31.689  29.038  1.00  0.00    -0.246 OA
BRANCH  25  27
ATOM     27  C   UNL A   1      36.955  30.083  28.705  1.00  0.00     0.060 A 
ATOM     28  C   UNL A   1      37.243  29.273  29.820  1.00  0.00     0.016 A 
ATOM     29  C   UNL A   1      37.850  30.194  27.672  1.00  0.00     0.016 A 
ATOM     30  C   UNL A   1      38.377  28.467  29.793  1.00  0.00     0.010 A 
ATOM     31  C   UNL A   1      38.710  29.162  27.481  1.00  0.00     0.010 A 
ATOM     32  C   UNL A   1      39.077  28.397  28.588  1.00  0.00    -0.014 A 
BRANCH  32  33
ATOM     33  C   UNL A   1      40.416  27.858  28.418  1.00  0.00     0.031 A 
ATOM     34  C   UNL A   1      40.611  26.435  28.147  1.00  0.00     0.074 A 
ATOM     35  C   UNL A   1      41.366  28.824  28.470  1.00  0.00     0.049 A 
ATOM     36  N   UNL A   1      41.426  25.672  28.786  1.00  0.00    -0.248 NA
ATOM     37  C   UNL A   1      39.828  25.717  27.137  1.00  0.00     0.031 C 
ATOM     38  C   UNL A   1      42.783  28.832  28.192  1.00  0.00     0.029 A 
ATOM     39  N   UNL A   1      41.137  30.120  28.947  1.00  0.00    -0.354 N 
ATOM     40  C   UNL A   1      41.585  24.560  27.982  1.00  0.00     0.074 A 
ATOM     41  C   UNL A   1      40.419  24.515  27.136  1.00  0.00     0.031 C 
ATOM     42  C   UNL A   1      43.327  29.918  28.789  1.00  0.00     0.029 A 
ATOM     43  C   UNL A   1      42.281  30.614  29.536  1.00  0.00     0.049 A 
ATOM     44  H   UNL A   1      40.285  30.606  28.873  1.00  0.00     0.167 HD
ATOM     45  C   UNL A   1      42.824  24.014  27.826  1.00  0.00     0.034 A 
ATOM     46  C   UNL A   1      42.191  30.826  30.883  1.00  0.00     0.034 A 
ATOM     47  C   UNL A   1      43.823  24.867  28.466  1.00  0.00     0.049 A 
ATOM     48  C   UNL A   1      42.947  29.731  31.594  1.00  0.00     0.074 A 
ATOM     49  C   UNL A   1      44.679  25.824  27.945  1.00  0.00     0.029 A 
ATOM     50  N   UNL A   1      43.760  25.096  29.832  1.00  0.00    -0.354 N 
ATOM     51  N   UNL A   1      43.181  28.552  31.081  1.00  0.00    -0.248 NA
ATOM     52  C   UNL A   1      43.582  29.923  32.888  1.00  0.00     0.031 C 
ATOM     53  C   UNL A   1      45.081  26.674  29.008  1.00  0.00     0.029 A 
ATOM     54  C   UNL A   1      44.465  26.236  30.168  1.00  0.00     0.049 A 
ATOM     55  H   UNL A   1      43.281  24.526  30.474  1.00  0.00     0.167 HD
ATOM     56  C   UNL A   1      44.050  27.871  31.886  1.00  0.00     0.074 A 
ATOM     57  C   UNL A   1      44.261  28.770  33.012  1.00  0.00     0.031 C 
ATOM     58  C   UNL A   1      44.558  26.644  31.557  1.00  0.00     0.034 A 
BRANCH  45  59
ATOM     59  C   UNL A   1      43.179  22.975  26.790  1.00  0.00     0.023 A 
ATOM     60  C   UNL A   1      42.808  21.631  27.000  1.00  0.00     0.031 A 
ATOM     61  C   UNL A   1      43.826  23.246  25.570  1.00  0.00     0.131 A 
ATOM     62  C   UNL A   1      43.126  20.621  26.077  1.00  0.00     0.055 A 
ATOM     63  C   UNL A   1      44.169  22.236  24.655  1.00  0.00     0.041 A 
ATOM     64  F   UNL A   1      44.121  24.503  25.203  1.00  0.00    -0.206 F 
ATOM     65  C   UNL A   1      43.823  20.913  24.909  1.00  0.00     0.022 A 
BRANCH  62  66
ATOM     66  S   UNL A   1      42.578  18.926  26.422  1.00  0.00     0.124 S 
ATOM     67  O   UNL A   1      41.369  18.824  25.612  1.00  0.00    -0.237 OA
ATOM     68  O   UNL A   1      43.719  18.133  25.978  1.00  0.00    -0.237 OA
ATOM     69  O   UNL A   1      42.355  18.929  27.867  1.00  0.00    -0.744 OA
ENDBRANCH  62  66
ENDBRANCH  45  59
BRANCH  46  70
ATOM     70  C   UNL A   1      40.872  31.436  31.310  1.00  0.00     0.023 A 
ATOM     71  C   UNL A   1      40.069  30.682  32.206  1.00  0.00     0.031 A 
ATOM     72  C   UNL A   1      40.537  32.789  31.154  1.00  0.00     0.131 A 
ATOM     73  C   UNL A   1      39.092  31.298  33.009  1.00  0.00     0.055 A 
ATOM     74  C   UNL A   1      39.504  33.386  31.903  1.00  0.00     0.041 A 
ATOM     75  F   UNL A   1      41.253  33.585  30.349  1.00  0.00    -0.206 F 
ATOM     76  C   UNL A   1      38.801  32.653  32.862  1.00  0.00     0.022 A 
BRANCH  73  77
ATOM     77  S   UNL A   1      38.435  30.392  34.446  1.00  0.00     0.124 S 
ATOM     78  O   UNL A   1      37.512  31.359  35.028  1.00  0.00    -0.237 OA
ATOM     79  O   UNL A   1      37.827  29.213  33.831  1.00  0.00    -0.237 OA
ATOM     80  O   UNL A   1      39.631  30.099  35.230  1.00  0.00    -0.744 OA
ENDBRANCH  73  77
ENDBRANCH  46  70
BRANCH  58  81
ATOM     81  C   UNL A   1      45.289  25.733  32.507  1.00  0.00     0.023 A 
ATOM     82  C   UNL A   1      44.646  24.688  33.171  1.00  0.00     0.031 A 
ATOM     83  C   UNL A   1      46.688  25.827  32.708  1.00  0.00     0.131 A 
ATOM     84  C   UNL A   1      45.334  23.890  34.089  1.00  0.00     0.055 A 
ATOM     85  C   UNL A   1      47.398  24.940  33.518  1.00  0.00     0.041 A 
ATOM     86  F   UNL A   1      47.434  26.777  32.125  1.00  0.00    -0.206 F 
ATOM     87  C   UNL A   1      46.714  23.980  34.244  1.00  0.00     0.022 A 
BRANCH  84  88
ATOM     88  S   UNL A   1      44.341  22.838  35.170  1.00  0.00     0.124 S 
ATOM     89  O   UNL A   1      44.660  21.506  34.658  1.00  0.00    -0.237 OA
ATOM     90  O   UNL A   1      44.877  23.150  36.491  1.00  0.00    -0.237 OA
ATOM     91  O   UNL A   1      42.974  23.288  34.924  1.00  0.00    -0.744 OA
ENDBRANCH  84  88
ENDBRANCH  58  81
ENDBRANCH  32  33
ENDBRANCH  25  27
ENDBRANCH  24  25
ENDBRANCH  23  24
ENDBRANCH   1  23
TORSDOF 17
ENDMDL
