MODEL 1
REMARK VINA RESULT:     -10.2      0.000      0.000
REMARK SMILES C[C@H](C(=O)OCCOC(=O)c1ccc(-c2c3nc(c(-c4cc(S(=O)(=O)[O-])ccc4F)c4ccc([nH]4)c(-c4cc(S(=O)(=O)[O-])ccc4F)c4nc(c(-c5cc(S(=O)(=O)[O-])ccc5F)c5ccc2[nH]5)C=C4)C=C3)cc1)c1ccc2ncccc2c1
REMARK SMILES IDX 7 1 6 2 5 3 3 4 4 5 2 6 1 7 74 8 75 9 83 10 76 11 82 12
REMARK SMILES IDX 77 13 81 14 78 15 80 16 79 17 8 18 9 19 10 20 11 21 12 22
REMARK SMILES IDX 73 23 13 24 72 25 14 26 15 27 16 28 66 29 17 30 71 31 65 32
REMARK SMILES IDX 67 33 18 34 70 35 64 36 63 37 19 39 51 40 31 41 50 42 32 43
REMARK SMILES IDX 35 44 49 45 68 46 33 47 34 48 48 50 69 51 36 52 20 53 21 54
REMARK SMILES IDX 29 55 22 56 28 57 30 58 27 59 23 60 24 61 25 62 26 63 52 64
REMARK SMILES IDX 53 65 61 66 54 67 60 68 62 69 59 70 55 71 56 72 57 73 58 74
REMARK SMILES IDX 37 75 38 76 46 77 39 78 45 79 47 80 44 81 40 82 41 83 42 84
REMARK SMILES IDX 43 85
REMARK H PARENT 67 38 35 49
REMARK Flexibility Score: inf
ROOT
ATOM      1  C   UNL A   1      41.232  19.912  26.452  1.00  0.00     0.275 C 
ENDROOT
BRANCH   1   2
ATOM      2  C   UNL A   1      42.631  20.511  26.352  1.00  0.00     0.274 C 
BRANCH   2   3
ATOM      3  O   UNL A   1      42.745  21.347  25.185  1.00  0.00    -0.462 OA
BRANCH   3   4
ATOM      4  C   UNL A   1      43.474  22.493  25.303  1.00  0.00     0.313 C 
ATOM      5  O   UNL A   1      43.054  23.601  24.989  1.00  0.00    -0.252 OA
BRANCH   4   6
ATOM      6  C   UNL A   1      44.916  22.225  25.754  1.00  0.00     0.126 C 
ATOM      7  C   UNL A   1      45.849  22.153  24.535  1.00  0.00     0.025 C 
BRANCH   6   8
ATOM      8  C   UNL A   1      45.418  23.149  26.861  1.00  0.00    -0.033 A 
ATOM      9  C   UNL A   1      46.595  23.900  26.772  1.00  0.00     0.007 A 
ATOM     10  C   UNL A   1      44.664  23.265  28.042  1.00  0.00     0.015 A 
ATOM     11  C   UNL A   1      47.003  24.721  27.833  1.00  0.00     0.029 A 
ATOM     12  C   UNL A   1      45.059  24.116  29.089  1.00  0.00     0.000 A 
ATOM     13  C   UNL A   1      46.256  24.850  28.995  1.00  0.00     0.070 A 
ATOM     14  C   UNL A   1      44.278  24.268  30.242  1.00  0.00     0.012 A 
ATOM     15  N   UNL A   1      46.678  25.659  29.986  1.00  0.00    -0.256 NA
ATOM     16  C   UNL A   1      44.699  25.120  31.253  1.00  0.00     0.021 A 
ATOM     17  C   UNL A   1      45.899  25.782  31.081  1.00  0.00     0.112 A 
ENDBRANCH   6   8
ENDBRANCH   4   6
ENDBRANCH   3   4
ENDBRANCH   2   3
ENDBRANCH   1   2
BRANCH   1  18
ATOM     18  O   UNL A   1      40.403  20.766  27.254  1.00  0.00    -0.458 OA
BRANCH  18  19
ATOM     19  C   UNL A   1      39.625  21.638  26.572  1.00  0.00     0.338 C 
ATOM     20  O   UNL A   1      38.768  21.386  25.747  1.00  0.00    -0.246 OA
BRANCH  19  21
ATOM     21  C   UNL A   1      39.965  23.000  27.007  1.00  0.00     0.060 A 
ATOM     22  C   UNL A   1      39.442  24.085  26.304  1.00  0.00     0.016 A 
ATOM     23  C   UNL A   1      40.861  23.197  28.055  1.00  0.00     0.016 A 
ATOM     24  C   UNL A   1      39.850  25.379  26.617  1.00  0.00     0.010 A 
ATOM     25  C   UNL A   1      41.225  24.501  28.406  1.00  0.00     0.010 A 
ATOM     26  C   UNL A   1      40.742  25.603  27.674  1.00  0.00    -0.014 A 
BRANCH  26  27
ATOM     27  C   UNL A   1      41.218  26.978  27.978  1.00  0.00     0.031 A 
ATOM     28  C   UNL A   1      42.624  27.375  27.615  1.00  0.00     0.074 A 
ATOM     29  C   UNL A   1      40.398  27.868  28.569  1.00  0.00     0.049 A 
ATOM     30  N   UNL A   1      43.288  28.457  27.931  1.00  0.00    -0.248 NA
ATOM     31  C   UNL A   1      43.384  26.419  26.797  1.00  0.00     0.031 C 
ATOM     32  C   UNL A   1      38.999  27.623  28.924  1.00  0.00     0.029 A 
ATOM     33  N   UNL A   1      40.622  29.160  28.976  1.00  0.00    -0.354 N 
ATOM     34  C   UNL A   1      44.561  28.292  27.392  1.00  0.00     0.074 A 
ATOM     35  C   UNL A   1      44.574  27.001  26.737  1.00  0.00     0.031 C 
ATOM     36  C   UNL A   1      38.486  28.733  29.478  1.00  0.00     0.029 A 
ATOM     37  C   UNL A   1      39.535  29.742  29.585  1.00  0.00     0.049 A 
ATOM     38  H   UNL A   1      41.480  29.625  28.844  1.00  0.00     0.167 HD
ATOM     39  C   UNL A   1      45.618  29.140  27.444  1.00  0.00     0.034 A 
ATOM     40  C   UNL A   1      39.409  30.937  30.197  1.00  0.00     0.034 A 
ATOM     41  C   UNL A   1      45.578  30.439  28.072  1.00  0.00     0.049 A 
ATOM     42  C   UNL A   1      40.608  31.845  30.277  1.00  0.00     0.074 A 
ATOM     43  C   UNL A   1      46.586  31.382  28.171  1.00  0.00     0.029 A 
ATOM     44  N   UNL A   1      44.468  30.980  28.706  1.00  0.00    -0.354 N 
ATOM     45  N   UNL A   1      41.822  31.653  29.813  1.00  0.00    -0.248 NA
ATOM     46  C   UNL A   1      40.423  33.124  30.973  1.00  0.00     0.031 C 
ATOM     47  C   UNL A   1      46.100  32.470  28.907  1.00  0.00     0.029 A 
ATOM     48  C   UNL A   1      44.771  32.233  29.216  1.00  0.00     0.049 A 
ATOM     49  H   UNL A   1      43.591  30.537  28.783  1.00  0.00     0.167 HD
ATOM     50  C   UNL A   1      42.541  32.795  30.152  1.00  0.00     0.074 A 
ATOM     51  C   UNL A   1      41.621  33.677  30.841  1.00  0.00     0.031 C 
ATOM     52  C   UNL A   1      43.844  33.089  29.915  1.00  0.00     0.034 A 
BRANCH  39  53
ATOM     53  C   UNL A   1      46.922  28.655  26.859  1.00  0.00     0.023 A 
ATOM     54  C   UNL A   1      47.100  28.474  25.476  1.00  0.00     0.031 A 
ATOM     55  C   UNL A   1      47.996  28.336  27.709  1.00  0.00     0.131 A 
ATOM     56  C   UNL A   1      48.297  27.925  24.992  1.00  0.00     0.055 A 
ATOM     57  C   UNL A   1      49.210  27.857  27.215  1.00  0.00     0.041 A 
ATOM     58  F   UNL A   1      47.876  28.469  29.040  1.00  0.00    -0.206 F 
ATOM     59  C   UNL A   1      49.362  27.635  25.850  1.00  0.00     0.022 A 
BRANCH  56  60
ATOM     60  S   UNL A   1      48.400  27.471  23.239  1.00  0.00     0.124 S 
ATOM     61  O   UNL A   1      48.247  26.019  23.301  1.00  0.00    -0.237 OA
ATOM     62  O   UNL A   1      47.284  28.207  22.657  1.00  0.00    -0.237 OA
ATOM     63  O   UNL A   1      49.728  27.934  22.842  1.00  0.00    -0.744 OA
ENDBRANCH  56  60
ENDBRANCH  39  53
BRANCH  40  64
ATOM     64  C   UNL A   1      38.120  31.321  30.840  1.00  0.00     0.023 A 
ATOM     65  C   UNL A   1      37.109  31.966  30.111  1.00  0.00     0.031 A 
ATOM     66  C   UNL A   1      37.899  31.084  32.209  1.00  0.00     0.131 A 
ATOM     67  C   UNL A   1      35.936  32.381  30.761  1.00  0.00     0.055 A 
ATOM     68  C   UNL A   1      36.712  31.454  32.840  1.00  0.00     0.041 A 
ATOM     69  F   UNL A   1      38.836  30.472  32.952  1.00  0.00    -0.206 F 
ATOM     70  C   UNL A   1      35.725  32.117  32.117  1.00  0.00     0.022 A 
BRANCH  67  71
ATOM     71  S   UNL A   1      34.712  33.337  29.824  1.00  0.00     0.124 S 
ATOM     72  O   UNL A   1      35.558  34.298  29.124  1.00  0.00    -0.237 OA
ATOM     73  O   UNL A   1      34.091  32.307  28.998  1.00  0.00    -0.237 OA
ATOM     74  O   UNL A   1      33.853  33.902  30.863  1.00  0.00    -0.744 OA
ENDBRANCH  67  71
ENDBRANCH  40  64
BRANCH  52  75
ATOM     75  C   UNL A   1      44.328  34.438  30.382  1.00  0.00     0.023 A 
ATOM     76  C   UNL A   1      44.819  34.634  31.684  1.00  0.00     0.031 A 
ATOM     77  C   UNL A   1      44.271  35.545  29.518  1.00  0.00     0.131 A 
ATOM     78  C   UNL A   1      45.188  35.921  32.103  1.00  0.00     0.055 A 
ATOM     79  C   UNL A   1      44.685  36.814  29.924  1.00  0.00     0.041 A 
ATOM     80  F   UNL A   1      43.808  35.410  28.264  1.00  0.00    -0.206 F 
ATOM     81  C   UNL A   1      45.136  37.010  31.228  1.00  0.00     0.022 A 
BRANCH  78  82
ATOM     82  S   UNL A   1      45.663  36.173  33.835  1.00  0.00     0.124 S 
ATOM     83  O   UNL A   1      47.009  36.723  33.704  1.00  0.00    -0.237 OA
ATOM     84  O   UNL A   1      44.640  37.099  34.310  1.00  0.00    -0.237 OA
ATOM     85  O   UNL A   1      45.595  34.830  34.409  1.00  0.00    -0.744 OA
ENDBRANCH  78  82
ENDBRANCH  52  75
ENDBRANCH  26  27
ENDBRANCH  19  21
ENDBRANCH  18  19
ENDBRANCH   1  18
TORSDOF 15
ENDMDL
MODEL 2
REMARK VINA RESULT:      -9.8      3.415      9.654
REMARK SMILES C[C@H](C(=O)OCCOC(=O)c1ccc(-c2c3nc(c(-c4cc(S(=O)(=O)[O-])ccc4F)c4ccc([nH]4)c(-c4cc(S(=O)(=O)[O-])ccc4F)c4nc(c(-c5cc(S(=O)(=O)[O-])ccc5F)c5ccc2[nH]5)C=C4)C=C3)cc1)c1ccc2ncccc2c1
REMARK SMILES IDX 7 1 6 2 5 3 3 4 4 5 2 6 1 7 74 8 75 9 83 10 76 11 82 12
REMARK SMILES IDX 77 13 81 14 78 15 80 16 79 17 8 18 9 19 10 20 11 21 12 22
REMARK SMILES IDX 73 23 13 24 72 25 14 26 15 27 16 28 66 29 17 30 71 31 65 32
REMARK SMILES IDX 67 33 18 34 70 35 64 36 63 37 19 39 51 40 31 41 50 42 32 43
REMARK SMILES IDX 35 44 49 45 68 46 33 47 34 48 48 50 69 51 36 52 20 53 21 54
REMARK SMILES IDX 29 55 22 56 28 57 30 58 27 59 23 60 24 61 25 62 26 63 52 64
REMARK SMILES IDX 53 65 61 66 54 67 60 68 62 69 59 70 55 71 56 72 57 73 58 74
REMARK SMILES IDX 37 75 38 76 46 77 39 78 45 79 47 80 44 81 40 82 41 83 42 84
REMARK SMILES IDX 43 85
REMARK H PARENT 67 38 35 49
REMARK Flexibility Score: inf
ROOT
ATOM      1  C   UNL A   1      36.254  20.748  25.371  1.00  0.00     0.275 C 
ENDROOT
BRANCH   1   2
ATOM      2  C   UNL A   1      35.154  21.592  26.009  1.00  0.00     0.274 C 
BRANCH   2   3
ATOM      3  O   UNL A   1      33.962  21.570  25.201  1.00  0.00    -0.462 OA
BRANCH   3   4
ATOM      4  C   UNL A   1      33.435  22.770  24.828  1.00  0.00     0.313 C 
ATOM      5  O   UNL A   1      32.232  23.000  24.786  1.00  0.00    -0.252 OA
BRANCH   4   6
ATOM      6  C   UNL A   1      34.508  23.757  24.349  1.00  0.00     0.126 C 
ATOM      7  C   UNL A   1      35.106  23.284  23.015  1.00  0.00     0.025 C 
BRANCH   6   8
ATOM      8  C   UNL A   1      34.070  25.220  24.345  1.00  0.00    -0.033 A 
ATOM      9  C   UNL A   1      33.658  25.903  23.195  1.00  0.00     0.007 A 
ATOM     10  C   UNL A   1      34.073  25.933  25.556  1.00  0.00     0.015 A 
ATOM     11  C   UNL A   1      33.278  27.252  23.261  1.00  0.00     0.029 A 
ATOM     12  C   UNL A   1      33.660  27.274  25.623  1.00  0.00     0.000 A 
ATOM     13  C   UNL A   1      33.267  27.956  24.457  1.00  0.00     0.070 A 
ATOM     14  C   UNL A   1      33.615  27.965  26.841  1.00  0.00     0.012 A 
ATOM     15  N   UNL A   1      32.885  29.248  24.478  1.00  0.00    -0.256 NA
ATOM     16  C   UNL A   1      33.198  29.289  26.868  1.00  0.00     0.021 A 
ATOM     17  C   UNL A   1      32.853  29.882  25.669  1.00  0.00     0.112 A 
ENDBRANCH   6   8
ENDBRANCH   4   6
ENDBRANCH   3   4
ENDBRANCH   2   3
ENDBRANCH   1   2
BRANCH   1  18
ATOM     18  O   UNL A   1      37.400  21.573  25.113  1.00  0.00    -0.458 OA
BRANCH  18  19
ATOM     19  C   UNL A   1      38.553  21.175  25.697  1.00  0.00     0.338 C 
ATOM     20  O   UNL A   1      39.007  20.049  25.761  1.00  0.00    -0.246 OA
BRANCH  19  21
ATOM     21  C   UNL A   1      39.222  22.359  26.252  1.00  0.00     0.060 A 
ATOM     22  C   UNL A   1      38.669  23.619  26.023  1.00  0.00     0.016 A 
ATOM     23  C   UNL A   1      40.433  22.228  26.929  1.00  0.00     0.016 A 
ATOM     24  C   UNL A   1      39.350  24.763  26.429  1.00  0.00     0.010 A 
ATOM     25  C   UNL A   1      41.087  23.375  27.387  1.00  0.00     0.010 A 
ATOM     26  C   UNL A   1      40.564  24.655  27.120  1.00  0.00    -0.014 A 
BRANCH  26  27
ATOM     27  C   UNL A   1      41.318  25.875  27.511  1.00  0.00     0.031 A 
ATOM     28  C   UNL A   1      40.662  26.905  28.391  1.00  0.00     0.074 A 
ATOM     29  C   UNL A   1      42.584  26.061  27.087  1.00  0.00     0.049 A 
ATOM     30  N   UNL A   1      41.074  28.103  28.716  1.00  0.00    -0.248 NA
ATOM     31  C   UNL A   1      39.362  26.536  28.972  1.00  0.00     0.031 C 
ATOM     32  C   UNL A   1      43.350  25.114  26.273  1.00  0.00     0.029 A 
ATOM     33  N   UNL A   1      43.450  27.107  27.283  1.00  0.00    -0.354 N 
ATOM     34  C   UNL A   1      40.064  28.652  29.501  1.00  0.00     0.074 A 
ATOM     35  C   UNL A   1      39.017  27.655  29.593  1.00  0.00     0.031 C 
ATOM     36  C   UNL A   1      44.576  25.617  26.055  1.00  0.00     0.029 A 
ATOM     37  C   UNL A   1      44.661  26.946  26.649  1.00  0.00     0.049 A 
ATOM     38  H   UNL A   1      43.226  27.898  27.825  1.00  0.00     0.167 HD
ATOM     39  C   UNL A   1      40.016  29.875  30.085  1.00  0.00     0.034 A 
ATOM     40  C   UNL A   1      45.704  27.792  26.525  1.00  0.00     0.034 A 
ATOM     41  C   UNL A   1      41.083  30.844  30.011  1.00  0.00     0.049 A 
ATOM     42  C   UNL A   1      45.612  29.159  27.149  1.00  0.00     0.074 A 
ATOM     43  C   UNL A   1      41.144  32.106  30.576  1.00  0.00     0.029 A 
ATOM     44  N   UNL A   1      42.280  30.656  29.333  1.00  0.00    -0.354 N 
ATOM     45  N   UNL A   1      44.627  29.687  27.840  1.00  0.00    -0.248 NA
ATOM     46  C   UNL A   1      46.765  30.048  26.966  1.00  0.00     0.031 C 
ATOM     47  C   UNL A   1      42.355  32.699  30.197  1.00  0.00     0.029 A 
ATOM     48  C   UNL A   1      43.077  31.785  29.447  1.00  0.00     0.049 A 
ATOM     49  H   UNL A   1      42.527  29.839  28.842  1.00  0.00     0.167 HD
ATOM     50  C   UNL A   1      45.051  30.967  28.183  1.00  0.00     0.074 A 
ATOM     51  C   UNL A   1      46.385  31.124  27.641  1.00  0.00     0.031 C 
ATOM     52  C   UNL A   1      44.397  31.928  28.884  1.00  0.00     0.034 A 
BRANCH  39  53
ATOM     53  C   UNL A   1      38.740  30.251  30.798  1.00  0.00     0.023 A 
ATOM     54  C   UNL A   1      37.692  30.926  30.149  1.00  0.00     0.031 A 
ATOM     55  C   UNL A   1      38.589  29.956  32.165  1.00  0.00     0.131 A 
ATOM     56  C   UNL A   1      36.569  31.342  30.883  1.00  0.00     0.055 A 
ATOM     57  C   UNL A   1      37.439  30.310  32.872  1.00  0.00     0.041 A 
ATOM     58  F   UNL A   1      39.567  29.332  32.842  1.00  0.00    -0.206 F 
ATOM     59  C   UNL A   1      36.426  31.020  32.235  1.00  0.00     0.022 A 
BRANCH  56  60
ATOM     60  S   UNL A   1      35.357  32.424  30.077  1.00  0.00     0.124 S 
ATOM     61  O   UNL A   1      34.879  31.573  28.990  1.00  0.00    -0.237 OA
ATOM     62  O   UNL A   1      34.405  32.685  31.150  1.00  0.00    -0.237 OA
ATOM     63  O   UNL A   1      36.152  33.575  29.655  1.00  0.00    -0.744 OA
ENDBRANCH  56  60
ENDBRANCH  39  53
BRANCH  40  64
ATOM     64  C   UNL A   1      46.900  27.399  25.728  1.00  0.00     0.023 A 
ATOM     65  C   UNL A   1      47.045  27.799  24.390  1.00  0.00     0.031 A 
ATOM     66  C   UNL A   1      47.899  26.579  26.284  1.00  0.00     0.131 A 
ATOM     67  C   UNL A   1      48.146  27.353  23.643  1.00  0.00     0.055 A 
ATOM     68  C   UNL A   1      49.017  26.178  25.552  1.00  0.00     0.041 A 
ATOM     69  F   UNL A   1      47.807  26.166  27.559  1.00  0.00    -0.206 F 
ATOM     70  C   UNL A   1      49.140  26.557  24.218  1.00  0.00     0.022 A 
BRANCH  67  71
ATOM     71  S   UNL A   1      48.229  27.771  21.880  1.00  0.00     0.124 S 
ATOM     72  O   UNL A   1      48.431  26.460  21.272  1.00  0.00    -0.237 OA
ATOM     73  O   UNL A   1      46.927  28.389  21.654  1.00  0.00    -0.237 OA
ATOM     74  O   UNL A   1      49.370  28.680  21.798  1.00  0.00    -0.744 OA
ENDBRANCH  67  71
ENDBRANCH  40  64
BRANCH  52  75
ATOM     75  C   UNL A   1      45.143  33.215  29.125  1.00  0.00     0.023 A 
ATOM     76  C   UNL A   1      45.057  34.295  28.230  1.00  0.00     0.031 A 
ATOM     77  C   UNL A   1      45.971  33.350  30.253  1.00  0.00     0.131 A 
ATOM     78  C   UNL A   1      45.827  35.446  28.451  1.00  0.00     0.055 A 
ATOM     79  C   UNL A   1      46.697  34.517  30.494  1.00  0.00     0.041 A 
ATOM     80  F   UNL A   1      46.089  32.346  31.138  1.00  0.00    -0.206 F 
ATOM     81  C   UNL A   1      46.636  35.569  29.584  1.00  0.00     0.022 A 
BRANCH  78  82
ATOM     82  S   UNL A   1      45.819  36.756  27.196  1.00  0.00     0.124 S 
ATOM     83  O   UNL A   1      46.412  37.875  27.921  1.00  0.00    -0.237 OA
ATOM     84  O   UNL A   1      46.638  36.179  26.135  1.00  0.00    -0.237 OA
ATOM     85  O   UNL A   1      44.403  36.910  26.868  1.00  0.00    -0.744 OA
ENDBRANCH  78  82
ENDBRANCH  52  75
ENDBRANCH  26  27
ENDBRANCH  19  21
ENDBRANCH  18  19
ENDBRANCH   1  18
TORSDOF 15
ENDMDL
MODEL 3
REMARK VINA RESULT:      -9.7      3.390      9.722
REMARK SMILES C[C@H](C(=O)OCCOC(=O)c1ccc(-c2c3nc(c(-c4cc(S(=O)(=O)[O-])ccc4F)c4ccc([nH]4)c(-c4cc(S(=O)(=O)[O-])ccc4F)c4nc(c(-c5cc(S(=O)(=O)[O-])ccc5F)c5ccc2[nH]5)C=C4)C=C3)cc1)c1ccc2ncccc2c1
REMARK SMILES IDX 7 1 6 2 5 3 3 4 4 5 2 6 1 7 74 8 75 9 83 10 76 11 82 12
REMARK SMILES IDX 77 13 81 14 78 15 80 16 79 17 8 18 9 19 10 20 11 21 12 22
REMARK SMILES IDX 73 23 13 24 72 25 14 26 15 27 16 28 66 29 17 30 71 31 65 32
REMARK SMILES IDX 67 33 18 34 70 35 64 36 63 37 19 39 51 40 31 41 50 42 32 43
REMARK SMILES IDX 35 44 49 45 68 46 33 47 34 48 48 50 69 51 36 52 20 53 21 54
REMARK SMILES IDX 29 55 22 56 28 57 30 58 27 59 23 60 24 61 25 62 26 63 52 64
REMARK SMILES IDX 53 65 61 66 54 67 60 68 62 69 59 70 55 71 56 72 57 73 58 74
REMARK SMILES IDX 37 75 38 76 46 77 39 78 45 79 47 80 44 81 40 82 41 83 42 84
REMARK SMILES IDX 43 85
REMARK H PARENT 67 38 35 49
REMARK Flexibility Score: inf
ROOT
ATOM      1  C   UNL A   1      36.642  20.582  25.045  1.00  0.00     0.275 C 
ENDROOT
BRANCH   1   2
ATOM      2  C   UNL A   1      35.292  21.128  24.592  1.00  0.00     0.274 C 
BRANCH   2   3
ATOM      3  O   UNL A   1      34.219  20.511  25.328  1.00  0.00    -0.462 OA
BRANCH   3   4
ATOM      4  C   UNL A   1      32.949  20.727  24.885  1.00  0.00     0.313 C 
ATOM      5  O   UNL A   1      32.024  19.942  25.063  1.00  0.00    -0.252 OA
BRANCH   4   6
ATOM      6  C   UNL A   1      32.834  21.999  24.034  1.00  0.00     0.126 C 
ATOM      7  C   UNL A   1      32.063  21.703  22.738  1.00  0.00     0.025 C 
BRANCH   6   8
ATOM      8  C   UNL A   1      32.325  23.225  24.789  1.00  0.00    -0.033 A 
ATOM      9  C   UNL A   1      31.045  23.316  25.347  1.00  0.00     0.007 A 
ATOM     10  C   UNL A   1      33.179  24.331  24.942  1.00  0.00     0.015 A 
ATOM     11  C   UNL A   1      30.638  24.478  26.019  1.00  0.00     0.029 A 
ATOM     12  C   UNL A   1      32.778  25.480  25.646  1.00  0.00     0.000 A 
ATOM     13  C   UNL A   1      31.482  25.567  26.185  1.00  0.00     0.070 A 
ATOM     14  C   UNL A   1      33.651  26.558  25.841  1.00  0.00     0.012 A 
ATOM     15  N   UNL A   1      31.055  26.660  26.847  1.00  0.00    -0.256 NA
ATOM     16  C   UNL A   1      33.220  27.675  26.544  1.00  0.00     0.021 A 
ATOM     17  C   UNL A   1      31.923  27.679  27.017  1.00  0.00     0.112 A 
ENDBRANCH   6   8
ENDBRANCH   4   6
ENDBRANCH   3   4
ENDBRANCH   2   3
ENDBRANCH   1   2
BRANCH   1  18
ATOM     18  O   UNL A   1      37.397  21.631  25.670  1.00  0.00    -0.458 OA
BRANCH  18  19
ATOM     19  C   UNL A   1      38.689  21.341  25.945  1.00  0.00     0.338 C 
ATOM     20  O   UNL A   1      39.277  20.295  25.750  1.00  0.00    -0.246 OA
BRANCH  19  21
ATOM     21  C   UNL A   1      39.319  22.536  26.522  1.00  0.00     0.060 A 
ATOM     22  C   UNL A   1      38.859  23.796  26.138  1.00  0.00     0.016 A 
ATOM     23  C   UNL A   1      40.410  22.410  27.378  1.00  0.00     0.016 A 
ATOM     24  C   UNL A   1      39.520  24.941  26.572  1.00  0.00     0.010 A 
ATOM     25  C   UNL A   1      41.038  23.563  27.860  1.00  0.00     0.010 A 
ATOM     26  C   UNL A   1      40.614  24.839  27.441  1.00  0.00    -0.014 A 
BRANCH  26  27
ATOM     27  C   UNL A   1      41.353  26.057  27.867  1.00  0.00     0.031 A 
ATOM     28  C   UNL A   1      40.653  27.098  28.699  1.00  0.00     0.074 A 
ATOM     29  C   UNL A   1      42.642  26.230  27.517  1.00  0.00     0.049 A 
ATOM     30  N   UNL A   1      41.054  28.296  29.038  1.00  0.00    -0.248 NA
ATOM     31  C   UNL A   1      39.318  26.744  29.204  1.00  0.00     0.031 C 
ATOM     32  C   UNL A   1      43.448  25.271  26.758  1.00  0.00     0.029 A 
ATOM     33  N   UNL A   1      43.503  27.271  27.756  1.00  0.00    -0.354 N 
ATOM     34  C   UNL A   1      40.004  28.858  29.758  1.00  0.00     0.074 A 
ATOM     35  C   UNL A   1      38.945  27.870  29.795  1.00  0.00     0.031 C 
ATOM     36  C   UNL A   1      44.688  25.763  26.609  1.00  0.00     0.029 A 
ATOM     37  C   UNL A   1      44.748  27.097  27.197  1.00  0.00     0.049 A 
ATOM     38  H   UNL A   1      43.253  28.068  28.278  1.00  0.00     0.167 HD
ATOM     39  C   UNL A   1      39.930  30.087  30.329  1.00  0.00     0.034 A 
ATOM     40  C   UNL A   1      45.803  27.934  27.128  1.00  0.00     0.034 A 
ATOM     41  C   UNL A   1      41.007  31.048  30.311  1.00  0.00     0.049 A 
ATOM     42  C   UNL A   1      45.685  29.307  27.736  1.00  0.00     0.074 A 
ATOM     43  C   UNL A   1      41.045  32.314  30.868  1.00  0.00     0.029 A 
ATOM     44  N   UNL A   1      42.241  30.846  29.706  1.00  0.00    -0.354 N 
ATOM     45  N   UNL A   1      44.665  29.848  28.362  1.00  0.00    -0.248 NA
ATOM     46  C   UNL A   1      46.854  30.186  27.614  1.00  0.00     0.031 C 
ATOM     47  C   UNL A   1      42.280  32.895  30.557  1.00  0.00     0.029 A 
ATOM     48  C   UNL A   1      43.038  31.970  29.858  1.00  0.00     0.049 A 
ATOM     49  H   UNL A   1      42.511  30.023  29.237  1.00  0.00     0.167 HD
ATOM     50  C   UNL A   1      45.077  31.127  28.720  1.00  0.00     0.074 A 
ATOM     51  C   UNL A   1      46.443  31.270  28.257  1.00  0.00     0.031 C 
ATOM     52  C   UNL A   1      44.390  32.098  29.374  1.00  0.00     0.034 A 
BRANCH  39  53
ATOM     53  C   UNL A   1      38.617  30.478  30.962  1.00  0.00     0.023 A 
ATOM     54  C   UNL A   1      37.600  31.122  30.237  1.00  0.00     0.031 A 
ATOM     55  C   UNL A   1      38.398  30.230  32.329  1.00  0.00     0.131 A 
ATOM     56  C   UNL A   1      36.439  31.555  30.897  1.00  0.00     0.055 A 
ATOM     57  C   UNL A   1      37.212  30.599  32.963  1.00  0.00     0.041 A 
ATOM     58  F   UNL A   1      39.343  29.637  33.076  1.00  0.00    -0.206 F 
ATOM     59  C   UNL A   1      36.228  31.279  32.251  1.00  0.00     0.022 A 
BRANCH  56  60
ATOM     60  S   UNL A   1      35.264  32.599  29.993  1.00  0.00     0.124 S 
ATOM     61  O   UNL A   1      34.285  32.910  31.033  1.00  0.00    -0.237 OA
ATOM     62  O   UNL A   1      36.101  33.708  29.551  1.00  0.00    -0.237 OA
ATOM     63  O   UNL A   1      34.774  31.724  28.930  1.00  0.00    -0.744 OA
ENDBRANCH  56  60
ENDBRANCH  39  53
BRANCH  40  64
ATOM     64  C   UNL A   1      47.042  27.526  26.406  1.00  0.00     0.023 A 
ATOM     65  C   UNL A   1      47.203  27.787  25.037  1.00  0.00     0.031 A 
ATOM     66  C   UNL A   1      48.067  26.828  27.071  1.00  0.00     0.131 A 
ATOM     67  C   UNL A   1      48.349  27.327  24.369  1.00  0.00     0.055 A 
ATOM     68  C   UNL A   1      49.226  26.415  26.414  1.00  0.00     0.041 A 
ATOM     69  F   UNL A   1      47.960  26.551  28.381  1.00  0.00    -0.206 F 
ATOM     70  C   UNL A   1      49.366  26.654  25.050  1.00  0.00     0.022 A 
BRANCH  67  71
ATOM     71  S   UNL A   1      48.460  27.556  22.572  1.00  0.00     0.124 S 
ATOM     72  O   UNL A   1      47.238  28.302  22.291  1.00  0.00    -0.237 OA
ATOM     73  O   UNL A   1      49.710  28.296  22.438  1.00  0.00    -0.237 OA
ATOM     74  O   UNL A   1      48.489  26.188  22.056  1.00  0.00    -0.744 OA
ENDBRANCH  67  71
ENDBRANCH  40  64
BRANCH  52  75
ATOM     75  C   UNL A   1      45.131  33.382  29.648  1.00  0.00     0.023 A 
ATOM     76  C   UNL A   1      45.869  33.567  30.830  1.00  0.00     0.031 A 
ATOM     77  C   UNL A   1      45.075  34.441  28.725  1.00  0.00     0.131 A 
ATOM     78  C   UNL A   1      46.481  34.804  31.082  1.00  0.00     0.055 A 
ATOM     79  C   UNL A   1      45.726  35.652  28.959  1.00  0.00     0.041 A 
ATOM     80  F   UNL A   1      44.381  34.314  27.582  1.00  0.00    -0.206 F 
ATOM     81  C   UNL A   1      46.425  35.844  30.149  1.00  0.00     0.022 A 
BRANCH  78  82
ATOM     82  S   UNL A   1      47.288  35.069  32.685  1.00  0.00     0.124 S 
ATOM     83  O   UNL A   1      46.861  36.423  33.021  1.00  0.00    -0.237 OA
ATOM     84  O   UNL A   1      46.720  34.001  33.502  1.00  0.00    -0.237 OA
ATOM     85  O   UNL A   1      48.711  34.923  32.382  1.00  0.00    -0.744 OA
ENDBRANCH  78  82
ENDBRANCH  52  75
ENDBRANCH  26  27
ENDBRANCH  19  21
ENDBRANCH  18  19
ENDBRANCH   1  18
TORSDOF 15
ENDMDL
