MODEL 1
REMARK VINA RESULT:     -13.1      0.000      0.000
REMARK SMILES Cc1c(CC(=O)OCCOC(=O)c2ccc(-c3c4nc(c(-c5cc(S(=O)(=O)[O-])ccc5F)c5ccc([nH]5)c(-c5cc(S(=O)(=O)[O-])ccc5F)c5nc(c(-c6cc(S(=O)(=O)[O-])ccc6F)c6ccc3[nH]6)C=C5)C=C4)cc2)c2ccccc2n1C(=O)c1ccc(Cl)cc1
REMARK SMILES IDX 8 1 7 2 5 3 6 4 4 5 3 6 1 7 2 8 82 9 76 10 81 11 77 12 80 13
REMARK SMILES IDX 78 14 79 15 83 16 84 17 85 18 86 19 91 20 87 21 90 22 88 23
REMARK SMILES IDX 89 24 9 25 10 26 11 27 12 28 13 29 14 30 75 31 15 32 74 33
REMARK SMILES IDX 16 34 17 35 18 36 68 37 19 38 73 39 67 40 69 41 20 42 72 43
REMARK SMILES IDX 66 44 65 45 21 47 53 48 33 49 52 50 34 51 37 52 51 53 70 54
REMARK SMILES IDX 35 55 36 56 50 58 71 59 38 60 22 61 23 62 31 63 24 64 30 65
REMARK SMILES IDX 32 66 29 67 25 68 26 69 27 70 28 71 54 72 55 73 63 74 56 75
REMARK SMILES IDX 62 76 64 77 61 78 57 79 58 80 59 81 60 82 39 83 40 84 48 85
REMARK SMILES IDX 41 86 47 87 49 88 46 89 42 90 43 91 44 92 45 93
REMARK H PARENT 69 46 37 57
REMARK Flexibility Score: inf
ROOT
ATOM      1  C   UNL A   1      34.739  20.040  24.765  1.00  0.00     0.274 C 
ENDROOT
BRANCH   1   2
ATOM      2  O   UNL A   1      33.466  19.704  25.355  1.00  0.00    -0.462 OA
BRANCH   2   3
ATOM      3  C   UNL A   1      32.379  20.113  24.654  1.00  0.00     0.310 C 
ATOM      4  O   UNL A   1      32.091  19.687  23.538  1.00  0.00    -0.252 OA
BRANCH   3   5
ATOM      5  C   UNL A   1      31.578  21.210  25.292  1.00  0.00     0.160 C 
BRANCH   5   6
ATOM      6  C   UNL A   1      31.533  22.599  24.715  1.00  0.00    -0.008 A 
ATOM      7  C   UNL A   1      30.729  23.670  26.925  1.00  0.00     0.065 C 
ATOM      8  C   UNL A   1      31.113  23.683  25.477  1.00  0.00     0.028 A 
ATOM      9  N   UNL A   1      31.104  24.817  24.680  1.00  0.00    -0.280 N 
ATOM     10  C   UNL A   1      32.074  23.154  23.507  1.00  0.00     0.004 A 
ATOM     11  C   UNL A   1      31.909  24.545  23.565  1.00  0.00     0.056 A 
ATOM     12  C   UNL A   1      32.746  22.635  22.378  1.00  0.00     0.010 A 
ATOM     13  C   UNL A   1      32.482  25.386  22.578  1.00  0.00     0.027 A 
ATOM     14  C   UNL A   1      33.319  23.465  21.407  1.00  0.00     0.001 A 
ATOM     15  C   UNL A   1      33.188  24.834  21.510  1.00  0.00     0.002 A 
BRANCH   9  16
ATOM     16  C   UNL A   1      30.390  26.013  24.942  1.00  0.00     0.262 C 
ATOM     17  O   UNL A   1      29.185  26.071  24.701  1.00  0.00    -0.268 OA
BRANCH  16  18
ATOM     18  C   UNL A   1      31.012  27.246  25.426  1.00  0.00     0.040 A 
ATOM     19  C   UNL A   1      31.456  27.324  26.751  1.00  0.00     0.015 A 
ATOM     20  C   UNL A   1      31.057  28.351  24.572  1.00  0.00     0.015 A 
ATOM     21  C   UNL A   1      31.895  28.550  27.244  1.00  0.00     0.021 A 
ATOM     22  C   UNL A   1      31.503  29.572  25.073  1.00  0.00     0.021 A 
ATOM     23  C   UNL A   1      31.906  29.669  26.408  1.00  0.00     0.041 A 
ATOM     24  Cl  UNL A   1      32.393  31.194  27.039  1.00  0.00    -0.084 Cl
ENDBRANCH  16  18
ENDBRANCH   9  16
ENDBRANCH   5   6
ENDBRANCH   3   5
ENDBRANCH   2   3
ENDBRANCH   1   2
BRANCH   1  25
ATOM     25  C   UNL A   1      35.403  21.186  25.534  1.00  0.00     0.275 C 
BRANCH  25  26
ATOM     26  O   UNL A   1      36.649  21.510  24.900  1.00  0.00    -0.458 OA
BRANCH  26  27
ATOM     27  C   UNL A   1      37.732  20.761  25.229  1.00  0.00     0.338 C 
ATOM     28  O   UNL A   1      37.934  19.592  24.949  1.00  0.00    -0.246 OA
BRANCH  27  29
ATOM     29  C   UNL A   1      38.751  21.732  25.672  1.00  0.00     0.060 A 
ATOM     30  C   UNL A   1      39.966  21.289  26.194  1.00  0.00     0.016 A 
ATOM     31  C   UNL A   1      38.362  23.067  25.808  1.00  0.00     0.016 A 
ATOM     32  C   UNL A   1      40.709  22.152  26.990  1.00  0.00     0.010 A 
ATOM     33  C   UNL A   1      39.070  23.903  26.651  1.00  0.00     0.010 A 
ATOM     34  C   UNL A   1      40.208  23.426  27.289  1.00  0.00    -0.014 A 
BRANCH  34  35
ATOM     35  C   UNL A   1      41.028  24.354  28.046  1.00  0.00     0.031 A 
ATOM     36  C   UNL A   1      40.333  25.639  28.276  1.00  0.00     0.074 A 
ATOM     37  C   UNL A   1      42.219  24.139  28.633  1.00  0.00     0.049 A 
ATOM     38  N   UNL A   1      40.458  26.712  27.574  1.00  0.00    -0.248 NA
ATOM     39  C   UNL A   1      39.240  25.673  29.255  1.00  0.00     0.031 C 
ATOM     40  C   UNL A   1      42.930  22.891  28.889  1.00  0.00     0.029 A 
ATOM     41  N   UNL A   1      43.025  25.080  29.200  1.00  0.00    -0.354 N 
ATOM     42  C   UNL A   1      39.589  27.634  28.140  1.00  0.00     0.074 A 
ATOM     43  C   UNL A   1      38.725  26.878  29.012  1.00  0.00     0.031 C 
ATOM     44  C   UNL A   1      43.967  23.137  29.731  1.00  0.00     0.029 A 
ATOM     45  C   UNL A   1      44.085  24.575  29.934  1.00  0.00     0.049 A 
ATOM     46  H   UNL A   1      42.866  26.046  29.097  1.00  0.00     0.167 HD
ATOM     47  C   UNL A   1      39.792  28.975  28.007  1.00  0.00     0.034 A 
ATOM     48  C   UNL A   1      44.955  25.305  30.679  1.00  0.00     0.034 A 
ATOM     49  C   UNL A   1      40.819  29.247  27.031  1.00  0.00     0.049 A 
ATOM     50  C   UNL A   1      44.903  26.714  30.209  1.00  0.00     0.074 A 
ATOM     51  C   UNL A   1      40.972  28.969  25.687  1.00  0.00     0.029 A 
ATOM     52  N   UNL A   1      42.080  29.535  27.500  1.00  0.00    -0.354 N 
ATOM     53  N   UNL A   1      45.375  27.127  29.068  1.00  0.00    -0.248 NA
ATOM     54  C   UNL A   1      43.948  27.608  30.846  1.00  0.00     0.031 C 
ATOM     55  C   UNL A   1      42.349  28.643  25.530  1.00  0.00     0.029 A 
ATOM     56  C   UNL A   1      42.975  28.797  26.769  1.00  0.00     0.049 A 
ATOM     57  H   UNL A   1      42.300  30.159  28.230  1.00  0.00     0.167 HD
ATOM     58  C   UNL A   1      44.450  28.060  28.627  1.00  0.00     0.074 A 
ATOM     59  C   UNL A   1      43.666  28.403  29.812  1.00  0.00     0.031 C 
ATOM     60  C   UNL A   1      44.214  28.254  27.296  1.00  0.00     0.034 A 
BRANCH  47  61
ATOM     61  C   UNL A   1      39.310  30.006  28.995  1.00  0.00     0.023 A 
ATOM     62  C   UNL A   1      38.224  30.865  28.747  1.00  0.00     0.031 A 
ATOM     63  C   UNL A   1      39.811  30.017  30.312  1.00  0.00     0.131 A 
ATOM     64  C   UNL A   1      37.688  31.686  29.743  1.00  0.00     0.055 A 
ATOM     65  C   UNL A   1      39.230  30.785  31.328  1.00  0.00     0.041 A 
ATOM     66  F   UNL A   1      40.843  29.237  30.666  1.00  0.00    -0.206 F 
ATOM     67  C   UNL A   1      38.162  31.627  31.048  1.00  0.00     0.022 A 
BRANCH  64  68
ATOM     68  S   UNL A   1      36.346  32.842  29.349  1.00  0.00     0.124 S 
ATOM     69  O   UNL A   1      35.371  32.536  30.388  1.00  0.00    -0.237 OA
ATOM     70  O   UNL A   1      37.021  34.132  29.471  1.00  0.00    -0.237 OA
ATOM     71  O   UNL A   1      35.965  32.472  27.988  1.00  0.00    -0.744 OA
ENDBRANCH  64  68
ENDBRANCH  47  61
BRANCH  48  72
ATOM     72  C   UNL A   1      45.527  24.973  32.003  1.00  0.00     0.023 A 
ATOM     73  C   UNL A   1      44.727  24.325  32.960  1.00  0.00     0.031 A 
ATOM     74  C   UNL A   1      46.707  25.592  32.456  1.00  0.00     0.131 A 
ATOM     75  C   UNL A   1      45.065  24.378  34.319  1.00  0.00     0.055 A 
ATOM     76  C   UNL A   1      47.055  25.625  33.812  1.00  0.00     0.041 A 
ATOM     77  F   UNL A   1      47.504  26.251  31.601  1.00  0.00    -0.206 F 
ATOM     78  C   UNL A   1      46.221  25.031  34.754  1.00  0.00     0.022 A 
BRANCH  75  79
ATOM     79  S   UNL A   1      43.948  23.676  35.561  1.00  0.00     0.124 S 
ATOM     80  O   UNL A   1      44.597  22.408  35.886  1.00  0.00    -0.237 OA
ATOM     81  O   UNL A   1      43.991  24.692  36.608  1.00  0.00    -0.237 OA
ATOM     82  O   UNL A   1      42.681  23.553  34.847  1.00  0.00    -0.744 OA
ENDBRANCH  75  79
ENDBRANCH  48  72
BRANCH  60  83
ATOM     83  C   UNL A   1      45.160  27.646  26.279  1.00  0.00     0.023 A 
ATOM     84  C   UNL A   1      45.013  26.271  26.013  1.00  0.00     0.031 A 
ATOM     85  C   UNL A   1      46.297  28.288  25.751  1.00  0.00     0.131 A 
ATOM     86  C   UNL A   1      45.991  25.577  25.291  1.00  0.00     0.055 A 
ATOM     87  C   UNL A   1      47.231  27.607  24.963  1.00  0.00     0.041 A 
ATOM     88  F   UNL A   1      46.589  29.561  26.046  1.00  0.00    -0.206 F 
ATOM     89  C   UNL A   1      47.092  26.240  24.746  1.00  0.00     0.022 A 
BRANCH  86  90
ATOM     90  S   UNL A   1      45.939  23.769  25.188  1.00  0.00     0.124 S 
ATOM     91  O   UNL A   1      46.391  23.525  23.822  1.00  0.00    -0.237 OA
ATOM     92  O   UNL A   1      46.875  23.371  26.238  1.00  0.00    -0.237 OA
ATOM     93  O   UNL A   1      44.542  23.438  25.452  1.00  0.00    -0.744 OA
ENDBRANCH  86  90
ENDBRANCH  60  83
ENDBRANCH  34  35
ENDBRANCH  27  29
ENDBRANCH  26  27
ENDBRANCH  25  26
ENDBRANCH   1  25
TORSDOF 17
ENDMDL
MODEL 2
REMARK VINA RESULT:     -12.9      3.126      7.494
REMARK SMILES Cc1c(CC(=O)OCCOC(=O)c2ccc(-c3c4nc(c(-c5cc(S(=O)(=O)[O-])ccc5F)c5ccc([nH]5)c(-c5cc(S(=O)(=O)[O-])ccc5F)c5nc(c(-c6cc(S(=O)(=O)[O-])ccc6F)c6ccc3[nH]6)C=C5)C=C4)cc2)c2ccccc2n1C(=O)c1ccc(Cl)cc1
REMARK SMILES IDX 8 1 7 2 5 3 6 4 4 5 3 6 1 7 2 8 82 9 76 10 81 11 77 12 80 13
REMARK SMILES IDX 78 14 79 15 83 16 84 17 85 18 86 19 91 20 87 21 90 22 88 23
REMARK SMILES IDX 89 24 9 25 10 26 11 27 12 28 13 29 14 30 75 31 15 32 74 33
REMARK SMILES IDX 16 34 17 35 18 36 68 37 19 38 73 39 67 40 69 41 20 42 72 43
REMARK SMILES IDX 66 44 65 45 21 47 53 48 33 49 52 50 34 51 37 52 51 53 70 54
REMARK SMILES IDX 35 55 36 56 50 58 71 59 38 60 22 61 23 62 31 63 24 64 30 65
REMARK SMILES IDX 32 66 29 67 25 68 26 69 27 70 28 71 54 72 55 73 63 74 56 75
REMARK SMILES IDX 62 76 64 77 61 78 57 79 58 80 59 81 60 82 39 83 40 84 48 85
REMARK SMILES IDX 41 86 47 87 49 88 46 89 42 90 43 91 44 92 45 93
REMARK H PARENT 69 46 37 57
REMARK Flexibility Score: inf
ROOT
ATOM      1  C   UNL A   1      37.006  21.631  24.480  1.00  0.00     0.274 C 
ENDROOT
BRANCH   1   2
ATOM      2  O   UNL A   1      35.790  21.636  25.257  1.00  0.00    -0.462 OA
BRANCH   2   3
ATOM      3  C   UNL A   1      34.940  20.610  25.006  1.00  0.00     0.310 C 
ATOM      4  O   UNL A   1      35.311  19.471  24.732  1.00  0.00    -0.252 OA
BRANCH   3   5
ATOM      5  C   UNL A   1      33.484  20.973  24.988  1.00  0.00     0.160 C 
BRANCH   5   6
ATOM      6  C   UNL A   1      33.021  22.389  24.772  1.00  0.00    -0.008 A 
ATOM      7  C   UNL A   1      33.108  22.977  27.287  1.00  0.00     0.065 C 
ATOM      8  C   UNL A   1      32.833  23.257  25.841  1.00  0.00     0.028 A 
ATOM      9  N   UNL A   1      32.342  24.461  25.361  1.00  0.00    -0.280 N 
ATOM     10  C   UNL A   1      32.920  23.195  23.588  1.00  0.00     0.004 A 
ATOM     11  C   UNL A   1      32.621  24.505  23.988  1.00  0.00     0.056 A 
ATOM     12  C   UNL A   1      33.106  22.974  22.205  1.00  0.00     0.010 A 
ATOM     13  C   UNL A   1      32.607  25.566  23.048  1.00  0.00     0.027 A 
ATOM     14  C   UNL A   1      33.100  24.022  21.277  1.00  0.00     0.001 A 
ATOM     15  C   UNL A   1      32.853  25.312  21.700  1.00  0.00     0.002 A 
BRANCH   9  16
ATOM     16  C   UNL A   1      31.662  25.445  26.122  1.00  0.00     0.262 C 
ATOM     17  O   UNL A   1      30.485  25.273  26.434  1.00  0.00    -0.268 OA
BRANCH  16  18
ATOM     18  C   UNL A   1      32.254  26.724  26.518  1.00  0.00     0.040 A 
ATOM     19  C   UNL A   1      31.446  27.716  27.084  1.00  0.00     0.015 A 
ATOM     20  C   UNL A   1      33.602  26.953  26.227  1.00  0.00     0.015 A 
ATOM     21  C   UNL A   1      31.985  28.981  27.304  1.00  0.00     0.021 A 
ATOM     22  C   UNL A   1      34.134  28.221  26.456  1.00  0.00     0.021 A 
ATOM     23  C   UNL A   1      33.321  29.230  26.979  1.00  0.00     0.041 A 
ATOM     24  Cl  UNL A   1      33.966  30.811  27.198  1.00  0.00    -0.084 Cl
ENDBRANCH  16  18
ENDBRANCH   9  16
ENDBRANCH   5   6
ENDBRANCH   3   5
ENDBRANCH   2   3
ENDBRANCH   1   2
BRANCH   1  25
ATOM     25  C   UNL A   1      38.208  21.282  25.363  1.00  0.00     0.275 C 
BRANCH  25  26
ATOM     26  O   UNL A   1      38.901  22.491  25.704  1.00  0.00    -0.458 OA
BRANCH  26  27
ATOM     27  C   UNL A   1      39.971  22.388  26.532  1.00  0.00     0.338 C 
ATOM     28  O   UNL A   1      40.906  21.613  26.437  1.00  0.00    -0.246 OA
BRANCH  27  29
ATOM     29  C   UNL A   1      39.947  23.618  27.347  1.00  0.00     0.060 A 
ATOM     30  C   UNL A   1      38.866  24.496  27.266  1.00  0.00     0.016 A 
ATOM     31  C   UNL A   1      41.133  24.005  27.975  1.00  0.00     0.016 A 
ATOM     32  C   UNL A   1      39.039  25.813  27.672  1.00  0.00     0.010 A 
ATOM     33  C   UNL A   1      41.323  25.330  28.321  1.00  0.00     0.010 A 
ATOM     34  C   UNL A   1      40.298  26.244  28.112  1.00  0.00    -0.014 A 
BRANCH  34  35
ATOM     35  C   UNL A   1      40.450  27.596  28.620  1.00  0.00     0.031 A 
ATOM     36  C   UNL A   1      41.659  28.253  28.078  1.00  0.00     0.074 A 
ATOM     37  C   UNL A   1      39.599  28.311  29.377  1.00  0.00     0.049 A 
ATOM     38  N   UNL A   1      42.811  28.327  28.650  1.00  0.00    -0.248 NA
ATOM     39  C   UNL A   1      41.643  28.690  26.677  1.00  0.00     0.031 C 
ATOM     40  C   UNL A   1      38.204  28.057  29.720  1.00  0.00     0.029 A 
ATOM     41  N   UNL A   1      39.849  29.516  29.961  1.00  0.00    -0.354 N 
ATOM     42  C   UNL A   1      43.633  28.995  27.754  1.00  0.00     0.074 A 
ATOM     43  C   UNL A   1      42.928  28.992  26.496  1.00  0.00     0.031 C 
ATOM     44  C   UNL A   1      37.677  29.173  30.288  1.00  0.00     0.029 A 
ATOM     45  C   UNL A   1      38.740  30.148  30.496  1.00  0.00     0.049 A 
ATOM     46  H   UNL A   1      40.751  29.910  29.998  1.00  0.00     0.167 HD
ATOM     47  C   UNL A   1      44.731  29.683  28.175  1.00  0.00     0.034 A 
ATOM     48  C   UNL A   1      38.716  31.397  31.026  1.00  0.00     0.034 A 
ATOM     49  C   UNL A   1      45.022  29.393  29.558  1.00  0.00     0.049 A 
ATOM     50  C   UNL A   1      40.106  31.780  31.384  1.00  0.00     0.074 A 
ATOM     51  C   UNL A   1      45.324  28.243  30.261  1.00  0.00     0.029 A 
ATOM     52  N   UNL A   1      44.615  30.312  30.498  1.00  0.00    -0.354 N 
ATOM     53  N   UNL A   1      40.781  31.263  32.371  1.00  0.00    -0.248 NA
ATOM     54  C   UNL A   1      40.905  32.461  30.376  1.00  0.00     0.031 C 
ATOM     55  C   UNL A   1      44.639  28.377  31.502  1.00  0.00     0.029 A 
ATOM     56  C   UNL A   1      44.008  29.623  31.517  1.00  0.00     0.049 A 
ATOM     57  H   UNL A   1      44.737  31.288  30.448  1.00  0.00     0.167 HD
ATOM     58  C   UNL A   1      42.070  31.135  31.880  1.00  0.00     0.074 A 
ATOM     59  C   UNL A   1      42.113  31.997  30.701  1.00  0.00     0.031 C 
ATOM     60  C   UNL A   1      42.894  30.129  32.299  1.00  0.00     0.034 A 
BRANCH  47  61
ATOM     61  C   UNL A   1      45.325  30.860  27.444  1.00  0.00     0.023 A 
ATOM     62  C   UNL A   1      44.601  32.028  27.144  1.00  0.00     0.031 A 
ATOM     63  C   UNL A   1      46.712  30.919  27.204  1.00  0.00     0.131 A 
ATOM     64  C   UNL A   1      45.222  33.169  26.625  1.00  0.00     0.055 A 
ATOM     65  C   UNL A   1      47.345  32.084  26.753  1.00  0.00     0.041 A 
ATOM     66  F   UNL A   1      47.504  29.866  27.456  1.00  0.00    -0.206 F 
ATOM     67  C   UNL A   1      46.600  33.218  26.460  1.00  0.00     0.022 A 
BRANCH  64  68
ATOM     68  S   UNL A   1      44.230  34.618  26.170  1.00  0.00     0.124 S 
ATOM     69  O   UNL A   1      43.229  34.642  27.229  1.00  0.00    -0.237 OA
ATOM     70  O   UNL A   1      45.227  35.685  26.215  1.00  0.00    -0.237 OA
ATOM     71  O   UNL A   1      43.738  34.290  24.835  1.00  0.00    -0.744 OA
ENDBRANCH  64  68
ENDBRANCH  47  61
BRANCH  48  72
ATOM     72  C   UNL A   1      37.663  32.429  30.889  1.00  0.00     0.023 A 
ATOM     73  C   UNL A   1      37.035  32.934  32.041  1.00  0.00     0.031 A 
ATOM     74  C   UNL A   1      37.028  32.654  29.653  1.00  0.00     0.131 A 
ATOM     75  C   UNL A   1      35.785  33.561  31.949  1.00  0.00     0.055 A 
ATOM     76  C   UNL A   1      35.789  33.300  29.561  1.00  0.00     0.041 A 
ATOM     77  F   UNL A   1      37.557  32.175  28.517  1.00  0.00    -0.206 F 
ATOM     78  C   UNL A   1      35.152  33.740  30.717  1.00  0.00     0.022 A 
BRANCH  75  79
ATOM     79  S   UNL A   1      34.911  34.071  33.453  1.00  0.00     0.124 S 
ATOM     80  O   UNL A   1      33.516  34.065  33.023  1.00  0.00    -0.237 OA
ATOM     81  O   UNL A   1      35.287  33.015  34.387  1.00  0.00    -0.237 OA
ATOM     82  O   UNL A   1      35.463  35.394  33.733  1.00  0.00    -0.744 OA
ENDBRANCH  75  79
ENDBRANCH  48  72
BRANCH  60  83
ATOM     83  C   UNL A   1      42.502  29.305  33.509  1.00  0.00     0.023 A 
ATOM     84  C   UNL A   1      43.277  29.470  34.673  1.00  0.00     0.031 A 
ATOM     85  C   UNL A   1      41.576  28.244  33.496  1.00  0.00     0.131 A 
ATOM     86  C   UNL A   1      43.152  28.578  35.744  1.00  0.00     0.055 A 
ATOM     87  C   UNL A   1      41.398  27.403  34.600  1.00  0.00     0.041 A 
ATOM     88  F   UNL A   1      40.878  27.929  32.396  1.00  0.00    -0.206 F 
ATOM     89  C   UNL A   1      42.203  27.554  35.725  1.00  0.00     0.022 A 
BRANCH  86  90
ATOM     90  S   UNL A   1      44.337  28.626  37.115  1.00  0.00     0.124 S 
ATOM     91  O   UNL A   1      45.617  28.566  36.417  1.00  0.00    -0.237 OA
ATOM     92  O   UNL A   1      44.028  29.907  37.748  1.00  0.00    -0.237 OA
ATOM     93  O   UNL A   1      44.004  27.449  37.912  1.00  0.00    -0.744 OA
ENDBRANCH  86  90
ENDBRANCH  60  83
ENDBRANCH  34  35
ENDBRANCH  27  29
ENDBRANCH  26  27
ENDBRANCH  25  26
ENDBRANCH   1  25
TORSDOF 17
ENDMDL
MODEL 3
REMARK VINA RESULT:     -12.9      3.344      7.752
REMARK SMILES Cc1c(CC(=O)OCCOC(=O)c2ccc(-c3c4nc(c(-c5cc(S(=O)(=O)[O-])ccc5F)c5ccc([nH]5)c(-c5cc(S(=O)(=O)[O-])ccc5F)c5nc(c(-c6cc(S(=O)(=O)[O-])ccc6F)c6ccc3[nH]6)C=C5)C=C4)cc2)c2ccccc2n1C(=O)c1ccc(Cl)cc1
REMARK SMILES IDX 8 1 7 2 5 3 6 4 4 5 3 6 1 7 2 8 82 9 76 10 81 11 77 12 80 13
REMARK SMILES IDX 78 14 79 15 83 16 84 17 85 18 86 19 91 20 87 21 90 22 88 23
REMARK SMILES IDX 89 24 9 25 10 26 11 27 12 28 13 29 14 30 75 31 15 32 74 33
REMARK SMILES IDX 16 34 17 35 18 36 68 37 19 38 73 39 67 40 69 41 20 42 72 43
REMARK SMILES IDX 66 44 65 45 21 47 53 48 33 49 52 50 34 51 37 52 51 53 70 54
REMARK SMILES IDX 35 55 36 56 50 58 71 59 38 60 22 61 23 62 31 63 24 64 30 65
REMARK SMILES IDX 32 66 29 67 25 68 26 69 27 70 28 71 54 72 55 73 63 74 56 75
REMARK SMILES IDX 62 76 64 77 61 78 57 79 58 80 59 81 60 82 39 83 40 84 48 85
REMARK SMILES IDX 41 86 47 87 49 88 46 89 42 90 43 91 44 92 45 93
REMARK H PARENT 69 46 37 57
REMARK Flexibility Score: inf
ROOT
ATOM      1  C   UNL A   1      36.211  22.233  25.494  1.00  0.00     0.274 C 
ENDROOT
BRANCH   1   2
ATOM      2  O   UNL A   1      35.813  23.334  24.650  1.00  0.00    -0.462 OA
BRANCH   2   3
ATOM      3  C   UNL A   1      34.487  23.617  24.657  1.00  0.00     0.310 C 
ATOM      4  O   UNL A   1      33.650  22.938  25.249  1.00  0.00    -0.252 OA
BRANCH   3   5
ATOM      5  C   UNL A   1      34.075  24.782  23.806  1.00  0.00     0.160 C 
BRANCH   5   6
ATOM      6  C   UNL A   1      33.001  25.743  24.241  1.00  0.00    -0.008 A 
ATOM      7  C   UNL A   1      31.088  24.303  23.268  1.00  0.00     0.065 C 
ATOM      8  C   UNL A   1      31.662  25.506  23.952  1.00  0.00     0.028 A 
ATOM      9  N   UNL A   1      30.908  26.578  24.405  1.00  0.00    -0.280 N 
ATOM     10  C   UNL A   1      33.016  26.848  25.156  1.00  0.00     0.004 A 
ATOM     11  C   UNL A   1      31.691  27.269  25.339  1.00  0.00     0.056 A 
ATOM     12  C   UNL A   1      34.010  27.515  25.907  1.00  0.00     0.010 A 
ATOM     13  C   UNL A   1      31.369  28.252  26.308  1.00  0.00     0.027 A 
ATOM     14  C   UNL A   1      33.692  28.481  26.869  1.00  0.00     0.001 A 
ATOM     15  C   UNL A   1      32.376  28.844  27.068  1.00  0.00     0.002 A 
BRANCH   9  16
ATOM     16  C   UNL A   1      29.600  26.915  23.976  1.00  0.00     0.262 C 
ATOM     17  O   UNL A   1      28.654  26.183  24.260  1.00  0.00    -0.268 OA
BRANCH  16  18
ATOM     18  C   UNL A   1      29.291  28.071  23.132  1.00  0.00     0.040 A 
ATOM     19  C   UNL A   1      30.320  28.713  22.432  1.00  0.00     0.015 A 
ATOM     20  C   UNL A   1      27.983  28.562  23.126  1.00  0.00     0.015 A 
ATOM     21  C   UNL A   1      30.041  29.903  21.766  1.00  0.00     0.021 A 
ATOM     22  C   UNL A   1      27.713  29.751  22.452  1.00  0.00     0.021 A 
ATOM     23  C   UNL A   1      28.744  30.422  21.788  1.00  0.00     0.041 A 
ATOM     24  Cl  UNL A   1      28.419  31.924  21.013  1.00  0.00    -0.084 Cl
ENDBRANCH  16  18
ENDBRANCH   9  16
ENDBRANCH   5   6
ENDBRANCH   3   5
ENDBRANCH   2   3
ENDBRANCH   1   2
BRANCH   1  25
ATOM     25  C   UNL A   1      37.722  22.002  25.401  1.00  0.00     0.275 C 
BRANCH  25  26
ATOM     26  O   UNL A   1      38.342  22.496  26.597  1.00  0.00    -0.458 OA
BRANCH  26  27
ATOM     27  C   UNL A   1      39.696  22.443  26.668  1.00  0.00     0.338 C 
ATOM     28  O   UNL A   1      40.420  21.533  26.302  1.00  0.00    -0.246 OA
BRANCH  27  29
ATOM     29  C   UNL A   1      40.122  23.829  26.941  1.00  0.00     0.060 A 
ATOM     30  C   UNL A   1      41.165  24.083  27.831  1.00  0.00     0.016 A 
ATOM     31  C   UNL A   1      39.289  24.863  26.505  1.00  0.00     0.016 A 
ATOM     32  C   UNL A   1      41.265  25.345  28.405  1.00  0.00     0.010 A 
ATOM     33  C   UNL A   1      39.352  26.098  27.124  1.00  0.00     0.010 A 
ATOM     34  C   UNL A   1      40.300  26.318  28.116  1.00  0.00    -0.014 A 
BRANCH  34  35
ATOM     35  C   UNL A   1      40.459  27.660  28.646  1.00  0.00     0.031 A 
ATOM     36  C   UNL A   1      41.659  28.328  28.098  1.00  0.00     0.074 A 
ATOM     37  C   UNL A   1      39.619  28.359  29.429  1.00  0.00     0.049 A 
ATOM     38  N   UNL A   1      42.819  28.393  28.654  1.00  0.00    -0.248 NA
ATOM     39  C   UNL A   1      41.621  28.792  26.707  1.00  0.00     0.031 C 
ATOM     40  C   UNL A   1      38.229  28.098  29.789  1.00  0.00     0.029 A 
ATOM     41  N   UNL A   1      39.878  29.554  30.032  1.00  0.00    -0.354 N 
ATOM     42  C   UNL A   1      43.627  29.079  27.758  1.00  0.00     0.074 A 
ATOM     43  C   UNL A   1      42.903  29.098  26.511  1.00  0.00     0.031 C 
ATOM     44  C   UNL A   1      37.711  29.202  30.386  1.00  0.00     0.029 A 
ATOM     45  C   UNL A   1      38.776  30.175  30.596  1.00  0.00     0.049 A 
ATOM     46  H   UNL A   1      40.779  29.948  30.063  1.00  0.00     0.167 HD
ATOM     47  C   UNL A   1      44.731  29.759  28.175  1.00  0.00     0.034 A 
ATOM     48  C   UNL A   1      38.759  31.414  31.150  1.00  0.00     0.034 A 
ATOM     49  C   UNL A   1      45.044  29.444  29.547  1.00  0.00     0.049 A 
ATOM     50  C   UNL A   1      40.155  31.791  31.493  1.00  0.00     0.074 A 
ATOM     51  C   UNL A   1      45.357  28.282  30.225  1.00  0.00     0.029 A 
ATOM     52  N   UNL A   1      44.650  30.344  30.511  1.00  0.00    -0.354 N 
ATOM     53  N   UNL A   1      40.844  31.256  32.460  1.00  0.00    -0.248 NA
ATOM     54  C   UNL A   1      40.937  32.492  30.486  1.00  0.00     0.031 C 
ATOM     55  C   UNL A   1      44.692  28.391  31.478  1.00  0.00     0.029 A 
ATOM     56  C   UNL A   1      44.059  29.636  31.526  1.00  0.00     0.049 A 
ATOM     57  H   UNL A   1      44.771  31.321  30.477  1.00  0.00     0.167 HD
ATOM     58  C   UNL A   1      42.126  31.139  31.947  1.00  0.00     0.074 A 
ATOM     59  C   UNL A   1      42.150  32.023  30.784  1.00  0.00     0.031 C 
ATOM     60  C   UNL A   1      42.957  30.126  32.334  1.00  0.00     0.034 A 
BRANCH  47  61
ATOM     61  C   UNL A   1      45.313  30.950  27.457  1.00  0.00     0.023 A 
ATOM     62  C   UNL A   1      44.584  32.123  27.191  1.00  0.00     0.031 A 
ATOM     63  C   UNL A   1      46.696  31.016  27.196  1.00  0.00     0.131 A 
ATOM     64  C   UNL A   1      45.196  33.275  26.685  1.00  0.00     0.055 A 
ATOM     65  C   UNL A   1      47.321  32.189  26.758  1.00  0.00     0.041 A 
ATOM     66  F   UNL A   1      47.492  29.958  27.415  1.00  0.00    -0.206 F 
ATOM     67  C   UNL A   1      46.571  33.328  26.498  1.00  0.00     0.022 A 
BRANCH  64  68
ATOM     68  S   UNL A   1      44.196  34.732  26.272  1.00  0.00     0.124 S 
ATOM     69  O   UNL A   1      43.108  34.632  27.237  1.00  0.00    -0.237 OA
ATOM     70  O   UNL A   1      45.148  35.817  26.498  1.00  0.00    -0.237 OA
ATOM     71  O   UNL A   1      43.831  34.512  24.876  1.00  0.00    -0.744 OA
ENDBRANCH  64  68
ENDBRANCH  47  61
BRANCH  48  72
ATOM     72  C   UNL A   1      37.703  32.446  31.048  1.00  0.00     0.023 A 
ATOM     73  C   UNL A   1      37.021  32.855  32.208  1.00  0.00     0.031 A 
ATOM     74  C   UNL A   1      37.120  32.765  29.807  1.00  0.00     0.131 A 
ATOM     75  C   UNL A   1      35.771  33.480  32.110  1.00  0.00     0.055 A 
ATOM     76  C   UNL A   1      35.881  33.409  29.712  1.00  0.00     0.041 A 
ATOM     77  F   UNL A   1      37.703  32.381  28.661  1.00  0.00    -0.206 F 
ATOM     78  C   UNL A   1      35.190  33.753  30.869  1.00  0.00     0.022 A 
BRANCH  75  79
ATOM     79  S   UNL A   1      34.827  33.864  33.610  1.00  0.00     0.124 S 
ATOM     80  O   UNL A   1      34.985  35.312  33.718  1.00  0.00    -0.237 OA
ATOM     81  O   UNL A   1      33.492  33.401  33.248  1.00  0.00    -0.237 OA
ATOM     82  O   UNL A   1      35.509  33.091  34.646  1.00  0.00    -0.744 OA
ENDBRANCH  75  79
ENDBRANCH  48  72
BRANCH  60  83
ATOM     83  C   UNL A   1      42.584  29.279  33.534  1.00  0.00     0.023 A 
ATOM     84  C   UNL A   1      43.340  29.466  34.708  1.00  0.00     0.031 A 
ATOM     85  C   UNL A   1      41.700  28.183  33.505  1.00  0.00     0.131 A 
ATOM     86  C   UNL A   1      43.239  28.562  35.772  1.00  0.00     0.055 A 
ATOM     87  C   UNL A   1      41.543  27.328  34.601  1.00  0.00     0.041 A 
ATOM     88  F   UNL A   1      41.027  27.850  32.395  1.00  0.00    -0.206 F 
ATOM     89  C   UNL A   1      42.329  27.503  35.735  1.00  0.00     0.022 A 
BRANCH  86  90
ATOM     90  S   UNL A   1      44.406  28.646  37.155  1.00  0.00     0.124 S 
ATOM     91  O   UNL A   1      44.079  27.438  37.907  1.00  0.00    -0.237 OA
ATOM     92  O   UNL A   1      45.699  28.627  36.473  1.00  0.00    -0.237 OA
ATOM     93  O   UNL A   1      44.078  29.904  37.820  1.00  0.00    -0.744 OA
ENDBRANCH  86  90
ENDBRANCH  60  83
ENDBRANCH  34  35
ENDBRANCH  27  29
ENDBRANCH  26  27
ENDBRANCH  25  26
ENDBRANCH   1  25
TORSDOF 17
ENDMDL
