MODEL 1
REMARK VINA RESULT:     -11.6      0.000      0.000
REMARK SMILES COc1ccc(CCN2/C(=[NH+]/C(=O)CCC(=O)OCCOC(=O)c3ccc(-c4c5nc(c(-c6cc(S(=O)(=O)[O-])ccc6F)c6ccc([nH]6)c(-c6cc(S(=O)(=O)[O-])ccc6F)c6nc(c(-c7cc(S(=O)(=O)[O-])ccc7F)c7ccc4[nH]7)C=C6)C=C5)cc3)S[C@@H]3CS(=O)(=O)C[C@@H]32)cc1
REMARK SMILES IDX 18 1 16 2 17 3 15 4 14 5 12 6 9 7 10 8 94 9 11 10 87 11
REMARK SMILES IDX 88 12 93 13 89 15 90 16 13 17 91 18 92 19 8 20 7 21 6 22
REMARK SMILES IDX 3 23 4 24 96 25 5 26 95 27 2 28 1 29 19 30 20 31 21 32 22 33
REMARK SMILES IDX 23 34 24 35 25 36 86 37 26 38 85 39 27 40 28 41 29 42 79 43
REMARK SMILES IDX 30 44 84 45 78 46 80 47 31 48 83 49 77 50 76 51 32 53 64 54
REMARK SMILES IDX 44 55 63 56 45 57 48 58 62 59 81 60 46 61 47 62 61 64 82 65
REMARK SMILES IDX 49 66 33 67 34 68 42 69 35 70 41 71 43 72 40 73 36 74 37 75
REMARK SMILES IDX 38 76 39 77 65 78 66 79 74 80 67 81 73 82 75 83 72 84 68 85
REMARK SMILES IDX 69 86 70 87 71 88 50 89 51 90 59 91 52 92 58 93 60 94 57 95
REMARK SMILES IDX 53 96 54 97 55 98 56 99
REMARK H PARENT 11 14 80 52 48 63
REMARK Flexibility Score: inf
ROOT
ATOM      1  O   UNL A   1      32.198  30.284  26.745  1.00  0.00    -0.462 OA
ENDROOT
BRANCH   1   2
ATOM      2  C   UNL A   1      32.142  29.818  25.473  1.00  0.00     0.306 C 
ATOM      3  O   UNL A   1      31.149  29.857  24.759  1.00  0.00    -0.252 OA
BRANCH   2   4
ATOM      4  C   UNL A   1      33.435  29.165  25.046  1.00  0.00     0.135 C 
BRANCH   4   5
ATOM      5  C   UNL A   1      33.581  29.008  23.538  1.00  0.00     0.139 C 
BRANCH   5   6
ATOM      6  C   UNL A   1      32.940  27.720  23.066  1.00  0.00     0.308 C 
ATOM      7  N   UNL A   1      33.550  24.326  24.228  1.00  0.00    -0.251 N 
ATOM      8  C   UNL A   1      33.037  25.417  23.533  1.00  0.00     0.314 C 
ATOM      9  C   UNL A   1      32.735  23.104  24.196  1.00  0.00     0.206 C 
ATOM     10  N   UNL A   1      33.520  26.607  23.614  1.00  0.00    -0.205 N 
ATOM     11  S   UNL A   1      31.599  24.908  22.645  1.00  0.00    -0.030 SA
ATOM     12  C   UNL A   1      31.319  23.547  23.793  1.00  0.00     0.120 C 
ATOM     13  C   UNL A   1      32.618  22.355  25.516  1.00  0.00     0.187 C 
ATOM     14  H   UNL A   1      34.366  26.726  24.104  1.00  0.00     0.316 HD
ATOM     15  C   UNL A   1      30.621  24.062  25.043  1.00  0.00     0.156 C 
ATOM     16  S   UNL A   1      31.115  22.905  26.289  1.00  0.00     0.155 S 
ATOM     17  O   UNL A   1      31.951  27.766  22.339  1.00  0.00    -0.247 OA
ATOM     18  O   UNL A   1      31.445  23.616  27.506  1.00  0.00    -0.229 OA
ATOM     19  O   UNL A   1      30.178  21.800  26.273  1.00  0.00    -0.229 OA
BRANCH   7  20
ATOM     20  C   UNL A   1      34.890  24.350  24.825  1.00  0.00     0.242 C 
BRANCH  20  21
ATOM     21  C   UNL A   1      35.971  23.638  23.994  1.00  0.00     0.081 C 
BRANCH  21  22
ATOM     22  C   UNL A   1      37.032  22.972  24.835  1.00  0.00    -0.044 A 
ATOM     23  C   UNL A   1      39.103  21.755  26.301  1.00  0.00     0.118 A 
ATOM     24  C   UNL A   1      38.368  21.020  25.377  1.00  0.00     0.046 A 
ATOM     25  C   UNL A   1      38.808  23.104  26.497  1.00  0.00     0.046 A 
ATOM     26  C   UNL A   1      37.326  21.614  24.668  1.00  0.00     0.007 A 
ATOM     27  C   UNL A   1      37.778  23.709  25.766  1.00  0.00     0.007 A 
BRANCH  23  28
ATOM     28  O   UNL A   1      40.121  21.075  26.906  1.00  0.00    -0.497 OA
ATOM     29  C   UNL A   1      41.298  20.925  26.124  1.00  0.00     0.278 C 
ENDBRANCH  23  28
ENDBRANCH  21  22
ENDBRANCH  20  21
ENDBRANCH   7  20
ENDBRANCH   5   6
ENDBRANCH   4   5
ENDBRANCH   2   4
ENDBRANCH   1   2
BRANCH   1  30
ATOM     30  C   UNL A   1      32.118  31.710  26.923  1.00  0.00     0.274 C 
BRANCH  30  31
ATOM     31  C   UNL A   1      33.368  32.250  27.618  1.00  0.00     0.275 C 
BRANCH  31  32
ATOM     32  O   UNL A   1      33.377  33.682  27.592  1.00  0.00    -0.458 OA
BRANCH  32  33
ATOM     33  C   UNL A   1      33.371  34.285  28.804  1.00  0.00     0.338 C 
ATOM     34  O   UNL A   1      32.532  35.039  29.256  1.00  0.00    -0.246 OA
BRANCH  33  35
ATOM     35  C   UNL A   1      34.546  33.822  29.544  1.00  0.00     0.060 A 
ATOM     36  C   UNL A   1      35.813  34.271  29.165  1.00  0.00     0.016 A 
ATOM     37  C   UNL A   1      34.380  32.917  30.593  1.00  0.00     0.016 A 
ATOM     38  C   UNL A   1      36.937  33.808  29.845  1.00  0.00     0.010 A 
ATOM     39  C   UNL A   1      35.504  32.465  31.278  1.00  0.00     0.010 A 
ATOM     40  C   UNL A   1      36.788  32.897  30.900  1.00  0.00    -0.014 A 
BRANCH  40  41
ATOM     41  C   UNL A   1      37.976  32.326  31.573  1.00  0.00     0.031 A 
ATOM     42  C   UNL A   1      38.722  31.209  30.903  1.00  0.00     0.074 A 
ATOM     43  C   UNL A   1      38.359  32.794  32.775  1.00  0.00     0.049 A 
ATOM     44  N   UNL A   1      39.691  30.465  31.365  1.00  0.00    -0.248 NA
ATOM     45  C   UNL A   1      38.306  30.878  29.530  1.00  0.00     0.031 C 
ATOM     46  C   UNL A   1      37.724  33.905  33.488  1.00  0.00     0.029 A 
ATOM     47  N   UNL A   1      39.364  32.389  33.615  1.00  0.00    -0.354 N 
ATOM     48  C   UNL A   1      40.000  29.573  30.343  1.00  0.00     0.074 A 
ATOM     49  C   UNL A   1      39.087  29.844  29.253  1.00  0.00     0.031 C 
ATOM     50  C   UNL A   1      38.350  34.084  34.663  1.00  0.00     0.029 A 
ATOM     51  C   UNL A   1      39.393  33.072  34.808  1.00  0.00     0.049 A 
ATOM     52  H   UNL A   1      40.002  31.676  33.385  1.00  0.00     0.167 HD
ATOM     53  C   UNL A   1      40.965  28.621  30.321  1.00  0.00     0.034 A 
ATOM     54  C   UNL A   1      40.154  32.875  35.903  1.00  0.00     0.034 A 
ATOM     55  C   UNL A   1      41.856  28.366  31.426  1.00  0.00     0.049 A 
ATOM     56  C   UNL A   1      41.175  31.762  35.877  1.00  0.00     0.074 A 
ATOM     57  C   UNL A   1      42.852  27.412  31.533  1.00  0.00     0.029 A 
ATOM     58  N   UNL A   1      41.858  29.077  32.620  1.00  0.00    -0.354 N 
ATOM     59  N   UNL A   1      41.442  30.907  34.916  1.00  0.00    -0.248 NA
ATOM     60  C   UNL A   1      42.006  31.596  37.076  1.00  0.00     0.031 C 
ATOM     61  C   UNL A   1      43.421  27.511  32.807  1.00  0.00     0.029 A 
ATOM     62  C   UNL A   1      42.830  28.575  33.470  1.00  0.00     0.049 A 
ATOM     63  H   UNL A   1      41.258  29.827  32.832  1.00  0.00     0.167 HD
ATOM     64  C   UNL A   1      42.500  30.130  35.382  1.00  0.00     0.074 A 
ATOM     65  C   UNL A   1      42.829  30.629  36.701  1.00  0.00     0.031 C 
ATOM     66  C   UNL A   1      43.146  29.099  34.778  1.00  0.00     0.034 A 
BRANCH  53  67
ATOM     67  C   UNL A   1      41.071  27.769  29.081  1.00  0.00     0.023 A 
ATOM     68  C   UNL A   1      42.056  28.005  28.105  1.00  0.00     0.031 A 
ATOM     69  C   UNL A   1      40.166  26.715  28.863  1.00  0.00     0.131 A 
ATOM     70  C   UNL A   1      42.077  27.236  26.932  1.00  0.00     0.055 A 
ATOM     71  C   UNL A   1      40.238  25.906  27.727  1.00  0.00     0.041 A 
ATOM     72  F   UNL A   1      39.190  26.459  29.748  1.00  0.00    -0.206 F 
ATOM     73  C   UNL A   1      41.190  26.171  26.748  1.00  0.00     0.022 A 
BRANCH  70  74
ATOM     74  S   UNL A   1      43.204  27.717  25.595  1.00  0.00     0.124 S 
ATOM     75  O   UNL A   1      42.279  28.301  24.626  1.00  0.00    -0.237 OA
ATOM     76  O   UNL A   1      44.105  28.651  26.262  1.00  0.00    -0.237 OA
ATOM     77  O   UNL A   1      43.810  26.451  25.185  1.00  0.00    -0.744 OA
ENDBRANCH  70  74
ENDBRANCH  53  67
BRANCH  54  78
ATOM     78  C   UNL A   1      39.966  33.707  37.128  1.00  0.00     0.023 A 
ATOM     79  C   UNL A   1      39.249  33.219  38.232  1.00  0.00     0.031 A 
ATOM     80  C   UNL A   1      40.432  35.034  37.184  1.00  0.00     0.131 A 
ATOM     81  C   UNL A   1      38.957  34.069  39.311  1.00  0.00     0.055 A 
ATOM     82  C   UNL A   1      40.197  35.855  38.288  1.00  0.00     0.041 A 
ATOM     83  F   UNL A   1      41.123  35.555  36.157  1.00  0.00    -0.206 F 
ATOM     84  C   UNL A   1      39.438  35.379  39.352  1.00  0.00     0.022 A 
BRANCH  81  85
ATOM     85  S   UNL A   1      37.825  33.476  40.599  1.00  0.00     0.124 S 
ATOM     86  O   UNL A   1      37.614  34.684  41.388  1.00  0.00    -0.237 OA
ATOM     87  O   UNL A   1      36.686  33.015  39.810  1.00  0.00    -0.237 OA
ATOM     88  O   UNL A   1      38.589  32.422  41.263  1.00  0.00    -0.744 OA
ENDBRANCH  81  85
ENDBRANCH  54  78
BRANCH  66  89
ATOM     89  C   UNL A   1      44.319  28.504  35.516  1.00  0.00     0.023 A 
ATOM     90  C   UNL A   1      44.157  27.478  36.462  1.00  0.00     0.031 A 
ATOM     91  C   UNL A   1      45.617  28.986  35.274  1.00  0.00     0.131 A 
ATOM     92  C   UNL A   1      45.269  27.011  37.179  1.00  0.00     0.055 A 
ATOM     93  C   UNL A   1      46.727  28.475  35.945  1.00  0.00     0.041 A 
ATOM     94  F   UNL A   1      45.826  29.965  34.379  1.00  0.00    -0.206 F 
ATOM     95  C   UNL A   1      46.555  27.491  36.915  1.00  0.00     0.022 A 
BRANCH  92  96
ATOM     96  S   UNL A   1      45.000  25.831  38.531  1.00  0.00     0.124 S 
ATOM     97  O   UNL A   1      43.757  26.321  39.119  1.00  0.00    -0.237 OA
ATOM     98  O   UNL A   1      44.911  24.559  37.821  1.00  0.00    -0.237 OA
ATOM     99  O   UNL A   1      46.188  25.991  39.367  1.00  0.00    -0.744 OA
ENDBRANCH  92  96
ENDBRANCH  66  89
ENDBRANCH  40  41
ENDBRANCH  33  35
ENDBRANCH  32  33
ENDBRANCH  31  32
ENDBRANCH  30  31
ENDBRANCH   1  30
TORSDOF 20
ENDMDL
MODEL 2
REMARK VINA RESULT:     -11.4      4.951      9.767
REMARK SMILES COc1ccc(CCN2/C(=[NH+]/C(=O)CCC(=O)OCCOC(=O)c3ccc(-c4c5nc(c(-c6cc(S(=O)(=O)[O-])ccc6F)c6ccc([nH]6)c(-c6cc(S(=O)(=O)[O-])ccc6F)c6nc(c(-c7cc(S(=O)(=O)[O-])ccc7F)c7ccc4[nH]7)C=C6)C=C5)cc3)S[C@@H]3CS(=O)(=O)C[C@@H]32)cc1
REMARK SMILES IDX 18 1 16 2 17 3 15 4 14 5 12 6 9 7 10 8 94 9 11 10 87 11
REMARK SMILES IDX 88 12 93 13 89 15 90 16 13 17 91 18 92 19 8 20 7 21 6 22
REMARK SMILES IDX 3 23 4 24 96 25 5 26 95 27 2 28 1 29 19 30 20 31 21 32 22 33
REMARK SMILES IDX 23 34 24 35 25 36 86 37 26 38 85 39 27 40 28 41 29 42 79 43
REMARK SMILES IDX 30 44 84 45 78 46 80 47 31 48 83 49 77 50 76 51 32 53 64 54
REMARK SMILES IDX 44 55 63 56 45 57 48 58 62 59 81 60 46 61 47 62 61 64 82 65
REMARK SMILES IDX 49 66 33 67 34 68 42 69 35 70 41 71 43 72 40 73 36 74 37 75
REMARK SMILES IDX 38 76 39 77 65 78 66 79 74 80 67 81 73 82 75 83 72 84 68 85
REMARK SMILES IDX 69 86 70 87 71 88 50 89 51 90 59 91 52 92 58 93 60 94 57 95
REMARK SMILES IDX 53 96 54 97 55 98 56 99
REMARK H PARENT 11 14 80 52 48 63
REMARK Flexibility Score: inf
ROOT
ATOM      1  O   UNL A   1      38.321  21.393  25.276  1.00  0.00    -0.462 OA
ENDROOT
BRANCH   1   2
ATOM      2  C   UNL A   1      37.238  22.091  25.695  1.00  0.00     0.306 C 
ATOM      3  O   UNL A   1      37.267  23.246  26.099  1.00  0.00    -0.252 OA
BRANCH   2   4
ATOM      4  C   UNL A   1      35.979  21.257  25.683  1.00  0.00     0.135 C 
BRANCH   4   5
ATOM      5  C   UNL A   1      34.955  21.666  26.733  1.00  0.00     0.139 C 
BRANCH   5   6
ATOM      6  C   UNL A   1      33.625  21.998  26.089  1.00  0.00     0.308 C 
ATOM      7  N   UNL A   1      32.316  25.260  25.144  1.00  0.00    -0.251 N 
ATOM      8  C   UNL A   1      32.442  23.887  25.340  1.00  0.00     0.314 C 
ATOM      9  C   UNL A   1      31.310  25.678  24.159  1.00  0.00     0.206 C 
ATOM     10  N   UNL A   1      33.394  23.345  26.016  1.00  0.00    -0.205 N 
ATOM     11  S   UNL A   1      31.171  23.060  24.436  1.00  0.00    -0.030 SA
ATOM     12  C   UNL A   1      31.026  24.442  23.289  1.00  0.00     0.120 C 
ATOM     13  C   UNL A   1      31.731  26.804  23.225  1.00  0.00     0.187 C 
ATOM     14  H   UNL A   1      33.998  23.942  26.516  1.00  0.00     0.316 HD
ATOM     15  C   UNL A   1      32.121  24.356  22.236  1.00  0.00     0.156 C 
ATOM     16  S   UNL A   1      32.342  26.041  21.741  1.00  0.00     0.155 S 
ATOM     17  O   UNL A   1      32.932  21.095  25.628  1.00  0.00    -0.247 OA
ATOM     18  O   UNL A   1      33.755  26.326  21.613  1.00  0.00    -0.229 OA
ATOM     19  O   UNL A   1      31.399  26.324  20.677  1.00  0.00    -0.229 OA
BRANCH   7  20
ATOM     20  C   UNL A   1      33.035  26.228  25.980  1.00  0.00     0.242 C 
BRANCH  20  21
ATOM     21  C   UNL A   1      32.132  27.244  26.698  1.00  0.00     0.081 C 
BRANCH  21  22
ATOM     22  C   UNL A   1      32.797  28.580  26.928  1.00  0.00    -0.044 A 
ATOM     23  C   UNL A   1      34.007  31.056  27.494  1.00  0.00     0.118 A 
ATOM     24  C   UNL A   1      32.640  30.980  27.247  1.00  0.00     0.046 A 
ATOM     25  C   UNL A   1      34.777  29.894  27.461  1.00  0.00     0.046 A 
ATOM     26  C   UNL A   1      32.043  29.758  26.942  1.00  0.00     0.007 A 
ATOM     27  C   UNL A   1      34.174  28.662  27.180  1.00  0.00     0.007 A 
BRANCH  23  28
ATOM     28  O   UNL A   1      34.469  32.300  27.817  1.00  0.00    -0.497 OA
ATOM     29  C   UNL A   1      34.638  32.542  29.208  1.00  0.00     0.278 C 
ENDBRANCH  23  28
ENDBRANCH  21  22
ENDBRANCH  20  21
ENDBRANCH   7  20
ENDBRANCH   5   6
ENDBRANCH   4   5
ENDBRANCH   2   4
ENDBRANCH   1   2
BRANCH   1  30
ATOM     30  C   UNL A   1      38.145  19.982  25.056  1.00  0.00     0.274 C 
BRANCH  30  31
ATOM     31  C   UNL A   1      39.416  19.207  25.403  1.00  0.00     0.275 C 
BRANCH  31  32
ATOM     32  O   UNL A   1      40.190  19.922  26.374  1.00  0.00    -0.458 OA
BRANCH  32  33
ATOM     33  C   UNL A   1      41.530  19.890  26.186  1.00  0.00     0.338 C 
ATOM     34  O   UNL A   1      42.212  18.944  25.845  1.00  0.00    -0.246 OA
BRANCH  33  35
ATOM     35  C   UNL A   1      42.048  21.242  26.406  1.00  0.00     0.060 A 
ATOM     36  C   UNL A   1      42.433  21.626  27.693  1.00  0.00     0.016 A 
ATOM     37  C   UNL A   1      42.118  22.130  25.332  1.00  0.00     0.016 A 
ATOM     38  C   UNL A   1      42.896  22.921  27.912  1.00  0.00     0.010 A 
ATOM     39  C   UNL A   1      42.591  23.420  25.553  1.00  0.00     0.010 A 
ATOM     40  C   UNL A   1      42.970  23.826  26.845  1.00  0.00    -0.014 A 
BRANCH  40  41
ATOM     41  C   UNL A   1      43.373  25.231  27.078  1.00  0.00     0.031 A 
ATOM     42  C   UNL A   1      44.791  25.635  26.796  1.00  0.00     0.074 A 
ATOM     43  C   UNL A   1      42.480  26.116  27.556  1.00  0.00     0.049 A 
ATOM     44  N   UNL A   1      45.400  26.760  27.061  1.00  0.00    -0.248 NA
ATOM     45  C   UNL A   1      45.639  24.627  26.140  1.00  0.00     0.031 C 
ATOM     46  C   UNL A   1      41.068  25.830  27.822  1.00  0.00     0.029 A 
ATOM     47  N   UNL A   1      42.627  27.431  27.915  1.00  0.00    -0.354 N 
ATOM     48  C   UNL A   1      46.705  26.596  26.609  1.00  0.00     0.074 A 
ATOM     49  C   UNL A   1      46.808  25.249  26.091  1.00  0.00     0.031 C 
ATOM     50  C   UNL A   1      40.483  26.936  28.312  1.00  0.00     0.029 A 
ATOM     51  C   UNL A   1      41.486  27.989  28.442  1.00  0.00     0.049 A 
ATOM     52  H   UNL A   1      43.470  27.928  27.806  1.00  0.00     0.167 HD
ATOM     53  C   UNL A   1      47.720  27.496  26.622  1.00  0.00     0.034 A 
ATOM     54  C   UNL A   1      41.288  29.202  28.997  1.00  0.00     0.034 A 
ATOM     55  C   UNL A   1      47.591  28.830  27.154  1.00  0.00     0.049 A 
ATOM     56  C   UNL A   1      42.454  30.160  29.061  1.00  0.00     0.074 A 
ATOM     57  C   UNL A   1      48.554  29.820  27.249  1.00  0.00     0.029 A 
ATOM     58  N   UNL A   1      46.421  29.363  27.680  1.00  0.00    -0.354 N 
ATOM     59  N   UNL A   1      43.691  29.986  28.655  1.00  0.00    -0.248 NA
ATOM     60  C   UNL A   1      42.194  31.482  29.647  1.00  0.00     0.031 C 
ATOM     61  C   UNL A   1      47.981  30.930  27.878  1.00  0.00     0.029 A 
ATOM     62  C   UNL A   1      46.641  30.662  28.110  1.00  0.00     0.049 A 
ATOM     63  H   UNL A   1      45.561  28.888  27.740  1.00  0.00     0.167 HD
ATOM     64  C   UNL A   1      44.343  31.193  28.898  1.00  0.00     0.074 A 
ATOM     65  C   UNL A   1      43.359  32.086  29.472  1.00  0.00     0.031 C 
ATOM     66  C   UNL A   1      45.637  31.536  28.668  1.00  0.00     0.034 A 
BRANCH  53  67
ATOM     67  C   UNL A   1      49.054  27.046  26.083  1.00  0.00     0.023 A 
ATOM     68  C   UNL A   1      49.517  27.458  24.820  1.00  0.00     0.031 A 
ATOM     69  C   UNL A   1      49.869  26.180  26.833  1.00  0.00     0.131 A 
ATOM     70  C   UNL A   1      50.731  26.960  24.324  1.00  0.00     0.055 A 
ATOM     71  C   UNL A   1      51.110  25.746  26.364  1.00  0.00     0.041 A 
ATOM     72  F   UNL A   1      49.468  25.734  28.034  1.00  0.00    -0.206 F 
ATOM     73  C   UNL A   1      51.543  26.127  25.098  1.00  0.00     0.022 A 
BRANCH  70  74
ATOM     74  S   UNL A   1      51.183  27.323  22.605  1.00  0.00     0.124 S 
ATOM     75  O   UNL A   1      49.949  26.984  21.899  1.00  0.00    -0.237 OA
ATOM     76  O   UNL A   1      51.520  28.742  22.659  1.00  0.00    -0.237 OA
ATOM     77  O   UNL A   1      52.306  26.424  22.349  1.00  0.00    -0.744 OA
ENDBRANCH  70  74
ENDBRANCH  53  67
BRANCH  54  78
ATOM     78  C   UNL A   1      39.963  29.575  29.574  1.00  0.00     0.023 A 
ATOM     79  C   UNL A   1      39.750  29.576  30.961  1.00  0.00     0.031 A 
ATOM     80  C   UNL A   1      38.863  29.859  28.742  1.00  0.00     0.131 A 
ATOM     81  C   UNL A   1      38.460  29.784  31.474  1.00  0.00     0.055 A 
ATOM     82  C   UNL A   1      37.595  30.132  29.259  1.00  0.00     0.041 A 
ATOM     83  F   UNL A   1      39.005  29.871  27.407  1.00  0.00    -0.206 F 
ATOM     84  C   UNL A   1      37.385  30.076  30.633  1.00  0.00     0.022 A 
BRANCH  81  85
ATOM     85  S   UNL A   1      38.184  29.536  33.250  1.00  0.00     0.124 S 
ATOM     86  O   UNL A   1      37.897  30.893  33.699  1.00  0.00    -0.237 OA
ATOM     87  O   UNL A   1      37.058  28.607  33.252  1.00  0.00    -0.237 OA
ATOM     88  O   UNL A   1      39.452  28.978  33.716  1.00  0.00    -0.744 OA
ENDBRANCH  81  85
ENDBRANCH  54  78
BRANCH  66  89
ATOM     89  C   UNL A   1      46.027  32.961  28.969  1.00  0.00     0.023 A 
ATOM     90  C   UNL A   1      45.923  33.979  28.006  1.00  0.00     0.031 A 
ATOM     91  C   UNL A   1      46.527  33.298  30.240  1.00  0.00     0.131 A 
ATOM     92  C   UNL A   1      46.372  35.273  28.308  1.00  0.00     0.055 A 
ATOM     93  C   UNL A   1      46.914  34.601  30.555  1.00  0.00     0.041 A 
ATOM     94  F   UNL A   1      46.647  32.364  31.196  1.00  0.00    -0.206 F 
ATOM     95  C   UNL A   1      46.852  35.594  29.582  1.00  0.00     0.022 A 
BRANCH  92  96
ATOM     96  S   UNL A   1      46.408  36.514  26.985  1.00  0.00     0.124 S 
ATOM     97  O   UNL A   1      45.324  37.408  27.377  1.00  0.00    -0.237 OA
ATOM     98  O   UNL A   1      47.757  37.057  27.104  1.00  0.00    -0.237 OA
ATOM     99  O   UNL A   1      46.161  35.731  25.775  1.00  0.00    -0.744 OA
ENDBRANCH  92  96
ENDBRANCH  66  89
ENDBRANCH  40  41
ENDBRANCH  33  35
ENDBRANCH  32  33
ENDBRANCH  31  32
ENDBRANCH  30  31
ENDBRANCH   1  30
TORSDOF 20
ENDMDL
MODEL 3
REMARK VINA RESULT:     -11.2      5.377      9.319
REMARK SMILES COc1ccc(CCN2/C(=[NH+]/C(=O)CCC(=O)OCCOC(=O)c3ccc(-c4c5nc(c(-c6cc(S(=O)(=O)[O-])ccc6F)c6ccc([nH]6)c(-c6cc(S(=O)(=O)[O-])ccc6F)c6nc(c(-c7cc(S(=O)(=O)[O-])ccc7F)c7ccc4[nH]7)C=C6)C=C5)cc3)S[C@@H]3CS(=O)(=O)C[C@@H]32)cc1
REMARK SMILES IDX 18 1 16 2 17 3 15 4 14 5 12 6 9 7 10 8 94 9 11 10 87 11
REMARK SMILES IDX 88 12 93 13 89 15 90 16 13 17 91 18 92 19 8 20 7 21 6 22
REMARK SMILES IDX 3 23 4 24 96 25 5 26 95 27 2 28 1 29 19 30 20 31 21 32 22 33
REMARK SMILES IDX 23 34 24 35 25 36 86 37 26 38 85 39 27 40 28 41 29 42 79 43
REMARK SMILES IDX 30 44 84 45 78 46 80 47 31 48 83 49 77 50 76 51 32 53 64 54
REMARK SMILES IDX 44 55 63 56 45 57 48 58 62 59 81 60 46 61 47 62 61 64 82 65
REMARK SMILES IDX 49 66 33 67 34 68 42 69 35 70 41 71 43 72 40 73 36 74 37 75
REMARK SMILES IDX 38 76 39 77 65 78 66 79 74 80 67 81 73 82 75 83 72 84 68 85
REMARK SMILES IDX 69 86 70 87 71 88 50 89 51 90 59 91 52 92 58 93 60 94 57 95
REMARK SMILES IDX 53 96 54 97 55 98 56 99
REMARK H PARENT 11 14 80 52 48 63
REMARK Flexibility Score: inf
ROOT
ATOM      1  O   UNL A   1      37.473  19.984  25.005  1.00  0.00    -0.462 OA
ENDROOT
BRANCH   1   2
ATOM      2  C   UNL A   1      36.491  20.918  24.991  1.00  0.00     0.306 C 
ATOM      3  O   UNL A   1      35.314  20.696  25.243  1.00  0.00    -0.252 OA
BRANCH   2   4
ATOM      4  C   UNL A   1      36.995  22.272  24.552  1.00  0.00     0.135 C 
BRANCH   4   5
ATOM      5  C   UNL A   1      36.050  23.420  24.876  1.00  0.00     0.139 C 
BRANCH   5   6
ATOM      6  C   UNL A   1      35.012  23.590  23.786  1.00  0.00     0.308 C 
ATOM      7  N   UNL A   1      31.649  24.955  24.048  1.00  0.00    -0.251 N 
ATOM      8  C   UNL A   1      32.818  24.398  23.537  1.00  0.00     0.314 C 
ATOM      9  C   UNL A   1      30.748  25.570  23.064  1.00  0.00     0.206 C 
ATOM     10  N   UNL A   1      33.796  23.993  24.269  1.00  0.00    -0.205 N 
ATOM     11  S   UNL A   1      32.755  24.448  21.774  1.00  0.00    -0.030 SA
ATOM     12  C   UNL A   1      31.600  25.831  21.811  1.00  0.00     0.120 C 
ATOM     13  C   UNL A   1      30.128  26.898  23.478  1.00  0.00     0.187 C 
ATOM     14  H   UNL A   1      33.661  23.971  25.244  1.00  0.00     0.316 HD
ATOM     15  C   UNL A   1      32.359  27.132  22.031  1.00  0.00     0.156 C 
ATOM     16  S   UNL A   1      31.157  28.179  22.800  1.00  0.00     0.155 S 
ATOM     17  O   UNL A   1      35.340  23.447  22.611  1.00  0.00    -0.247 OA
ATOM     18  O   UNL A   1      31.776  28.909  23.885  1.00  0.00    -0.229 OA
ATOM     19  O   UNL A   1      30.405  28.844  21.754  1.00  0.00    -0.229 OA
BRANCH   7  20
ATOM     20  C   UNL A   1      31.273  24.801  25.458  1.00  0.00     0.242 C 
BRANCH  20  21
ATOM     21  C   UNL A   1      32.363  25.221  26.458  1.00  0.00     0.081 C 
BRANCH  21  22
ATOM     22  C   UNL A   1      32.524  26.718  26.576  1.00  0.00    -0.044 A 
ATOM     23  C   UNL A   1      32.862  29.489  26.931  1.00  0.00     0.118 A 
ATOM     24  C   UNL A   1      31.653  28.879  27.252  1.00  0.00     0.046 A 
ATOM     25  C   UNL A   1      33.910  28.715  26.431  1.00  0.00     0.046 A 
ATOM     26  C   UNL A   1      31.476  27.512  27.053  1.00  0.00     0.007 A 
ATOM     27  C   UNL A   1      33.741  27.336  26.256  1.00  0.00     0.007 A 
BRANCH  23  28
ATOM     28  O   UNL A   1      32.928  30.825  27.203  1.00  0.00    -0.497 OA
ATOM     29  C   UNL A   1      31.772  31.573  26.851  1.00  0.00     0.278 C 
ENDBRANCH  23  28
ENDBRANCH  21  22
ENDBRANCH  20  21
ENDBRANCH   7  20
ENDBRANCH   5   6
ENDBRANCH   4   5
ENDBRANCH   2   4
ENDBRANCH   1   2
BRANCH   1  30
ATOM     30  C   UNL A   1      38.781  20.415  25.424  1.00  0.00     0.274 C 
BRANCH  30  31
ATOM     31  C   UNL A   1      39.665  19.221  25.785  1.00  0.00     0.275 C 
BRANCH  31  32
ATOM     32  O   UNL A   1      41.045  19.535  25.566  1.00  0.00    -0.458 OA
BRANCH  32  33
ATOM     33  C   UNL A   1      41.788  19.700  26.684  1.00  0.00     0.338 C 
ATOM     34  O   UNL A   1      42.277  18.839  27.388  1.00  0.00    -0.246 OA
BRANCH  33  35
ATOM     35  C   UNL A   1      41.975  21.138  26.893  1.00  0.00     0.060 A 
ATOM     36  C   UNL A   1      41.833  22.010  25.810  1.00  0.00     0.016 A 
ATOM     37  C   UNL A   1      42.321  21.605  28.161  1.00  0.00     0.016 A 
ATOM     38  C   UNL A   1      42.041  23.374  25.997  1.00  0.00     0.010 A 
ATOM     39  C   UNL A   1      42.519  22.971  28.346  1.00  0.00     0.010 A 
ATOM     40  C   UNL A   1      42.392  23.859  27.264  1.00  0.00    -0.014 A 
BRANCH  40  41
ATOM     41  C   UNL A   1      42.706  25.293  27.458  1.00  0.00     0.031 A 
ATOM     42  C   UNL A   1      44.046  25.808  27.020  1.00  0.00     0.074 A 
ATOM     43  C   UNL A   1      41.805  26.106  28.039  1.00  0.00     0.049 A 
ATOM     44  N   UNL A   1      44.590  26.978  27.220  1.00  0.00    -0.248 NA
ATOM     45  C   UNL A   1      44.891  24.868  26.266  1.00  0.00     0.031 C 
ATOM     46  C   UNL A   1      40.460  25.709  28.462  1.00  0.00     0.029 A 
ATOM     47  N   UNL A   1      41.887  27.430  28.387  1.00  0.00    -0.354 N 
ATOM     48  C   UNL A   1      45.844  26.917  26.622  1.00  0.00     0.074 A 
ATOM     49  C   UNL A   1      45.994  25.580  26.088  1.00  0.00     0.031 C 
ATOM     50  C   UNL A   1      39.848  26.767  29.021  1.00  0.00     0.029 A 
ATOM     51  C   UNL A   1      40.773  27.897  29.043  1.00  0.00     0.049 A 
ATOM     52  H   UNL A   1      42.670  27.991  28.186  1.00  0.00     0.167 HD
ATOM     53  C   UNL A   1      46.779  27.894  26.525  1.00  0.00     0.034 A 
ATOM     54  C   UNL A   1      40.544  29.092  29.624  1.00  0.00     0.034 A 
ATOM     55  C   UNL A   1      46.607  29.216  27.076  1.00  0.00     0.049 A 
ATOM     56  C   UNL A   1      41.629  30.140  29.561  1.00  0.00     0.074 A 
ATOM     57  C   UNL A   1      47.492  30.280  27.067  1.00  0.00     0.029 A 
ATOM     58  N   UNL A   1      45.465  29.656  27.734  1.00  0.00    -0.354 N 
ATOM     59  N   UNL A   1      42.823  30.063  29.016  1.00  0.00    -0.248 NA
ATOM     60  C   UNL A   1      41.334  31.439  30.180  1.00  0.00     0.031 C 
ATOM     61  C   UNL A   1      46.908  31.343  27.763  1.00  0.00     0.029 A 
ATOM     62  C   UNL A   1      45.628  30.970  28.144  1.00  0.00     0.049 A 
ATOM     63  H   UNL A   1      44.658  29.114  27.888  1.00  0.00     0.167 HD
ATOM     64  C   UNL A   1      43.401  31.319  29.191  1.00  0.00     0.074 A 
ATOM     65  C   UNL A   1      42.420  32.134  29.878  1.00  0.00     0.031 C 
ATOM     66  C   UNL A   1      44.628  31.764  28.817  1.00  0.00     0.034 A 
BRANCH  53  67
ATOM     67  C   UNL A   1      48.075  27.550  25.835  1.00  0.00     0.023 A 
ATOM     68  C   UNL A   1      48.230  27.689  24.445  1.00  0.00     0.031 A 
ATOM     69  C   UNL A   1      49.166  27.060  26.575  1.00  0.00     0.131 A 
ATOM     70  C   UNL A   1      49.428  27.290  23.831  1.00  0.00     0.055 A 
ATOM     71  C   UNL A   1      50.380  26.734  25.967  1.00  0.00     0.041 A 
ATOM     72  F   UNL A   1      49.067  26.882  27.902  1.00  0.00    -0.206 F 
ATOM     73  C   UNL A   1      50.513  26.837  24.586  1.00  0.00     0.022 A 
BRANCH  70  74
ATOM     74  S   UNL A   1      49.510  27.262  22.019  1.00  0.00     0.124 S 
ATOM     75  O   UNL A   1      48.572  26.188  21.699  1.00  0.00    -0.237 OA
ATOM     76  O   UNL A   1      49.084  28.611  21.662  1.00  0.00    -0.237 OA
ATOM     77  O   UNL A   1      50.913  26.958  21.745  1.00  0.00    -0.744 OA
ENDBRANCH  70  74
ENDBRANCH  53  67
BRANCH  54  78
ATOM     78  C   UNL A   1      39.267  29.360  30.349  1.00  0.00     0.023 A 
ATOM     79  C   UNL A   1      38.295  30.219  29.811  1.00  0.00     0.031 A 
ATOM     80  C   UNL A   1      39.033  28.826  31.630  1.00  0.00     0.131 A 
ATOM     81  C   UNL A   1      37.172  30.573  30.575  1.00  0.00     0.055 A 
ATOM     82  C   UNL A   1      37.881  29.129  32.359  1.00  0.00     0.041 A 
ATOM     83  F   UNL A   1      39.928  28.001  32.197  1.00  0.00    -0.206 F 
ATOM     84  C   UNL A   1      36.952  30.024  31.839  1.00  0.00     0.022 A 
BRANCH  81  85
ATOM     85  S   UNL A   1      36.070  31.869  29.943  1.00  0.00     0.124 S 
ATOM     86  O   UNL A   1      36.965  33.018  29.883  1.00  0.00    -0.237 OA
ATOM     87  O   UNL A   1      35.653  31.311  28.660  1.00  0.00    -0.237 OA
ATOM     88  O   UNL A   1      35.021  31.947  30.959  1.00  0.00    -0.744 OA
ENDBRANCH  81  85
ENDBRANCH  54  78
BRANCH  66  89
ATOM     89  C   UNL A   1      44.936  33.216  29.080  1.00  0.00     0.023 A 
ATOM     90  C   UNL A   1      45.471  33.653  30.304  1.00  0.00     0.031 A 
ATOM     91  C   UNL A   1      44.673  34.179  28.089  1.00  0.00     0.131 A 
ATOM     92  C   UNL A   1      45.667  35.023  30.529  1.00  0.00     0.055 A 
ATOM     93  C   UNL A   1      44.928  35.534  28.296  1.00  0.00     0.041 A 
ATOM     94  F   UNL A   1      44.162  33.815  26.902  1.00  0.00    -0.206 F 
ATOM     95  C   UNL A   1      45.414  35.965  29.527  1.00  0.00     0.022 A 
BRANCH  92  96
ATOM     96  S   UNL A   1      46.170  35.570  32.184  1.00  0.00     0.124 S 
ATOM     97  O   UNL A   1      47.206  34.599  32.523  1.00  0.00    -0.237 OA
ATOM     98  O   UNL A   1      46.630  36.932  31.936  1.00  0.00    -0.237 OA
ATOM     99  O   UNL A   1      44.940  35.465  32.968  1.00  0.00    -0.744 OA
ENDBRANCH  92  96
ENDBRANCH  66  89
ENDBRANCH  40  41
ENDBRANCH  33  35
ENDBRANCH  32  33
ENDBRANCH  31  32
ENDBRANCH  30  31
ENDBRANCH   1  30
TORSDOF 20
ENDMDL
