MODEL 1
REMARK VINA RESULT:     -13.4      0.000      0.000
REMARK SMILES Cc1ccc(NC(=O)c2cnn3c2NC2=C(C(=O)CCC2)[C@H]3c2ccc(C(=O)OCCOC(=O)c3ccc(-c4c5nc(c(-c6cc(S(=O)(=O)[O-])ccc6F)c6ccc([nH]6)c(-c6cc(S(=O)(=O)[O-])ccc6F)c6nc(c(-c7cc(S(=O)(=O)[O-])ccc7F)c7ccc4[nH]7)C=C6)C=C5)cc3)cc2)cc1
REMARK SMILES IDX 30 1 29 2 27 3 28 4 26 5 23 6 24 7 99 8 25 9 98 10 22 11
REMARK SMILES IDX 9 12 10 13 13 14 11 15 12 16 14 17 15 18 16 20 21 21 17 22
REMARK SMILES IDX 20 23 18 24 19 25 7 26 6 27 8 29 5 30 1 31 2 32 3 33 101 34
REMARK SMILES IDX 4 35 100 36 31 37 32 38 33 39 34 40 35 41 36 42 97 43 37 44
REMARK SMILES IDX 96 45 38 46 39 47 40 48 90 49 41 50 95 51 89 52 91 53 42 54
REMARK SMILES IDX 94 55 88 56 87 57 43 59 75 60 55 61 74 62 56 63 59 64 73 65
REMARK SMILES IDX 92 66 57 67 58 68 72 70 93 71 60 72 44 73 45 74 53 75 46 76
REMARK SMILES IDX 52 77 54 78 51 79 47 80 48 81 49 82 50 83 76 84 77 85 85 86
REMARK SMILES IDX 78 87 84 88 86 89 83 90 79 91 80 92 81 93 82 94 61 95 62 96
REMARK SMILES IDX 70 97 63 98 69 99 71 100 68 101 64 102 65 103 66 104 67 105
REMARK H PARENT 14 19 6 28 91 58 59 69
REMARK Flexibility Score: inf
ROOT
ATOM      1  C   UNL A   1      40.029  22.410  26.306  1.00  0.00     0.275 C 
ENDROOT
BRANCH   1   2
ATOM      2  O   UNL A   1      38.597  22.356  26.400  1.00  0.00    -0.458 OA
BRANCH   2   3
ATOM      3  C   UNL A   1      37.923  21.830  25.354  1.00  0.00     0.338 C 
ATOM      4  O   UNL A   1      38.103  20.743  24.841  1.00  0.00    -0.246 OA
BRANCH   3   5
ATOM      5  C   UNL A   1      36.793  22.713  25.016  1.00  0.00     0.060 A 
ATOM      6  C   UNL A   1      34.887  24.612  24.075  1.00  0.00    -0.019 A 
ATOM      7  C   UNL A   1      35.381  24.675  25.390  1.00  0.00     0.007 A 
ATOM      8  C   UNL A   1      35.343  23.519  23.300  1.00  0.00     0.007 A 
ATOM      9  C   UNL A   1      36.339  23.741  25.853  1.00  0.00     0.016 A 
ATOM     10  C   UNL A   1      36.269  22.583  23.746  1.00  0.00     0.016 A 
BRANCH   6  11
ATOM     11  C   UNL A   1      33.838  25.649  23.522  1.00  0.00     0.175 C 
ATOM     12  C   UNL A   1      30.992  24.390  25.179  1.00  0.00     0.102 A 
ATOM     13  C   UNL A   1      30.603  24.338  23.807  1.00  0.00     0.151 A 
ATOM     14  C   UNL A   1      32.031  25.306  25.183  1.00  0.00     0.142 A 
ATOM     15  N   UNL A   1      31.537  24.832  22.989  1.00  0.00    -0.178 NA
ATOM     16  N   UNL A   1      32.472  25.235  23.865  1.00  0.00    -0.237 N 
ATOM     17  N   UNL A   1      32.800  26.054  26.052  1.00  0.00    -0.343 N 
ATOM     18  C   UNL A   1      33.711  27.014  25.538  1.00  0.00     0.026 C 
ATOM     19  H   UNL A   1      32.717  25.922  27.024  1.00  0.00     0.168 HD
ATOM     20  C   UNL A   1      33.945  26.994  24.203  1.00  0.00     0.044 C 
ATOM     21  C   UNL A   1      33.992  28.314  26.242  1.00  0.00     0.055 C 
ATOM     22  C   UNL A   1      33.114  28.100  23.571  1.00  0.00     0.163 C 
ATOM     23  C   UNL A   1      33.098  29.429  25.693  1.00  0.00     0.014 C 
ATOM     24  O   UNL A   1      33.015  28.188  22.349  1.00  0.00    -0.294 OA
ATOM     25  C   UNL A   1      32.254  28.951  24.516  1.00  0.00     0.081 C 
BRANCH  12  26
ATOM     26  C   UNL A   1      30.425  23.636  26.266  1.00  0.00     0.261 C 
ATOM     27  N   UNL A   1      30.788  22.304  26.430  1.00  0.00    -0.322 N 
ATOM     28  H   UNL A   1      30.166  21.803  27.006  1.00  0.00     0.170 HD
ATOM     29  O   UNL A   1      29.601  24.128  27.035  1.00  0.00    -0.269 OA
BRANCH  27  30
ATOM     30  C   UNL A   1      31.861  21.506  25.949  1.00  0.00     0.041 A 
ATOM     31  C   UNL A   1      35.299  19.199  24.613  1.00  0.00     0.044 C 
ATOM     32  C   UNL A   1      34.129  20.006  25.092  1.00  0.00    -0.051 A 
ATOM     33  C   UNL A   1      32.947  19.992  24.361  1.00  0.00     0.005 A 
ATOM     34  C   UNL A   1      34.177  20.777  26.256  1.00  0.00     0.005 A 
ATOM     35  C   UNL A   1      31.843  20.739  24.784  1.00  0.00     0.026 A 
ATOM     36  C   UNL A   1      33.060  21.525  26.672  1.00  0.00     0.026 A 
ENDBRANCH  27  30
ENDBRANCH  12  26
ENDBRANCH   6  11
ENDBRANCH   3   5
ENDBRANCH   2   3
ENDBRANCH   1   2
BRANCH   1  37
ATOM     37  C   UNL A   1      40.854  21.281  26.972  1.00  0.00     0.275 C 
BRANCH  37  38
ATOM     38  O   UNL A   1      42.175  21.478  27.546  1.00  0.00    -0.458 OA
BRANCH  38  39
ATOM     39  C   UNL A   1      43.118  22.275  26.972  1.00  0.00     0.338 C 
ATOM     40  O   UNL A   1      43.848  21.943  26.072  1.00  0.00    -0.246 OA
BRANCH  39  41
ATOM     41  C   UNL A   1      43.040  23.653  27.504  1.00  0.00     0.060 A 
ATOM     42  C   UNL A   1      43.284  24.737  26.642  1.00  0.00     0.016 A 
ATOM     43  C   UNL A   1      42.457  23.830  28.754  1.00  0.00     0.016 A 
ATOM     44  C   UNL A   1      42.848  26.004  27.000  1.00  0.00     0.010 A 
ATOM     45  C   UNL A   1      41.848  25.020  29.015  1.00  0.00     0.010 A 
ATOM     46  C   UNL A   1      42.118  26.114  28.181  1.00  0.00    -0.014 A 
BRANCH  46  47
ATOM     47  C   UNL A   1      41.936  27.354  28.897  1.00  0.00     0.031 A 
ATOM     48  C   UNL A   1      40.742  28.182  28.680  1.00  0.00     0.074 A 
ATOM     49  C   UNL A   1      42.844  27.445  29.900  1.00  0.00     0.049 A 
ATOM     50  N   UNL A   1      40.716  29.459  28.823  1.00  0.00    -0.248 NA
ATOM     51  C   UNL A   1      39.452  27.647  28.224  1.00  0.00     0.031 C 
ATOM     52  C   UNL A   1      42.857  28.243  31.107  1.00  0.00     0.029 A 
ATOM     53  N   UNL A   1      44.048  26.734  30.014  1.00  0.00    -0.354 N 
ATOM     54  C   UNL A   1      39.384  29.807  28.939  1.00  0.00     0.074 A 
ATOM     55  C   UNL A   1      38.651  28.717  28.345  1.00  0.00     0.031 C 
ATOM     56  C   UNL A   1      44.118  28.250  31.595  1.00  0.00     0.029 A 
ATOM     57  C   UNL A   1      44.967  27.568  30.624  1.00  0.00     0.049 A 
ATOM     58  H   UNL A   1      44.210  25.811  29.713  1.00  0.00     0.167 HD
ATOM     59  C   UNL A   1      39.044  30.824  29.784  1.00  0.00     0.034 A 
ATOM     60  C   UNL A   1      45.980  28.130  29.895  1.00  0.00     0.034 A 
ATOM     61  C   UNL A   1      40.233  31.255  30.517  1.00  0.00     0.049 A 
ATOM     62  C   UNL A   1      45.761  29.625  29.823  1.00  0.00     0.074 A 
ATOM     63  C   UNL A   1      40.681  30.941  31.789  1.00  0.00     0.029 A 
ATOM     64  N   UNL A   1      41.300  31.818  29.840  1.00  0.00    -0.354 N 
ATOM     65  N   UNL A   1      44.581  30.187  29.801  1.00  0.00    -0.248 NA
ATOM     66  C   UNL A   1      46.850  30.590  29.892  1.00  0.00     0.031 C 
ATOM     67  C   UNL A   1      42.054  31.286  31.857  1.00  0.00     0.029 A 
ATOM     68  C   UNL A   1      42.432  31.795  30.626  1.00  0.00     0.049 A 
ATOM     69  H   UNL A   1      41.257  32.185  28.928  1.00  0.00     0.167 HD
ATOM     70  C   UNL A   1      44.725  31.538  29.977  1.00  0.00     0.074 A 
ATOM     71  C   UNL A   1      46.166  31.742  29.999  1.00  0.00     0.031 C 
ATOM     72  C   UNL A   1      43.664  32.386  30.144  1.00  0.00     0.034 A 
BRANCH  59  73
ATOM     73  C   UNL A   1      37.661  31.214  30.254  1.00  0.00     0.023 A 
ATOM     74  C   UNL A   1      36.812  31.883  29.342  1.00  0.00     0.031 A 
ATOM     75  C   UNL A   1      37.098  30.949  31.514  1.00  0.00     0.131 A 
ATOM     76  C   UNL A   1      35.526  32.317  29.694  1.00  0.00     0.055 A 
ATOM     77  C   UNL A   1      35.812  31.392  31.875  1.00  0.00     0.041 A 
ATOM     78  F   UNL A   1      37.743  30.218  32.433  1.00  0.00    -0.206 F 
ATOM     79  C   UNL A   1      35.020  32.086  30.966  1.00  0.00     0.022 A 
BRANCH  76  80
ATOM     80  S   UNL A   1      34.534  33.181  28.445  1.00  0.00     0.124 S 
ATOM     81  O   UNL A   1      33.838  34.184  29.247  1.00  0.00    -0.237 OA
ATOM     82  O   UNL A   1      35.551  33.682  27.529  1.00  0.00    -0.237 OA
ATOM     83  O   UNL A   1      33.680  32.126  27.902  1.00  0.00    -0.744 OA
ENDBRANCH  76  80
ENDBRANCH  59  73
BRANCH  60  84
ATOM     84  C   UNL A   1      46.519  27.272  28.788  1.00  0.00     0.023 A 
ATOM     85  C   UNL A   1      46.033  27.515  27.484  1.00  0.00     0.031 A 
ATOM     86  C   UNL A   1      47.685  26.499  28.901  1.00  0.00     0.131 A 
ATOM     87  C   UNL A   1      46.778  27.139  26.353  1.00  0.00     0.055 A 
ATOM     88  C   UNL A   1      48.396  26.071  27.766  1.00  0.00     0.041 A 
ATOM     89  F   UNL A   1      48.216  26.228  30.101  1.00  0.00    -0.206 F 
ATOM     90  C   UNL A   1      47.967  26.425  26.486  1.00  0.00     0.022 A 
BRANCH  87  91
ATOM     91  S   UNL A   1      46.300  27.834  24.741  1.00  0.00     0.124 S 
ATOM     92  O   UNL A   1      46.700  29.230  24.881  1.00  0.00    -0.237 OA
ATOM     93  O   UNL A   1      47.093  27.029  23.815  1.00  0.00    -0.237 OA
ATOM     94  O   UNL A   1      44.863  27.592  24.680  1.00  0.00    -0.744 OA
ENDBRANCH  87  91
ENDBRANCH  60  84
BRANCH  72  95
ATOM     95  C   UNL A   1      43.709  33.884  29.982  1.00  0.00     0.023 A 
ATOM     96  C   UNL A   1      43.314  34.510  28.800  1.00  0.00     0.031 A 
ATOM     97  C   UNL A   1      44.053  34.752  31.050  1.00  0.00     0.131 A 
ATOM     98  C   UNL A   1      43.394  35.899  28.654  1.00  0.00     0.055 A 
ATOM     99  C   UNL A   1      44.015  36.142  30.942  1.00  0.00     0.041 A 
ATOM    100  F   UNL A   1      44.425  34.296  32.255  1.00  0.00    -0.206 F 
ATOM    101  C   UNL A   1      43.711  36.727  29.724  1.00  0.00     0.022 A 
BRANCH  98 102
ATOM    102  S   UNL A   1      43.182  36.560  26.988  1.00  0.00     0.124 S 
ATOM    103  O   UNL A   1      41.905  37.261  27.110  1.00  0.00    -0.237 OA
ATOM    104  O   UNL A   1      44.357  37.414  26.838  1.00  0.00    -0.237 OA
ATOM    105  O   UNL A   1      43.162  35.369  26.146  1.00  0.00    -0.744 OA
ENDBRANCH  98 102
ENDBRANCH  72  95
ENDBRANCH  46  47
ENDBRANCH  39  41
ENDBRANCH  38  39
ENDBRANCH  37  38
ENDBRANCH   1  37
TORSDOF 17
ENDMDL
MODEL 2
REMARK VINA RESULT:     -13.3      3.732      9.456
REMARK SMILES Cc1ccc(NC(=O)c2cnn3c2NC2=C(C(=O)CCC2)[C@H]3c2ccc(C(=O)OCCOC(=O)c3ccc(-c4c5nc(c(-c6cc(S(=O)(=O)[O-])ccc6F)c6ccc([nH]6)c(-c6cc(S(=O)(=O)[O-])ccc6F)c6nc(c(-c7cc(S(=O)(=O)[O-])ccc7F)c7ccc4[nH]7)C=C6)C=C5)cc3)cc2)cc1
REMARK SMILES IDX 30 1 29 2 27 3 28 4 26 5 23 6 24 7 99 8 25 9 98 10 22 11
REMARK SMILES IDX 9 12 10 13 13 14 11 15 12 16 14 17 15 18 16 20 21 21 17 22
REMARK SMILES IDX 20 23 18 24 19 25 7 26 6 27 8 29 5 30 1 31 2 32 3 33 101 34
REMARK SMILES IDX 4 35 100 36 31 37 32 38 33 39 34 40 35 41 36 42 97 43 37 44
REMARK SMILES IDX 96 45 38 46 39 47 40 48 90 49 41 50 95 51 89 52 91 53 42 54
REMARK SMILES IDX 94 55 88 56 87 57 43 59 75 60 55 61 74 62 56 63 59 64 73 65
REMARK SMILES IDX 92 66 57 67 58 68 72 70 93 71 60 72 44 73 45 74 53 75 46 76
REMARK SMILES IDX 52 77 54 78 51 79 47 80 48 81 49 82 50 83 76 84 77 85 85 86
REMARK SMILES IDX 78 87 84 88 86 89 83 90 79 91 80 92 81 93 82 94 61 95 62 96
REMARK SMILES IDX 70 97 63 98 69 99 71 100 68 101 64 102 65 103 66 104 67 105
REMARK H PARENT 14 19 6 28 91 58 59 69
REMARK Flexibility Score: inf
ROOT
ATOM      1  C   UNL A   1      33.111  31.487  27.393  1.00  0.00     0.275 C 
ENDROOT
BRANCH   1   2
ATOM      2  O   UNL A   1      32.592  30.156  27.250  1.00  0.00    -0.458 OA
BRANCH   2   3
ATOM      3  C   UNL A   1      32.743  29.554  26.050  1.00  0.00     0.338 C 
ATOM      4  O   UNL A   1      32.912  30.097  24.976  1.00  0.00    -0.246 OA
BRANCH   3   5
ATOM      5  C   UNL A   1      32.848  28.098  26.252  1.00  0.00     0.060 A 
ATOM      6  C   UNL A   1      33.082  25.257  26.199  1.00  0.00    -0.019 A 
ATOM      7  C   UNL A   1      31.883  25.876  26.595  1.00  0.00     0.007 A 
ATOM      8  C   UNL A   1      34.155  26.131  25.907  1.00  0.00     0.007 A 
ATOM      9  C   UNL A   1      31.762  27.287  26.606  1.00  0.00     0.016 A 
ATOM     10  C   UNL A   1      34.059  27.518  25.932  1.00  0.00     0.016 A 
BRANCH   6  11
ATOM     11  C   UNL A   1      33.241  23.691  26.154  1.00  0.00     0.175 C 
ATOM     12  C   UNL A   1      32.891  23.269  22.672  1.00  0.00     0.102 A 
ATOM     13  C   UNL A   1      31.854  22.438  23.192  1.00  0.00     0.151 A 
ATOM     14  C   UNL A   1      33.753  23.416  23.745  1.00  0.00     0.142 A 
ATOM     15  N   UNL A   1      31.842  22.407  24.527  1.00  0.00    -0.178 NA
ATOM     16  N   UNL A   1      32.905  23.175  24.821  1.00  0.00    -0.237 N 
ATOM     17  N   UNL A   1      35.024  23.863  24.049  1.00  0.00    -0.343 N 
ATOM     18  C   UNL A   1      35.544  23.670  25.355  1.00  0.00     0.026 C 
ATOM     19  H   UNL A   1      35.567  24.313  23.362  1.00  0.00     0.168 HD
ATOM     20  C   UNL A   1      34.679  23.254  26.313  1.00  0.00     0.044 C 
ATOM     21  C   UNL A   1      37.001  23.388  25.608  1.00  0.00     0.055 C 
ATOM     22  C   UNL A   1      34.878  21.757  26.495  1.00  0.00     0.163 C 
ATOM     23  C   UNL A   1      37.249  21.879  25.700  1.00  0.00     0.014 C 
ATOM     24  O   UNL A   1      34.099  21.102  27.184  1.00  0.00    -0.294 OA
ATOM     25  C   UNL A   1      35.949  21.086  25.623  1.00  0.00     0.081 C 
BRANCH  12  26
ATOM     26  C   UNL A   1      32.972  23.819  21.344  1.00  0.00     0.261 C 
ATOM     27  N   UNL A   1      32.235  24.956  21.035  1.00  0.00    -0.322 N 
ATOM     28  H   UNL A   1      32.133  25.097  20.065  1.00  0.00     0.170 HD
ATOM     29  O   UNL A   1      33.648  23.290  20.463  1.00  0.00    -0.269 OA
BRANCH  27  30
ATOM     30  C   UNL A   1      31.596  25.961  21.811  1.00  0.00     0.041 A 
ATOM     31  C   UNL A   1      29.843  29.172  24.165  1.00  0.00     0.044 C 
ATOM     32  C   UNL A   1      30.468  28.082  23.346  1.00  0.00    -0.051 A 
ATOM     33  C   UNL A   1      29.952  26.793  23.423  1.00  0.00     0.005 A 
ATOM     34  C   UNL A   1      31.555  28.308  22.499  1.00  0.00     0.005 A 
ATOM     35  C   UNL A   1      30.519  25.757  22.673  1.00  0.00     0.026 A 
ATOM     36  C   UNL A   1      32.117  27.258  21.750  1.00  0.00     0.026 A 
ENDBRANCH  27  30
ENDBRANCH  12  26
ENDBRANCH   6  11
ENDBRANCH   3   5
ENDBRANCH   2   3
ENDBRANCH   1   2
BRANCH   1  37
ATOM     37  C   UNL A   1      34.601  31.659  27.781  1.00  0.00     0.275 C 
BRANCH  37  38
ATOM     38  O   UNL A   1      35.475  30.553  28.135  1.00  0.00    -0.458 OA
BRANCH  38  39
ATOM     39  C   UNL A   1      36.135  30.485  29.325  1.00  0.00     0.338 C 
ATOM     40  O   UNL A   1      35.730  30.941  30.365  1.00  0.00    -0.246 OA
BRANCH  39  41
ATOM     41  C   UNL A   1      37.353  29.655  29.207  1.00  0.00     0.060 A 
ATOM     42  C   UNL A   1      38.214  29.852  28.114  1.00  0.00     0.016 A 
ATOM     43  C   UNL A   1      37.742  28.917  30.320  1.00  0.00     0.016 A 
ATOM     44  C   UNL A   1      39.518  29.381  28.180  1.00  0.00     0.010 A 
ATOM     45  C   UNL A   1      39.066  28.640  30.476  1.00  0.00     0.010 A 
ATOM     46  C   UNL A   1      39.922  28.797  29.377  1.00  0.00    -0.014 A 
BRANCH  46  47
ATOM     47  C   UNL A   1      41.063  27.921  29.496  1.00  0.00     0.031 A 
ATOM     48  C   UNL A   1      41.033  26.562  28.938  1.00  0.00     0.074 A 
ATOM     49  C   UNL A   1      42.141  28.624  29.925  1.00  0.00     0.049 A 
ATOM     50  N   UNL A   1      41.709  25.576  29.410  1.00  0.00    -0.248 NA
ATOM     51  C   UNL A   1      40.186  26.166  27.806  1.00  0.00     0.031 C 
ATOM     52  C   UNL A   1      43.558  28.347  29.840  1.00  0.00     0.029 A 
ATOM     53  N   UNL A   1      42.131  29.865  30.579  1.00  0.00    -0.354 N 
ATOM     54  C   UNL A   1      41.744  24.621  28.412  1.00  0.00     0.074 A 
ATOM     55  C   UNL A   1      40.625  24.923  27.554  1.00  0.00     0.031 C 
ATOM     56  C   UNL A   1      44.200  29.156  30.711  1.00  0.00     0.029 A 
ATOM     57  C   UNL A   1      43.184  29.871  31.475  1.00  0.00     0.049 A 
ATOM     58  H   UNL A   1      41.491  30.599  30.428  1.00  0.00     0.167 HD
ATOM     59  C   UNL A   1      42.877  23.875  28.258  1.00  0.00     0.034 A 
ATOM     60  C   UNL A   1      42.948  29.756  32.819  1.00  0.00     0.034 A 
ATOM     61  C   UNL A   1      43.908  24.381  29.162  1.00  0.00     0.049 A 
ATOM     62  C   UNL A   1      43.495  28.431  33.301  1.00  0.00     0.074 A 
ATOM     63  C   UNL A   1      44.974  25.238  28.940  1.00  0.00     0.029 A 
ATOM     64  N   UNL A   1      43.728  24.309  30.532  1.00  0.00    -0.354 N 
ATOM     65  N   UNL A   1      43.525  27.347  32.570  1.00  0.00    -0.248 NA
ATOM     66  C   UNL A   1      44.152  28.267  34.590  1.00  0.00     0.031 C 
ATOM     67  C   UNL A   1      45.409  25.717  30.201  1.00  0.00     0.029 A 
ATOM     68  C   UNL A   1      44.600  25.159  31.177  1.00  0.00     0.049 A 
ATOM     69  H   UNL A   1      43.071  23.731  30.983  1.00  0.00     0.167 HD
ATOM     70  C   UNL A   1      44.290  26.402  33.203  1.00  0.00     0.074 A 
ATOM     71  C   UNL A   1      44.633  27.017  34.476  1.00  0.00     0.031 C 
ATOM     72  C   UNL A   1      44.631  25.210  32.624  1.00  0.00     0.034 A 
BRANCH  59  73
ATOM     73  C   UNL A   1      43.237  22.962  27.108  1.00  0.00     0.023 A 
ATOM     74  C   UNL A   1      42.737  21.639  27.128  1.00  0.00     0.031 A 
ATOM     75  C   UNL A   1      43.999  23.298  25.977  1.00  0.00     0.131 A 
ATOM     76  C   UNL A   1      43.042  20.706  26.127  1.00  0.00     0.055 A 
ATOM     77  C   UNL A   1      44.317  22.363  24.976  1.00  0.00     0.041 A 
ATOM     78  F   UNL A   1      44.433  24.548  25.768  1.00  0.00    -0.206 F 
ATOM     79  C   UNL A   1      43.844  21.056  25.050  1.00  0.00     0.022 A 
BRANCH  76  80
ATOM     80  S   UNL A   1      42.359  19.032  26.269  1.00  0.00     0.124 S 
ATOM     81  O   UNL A   1      43.247  18.265  25.401  1.00  0.00    -0.237 OA
ATOM     82  O   UNL A   1      42.468  18.768  27.698  1.00  0.00    -0.237 OA
ATOM     83  O   UNL A   1      40.991  19.182  25.773  1.00  0.00    -0.744 OA
ENDBRANCH  76  80
ENDBRANCH  59  73
BRANCH  60  84
ATOM     84  C   UNL A   1      41.683  30.406  33.300  1.00  0.00     0.023 A 
ATOM     85  C   UNL A   1      41.588  31.810  33.174  1.00  0.00     0.031 A 
ATOM     86  C   UNL A   1      40.493  29.704  33.546  1.00  0.00     0.131 A 
ATOM     87  C   UNL A   1      40.336  32.448  33.130  1.00  0.00     0.055 A 
ATOM     88  C   UNL A   1      39.246  30.355  33.563  1.00  0.00     0.041 A 
ATOM     89  F   UNL A   1      40.495  28.370  33.671  1.00  0.00    -0.206 F 
ATOM     90  C   UNL A   1      39.159  31.725  33.314  1.00  0.00     0.022 A 
BRANCH  87  91
ATOM     91  S   UNL A   1      40.274  34.176  32.564  1.00  0.00     0.124 S 
ATOM     92  O   UNL A   1      40.141  34.018  31.120  1.00  0.00    -0.237 OA
ATOM     93  O   UNL A   1      39.096  34.683  33.265  1.00  0.00    -0.237 OA
ATOM     94  O   UNL A   1      41.542  34.730  33.025  1.00  0.00    -0.744 OA
ENDBRANCH  87  91
ENDBRANCH  60  84
BRANCH  72  95
ATOM     95  C   UNL A   1      45.143  23.997  33.359  1.00  0.00     0.023 A 
ATOM     96  C   UNL A   1      46.456  23.915  33.822  1.00  0.00     0.031 A 
ATOM     97  C   UNL A   1      44.299  22.916  33.717  1.00  0.00     0.131 A 
ATOM     98  C   UNL A   1      46.925  22.769  34.472  1.00  0.00     0.055 A 
ATOM     99  C   UNL A   1      44.736  21.828  34.473  1.00  0.00     0.041 A 
ATOM    100  F   UNL A   1      43.005  22.868  33.368  1.00  0.00    -0.206 F 
ATOM    101  C   UNL A   1      46.070  21.734  34.832  1.00  0.00     0.022 A 
BRANCH  98 102
ATOM    102  S   UNL A   1      48.708  22.640  34.721  1.00  0.00     0.124 S 
ATOM    103  O   UNL A   1      49.207  23.672  33.814  1.00  0.00    -0.237 OA
ATOM    104  O   UNL A   1      48.847  22.932  36.145  1.00  0.00    -0.237 OA
ATOM    105  O   UNL A   1      49.010  21.267  34.331  1.00  0.00    -0.744 OA
ENDBRANCH  98 102
ENDBRANCH  72  95
ENDBRANCH  46  47
ENDBRANCH  39  41
ENDBRANCH  38  39
ENDBRANCH  37  38
ENDBRANCH   1  37
TORSDOF 17
ENDMDL
MODEL 3
REMARK VINA RESULT:     -13.0      2.632      3.599
REMARK SMILES Cc1ccc(NC(=O)c2cnn3c2NC2=C(C(=O)CCC2)[C@H]3c2ccc(C(=O)OCCOC(=O)c3ccc(-c4c5nc(c(-c6cc(S(=O)(=O)[O-])ccc6F)c6ccc([nH]6)c(-c6cc(S(=O)(=O)[O-])ccc6F)c6nc(c(-c7cc(S(=O)(=O)[O-])ccc7F)c7ccc4[nH]7)C=C6)C=C5)cc3)cc2)cc1
REMARK SMILES IDX 30 1 29 2 27 3 28 4 26 5 23 6 24 7 99 8 25 9 98 10 22 11
REMARK SMILES IDX 9 12 10 13 13 14 11 15 12 16 14 17 15 18 16 20 21 21 17 22
REMARK SMILES IDX 20 23 18 24 19 25 7 26 6 27 8 29 5 30 1 31 2 32 3 33 101 34
REMARK SMILES IDX 4 35 100 36 31 37 32 38 33 39 34 40 35 41 36 42 97 43 37 44
REMARK SMILES IDX 96 45 38 46 39 47 40 48 90 49 41 50 95 51 89 52 91 53 42 54
REMARK SMILES IDX 94 55 88 56 87 57 43 59 75 60 55 61 74 62 56 63 59 64 73 65
REMARK SMILES IDX 92 66 57 67 58 68 72 70 93 71 60 72 44 73 45 74 53 75 46 76
REMARK SMILES IDX 52 77 54 78 51 79 47 80 48 81 49 82 50 83 76 84 77 85 85 86
REMARK SMILES IDX 78 87 84 88 86 89 83 90 79 91 80 92 81 93 82 94 61 95 62 96
REMARK SMILES IDX 70 97 63 98 69 99 71 100 68 101 64 102 65 103 66 104 67 105
REMARK H PARENT 14 19 6 28 91 58 59 69
REMARK Flexibility Score: inf
ROOT
ATOM      1  C   UNL A   1      39.724  22.076  26.422  1.00  0.00     0.275 C 
ENDROOT
BRANCH   1   2
ATOM      2  O   UNL A   1      38.293  22.198  26.411  1.00  0.00    -0.458 OA
BRANCH   2   3
ATOM      3  C   UNL A   1      37.631  21.663  25.362  1.00  0.00     0.338 C 
ATOM      4  O   UNL A   1      37.616  20.495  25.025  1.00  0.00    -0.246 OA
BRANCH   3   5
ATOM      5  C   UNL A   1      36.766  22.695  24.762  1.00  0.00     0.060 A 
ATOM      6  C   UNL A   1      34.788  24.555  23.895  1.00  0.00    -0.019 A 
ATOM      7  C   UNL A   1      35.206  23.504  23.061  1.00  0.00     0.007 A 
ATOM      8  C   UNL A   1      35.461  24.657  25.136  1.00  0.00     0.007 A 
ATOM      9  C   UNL A   1      36.177  22.570  23.497  1.00  0.00     0.016 A 
ATOM     10  C   UNL A   1      36.430  23.761  25.572  1.00  0.00     0.016 A 
BRANCH   6  11
ATOM     11  C   UNL A   1      33.693  25.596  23.449  1.00  0.00     0.175 C 
ATOM     12  C   UNL A   1      31.002  24.304  25.323  1.00  0.00     0.102 A 
ATOM     13  C   UNL A   1      30.498  24.268  23.989  1.00  0.00     0.151 A 
ATOM     14  C   UNL A   1      32.036  25.223  25.252  1.00  0.00     0.142 A 
ATOM     15  N   UNL A   1      31.357  24.778  23.102  1.00  0.00    -0.178 NA
ATOM     16  N   UNL A   1      32.363  25.172  23.900  1.00  0.00    -0.237 N 
ATOM     17  N   UNL A   1      32.873  25.962  26.063  1.00  0.00    -0.343 N 
ATOM     18  C   UNL A   1      33.734  26.932  25.486  1.00  0.00     0.026 C 
ATOM     19  H   UNL A   1      32.874  25.816  27.036  1.00  0.00     0.168 HD
ATOM     20  C   UNL A   1      33.855  26.932  24.136  1.00  0.00     0.044 C 
ATOM     21  C   UNL A   1      34.072  28.224  26.183  1.00  0.00     0.055 C 
ATOM     22  C   UNL A   1      32.970  28.044  23.593  1.00  0.00     0.163 C 
ATOM     23  C   UNL A   1      33.131  29.343  25.727  1.00  0.00     0.014 C 
ATOM     24  O   UNL A   1      32.767  28.147  22.386  1.00  0.00    -0.294 OA
ATOM     25  C   UNL A   1      32.191  28.878  24.620  1.00  0.00     0.081 C 
BRANCH  12  26
ATOM     26  C   UNL A   1      30.532  23.532  26.444  1.00  0.00     0.261 C 
ATOM     27  N   UNL A   1      30.958  22.218  26.590  1.00  0.00    -0.322 N 
ATOM     28  H   UNL A   1      30.392  21.694  27.202  1.00  0.00     0.170 HD
ATOM     29  O   UNL A   1      29.734  23.994  27.259  1.00  0.00    -0.269 OA
BRANCH  27  30
ATOM     30  C   UNL A   1      32.033  21.462  26.049  1.00  0.00     0.041 A 
ATOM     31  C   UNL A   1      35.159  19.014  24.269  1.00  0.00     0.044 C 
ATOM     32  C   UNL A   1      34.064  19.847  24.865  1.00  0.00    -0.051 A 
ATOM     33  C   UNL A   1      34.316  20.576  26.022  1.00  0.00     0.005 A 
ATOM     34  C   UNL A   1      32.788  19.925  24.301  1.00  0.00     0.005 A 
ATOM     35  C   UNL A   1      33.310  21.358  26.600  1.00  0.00     0.026 A 
ATOM     36  C   UNL A   1      31.784  20.714  24.892  1.00  0.00     0.026 A 
ENDBRANCH  27  30
ENDBRANCH  12  26
ENDBRANCH   6  11
ENDBRANCH   3   5
ENDBRANCH   2   3
ENDBRANCH   1   2
BRANCH   1  37
ATOM     37  C   UNL A   1      40.570  23.357  26.628  1.00  0.00     0.275 C 
BRANCH  37  38
ATOM     38  O   UNL A   1      40.116  24.690  26.269  1.00  0.00    -0.458 OA
BRANCH  38  39
ATOM     39  C   UNL A   1      40.972  25.724  26.035  1.00  0.00     0.338 C 
ATOM     40  O   UNL A   1      41.643  25.853  25.042  1.00  0.00    -0.246 OA
BRANCH  39  41
ATOM     41  C   UNL A   1      40.871  26.746  27.100  1.00  0.00     0.060 A 
ATOM     42  C   UNL A   1      41.433  28.016  26.888  1.00  0.00     0.016 A 
ATOM     43  C   UNL A   1      39.986  26.503  28.145  1.00  0.00     0.016 A 
ATOM     44  C   UNL A   1      41.028  29.081  27.678  1.00  0.00     0.010 A 
ATOM     45  C   UNL A   1      39.433  27.574  28.779  1.00  0.00     0.010 A 
ATOM     46  C   UNL A   1      40.015  28.837  28.602  1.00  0.00    -0.014 A 
BRANCH  46  47
ATOM     47  C   UNL A   1      39.751  29.680  29.744  1.00  0.00     0.031 A 
ATOM     48  C   UNL A   1      38.850  30.835  29.636  1.00  0.00     0.074 A 
ATOM     49  C   UNL A   1      40.224  29.092  30.870  1.00  0.00     0.049 A 
ATOM     50  N   UNL A   1      38.949  31.894  30.357  1.00  0.00    -0.248 NA
ATOM     51  C   UNL A   1      37.762  30.931  28.653  1.00  0.00     0.031 C 
ATOM     52  C   UNL A   1      39.897  29.298  32.265  1.00  0.00     0.029 A 
ATOM     53  N   UNL A   1      41.190  28.077  30.950  1.00  0.00    -0.354 N 
ATOM     54  C   UNL A   1      37.731  32.540  30.263  1.00  0.00     0.074 A 
ATOM     55  C   UNL A   1      37.129  32.045  29.050  1.00  0.00     0.031 C 
ATOM     56  C   UNL A   1      40.874  28.740  33.015  1.00  0.00     0.029 A 
ATOM     57  C   UNL A   1      41.921  28.288  32.105  1.00  0.00     0.049 A 
ATOM     58  H   UNL A   1      41.323  27.348  30.301  1.00  0.00     0.167 HD
ATOM     59  C   UNL A   1      37.244  33.184  31.364  1.00  0.00     0.034 A 
ATOM     60  C   UNL A   1      43.199  28.772  32.034  1.00  0.00     0.034 A 
ATOM     61  C   UNL A   1      38.122  32.917  32.501  1.00  0.00     0.049 A 
ATOM     62  C   UNL A   1      43.230  30.163  32.627  1.00  0.00     0.074 A 
ATOM     63  C   UNL A   1      38.017  32.004  33.538  1.00  0.00     0.029 A 
ATOM     64  N   UNL A   1      39.431  33.365  32.490  1.00  0.00    -0.354 N 
ATOM     65  N   UNL A   1      42.232  31.005  32.559  1.00  0.00    -0.248 NA
ATOM     66  C   UNL A   1      44.337  30.655  33.436  1.00  0.00     0.031 C 
ATOM     67  C   UNL A   1      39.299  31.875  34.127  1.00  0.00     0.029 A 
ATOM     68  C   UNL A   1      40.175  32.700  33.440  1.00  0.00     0.049 A 
ATOM     69  H   UNL A   1      39.782  34.061  31.889  1.00  0.00     0.167 HD
ATOM     70  C   UNL A   1      42.485  32.065  33.390  1.00  0.00     0.074 A 
ATOM     71  C   UNL A   1      43.828  31.812  33.891  1.00  0.00     0.031 C 
ATOM     72  C   UNL A   1      41.565  33.045  33.649  1.00  0.00     0.034 A 
BRANCH  59  73
ATOM     73  C   UNL A   1      35.853  33.739  31.573  1.00  0.00     0.023 A 
ATOM     74  C   UNL A   1      35.193  34.317  30.464  1.00  0.00     0.031 A 
ATOM     75  C   UNL A   1      35.110  33.712  32.765  1.00  0.00     0.131 A 
ATOM     76  C   UNL A   1      33.918  34.890  30.564  1.00  0.00     0.055 A 
ATOM     77  C   UNL A   1      33.834  34.294  32.874  1.00  0.00     0.041 A 
ATOM     78  F   UNL A   1      35.562  33.087  33.861  1.00  0.00    -0.206 F 
ATOM     79  C   UNL A   1      33.233  34.894  31.771  1.00  0.00     0.022 A 
BRANCH  76  80
ATOM     80  S   UNL A   1      33.178  35.619  29.077  1.00  0.00     0.124 S 
ATOM     81  O   UNL A   1      32.336  36.671  29.639  1.00  0.00    -0.237 OA
ATOM     82  O   UNL A   1      34.350  36.062  28.330  1.00  0.00    -0.237 OA
ATOM     83  O   UNL A   1      32.451  34.501  28.478  1.00  0.00    -0.744 OA
ENDBRANCH  76  80
ENDBRANCH  59  73
BRANCH  60  84
ATOM     84  C   UNL A   1      43.988  28.312  30.842  1.00  0.00     0.023 A 
ATOM     85  C   UNL A   1      44.264  26.930  30.742  1.00  0.00     0.031 A 
ATOM     86  C   UNL A   1      44.172  29.086  29.686  1.00  0.00     0.131 A 
ATOM     87  C   UNL A   1      44.547  26.339  29.499  1.00  0.00     0.055 A 
ATOM     88  C   UNL A   1      44.517  28.498  28.456  1.00  0.00     0.041 A 
ATOM     89  F   UNL A   1      43.926  30.403  29.694  1.00  0.00    -0.206 F 
ATOM     90  C   UNL A   1      44.665  27.115  28.349  1.00  0.00     0.022 A 
BRANCH  87  91
ATOM     91  S   UNL A   1      44.489  24.524  29.380  1.00  0.00     0.124 S 
ATOM     92  O   UNL A   1      44.348  24.132  30.778  1.00  0.00    -0.237 OA
ATOM     93  O   UNL A   1      43.317  24.312  28.534  1.00  0.00    -0.237 OA
ATOM     94  O   UNL A   1      45.761  24.184  28.754  1.00  0.00    -0.744 OA
ENDBRANCH  87  91
ENDBRANCH  60  84
BRANCH  72  95
ATOM     95  C   UNL A   1      41.873  34.398  34.239  1.00  0.00     0.023 A 
ATOM     96  C   UNL A   1      42.432  35.425  33.478  1.00  0.00     0.031 A 
ATOM     97  C   UNL A   1      41.519  34.743  35.568  1.00  0.00     0.131 A 
ATOM     98  C   UNL A   1      42.743  36.663  34.049  1.00  0.00     0.055 A 
ATOM     99  C   UNL A   1      41.717  36.018  36.100  1.00  0.00     0.041 A 
ATOM    100  F   UNL A   1      40.947  33.870  36.409  1.00  0.00    -0.206 F 
ATOM    101  C   UNL A   1      42.362  36.983  35.347  1.00  0.00     0.022 A 
BRANCH  98 102
ATOM    102  S   UNL A   1      43.761  37.784  33.068  1.00  0.00     0.124 S 
ATOM    103  O   UNL A   1      45.026  37.752  33.801  1.00  0.00    -0.237 OA
ATOM    104  O   UNL A   1      43.774  37.134  31.761  1.00  0.00    -0.237 OA
ATOM    105  O   UNL A   1      43.036  39.050  33.131  1.00  0.00    -0.744 OA
ENDBRANCH  98 102
ENDBRANCH  72  95
ENDBRANCH  46  47
ENDBRANCH  39  41
ENDBRANCH  38  39
ENDBRANCH  37  38
ENDBRANCH   1  37
TORSDOF 17
ENDMDL
