MODEL 1
REMARK VINA RESULT:     -12.0      0.000      0.000
REMARK SMILES CCc1cc2c(C)cc(=O)oc2cc1O[C@H](C)C(=O)OCCOC(=O)c1ccc(-c2c3nc(c(-c4cc(S(=O)(=O)[O-])ccc4F)c4ccc([nH]4)c(-c4cc(S(=O)(=O)[O-])ccc4F)c4nc(c(-c5cc(S(=O)(=O)[O-])ccc5F)c5ccc2[nH]5)C=C4)C=C3)cc1
REMARK SMILES IDX 21 1 20 2 18 3 19 4 16 5 17 6 15 7 14 8 3 9 4 10 5 11 13 12
REMARK SMILES IDX 6 13 12 14 7 15 8 16 11 17 9 18 10 19 2 20 1 21 22 22 23 23
REMARK SMILES IDX 24 24 25 25 26 26 27 27 88 28 28 29 87 30 29 31 30 32 31 33
REMARK SMILES IDX 81 34 32 35 86 36 80 37 82 38 33 39 85 40 79 41 78 42 34 44
REMARK SMILES IDX 66 45 46 46 65 47 47 48 50 49 64 50 83 51 48 52 49 53 63 55
REMARK SMILES IDX 84 56 51 57 35 58 36 59 44 60 37 61 43 62 45 63 42 64 38 65
REMARK SMILES IDX 39 66 40 67 41 68 67 69 68 70 76 71 69 72 75 73 77 74 74 75
REMARK SMILES IDX 70 76 71 77 72 78 73 79 52 80 53 81 61 82 54 83 60 84 62 85
REMARK SMILES IDX 59 86 55 87 56 88 57 89 58 90
REMARK H PARENT 82 43 50 54
REMARK Flexibility Score: inf
ROOT
ATOM      1  C   UNL A   1      35.094  21.020  24.909  1.00  0.00     0.274 C 
ENDROOT
BRANCH   1   2
ATOM      2  O   UNL A   1      34.289  19.855  24.648  1.00  0.00    -0.459 OA
BRANCH   2   3
ATOM      3  C   UNL A   1      32.938  20.020  24.627  1.00  0.00     0.347 C 
ATOM      4  O   UNL A   1      32.146  19.331  25.260  1.00  0.00    -0.248 OA
BRANCH   3   5
ATOM      5  C   UNL A   1      32.493  21.159  23.675  1.00  0.00     0.279 C 
ATOM      6  C   UNL A   1      32.149  20.735  22.245  1.00  0.00     0.066 C 
BRANCH   5   7
ATOM      7  O   UNL A   1      31.544  22.115  24.148  1.00  0.00    -0.479 OA
BRANCH   7   8
ATOM      8  C   UNL A   1      31.974  23.388  24.362  1.00  0.00     0.127 A 
ATOM      9  C   UNL A   1      31.940  23.898  25.669  1.00  0.00    -0.005 A 
ATOM     10  C   UNL A   1      32.478  25.187  25.898  1.00  0.00     0.019 A 
ATOM     11  C   UNL A   1      33.000  25.972  24.861  1.00  0.00     0.021 A 
ATOM     12  C   UNL A   1      32.518  24.153  23.329  1.00  0.00     0.094 A 
ATOM     13  C   UNL A   1      33.580  27.307  25.051  1.00  0.00    -0.033 A 
ATOM     14  C   UNL A   1      32.980  25.438  23.579  1.00  0.00     0.142 A 
ATOM     15  C   UNL A   1      33.792  27.843  26.433  1.00  0.00     0.045 C 
ATOM     16  C   UNL A   1      33.934  28.005  23.961  1.00  0.00     0.098 A 
ATOM     17  O   UNL A   1      33.408  26.172  22.458  1.00  0.00    -0.423 OA
ATOM     18  C   UNL A   1      33.797  27.491  22.590  1.00  0.00     0.336 A 
ATOM     19  O   UNL A   1      34.053  28.203  21.626  1.00  0.00    -0.246 OA
BRANCH   9  20
ATOM     20  C   UNL A   1      31.401  23.167  26.889  1.00  0.00     0.036 C 
ATOM     21  C   UNL A   1      29.901  22.953  27.043  1.00  0.00     0.009 C 
ENDBRANCH   9  20
ENDBRANCH   7   8
ENDBRANCH   5   7
ENDBRANCH   3   5
ENDBRANCH   2   3
ENDBRANCH   1   2
BRANCH   1  22
ATOM     22  C   UNL A   1      36.573  20.637  24.996  1.00  0.00     0.275 C 
BRANCH  22  23
ATOM     23  O   UNL A   1      37.310  21.625  25.738  1.00  0.00    -0.458 OA
BRANCH  23  24
ATOM     24  C   UNL A   1      38.597  21.295  25.997  1.00  0.00     0.338 C 
ATOM     25  O   UNL A   1      39.157  20.243  25.741  1.00  0.00    -0.246 OA
BRANCH  24  26
ATOM     26  C   UNL A   1      39.300  22.479  26.504  1.00  0.00     0.060 A 
ATOM     27  C   UNL A   1      38.836  23.737  26.112  1.00  0.00     0.016 A 
ATOM     28  C   UNL A   1      40.436  22.353  27.301  1.00  0.00     0.016 A 
ATOM     29  C   UNL A   1      39.517  24.884  26.498  1.00  0.00     0.010 A 
ATOM     30  C   UNL A   1      41.111  23.508  27.703  1.00  0.00     0.010 A 
ATOM     31  C   UNL A   1      40.662  24.777  27.293  1.00  0.00    -0.014 A 
BRANCH  31  32
ATOM     32  C   UNL A   1      41.413  25.997  27.659  1.00  0.00     0.031 A 
ATOM     33  C   UNL A   1      40.740  27.064  28.468  1.00  0.00     0.074 A 
ATOM     34  C   UNL A   1      42.694  26.131  27.270  1.00  0.00     0.049 A 
ATOM     35  N   UNL A   1      41.171  28.255  28.793  1.00  0.00    -0.248 NA
ATOM     36  C   UNL A   1      39.395  26.748  28.970  1.00  0.00     0.031 C 
ATOM     37  C   UNL A   1      43.458  25.125  26.528  1.00  0.00     0.029 A 
ATOM     38  N   UNL A   1      43.575  27.168  27.434  1.00  0.00    -0.354 N 
ATOM     39  C   UNL A   1      40.143  28.841  29.523  1.00  0.00     0.074 A 
ATOM     40  C   UNL A   1      39.059  27.882  29.564  1.00  0.00     0.031 C 
ATOM     41  C   UNL A   1      44.691  25.600  26.295  1.00  0.00     0.029 A 
ATOM     42  C   UNL A   1      44.783  26.960  26.816  1.00  0.00     0.049 A 
ATOM     43  H   UNL A   1      43.361  27.981  27.947  1.00  0.00     0.167 HD
ATOM     44  C   UNL A   1      40.115  30.068  30.102  1.00  0.00     0.034 A 
ATOM     45  C   UNL A   1      45.830  27.792  26.649  1.00  0.00     0.034 A 
ATOM     46  C   UNL A   1      41.212  31.005  30.033  1.00  0.00     0.049 A 
ATOM     47  C   UNL A   1      45.745  29.181  27.225  1.00  0.00     0.074 A 
ATOM     48  C   UNL A   1      41.305  32.270  30.587  1.00  0.00     0.029 A 
ATOM     49  N   UNL A   1      42.408  30.782  29.358  1.00  0.00    -0.354 N 
ATOM     50  N   UNL A   1      44.762  29.739  27.895  1.00  0.00    -0.248 NA
ATOM     51  C   UNL A   1      46.908  30.051  27.020  1.00  0.00     0.031 C 
ATOM     52  C   UNL A   1      42.523  32.835  30.190  1.00  0.00     0.029 A 
ATOM     53  C   UNL A   1      43.226  31.897  29.450  1.00  0.00     0.049 A 
ATOM     54  H   UNL A   1      42.639  29.951  28.882  1.00  0.00     0.167 HD
ATOM     55  C   UNL A   1      45.196  31.024  28.204  1.00  0.00     0.074 A 
ATOM     56  C   UNL A   1      46.535  31.149  27.663  1.00  0.00     0.031 C 
ATOM     57  C   UNL A   1      44.549  32.011  28.877  1.00  0.00     0.034 A 
BRANCH  44  58
ATOM     58  C   UNL A   1      38.833  30.475  30.787  1.00  0.00     0.023 A 
ATOM     59  C   UNL A   1      37.763  31.053  30.080  1.00  0.00     0.031 A 
ATOM     60  C   UNL A   1      38.701  30.342  32.181  1.00  0.00     0.131 A 
ATOM     61  C   UNL A   1      36.651  31.553  30.777  1.00  0.00     0.055 A 
ATOM     62  C   UNL A   1      37.557  30.765  32.858  1.00  0.00     0.041 A 
ATOM     63  F   UNL A   1      39.698  29.819  32.914  1.00  0.00    -0.206 F 
ATOM     64  C   UNL A   1      36.531  31.392  32.158  1.00  0.00     0.022 A 
BRANCH  61  65
ATOM     65  S   UNL A   1      35.445  32.564  29.874  1.00  0.00     0.124 S 
ATOM     66  O   UNL A   1      35.160  31.721  28.715  1.00  0.00    -0.237 OA
ATOM     67  O   UNL A   1      34.364  32.705  30.843  1.00  0.00    -0.237 OA
ATOM     68  O   UNL A   1      36.180  33.791  29.575  1.00  0.00    -0.744 OA
ENDBRANCH  61  65
ENDBRANCH  44  58
BRANCH  45  69
ATOM     69  C   UNL A   1      47.012  27.354  25.856  1.00  0.00     0.023 A 
ATOM     70  C   UNL A   1      47.182  27.751  24.523  1.00  0.00     0.031 A 
ATOM     71  C   UNL A   1      47.989  26.518  26.428  1.00  0.00     0.131 A 
ATOM     72  C   UNL A   1      48.290  27.290  23.793  1.00  0.00     0.055 A 
ATOM     73  C   UNL A   1      49.112  26.100  25.714  1.00  0.00     0.041 A 
ATOM     74  F   UNL A   1      47.875  26.112  27.703  1.00  0.00    -0.206 F 
ATOM     75  C   UNL A   1      49.262  26.479  24.384  1.00  0.00     0.022 A 
BRANCH  72  76
ATOM     76  S   UNL A   1      48.417  27.725  22.037  1.00  0.00     0.124 S 
ATOM     77  O   UNL A   1      48.563  26.413  21.415  1.00  0.00    -0.237 OA
ATOM     78  O   UNL A   1      47.150  28.409  21.801  1.00  0.00    -0.237 OA
ATOM     79  O   UNL A   1      49.602  28.577  21.983  1.00  0.00    -0.744 OA
ENDBRANCH  72  76
ENDBRANCH  45  69
BRANCH  57  80
ATOM     80  C   UNL A   1      45.307  33.300  29.079  1.00  0.00     0.023 A 
ATOM     81  C   UNL A   1      45.243  34.347  28.144  1.00  0.00     0.031 A 
ATOM     82  C   UNL A   1      46.121  33.471  30.214  1.00  0.00     0.131 A 
ATOM     83  C   UNL A   1      46.024  35.499  28.332  1.00  0.00     0.055 A 
ATOM     84  C   UNL A   1      46.849  34.642  30.424  1.00  0.00     0.041 A 
ATOM     85  F   UNL A   1      46.219  32.500  31.137  1.00  0.00    -0.206 F 
ATOM     86  C   UNL A   1      46.813  35.659  29.473  1.00  0.00     0.022 A 
BRANCH  83  87
ATOM     87  S   UNL A   1      46.067  36.746  27.016  1.00  0.00     0.124 S 
ATOM     88  O   UNL A   1      44.658  37.102  26.889  1.00  0.00    -0.237 OA
ATOM     89  O   UNL A   1      46.936  37.771  27.585  1.00  0.00    -0.237 OA
ATOM     90  O   UNL A   1      46.629  36.022  25.876  1.00  0.00    -0.744 OA
ENDBRANCH  83  87
ENDBRANCH  57  80
ENDBRANCH  31  32
ENDBRANCH  24  26
ENDBRANCH  23  24
ENDBRANCH  22  23
ENDBRANCH   1  22
TORSDOF 17
ENDMDL
MODEL 2
REMARK VINA RESULT:     -11.9      5.169     10.359
REMARK SMILES CCc1cc2c(C)cc(=O)oc2cc1O[C@H](C)C(=O)OCCOC(=O)c1ccc(-c2c3nc(c(-c4cc(S(=O)(=O)[O-])ccc4F)c4ccc([nH]4)c(-c4cc(S(=O)(=O)[O-])ccc4F)c4nc(c(-c5cc(S(=O)(=O)[O-])ccc5F)c5ccc2[nH]5)C=C4)C=C3)cc1
REMARK SMILES IDX 21 1 20 2 18 3 19 4 16 5 17 6 15 7 14 8 3 9 4 10 5 11 13 12
REMARK SMILES IDX 6 13 12 14 7 15 8 16 11 17 9 18 10 19 2 20 1 21 22 22 23 23
REMARK SMILES IDX 24 24 25 25 26 26 27 27 88 28 28 29 87 30 29 31 30 32 31 33
REMARK SMILES IDX 81 34 32 35 86 36 80 37 82 38 33 39 85 40 79 41 78 42 34 44
REMARK SMILES IDX 66 45 46 46 65 47 47 48 50 49 64 50 83 51 48 52 49 53 63 55
REMARK SMILES IDX 84 56 51 57 35 58 36 59 44 60 37 61 43 62 45 63 42 64 38 65
REMARK SMILES IDX 39 66 40 67 41 68 67 69 68 70 76 71 69 72 75 73 77 74 74 75
REMARK SMILES IDX 70 76 71 77 72 78 73 79 52 80 53 81 61 82 54 83 60 84 62 85
REMARK SMILES IDX 59 86 55 87 56 88 57 89 58 90
REMARK H PARENT 82 43 50 54
REMARK Flexibility Score: inf
ROOT
ATOM      1  C   UNL A   1      31.273  29.321  24.811  1.00  0.00     0.274 C 
ENDROOT
BRANCH   1   2
ATOM      2  O   UNL A   1      30.257  29.699  23.861  1.00  0.00    -0.459 OA
BRANCH   2   3
ATOM      3  C   UNL A   1      30.074  28.885  22.785  1.00  0.00     0.347 C 
ATOM      4  O   UNL A   1      29.811  29.281  21.655  1.00  0.00    -0.248 OA
BRANCH   3   5
ATOM      5  C   UNL A   1      30.191  27.384  23.148  1.00  0.00     0.279 C 
ATOM      6  C   UNL A   1      28.955  26.756  23.795  1.00  0.00     0.066 C 
BRANCH   5   7
ATOM      7  O   UNL A   1      30.753  26.489  22.188  1.00  0.00    -0.479 OA
BRANCH   7   8
ATOM      8  C   UNL A   1      31.656  25.569  22.623  1.00  0.00     0.127 A 
ATOM      9  C   UNL A   1      33.021  25.891  22.568  1.00  0.00    -0.005 A 
ATOM     10  C   UNL A   1      33.947  24.969  23.112  1.00  0.00     0.019 A 
ATOM     11  C   UNL A   1      33.545  23.743  23.660  1.00  0.00     0.021 A 
ATOM     12  C   UNL A   1      31.246  24.364  23.193  1.00  0.00     0.094 A 
ATOM     13  C   UNL A   1      34.465  22.762  24.247  1.00  0.00    -0.033 A 
ATOM     14  C   UNL A   1      32.187  23.455  23.660  1.00  0.00     0.142 A 
ATOM     15  C   UNL A   1      35.910  23.109  24.437  1.00  0.00     0.045 C 
ATOM     16  C   UNL A   1      33.968  21.575  24.627  1.00  0.00     0.098 A 
ATOM     17  O   UNL A   1      31.684  22.223  24.115  1.00  0.00    -0.423 OA
ATOM     18  C   UNL A   1      32.546  21.219  24.512  1.00  0.00     0.336 A 
ATOM     19  O   UNL A   1      32.159  20.090  24.793  1.00  0.00    -0.246 OA
BRANCH   9  20
ATOM     20  C   UNL A   1      33.605  27.175  22.000  1.00  0.00     0.036 C 
ATOM     21  C   UNL A   1      34.030  28.296  22.940  1.00  0.00     0.009 C 
ENDBRANCH   9  20
ENDBRANCH   7   8
ENDBRANCH   5   7
ENDBRANCH   3   5
ENDBRANCH   2   3
ENDBRANCH   1   2
BRANCH   1  22
ATOM     22  C   UNL A   1      31.518  30.455  25.807  1.00  0.00     0.275 C 
BRANCH  22  23
ATOM     23  O   UNL A   1      32.905  30.504  26.188  1.00  0.00    -0.458 OA
BRANCH  23  24
ATOM     24  C   UNL A   1      33.230  31.528  27.012  1.00  0.00     0.338 C 
ATOM     25  O   UNL A   1      32.543  32.492  27.301  1.00  0.00    -0.246 OA
BRANCH  24  26
ATOM     26  C   UNL A   1      34.511  31.228  27.662  1.00  0.00     0.060 A 
ATOM     27  C   UNL A   1      34.771  29.903  28.024  1.00  0.00     0.016 A 
ATOM     28  C   UNL A   1      35.416  32.242  27.969  1.00  0.00     0.016 A 
ATOM     29  C   UNL A   1      35.931  29.583  28.716  1.00  0.00     0.010 A 
ATOM     30  C   UNL A   1      36.591  31.917  28.649  1.00  0.00     0.010 A 
ATOM     31  C   UNL A   1      36.848  30.589  29.036  1.00  0.00    -0.014 A 
BRANCH  31  32
ATOM     32  C   UNL A   1      38.057  30.252  29.818  1.00  0.00     0.031 A 
ATOM     33  C   UNL A   1      39.069  29.307  29.242  1.00  0.00     0.074 A 
ATOM     34  C   UNL A   1      38.241  30.803  31.031  1.00  0.00     0.049 A 
ATOM     35  N   UNL A   1      40.130  28.787  29.800  1.00  0.00    -0.248 NA
ATOM     36  C   UNL A   1      38.847  28.886  27.851  1.00  0.00     0.031 C 
ATOM     37  C   UNL A   1      37.344  31.778  31.656  1.00  0.00     0.029 A 
ATOM     38  N   UNL A   1      39.234  30.618  31.956  1.00  0.00    -0.354 N 
ATOM     39  C   UNL A   1      40.696  27.959  28.836  1.00  0.00     0.074 A 
ATOM     40  C   UNL A   1      39.840  28.028  27.671  1.00  0.00     0.031 C 
ATOM     41  C   UNL A   1      37.826  32.096  32.868  1.00  0.00     0.029 A 
ATOM     42  C   UNL A   1      39.026  31.308  33.126  1.00  0.00     0.049 A 
ATOM     43  H   UNL A   1      40.020  30.046  31.798  1.00  0.00     0.167 HD
ATOM     44  C   UNL A   1      41.826  27.214  28.925  1.00  0.00     0.034 A 
ATOM     45  C   UNL A   1      39.703  31.272  34.290  1.00  0.00     0.034 A 
ATOM     46  C   UNL A   1      42.653  27.161  30.107  1.00  0.00     0.049 A 
ATOM     47  C   UNL A   1      40.905  30.372  34.397  1.00  0.00     0.074 A 
ATOM     48  C   UNL A   1      43.824  26.452  30.313  1.00  0.00     0.029 A 
ATOM     49  N   UNL A   1      42.389  27.837  31.294  1.00  0.00    -0.354 N 
ATOM     50  N   UNL A   1      41.423  29.574  33.490  1.00  0.00    -0.248 NA
ATOM     51  C   UNL A   1      41.611  30.365  35.682  1.00  0.00     0.031 C 
ATOM     52  C   UNL A   1      44.228  26.645  31.640  1.00  0.00     0.029 A 
ATOM     53  C   UNL A   1      43.352  27.534  32.244  1.00  0.00     0.049 A 
ATOM     54  H   UNL A   1      41.627  28.443  31.438  1.00  0.00     0.167 HD
ATOM     55  C   UNL A   1      42.527  28.980  34.093  1.00  0.00     0.074 A 
ATOM     56  C   UNL A   1      42.608  29.527  35.434  1.00  0.00     0.031 C 
ATOM     57  C   UNL A   1      43.397  28.069  33.587  1.00  0.00     0.034 A 
BRANCH  44  58
ATOM     58  C   UNL A   1      42.176  26.353  27.735  1.00  0.00     0.023 A 
ATOM     59  C   UNL A   1      41.685  25.042  27.596  1.00  0.00     0.031 A 
ATOM     60  C   UNL A   1      43.065  26.827  26.754  1.00  0.00     0.131 A 
ATOM     61  C   UNL A   1      42.153  24.225  26.554  1.00  0.00     0.055 A 
ATOM     62  C   UNL A   1      43.462  26.037  25.673  1.00  0.00     0.041 A 
ATOM     63  F   UNL A   1      43.586  28.061  26.844  1.00  0.00    -0.206 F 
ATOM     64  C   UNL A   1      43.020  24.722  25.579  1.00  0.00     0.022 A 
BRANCH  61  65
ATOM     65  S   UNL A   1      41.743  22.458  26.587  1.00  0.00     0.124 S 
ATOM     66  O   UNL A   1      42.369  22.032  27.837  1.00  0.00    -0.237 OA
ATOM     67  O   UNL A   1      40.285  22.472  26.576  1.00  0.00    -0.237 OA
ATOM     68  O   UNL A   1      42.373  21.937  25.376  1.00  0.00    -0.744 OA
ENDBRANCH  61  65
ENDBRANCH  44  58
BRANCH  45  69
ATOM     69  C   UNL A   1      39.222  32.062  35.457  1.00  0.00     0.023 A 
ATOM     70  C   UNL A   1      38.523  31.455  36.509  1.00  0.00     0.031 A 
ATOM     71  C   UNL A   1      39.452  33.449  35.527  1.00  0.00     0.131 A 
ATOM     72  C   UNL A   1      38.053  32.238  37.577  1.00  0.00     0.055 A 
ATOM     73  C   UNL A   1      39.023  34.214  36.611  1.00  0.00     0.041 A 
ATOM     74  F   UNL A   1      40.119  34.077  34.546  1.00  0.00    -0.206 F 
ATOM     75  C   UNL A   1      38.311  33.609  37.641  1.00  0.00     0.022 A 
BRANCH  72  76
ATOM     76  S   UNL A   1      37.050  31.442  38.862  1.00  0.00     0.124 S 
ATOM     77  O   UNL A   1      37.908  31.574  40.034  1.00  0.00    -0.237 OA
ATOM     78  O   UNL A   1      35.842  32.262  38.855  1.00  0.00    -0.237 OA
ATOM     79  O   UNL A   1      36.878  30.079  38.364  1.00  0.00    -0.744 OA
ENDBRANCH  72  76
ENDBRANCH  45  69
BRANCH  57  80
ATOM     80  C   UNL A   1      44.524  27.635  34.491  1.00  0.00     0.023 A 
ATOM     81  C   UNL A   1      44.404  26.517  35.334  1.00  0.00     0.031 A 
ATOM     82  C   UNL A   1      45.726  28.365  34.524  1.00  0.00     0.131 A 
ATOM     83  C   UNL A   1      45.447  26.193  36.216  1.00  0.00     0.055 A 
ATOM     84  C   UNL A   1      46.781  28.004  35.361  1.00  0.00     0.041 A 
ATOM     85  F   UNL A   1      45.892  29.444  33.742  1.00  0.00    -0.206 F 
ATOM     86  C   UNL A   1      46.640  26.919  36.223  1.00  0.00     0.022 A 
BRANCH  83  87
ATOM     87  S   UNL A   1      45.186  24.864  37.422  1.00  0.00     0.124 S 
ATOM     88  O   UNL A   1      46.131  25.219  38.475  1.00  0.00    -0.237 OA
ATOM     89  O   UNL A   1      43.773  25.017  37.755  1.00  0.00    -0.237 OA
ATOM     90  O   UNL A   1      45.517  23.652  36.674  1.00  0.00    -0.744 OA
ENDBRANCH  83  87
ENDBRANCH  57  80
ENDBRANCH  31  32
ENDBRANCH  24  26
ENDBRANCH  23  24
ENDBRANCH  22  23
ENDBRANCH   1  22
TORSDOF 17
ENDMDL
MODEL 3
REMARK VINA RESULT:     -11.6      4.839      9.960
REMARK SMILES CCc1cc2c(C)cc(=O)oc2cc1O[C@H](C)C(=O)OCCOC(=O)c1ccc(-c2c3nc(c(-c4cc(S(=O)(=O)[O-])ccc4F)c4ccc([nH]4)c(-c4cc(S(=O)(=O)[O-])ccc4F)c4nc(c(-c5cc(S(=O)(=O)[O-])ccc5F)c5ccc2[nH]5)C=C4)C=C3)cc1
REMARK SMILES IDX 21 1 20 2 18 3 19 4 16 5 17 6 15 7 14 8 3 9 4 10 5 11 13 12
REMARK SMILES IDX 6 13 12 14 7 15 8 16 11 17 9 18 10 19 2 20 1 21 22 22 23 23
REMARK SMILES IDX 24 24 25 25 26 26 27 27 88 28 28 29 87 30 29 31 30 32 31 33
REMARK SMILES IDX 81 34 32 35 86 36 80 37 82 38 33 39 85 40 79 41 78 42 34 44
REMARK SMILES IDX 66 45 46 46 65 47 47 48 50 49 64 50 83 51 48 52 49 53 63 55
REMARK SMILES IDX 84 56 51 57 35 58 36 59 44 60 37 61 43 62 45 63 42 64 38 65
REMARK SMILES IDX 39 66 40 67 41 68 67 69 68 70 76 71 69 72 75 73 77 74 74 75
REMARK SMILES IDX 70 76 71 77 72 78 73 79 52 80 53 81 61 82 54 83 60 84 62 85
REMARK SMILES IDX 59 86 55 87 56 88 57 89 58 90
REMARK H PARENT 82 43 50 54
REMARK Flexibility Score: inf
ROOT
ATOM      1  C   UNL A   1      31.370  29.145  25.103  1.00  0.00     0.274 C 
ENDROOT
BRANCH   1   2
ATOM      2  O   UNL A   1      30.346  29.467  24.142  1.00  0.00    -0.459 OA
BRANCH   2   3
ATOM      3  C   UNL A   1      30.289  28.711  23.012  1.00  0.00     0.347 C 
ATOM      4  O   UNL A   1      30.280  29.167  21.874  1.00  0.00    -0.248 OA
BRANCH   3   5
ATOM      5  C   UNL A   1      30.192  27.195  23.316  1.00  0.00     0.279 C 
ATOM      6  C   UNL A   1      28.852  26.712  23.876  1.00  0.00     0.066 C 
BRANCH   5   7
ATOM      7  O   UNL A   1      30.682  26.270  22.345  1.00  0.00    -0.479 OA
BRANCH   7   8
ATOM      8  C   UNL A   1      31.597  25.347  22.747  1.00  0.00     0.127 A 
ATOM      9  C   UNL A   1      32.960  25.652  22.615  1.00  0.00    -0.005 A 
ATOM     10  C   UNL A   1      33.904  24.728  23.125  1.00  0.00     0.019 A 
ATOM     11  C   UNL A   1      33.518  23.515  23.713  1.00  0.00     0.021 A 
ATOM     12  C   UNL A   1      31.204  24.155  23.358  1.00  0.00     0.094 A 
ATOM     13  C   UNL A   1      34.457  22.533  24.267  1.00  0.00    -0.033 A 
ATOM     14  C   UNL A   1      32.159  23.244  23.789  1.00  0.00     0.142 A 
ATOM     15  C   UNL A   1      35.914  22.866  24.375  1.00  0.00     0.045 C 
ATOM     16  C   UNL A   1      33.968  21.359  24.692  1.00  0.00     0.098 A 
ATOM     17  O   UNL A   1      31.668  22.025  24.290  1.00  0.00    -0.423 OA
ATOM     18  C   UNL A   1      32.538  21.017  24.658  1.00  0.00     0.336 A 
ATOM     19  O   UNL A   1      32.155  19.897  24.977  1.00  0.00    -0.246 OA
BRANCH   9  20
ATOM     20  C   UNL A   1      33.527  26.920  21.996  1.00  0.00     0.036 C 
ATOM     21  C   UNL A   1      34.026  28.045  22.894  1.00  0.00     0.009 C 
ENDBRANCH   9  20
ENDBRANCH   7   8
ENDBRANCH   5   7
ENDBRANCH   3   5
ENDBRANCH   2   3
ENDBRANCH   1   2
BRANCH   1  22
ATOM     22  C   UNL A   1      31.630  30.337  26.025  1.00  0.00     0.275 C 
BRANCH  22  23
ATOM     23  O   UNL A   1      33.043  30.535  26.213  1.00  0.00    -0.458 OA
BRANCH  23  24
ATOM     24  C   UNL A   1      33.367  31.554  27.043  1.00  0.00     0.338 C 
ATOM     25  O   UNL A   1      32.682  32.519  27.332  1.00  0.00    -0.246 OA
BRANCH  24  26
ATOM     26  C   UNL A   1      34.644  31.247  27.698  1.00  0.00     0.060 A 
ATOM     27  C   UNL A   1      34.885  29.926  28.083  1.00  0.00     0.016 A 
ATOM     28  C   UNL A   1      35.563  32.254  27.986  1.00  0.00     0.016 A 
ATOM     29  C   UNL A   1      36.041  29.601  28.780  1.00  0.00     0.010 A 
ATOM     30  C   UNL A   1      36.734  31.924  28.672  1.00  0.00     0.010 A 
ATOM     31  C   UNL A   1      36.972  30.600  29.082  1.00  0.00    -0.014 A 
BRANCH  31  32
ATOM     32  C   UNL A   1      38.177  30.259  29.869  1.00  0.00     0.031 A 
ATOM     33  C   UNL A   1      39.182  29.301  29.304  1.00  0.00     0.074 A 
ATOM     34  C   UNL A   1      38.363  30.820  31.078  1.00  0.00     0.049 A 
ATOM     35  N   UNL A   1      40.237  28.777  29.870  1.00  0.00    -0.248 NA
ATOM     36  C   UNL A   1      38.959  28.870  27.917  1.00  0.00     0.031 C 
ATOM     37  C   UNL A   1      37.473  31.808  31.693  1.00  0.00     0.029 A 
ATOM     38  N   UNL A   1      39.352  30.634  32.007  1.00  0.00    -0.354 N 
ATOM     39  C   UNL A   1      40.798  27.936  28.915  1.00  0.00     0.074 A 
ATOM     40  C   UNL A   1      39.945  28.002  27.747  1.00  0.00     0.031 C 
ATOM     41  C   UNL A   1      37.955  32.133  32.902  1.00  0.00     0.029 A 
ATOM     42  C   UNL A   1      39.147  31.337  33.170  1.00  0.00     0.049 A 
ATOM     43  H   UNL A   1      40.133  30.055  31.856  1.00  0.00     0.167 HD
ATOM     44  C   UNL A   1      41.922  27.182  29.012  1.00  0.00     0.034 A 
ATOM     45  C   UNL A   1      39.822  31.306  34.336  1.00  0.00     0.034 A 
ATOM     46  C   UNL A   1      42.746  27.132  30.197  1.00  0.00     0.049 A 
ATOM     47  C   UNL A   1      41.016  30.396  34.453  1.00  0.00     0.074 A 
ATOM     48  C   UNL A   1      43.910  26.416  30.411  1.00  0.00     0.029 A 
ATOM     49  N   UNL A   1      42.485  27.822  31.377  1.00  0.00    -0.354 N 
ATOM     50  N   UNL A   1      41.529  29.586  33.555  1.00  0.00    -0.248 NA
ATOM     51  C   UNL A   1      41.720  30.395  35.741  1.00  0.00     0.031 C 
ATOM     52  C   UNL A   1      44.313  26.617  31.737  1.00  0.00     0.029 A 
ATOM     53  C   UNL A   1      43.444  27.518  32.332  1.00  0.00     0.049 A 
ATOM     54  H   UNL A   1      41.727  28.436  31.514  1.00  0.00     0.167 HD
ATOM     55  C   UNL A   1      42.626  28.989  34.166  1.00  0.00     0.074 A 
ATOM     56  C   UNL A   1      42.710  29.547  35.502  1.00  0.00     0.031 C 
ATOM     57  C   UNL A   1      43.490  28.065  33.670  1.00  0.00     0.034 A 
BRANCH  44  58
ATOM     58  C   UNL A   1      42.266  26.307  27.831  1.00  0.00     0.023 A 
ATOM     59  C   UNL A   1      41.753  25.004  27.695  1.00  0.00     0.031 A 
ATOM     60  C   UNL A   1      43.174  26.759  26.856  1.00  0.00     0.131 A 
ATOM     61  C   UNL A   1      42.215  24.173  26.662  1.00  0.00     0.055 A 
ATOM     62  C   UNL A   1      43.566  25.955  25.783  1.00  0.00     0.041 A 
ATOM     63  F   UNL A   1      43.716  27.984  26.943  1.00  0.00    -0.206 F 
ATOM     64  C   UNL A   1      43.100  24.647  25.693  1.00  0.00     0.022 A 
BRANCH  61  65
ATOM     65  S   UNL A   1      41.773  22.414  26.702  1.00  0.00     0.124 S 
ATOM     66  O   UNL A   1      42.604  21.924  27.799  1.00  0.00    -0.237 OA
ATOM     67  O   UNL A   1      40.338  22.455  26.958  1.00  0.00    -0.237 OA
ATOM     68  O   UNL A   1      42.159  21.933  25.377  1.00  0.00    -0.744 OA
ENDBRANCH  61  65
ENDBRANCH  44  58
BRANCH  45  69
ATOM     69  C   UNL A   1      39.345  32.110  35.495  1.00  0.00     0.023 A 
ATOM     70  C   UNL A   1      39.779  33.429  35.694  1.00  0.00     0.031 A 
ATOM     71  C   UNL A   1      38.449  31.559  36.430  1.00  0.00     0.131 A 
ATOM     72  C   UNL A   1      39.337  34.146  36.818  1.00  0.00     0.055 A 
ATOM     73  C   UNL A   1      37.978  32.291  37.520  1.00  0.00     0.041 A 
ATOM     74  F   UNL A   1      38.002  30.302  36.283  1.00  0.00    -0.206 F 
ATOM     75  C   UNL A   1      38.430  33.590  37.723  1.00  0.00     0.022 A 
BRANCH  72  76
ATOM     76  S   UNL A   1      40.009  35.805  37.110  1.00  0.00     0.124 S 
ATOM     77  O   UNL A   1      41.428  35.522  37.301  1.00  0.00    -0.237 OA
ATOM     78  O   UNL A   1      39.654  36.498  35.876  1.00  0.00    -0.237 OA
ATOM     79  O   UNL A   1      39.295  36.256  38.302  1.00  0.00    -0.744 OA
ENDBRANCH  72  76
ENDBRANCH  45  69
BRANCH  57  80
ATOM     80  C   UNL A   1      44.612  27.630  34.580  1.00  0.00     0.023 A 
ATOM     81  C   UNL A   1      45.836  28.319  34.622  1.00  0.00     0.031 A 
ATOM     82  C   UNL A   1      44.459  26.498  35.401  1.00  0.00     0.131 A 
ATOM     83  C   UNL A   1      46.881  27.837  35.426  1.00  0.00     0.055 A 
ATOM     84  C   UNL A   1      45.480  26.058  36.242  1.00  0.00     0.041 A 
ATOM     85  F   UNL A   1      43.310  25.802  35.397  1.00  0.00    -0.206 F 
ATOM     86  C   UNL A   1      46.705  26.721  36.248  1.00  0.00     0.022 A 
BRANCH  83  87
ATOM     87  S   UNL A   1      48.506  28.634  35.312  1.00  0.00     0.124 S 
ATOM     88  O   UNL A   1      48.832  28.861  36.716  1.00  0.00    -0.237 OA
ATOM     89  O   UNL A   1      49.304  27.622  34.628  1.00  0.00    -0.237 OA
ATOM     90  O   UNL A   1      48.241  29.843  34.534  1.00  0.00    -0.744 OA
ENDBRANCH  83  87
ENDBRANCH  57  80
ENDBRANCH  31  32
ENDBRANCH  24  26
ENDBRANCH  23  24
ENDBRANCH  22  23
ENDBRANCH   1  22
TORSDOF 17
ENDMDL
