MODEL 1
REMARK VINA RESULT:     -12.3      0.000      0.000
REMARK SMILES O=C(OCCOC(=O)c1ccc(N2C(=O)/C(=C/C3=c4ccccc4=NC3)SC2=S)cc1O)c1ccc(-c2c3nc(c(-c4cc(S(=O)(=O)[O-])ccc4F)c4ccc([nH]4)c(-c4cc(S(=O)(=O)[O-])ccc4F)c4nc(c(-c5cc(S(=O)(=O)[O-])ccc5F)c5ccc2[nH]5)C=C4)C=C3)cc1
REMARK SMILES IDX 4 1 3 2 2 3 1 4 33 5 34 6 95 7 35 8 94 9 36 10 37 11 38 12
REMARK SMILES IDX 88 13 39 14 93 15 87 16 89 17 40 18 92 19 86 20 85 21 41 23
REMARK SMILES IDX 73 24 53 25 72 26 54 27 57 28 71 29 90 30 55 31 56 32 70 34
REMARK SMILES IDX 91 35 58 36 42 37 43 38 51 39 44 40 50 41 52 42 49 43 45 44
REMARK SMILES IDX 46 45 47 46 48 47 74 48 75 49 83 50 76 51 82 52 84 53 81 54
REMARK SMILES IDX 77 55 78 56 79 57 80 58 59 59 60 60 68 61 61 62 67 63 69 64
REMARK SMILES IDX 66 65 62 66 63 67 64 68 65 69 5 70 6 71 7 72 8 73 9 74 10 75
REMARK SMILES IDX 31 76 11 77 30 78 12 79 32 80 13 82 14 83 28 84 15 85 16 86
REMARK SMILES IDX 27 87 29 88 17 89 18 90 19 91 26 92 20 93 24 94 25 95 21 96
REMARK SMILES IDX 23 97 22 98
REMARK H PARENT 89 22 57 33 32 81
REMARK Flexibility Score: inf
ROOT
ATOM      1  C   UNL A   1      32.662  32.550  27.255  1.00  0.00     0.275 C 
ENDROOT
BRANCH   1   2
ATOM      2  O   UNL A   1      32.492  33.894  27.738  1.00  0.00    -0.458 OA
BRANCH   2   3
ATOM      3  C   UNL A   1      33.311  34.557  28.594  1.00  0.00     0.338 C 
ATOM      4  O   UNL A   1      33.190  35.771  28.741  1.00  0.00    -0.246 OA
BRANCH   3   5
ATOM      5  C   UNL A   1      34.508  33.884  29.168  1.00  0.00     0.060 A 
ATOM      6  C   UNL A   1      34.271  32.987  30.218  1.00  0.00     0.016 A 
ATOM      7  C   UNL A   1      35.818  34.046  28.711  1.00  0.00     0.016 A 
ATOM      8  C   UNL A   1      35.334  32.368  30.880  1.00  0.00     0.010 A 
ATOM      9  C   UNL A   1      36.887  33.430  29.374  1.00  0.00     0.010 A 
ATOM     10  C   UNL A   1      36.655  32.604  30.478  1.00  0.00    -0.014 A 
BRANCH  10  11
ATOM     11  C   UNL A   1      37.753  31.802  31.058  1.00  0.00     0.031 A 
ATOM     12  C   UNL A   1      38.366  30.631  30.361  1.00  0.00     0.074 A 
ATOM     13  C   UNL A   1      38.176  32.145  32.287  1.00  0.00     0.049 A 
ATOM     14  N   UNL A   1      39.481  30.009  30.644  1.00  0.00    -0.248 NA
ATOM     15  C   UNL A   1      37.653  30.085  29.199  1.00  0.00     0.031 C 
ATOM     16  C   UNL A   1      37.590  33.217  33.091  1.00  0.00     0.029 A 
ATOM     17  N   UNL A   1      39.165  31.625  33.078  1.00  0.00    -0.354 N 
ATOM     18  C   UNL A   1      39.650  29.057  29.650  1.00  0.00     0.074 A 
ATOM     19  C   UNL A   1      38.484  29.130  28.795  1.00  0.00     0.031 C 
ATOM     20  C   UNL A   1      38.224  33.271  34.267  1.00  0.00     0.029 A 
ATOM     21  C   UNL A   1      39.246  32.229  34.307  1.00  0.00     0.049 A 
ATOM     22  H   UNL A   1      39.758  30.892  32.793  1.00  0.00     0.167 HD
ATOM     23  C   UNL A   1      40.699  28.219  29.468  1.00  0.00     0.034 A 
ATOM     24  C   UNL A   1      40.049  31.974  35.357  1.00  0.00     0.034 A 
ATOM     25  C   UNL A   1      41.762  28.052  30.429  1.00  0.00     0.049 A 
ATOM     26  C   UNL A   1      41.135  30.951  35.198  1.00  0.00     0.074 A 
ATOM     27  C   UNL A   1      42.893  27.261  30.334  1.00  0.00     0.029 A 
ATOM     28  N   UNL A   1      41.787  28.628  31.694  1.00  0.00    -0.354 N 
ATOM     29  N   UNL A   1      41.426  30.221  34.146  1.00  0.00    -0.248 NA
ATOM     30  C   UNL A   1      42.019  30.733  36.348  1.00  0.00     0.031 C 
ATOM     31  C   UNL A   1      43.545  27.283  31.571  1.00  0.00     0.029 A 
ATOM     32  C   UNL A   1      42.871  28.151  32.416  1.00  0.00     0.049 A 
ATOM     33  H   UNL A   1      41.130  29.280  32.029  1.00  0.00     0.167 HD
ATOM     34  C   UNL A   1      42.522  29.446  34.509  1.00  0.00     0.074 A 
ATOM     35  C   UNL A   1      42.869  29.836  35.861  1.00  0.00     0.031 C 
ATOM     36  C   UNL A   1      43.175  28.498  33.787  1.00  0.00     0.034 A 
BRANCH  23  37
ATOM     37  C   UNL A   1      40.776  27.442  28.177  1.00  0.00     0.023 A 
ATOM     38  C   UNL A   1      40.499  26.064  28.135  1.00  0.00     0.031 A 
ATOM     39  C   UNL A   1      41.261  28.059  27.008  1.00  0.00     0.131 A 
ATOM     40  C   UNL A   1      40.733  25.345  26.955  1.00  0.00     0.055 A 
ATOM     41  C   UNL A   1      41.475  27.342  25.831  1.00  0.00     0.041 A 
ATOM     42  F   UNL A   1      41.529  29.376  27.000  1.00  0.00    -0.206 F 
ATOM     43  C   UNL A   1      41.220  25.976  25.804  1.00  0.00     0.022 A 
BRANCH  40  44
ATOM     44  S   UNL A   1      40.452  23.555  26.872  1.00  0.00     0.124 S 
ATOM     45  O   UNL A   1      41.479  23.136  25.920  1.00  0.00    -0.237 OA
ATOM     46  O   UNL A   1      40.677  23.145  28.256  1.00  0.00    -0.237 OA
ATOM     47  O   UNL A   1      39.079  23.440  26.393  1.00  0.00    -0.744 OA
ENDBRANCH  40  44
ENDBRANCH  23  37
BRANCH  24  48
ATOM     48  C   UNL A   1      39.847  32.782  36.590  1.00  0.00     0.023 A 
ATOM     49  C   UNL A   1      39.010  32.301  37.617  1.00  0.00     0.031 A 
ATOM     50  C   UNL A   1      40.285  34.112  36.654  1.00  0.00     0.131 A 
ATOM     51  C   UNL A   1      38.547  33.180  38.603  1.00  0.00     0.055 A 
ATOM     52  C   UNL A   1      39.881  34.965  37.684  1.00  0.00     0.041 A 
ATOM     53  F   UNL A   1      41.067  34.614  35.686  1.00  0.00    -0.206 F 
ATOM     54  C   UNL A   1      38.986  34.508  38.648  1.00  0.00     0.022 A 
BRANCH  51  55
ATOM     55  S   UNL A   1      37.209  32.686  39.727  1.00  0.00     0.124 S 
ATOM     56  O   UNL A   1      36.042  32.745  38.854  1.00  0.00    -0.237 OA
ATOM     57  O   UNL A   1      37.634  31.347  40.125  1.00  0.00    -0.237 OA
ATOM     58  O   UNL A   1      37.259  33.691  40.785  1.00  0.00    -0.744 OA
ENDBRANCH  51  55
ENDBRANCH  24  48
BRANCH  36  59
ATOM     59  C   UNL A   1      44.300  27.756  34.464  1.00  0.00     0.023 A 
ATOM     60  C   UNL A   1      44.070  26.507  35.066  1.00  0.00     0.031 A 
ATOM     61  C   UNL A   1      45.581  28.325  34.590  1.00  0.00     0.131 A 
ATOM     62  C   UNL A   1      45.092  25.873  35.779  1.00  0.00     0.055 A 
ATOM     63  C   UNL A   1      46.611  27.671  35.266  1.00  0.00     0.041 A 
ATOM     64  F   UNL A   1      45.852  29.519  34.039  1.00  0.00    -0.206 F 
ATOM     65  C   UNL A   1      46.366  26.442  35.874  1.00  0.00     0.022 A 
BRANCH  62  66
ATOM     66  S   UNL A   1      44.786  24.313  36.651  1.00  0.00     0.124 S 
ATOM     67  O   UNL A   1      46.070  23.632  36.509  1.00  0.00    -0.237 OA
ATOM     68  O   UNL A   1      44.466  24.774  38.000  1.00  0.00    -0.237 OA
ATOM     69  O   UNL A   1      43.681  23.712  35.911  1.00  0.00    -0.744 OA
ENDBRANCH  62  66
ENDBRANCH  36  59
ENDBRANCH  10  11
ENDBRANCH   3   5
ENDBRANCH   2   3
ENDBRANCH   1   2
BRANCH   1  70
ATOM     70  C   UNL A   1      31.458  31.984  26.502  1.00  0.00     0.275 C 
BRANCH  70  71
ATOM     71  O   UNL A   1      31.460  30.554  26.410  1.00  0.00    -0.458 OA
BRANCH  71  72
ATOM     72  C   UNL A   1      31.053  30.048  25.215  1.00  0.00     0.342 C 
ATOM     73  O   UNL A   1      30.413  30.627  24.358  1.00  0.00    -0.246 OA
BRANCH  72  74
ATOM     74  C   UNL A   1      31.620  28.698  25.021  1.00  0.00     0.101 A 
ATOM     75  C   UNL A   1      30.740  27.609  25.048  1.00  0.00     0.022 A 
ATOM     76  C   UNL A   1      32.981  28.477  24.823  1.00  0.00     0.132 A 
ATOM     77  C   UNL A   1      31.210  26.312  24.793  1.00  0.00     0.028 A 
ATOM     78  C   UNL A   1      33.457  27.178  24.616  1.00  0.00     0.073 A 
ATOM     79  C   UNL A   1      32.576  26.084  24.589  1.00  0.00     0.054 A 
BRANCH  76  80
ATOM     80  O   UNL A   1      33.865  29.520  24.842  1.00  0.00    -0.507 OA
ATOM     81  H   UNL A   1      33.907  30.111  24.116  1.00  0.00     0.293 HD
ENDBRANCH  76  80
BRANCH  79  82
ATOM     82  N   UNL A   1      33.083  24.770  24.351  1.00  0.00    -0.261 N 
ATOM     83  C   UNL A   1      33.582  23.998  25.401  1.00  0.00     0.270 C 
ATOM     84  C   UNL A   1      33.147  24.200  23.086  1.00  0.00     0.152 C 
ATOM     85  O   UNL A   1      33.755  24.347  26.562  1.00  0.00    -0.268 OA
ATOM     86  C   UNL A   1      33.945  22.636  24.905  1.00  0.00     0.081 C 
ATOM     87  S   UNL A   1      33.668  22.529  23.211  1.00  0.00    -0.054 SA
ATOM     88  S   UNL A   1      32.961  24.929  21.587  1.00  0.00    -0.051 S 
ATOM     89  C   UNL A   1      34.434  21.666  25.692  1.00  0.00     0.027 C 
BRANCH  89  90
ATOM     90  C   UNL A   1      34.846  20.359  25.231  1.00  0.00    -0.016 C 
ATOM     91  C   UNL A   1      34.068  19.349  24.848  1.00  0.00     0.005 A 
ATOM     92  C   UNL A   1      36.294  20.001  25.052  1.00  0.00     0.179 C 
ATOM     93  C   UNL A   1      32.662  19.105  24.795  1.00  0.00     0.011 A 
ATOM     94  C   UNL A   1      35.044  18.350  24.368  1.00  0.00     0.065 A 
ATOM     95  N   UNL A   1      36.309  18.636  24.471  1.00  0.00    -0.280 NA
ATOM     96  C   UNL A   1      32.231  17.940  24.285  1.00  0.00     0.001 A 
ATOM     97  C   UNL A   1      34.487  17.107  23.790  1.00  0.00     0.028 A 
ATOM     98  C   UNL A   1      33.154  16.948  23.758  1.00  0.00     0.002 A 
ENDBRANCH  89  90
ENDBRANCH  79  82
ENDBRANCH  72  74
ENDBRANCH  71  72
ENDBRANCH  70  71
ENDBRANCH   1  70
TORSDOF 17
ENDMDL
MODEL 2
REMARK VINA RESULT:     -12.2      0.437      7.282
REMARK SMILES O=C(OCCOC(=O)c1ccc(N2C(=O)/C(=C/C3=c4ccccc4=NC3)SC2=S)cc1O)c1ccc(-c2c3nc(c(-c4cc(S(=O)(=O)[O-])ccc4F)c4ccc([nH]4)c(-c4cc(S(=O)(=O)[O-])ccc4F)c4nc(c(-c5cc(S(=O)(=O)[O-])ccc5F)c5ccc2[nH]5)C=C4)C=C3)cc1
REMARK SMILES IDX 4 1 3 2 2 3 1 4 33 5 34 6 95 7 35 8 94 9 36 10 37 11 38 12
REMARK SMILES IDX 88 13 39 14 93 15 87 16 89 17 40 18 92 19 86 20 85 21 41 23
REMARK SMILES IDX 73 24 53 25 72 26 54 27 57 28 71 29 90 30 55 31 56 32 70 34
REMARK SMILES IDX 91 35 58 36 42 37 43 38 51 39 44 40 50 41 52 42 49 43 45 44
REMARK SMILES IDX 46 45 47 46 48 47 74 48 75 49 83 50 76 51 82 52 84 53 81 54
REMARK SMILES IDX 77 55 78 56 79 57 80 58 59 59 60 60 68 61 61 62 67 63 69 64
REMARK SMILES IDX 66 65 62 66 63 67 64 68 65 69 5 70 6 71 7 72 8 73 9 74 10 75
REMARK SMILES IDX 31 76 11 77 30 78 12 79 32 80 13 82 14 83 28 84 15 85 16 86
REMARK SMILES IDX 27 87 29 88 17 89 18 90 19 91 26 92 20 93 24 94 25 95 21 96
REMARK SMILES IDX 23 97 22 98
REMARK H PARENT 89 22 57 33 32 81
REMARK Flexibility Score: inf
ROOT
ATOM      1  C   UNL A   1      32.656  32.670  27.137  1.00  0.00     0.275 C 
ENDROOT
BRANCH   1   2
ATOM      2  O   UNL A   1      32.467  33.938  27.789  1.00  0.00    -0.458 OA
BRANCH   2   3
ATOM      3  C   UNL A   1      33.315  34.532  28.667  1.00  0.00     0.338 C 
ATOM      4  O   UNL A   1      33.287  35.751  28.818  1.00  0.00    -0.246 OA
BRANCH   3   5
ATOM      5  C   UNL A   1      34.441  33.765  29.267  1.00  0.00     0.060 A 
ATOM      6  C   UNL A   1      35.726  34.093  28.815  1.00  0.00     0.016 A 
ATOM      7  C   UNL A   1      34.311  32.795  30.264  1.00  0.00     0.016 A 
ATOM      8  C   UNL A   1      36.840  33.376  29.253  1.00  0.00     0.010 A 
ATOM      9  C   UNL A   1      35.427  32.071  30.703  1.00  0.00     0.010 A 
ATOM     10  C   UNL A   1      36.697  32.340  30.185  1.00  0.00    -0.014 A 
BRANCH  10  11
ATOM     11  C   UNL A   1      37.898  31.717  30.781  1.00  0.00     0.031 A 
ATOM     12  C   UNL A   1      38.454  32.120  32.108  1.00  0.00     0.074 A 
ATOM     13  C   UNL A   1      38.518  30.770  30.056  1.00  0.00     0.049 A 
ATOM     14  N   UNL A   1      39.335  31.495  32.844  1.00  0.00    -0.248 NA
ATOM     15  C   UNL A   1      37.963  33.374  32.696  1.00  0.00     0.031 C 
ATOM     16  C   UNL A   1      38.109  30.360  28.714  1.00  0.00     0.029 A 
ATOM     17  N   UNL A   1      39.620  30.006  30.327  1.00  0.00    -0.354 N 
ATOM     18  C   UNL A   1      39.444  32.228  34.016  1.00  0.00     0.074 A 
ATOM     19  C   UNL A   1      38.593  33.390  33.866  1.00  0.00     0.031 C 
ATOM     20  C   UNL A   1      38.956  29.425  28.271  1.00  0.00     0.029 A 
ATOM     21  C   UNL A   1      39.974  29.182  29.289  1.00  0.00     0.049 A 
ATOM     22  H   UNL A   1      40.110  30.043  31.181  1.00  0.00     0.167 HD
ATOM     23  C   UNL A   1      40.176  31.936  35.119  1.00  0.00     0.034 A 
ATOM     24  C   UNL A   1      41.006  28.326  29.162  1.00  0.00     0.034 A 
ATOM     25  C   UNL A   1      41.141  30.865  35.172  1.00  0.00     0.049 A 
ATOM     26  C   UNL A   1      41.897  28.095  30.346  1.00  0.00     0.074 A 
ATOM     27  C   UNL A   1      41.911  30.454  36.246  1.00  0.00     0.029 A 
ATOM     28  N   UNL A   1      41.526  30.087  34.087  1.00  0.00    -0.354 N 
ATOM     29  N   UNL A   1      41.830  28.637  31.541  1.00  0.00    -0.248 NA
ATOM     30  C   UNL A   1      42.981  27.122  30.184  1.00  0.00     0.031 C 
ATOM     31  C   UNL A   1      42.824  29.499  35.785  1.00  0.00     0.029 A 
ATOM     32  C   UNL A   1      42.573  29.251  34.444  1.00  0.00     0.049 A 
ATOM     33  H   UNL A   1      41.114  30.124  33.194  1.00  0.00     0.167 HD
ATOM     34  C   UNL A   1      42.872  28.080  32.273  1.00  0.00     0.074 A 
ATOM     35  C   UNL A   1      43.520  27.121  31.398  1.00  0.00     0.031 C 
ATOM     36  C   UNL A   1      43.255  28.342  33.549  1.00  0.00     0.034 A 
BRANCH  23  37
ATOM     37  C   UNL A   1      39.945  32.753  36.365  1.00  0.00     0.023 A 
ATOM     38  C   UNL A   1      38.996  32.366  37.328  1.00  0.00     0.031 A 
ATOM     39  C   UNL A   1      40.583  33.998  36.524  1.00  0.00     0.131 A 
ATOM     40  C   UNL A   1      38.695  33.227  38.392  1.00  0.00     0.055 A 
ATOM     41  C   UNL A   1      40.294  34.844  37.594  1.00  0.00     0.041 A 
ATOM     42  F   UNL A   1      41.505  34.403  35.633  1.00  0.00    -0.206 F 
ATOM     43  C   UNL A   1      39.338  34.464  38.530  1.00  0.00     0.022 A 
BRANCH  40  44
ATOM     44  S   UNL A   1      37.433  32.799  39.622  1.00  0.00     0.124 S 
ATOM     45  O   UNL A   1      36.232  32.705  38.795  1.00  0.00    -0.237 OA
ATOM     46  O   UNL A   1      37.933  31.531  40.146  1.00  0.00    -0.237 OA
ATOM     47  O   UNL A   1      37.458  33.923  40.552  1.00  0.00    -0.744 OA
ENDBRANCH  40  44
ENDBRANCH  23  37
BRANCH  24  48
ATOM     48  C   UNL A   1      41.149  27.609  27.865  1.00  0.00     0.023 A 
ATOM     49  C   UNL A   1      40.897  26.225  27.795  1.00  0.00     0.031 A 
ATOM     50  C   UNL A   1      41.752  28.234  26.765  1.00  0.00     0.131 A 
ATOM     51  C   UNL A   1      41.351  25.492  26.693  1.00  0.00     0.055 A 
ATOM     52  C   UNL A   1      42.134  27.510  25.633  1.00  0.00     0.041 A 
ATOM     53  F   UNL A   1      42.026  29.547  26.799  1.00  0.00    -0.206 F 
ATOM     54  C   UNL A   1      41.959  26.129  25.606  1.00  0.00     0.022 A 
BRANCH  51  55
ATOM     55  S   UNL A   1      41.353  23.676  26.727  1.00  0.00     0.124 S 
ATOM     56  O   UNL A   1      40.042  23.362  26.168  1.00  0.00    -0.237 OA
ATOM     57  O   UNL A   1      42.496  23.363  25.873  1.00  0.00    -0.237 OA
ATOM     58  O   UNL A   1      41.530  23.358  28.140  1.00  0.00    -0.744 OA
ENDBRANCH  51  55
ENDBRANCH  24  48
BRANCH  36  59
ATOM     59  C   UNL A   1      44.480  27.632  34.072  1.00  0.00     0.023 A 
ATOM     60  C   UNL A   1      44.355  26.425  34.780  1.00  0.00     0.031 A 
ATOM     61  C   UNL A   1      45.763  28.197  33.946  1.00  0.00     0.131 A 
ATOM     62  C   UNL A   1      45.483  25.827  35.350  1.00  0.00     0.055 A 
ATOM     63  C   UNL A   1      46.893  27.576  34.480  1.00  0.00     0.041 A 
ATOM     64  F   UNL A   1      45.936  29.352  33.286  1.00  0.00    -0.206 F 
ATOM     65  C   UNL A   1      46.755  26.389  35.194  1.00  0.00     0.022 A 
BRANCH  62  66
ATOM     66  S   UNL A   1      45.330  24.326  36.355  1.00  0.00     0.124 S 
ATOM     67  O   UNL A   1      44.487  24.784  37.456  1.00  0.00    -0.237 OA
ATOM     68  O   UNL A   1      44.696  23.396  35.423  1.00  0.00    -0.237 OA
ATOM     69  O   UNL A   1      46.708  24.010  36.721  1.00  0.00    -0.744 OA
ENDBRANCH  62  66
ENDBRANCH  36  59
ENDBRANCH  10  11
ENDBRANCH   3   5
ENDBRANCH   2   3
ENDBRANCH   1   2
BRANCH   1  70
ATOM     70  C   UNL A   1      31.400  32.094  26.484  1.00  0.00     0.275 C 
BRANCH  70  71
ATOM     71  O   UNL A   1      31.406  30.664  26.392  1.00  0.00    -0.458 OA
BRANCH  71  72
ATOM     72  C   UNL A   1      31.017  30.157  25.191  1.00  0.00     0.342 C 
ATOM     73  O   UNL A   1      30.391  30.736  24.323  1.00  0.00    -0.246 OA
BRANCH  72  74
ATOM     74  C   UNL A   1      31.584  28.805  25.008  1.00  0.00     0.101 A 
ATOM     75  C   UNL A   1      30.691  27.736  24.857  1.00  0.00     0.022 A 
ATOM     76  C   UNL A   1      32.955  28.563  24.990  1.00  0.00     0.132 A 
ATOM     77  C   UNL A   1      31.170  26.444  24.604  1.00  0.00     0.028 A 
ATOM     78  C   UNL A   1      33.434  27.264  24.784  1.00  0.00     0.073 A 
ATOM     79  C   UNL A   1      32.548  26.194  24.579  1.00  0.00     0.054 A 
BRANCH  76  80
ATOM     80  O   UNL A   1      33.844  29.583  25.184  1.00  0.00    -0.507 OA
ATOM     81  H   UNL A   1      34.496  29.514  25.855  1.00  0.00     0.293 HD
ENDBRANCH  76  80
BRANCH  79  82
ATOM     82  N   UNL A   1      33.061  24.882  24.347  1.00  0.00    -0.261 N 
ATOM     83  C   UNL A   1      33.550  24.110  25.402  1.00  0.00     0.270 C 
ATOM     84  C   UNL A   1      33.143  24.313  23.082  1.00  0.00     0.152 C 
ATOM     85  O   UNL A   1      33.708  24.459  26.566  1.00  0.00    -0.268 OA
ATOM     86  C   UNL A   1      33.923  22.750  24.909  1.00  0.00     0.081 C 
ATOM     87  S   UNL A   1      33.667  22.643  23.212  1.00  0.00    -0.054 SA
ATOM     88  S   UNL A   1      32.973  25.043  21.581  1.00  0.00    -0.051 S 
ATOM     89  C   UNL A   1      34.405  21.780  25.701  1.00  0.00     0.027 C 
BRANCH  89  90
ATOM     90  C   UNL A   1      34.826  20.475  25.245  1.00  0.00    -0.016 C 
ATOM     91  C   UNL A   1      34.056  19.459  24.862  1.00  0.00     0.005 A 
ATOM     92  C   UNL A   1      36.277  20.126  25.070  1.00  0.00     0.179 C 
ATOM     93  C   UNL A   1      32.652  19.207  24.806  1.00  0.00     0.011 A 
ATOM     94  C   UNL A   1      35.040  18.465  24.387  1.00  0.00     0.065 A 
ATOM     95  N   UNL A   1      36.303  18.760  24.493  1.00  0.00    -0.280 NA
ATOM     96  C   UNL A   1      32.230  18.037  24.297  1.00  0.00     0.001 A 
ATOM     97  C   UNL A   1      34.493  17.218  23.810  1.00  0.00     0.028 A 
ATOM     98  C   UNL A   1      33.160  17.050  23.775  1.00  0.00     0.002 A 
ENDBRANCH  89  90
ENDBRANCH  79  82
ENDBRANCH  72  74
ENDBRANCH  71  72
ENDBRANCH  70  71
ENDBRANCH   1  70
TORSDOF 17
ENDMDL
MODEL 3
REMARK VINA RESULT:     -12.0      2.283      2.611
REMARK SMILES O=C(OCCOC(=O)c1ccc(N2C(=O)/C(=C/C3=c4ccccc4=NC3)SC2=S)cc1O)c1ccc(-c2c3nc(c(-c4cc(S(=O)(=O)[O-])ccc4F)c4ccc([nH]4)c(-c4cc(S(=O)(=O)[O-])ccc4F)c4nc(c(-c5cc(S(=O)(=O)[O-])ccc5F)c5ccc2[nH]5)C=C4)C=C3)cc1
REMARK SMILES IDX 4 1 3 2 2 3 1 4 33 5 34 6 95 7 35 8 94 9 36 10 37 11 38 12
REMARK SMILES IDX 88 13 39 14 93 15 87 16 89 17 40 18 92 19 86 20 85 21 41 23
REMARK SMILES IDX 73 24 53 25 72 26 54 27 57 28 71 29 90 30 55 31 56 32 70 34
REMARK SMILES IDX 91 35 58 36 42 37 43 38 51 39 44 40 50 41 52 42 49 43 45 44
REMARK SMILES IDX 46 45 47 46 48 47 74 48 75 49 83 50 76 51 82 52 84 53 81 54
REMARK SMILES IDX 77 55 78 56 79 57 80 58 59 59 60 60 68 61 61 62 67 63 69 64
REMARK SMILES IDX 66 65 62 66 63 67 64 68 65 69 5 70 6 71 7 72 8 73 9 74 10 75
REMARK SMILES IDX 31 76 11 77 30 78 12 79 32 80 13 82 14 83 28 84 15 85 16 86
REMARK SMILES IDX 27 87 29 88 17 89 18 90 19 91 26 92 20 93 24 94 25 95 21 96
REMARK SMILES IDX 23 97 22 98
REMARK H PARENT 89 22 57 33 32 81
REMARK Flexibility Score: inf
ROOT
ATOM      1  C   UNL A   1      32.703  32.821  27.266  1.00  0.00     0.275 C 
ENDROOT
BRANCH   1   2
ATOM      2  O   UNL A   1      32.498  34.177  27.697  1.00  0.00    -0.458 OA
BRANCH   2   3
ATOM      3  C   UNL A   1      33.093  34.791  28.752  1.00  0.00     0.338 C 
ATOM      4  O   UNL A   1      32.791  35.947  29.038  1.00  0.00    -0.246 OA
BRANCH   3   5
ATOM      5  C   UNL A   1      34.278  34.178  29.414  1.00  0.00     0.060 A 
ATOM      6  C   UNL A   1      34.019  33.396  30.547  1.00  0.00     0.016 A 
ATOM      7  C   UNL A   1      35.595  34.287  28.964  1.00  0.00     0.016 A 
ATOM      8  C   UNL A   1      35.067  32.846  31.288  1.00  0.00     0.010 A 
ATOM      9  C   UNL A   1      36.650  33.740  29.706  1.00  0.00     0.010 A 
ATOM     10  C   UNL A   1      36.396  33.035  30.886  1.00  0.00    -0.014 A 
BRANCH  10  11
ATOM     11  C   UNL A   1      37.480  32.294  31.565  1.00  0.00     0.031 A 
ATOM     12  C   UNL A   1      38.115  31.068  30.993  1.00  0.00     0.074 A 
ATOM     13  C   UNL A   1      37.869  32.748  32.769  1.00  0.00     0.049 A 
ATOM     14  N   UNL A   1      39.224  30.480  31.360  1.00  0.00    -0.248 NA
ATOM     15  C   UNL A   1      37.435  30.416  29.867  1.00  0.00     0.031 C 
ATOM     16  C   UNL A   1      37.259  33.886  33.456  1.00  0.00     0.029 A 
ATOM     17  N   UNL A   1      38.838  32.307  33.629  1.00  0.00    -0.354 N 
ATOM     18  C   UNL A   1      39.422  29.443  30.462  1.00  0.00     0.074 A 
ATOM     19  C   UNL A   1      38.279  29.432  29.573  1.00  0.00     0.031 C 
ATOM     20  C   UNL A   1      37.861  34.049  34.639  1.00  0.00     0.029 A 
ATOM     21  C   UNL A   1      38.885  33.020  34.800  1.00  0.00     0.049 A 
ATOM     22  H   UNL A   1      39.440  31.555  33.427  1.00  0.00     0.167 HD
ATOM     23  C   UNL A   1      40.478  28.596  30.384  1.00  0.00     0.034 A 
ATOM     24  C   UNL A   1      39.660  32.865  35.890  1.00  0.00     0.034 A 
ATOM     25  C   UNL A   1      41.515  28.523  31.384  1.00  0.00     0.049 A 
ATOM     26  C   UNL A   1      40.753  31.838  35.853  1.00  0.00     0.074 A 
ATOM     27  C   UNL A   1      42.650  27.732  31.391  1.00  0.00     0.029 A 
ATOM     28  N   UNL A   1      41.504  29.211  32.591  1.00  0.00    -0.354 N 
ATOM     29  N   UNL A   1      41.074  31.017  34.879  1.00  0.00    -0.248 NA
ATOM     30  C   UNL A   1      41.606  31.729  37.040  1.00  0.00     0.031 C 
ATOM     31  C   UNL A   1      43.268  27.869  32.638  1.00  0.00     0.029 A 
ATOM     32  C   UNL A   1      42.569  28.807  33.382  1.00  0.00     0.049 A 
ATOM     33  H   UNL A   1      40.836  29.887  32.849  1.00  0.00     0.167 HD
ATOM     34  C   UNL A   1      42.161  30.283  35.339  1.00  0.00     0.074 A 
ATOM     35  C   UNL A   1      42.471  30.797  36.660  1.00  0.00     0.031 C 
ATOM     36  C   UNL A   1      42.836  29.278  34.724  1.00  0.00     0.034 A 
BRANCH  23  37
ATOM     37  C   UNL A   1      40.591  27.707  29.171  1.00  0.00     0.023 A 
ATOM     38  C   UNL A   1      41.472  28.013  28.119  1.00  0.00     0.031 A 
ATOM     39  C   UNL A   1      39.712  26.619  29.007  1.00  0.00     0.131 A 
ATOM     40  C   UNL A   1      41.437  27.255  26.941  1.00  0.00     0.055 A 
ATOM     41  C   UNL A   1      39.693  25.856  27.840  1.00  0.00     0.041 A 
ATOM     42  F   UNL A   1      38.860  26.284  29.991  1.00  0.00    -0.206 F 
ATOM     43  C   UNL A   1      40.553  26.179  26.795  1.00  0.00     0.022 A 
BRANCH  40  44
ATOM     44  S   UNL A   1      42.510  27.652  25.533  1.00  0.00     0.124 S 
ATOM     45  O   UNL A   1      43.817  27.759  26.177  1.00  0.00    -0.237 OA
ATOM     46  O   UNL A   1      42.330  26.486  24.673  1.00  0.00    -0.237 OA
ATOM     47  O   UNL A   1      41.966  28.905  25.024  1.00  0.00    -0.744 OA
ENDBRANCH  40  44
ENDBRANCH  23  37
BRANCH  24  48
ATOM     48  C   UNL A   1      39.423  33.780  37.039  1.00  0.00     0.023 A 
ATOM     49  C   UNL A   1      40.251  34.905  37.226  1.00  0.00     0.031 A 
ATOM     50  C   UNL A   1      38.541  33.423  38.069  1.00  0.00     0.131 A 
ATOM     51  C   UNL A   1      40.260  35.562  38.462  1.00  0.00     0.055 A 
ATOM     52  C   UNL A   1      38.499  34.130  39.272  1.00  0.00     0.041 A 
ATOM     53  F   UNL A   1      37.749  32.348  37.938  1.00  0.00    -0.206 F 
ATOM     54  C   UNL A   1      39.380  35.187  39.483  1.00  0.00     0.022 A 
BRANCH  51  55
ATOM     55  S   UNL A   1      41.548  36.782  38.851  1.00  0.00     0.124 S 
ATOM     56  O   UNL A   1      42.237  36.913  37.572  1.00  0.00    -0.237 OA
ATOM     57  O   UNL A   1      40.752  37.935  39.262  1.00  0.00    -0.237 OA
ATOM     58  O   UNL A   1      42.313  36.146  39.919  1.00  0.00    -0.744 OA
ENDBRANCH  51  55
ENDBRANCH  24  48
BRANCH  36  59
ATOM     59  C   UNL A   1      43.945  28.605  35.494  1.00  0.00     0.023 A 
ATOM     60  C   UNL A   1      45.276  29.028  35.341  1.00  0.00     0.031 A 
ATOM     61  C   UNL A   1      43.695  27.488  36.312  1.00  0.00     0.131 A 
ATOM     62  C   UNL A   1      46.310  28.334  35.979  1.00  0.00     0.055 A 
ATOM     63  C   UNL A   1      44.723  26.823  36.981  1.00  0.00     0.041 A 
ATOM     64  F   UNL A   1      42.442  27.039  36.487  1.00  0.00    -0.206 F 
ATOM     65  C   UNL A   1      46.041  27.240  36.808  1.00  0.00     0.022 A 
BRANCH  62  66
ATOM     66  S   UNL A   1      48.042  28.798  35.712  1.00  0.00     0.124 S 
ATOM     67  O   UNL A   1      48.091  30.133  36.304  1.00  0.00    -0.237 OA
ATOM     68  O   UNL A   1      48.755  27.758  36.450  1.00  0.00    -0.237 OA
ATOM     69  O   UNL A   1      48.193  28.759  34.261  1.00  0.00    -0.744 OA
ENDBRANCH  62  66
ENDBRANCH  36  59
ENDBRANCH  10  11
ENDBRANCH   3   5
ENDBRANCH   2   3
ENDBRANCH   1   2
BRANCH   1  70
ATOM     70  C   UNL A   1      31.440  32.102  26.792  1.00  0.00     0.275 C 
BRANCH  70  71
ATOM     71  O   UNL A   1      31.610  30.690  26.630  1.00  0.00    -0.458 OA
BRANCH  71  72
ATOM     72  C   UNL A   1      31.172  30.184  25.444  1.00  0.00     0.342 C 
ATOM     73  O   UNL A   1      30.513  30.765  24.603  1.00  0.00    -0.246 OA
BRANCH  72  74
ATOM     74  C   UNL A   1      31.731  28.832  25.237  1.00  0.00     0.101 A 
ATOM     75  C   UNL A   1      30.831  27.772  25.070  1.00  0.00     0.022 A 
ATOM     76  C   UNL A   1      33.101  28.582  25.211  1.00  0.00     0.132 A 
ATOM     77  C   UNL A   1      31.302  26.481  24.794  1.00  0.00     0.028 A 
ATOM     78  C   UNL A   1      33.571  27.285  24.982  1.00  0.00     0.073 A 
ATOM     79  C   UNL A   1      32.678  26.223  24.761  1.00  0.00     0.054 A 
BRANCH  76  80
ATOM     80  O   UNL A   1      33.996  29.594  25.421  1.00  0.00    -0.507 OA
ATOM     81  H   UNL A   1      34.572  29.859  24.731  1.00  0.00     0.293 HD
ENDBRANCH  76  80
BRANCH  79  82
ATOM     82  N   UNL A   1      33.184  24.912  24.505  1.00  0.00    -0.261 N 
ATOM     83  C   UNL A   1      33.601  24.091  25.554  1.00  0.00     0.270 C 
ATOM     84  C   UNL A   1      33.327  24.391  23.225  1.00  0.00     0.152 C 
ATOM     85  O   UNL A   1      33.699  24.391  26.738  1.00  0.00    -0.268 OA
ATOM     86  C   UNL A   1      33.980  22.745  25.028  1.00  0.00     0.081 C 
ATOM     87  S   UNL A   1      33.817  22.709  23.318  1.00  0.00    -0.054 SA
ATOM     88  S   UNL A   1      33.252  25.183  21.748  1.00  0.00    -0.051 S 
ATOM     89  C   UNL A   1      34.402  21.737  25.807  1.00  0.00     0.027 C 
BRANCH  89  90
ATOM     90  C   UNL A   1      34.827  20.443  25.322  1.00  0.00    -0.016 C 
ATOM     91  C   UNL A   1      34.060  19.420  24.953  1.00  0.00     0.005 A 
ATOM     92  C   UNL A   1      36.277  20.119  25.097  1.00  0.00     0.179 C 
ATOM     93  C   UNL A   1      32.659  19.146  24.940  1.00  0.00     0.011 A 
ATOM     94  C   UNL A   1      35.043  18.446  24.435  1.00  0.00     0.065 A 
ATOM     95  N   UNL A   1      36.304  18.759  24.504  1.00  0.00    -0.280 NA
ATOM     96  C   UNL A   1      32.239  17.976  24.432  1.00  0.00     0.001 A 
ATOM     97  C   UNL A   1      34.496  17.197  23.863  1.00  0.00     0.028 A 
ATOM     98  C   UNL A   1      33.166  17.009  23.869  1.00  0.00     0.002 A 
ENDBRANCH  89  90
ENDBRANCH  79  82
ENDBRANCH  72  74
ENDBRANCH  71  72
ENDBRANCH  70  71
ENDBRANCH   1  70
TORSDOF 17
ENDMDL
