MODEL 1
REMARK VINA RESULT:     -11.3      0.000      0.000
REMARK SMILES CC(C)C[C@@H](NC(=O)Cn1nc(O)ccc1=O)C(=O)OCCOC(=O)c1ccc(-c2c3nc(c(-c4cc(S(=O)(=O)[O-])ccc4F)c4ccc([nH]4)c(-c4cc(S(=O)(=O)[O-])ccc4F)c4nc(c(-c5cc(S(=O)(=O)[O-])ccc5F)c5ccc2[nH]5)C=C4)C=C3)cc1
REMARK SMILES IDX 21 1 20 2 18 3 19 4 5 5 4 6 2 7 1 8 3 9 6 10 7 11 8 13 9 14
REMARK SMILES IDX 10 15 11 16 16 17 12 18 15 19 17 20 14 21 13 22 22 24 23 25
REMARK SMILES IDX 24 26 25 27 26 28 27 29 88 30 28 31 87 32 29 33 30 34 31 35
REMARK SMILES IDX 81 36 32 37 86 38 80 39 82 40 33 41 85 42 79 43 78 44 34 46
REMARK SMILES IDX 66 47 46 48 65 49 47 50 50 51 64 52 83 53 48 54 49 55 63 57
REMARK SMILES IDX 84 58 51 59 35 60 36 61 44 62 37 63 43 64 45 65 42 66 38 67
REMARK SMILES IDX 39 68 40 69 41 70 67 71 68 72 76 73 69 74 75 75 77 76 74 77
REMARK SMILES IDX 70 78 71 79 72 80 73 81 52 82 53 83 61 84 54 85 60 86 62 87
REMARK SMILES IDX 59 88 55 89 56 90 57 91 58 92
REMARK H PARENT 6 12 13 23 82 45 50 56
REMARK Flexibility Score: inf
ROOT
ATOM      1  C   UNL A   1      35.425  21.864  24.507  1.00  0.00     0.274 C 
ENDROOT
BRANCH   1   2
ATOM      2  O   UNL A   1      34.748  22.537  25.587  1.00  0.00    -0.461 OA
BRANCH   2   3
ATOM      3  C   UNL A   1      33.904  21.827  26.361  1.00  0.00     0.328 C 
ATOM      4  O   UNL A   1      34.167  21.440  27.493  1.00  0.00    -0.250 OA
BRANCH   3   5
ATOM      5  C   UNL A   1      32.628  21.419  25.593  1.00  0.00     0.192 C 
BRANCH   5   6
ATOM      6  C   UNL A   1      32.497  19.965  25.100  1.00  0.00     0.040 C 
BRANCH   6   7
ATOM      7  C   UNL A   1      32.743  19.811  23.576  1.00  0.00    -0.015 C 
ATOM      8  C   UNL A   1      32.214  18.480  23.028  1.00  0.00     0.007 C 
ATOM      9  C   UNL A   1      32.089  20.963  22.808  1.00  0.00     0.007 C 
ENDBRANCH   6   7
ENDBRANCH   5   6
BRANCH   5  10
ATOM     10  N   UNL A   1      31.383  21.861  26.244  1.00  0.00    -0.341 N 
ATOM     11  C   UNL A   1      30.862  23.116  26.408  1.00  0.00     0.242 C 
ATOM     12  H   UNL A   1      30.836  21.136  26.622  1.00  0.00     0.164 HD
ATOM     13  O   UNL A   1      30.086  23.278  27.355  1.00  0.00    -0.273 OA
BRANCH  11  14
ATOM     14  C   UNL A   1      31.176  24.259  25.433  1.00  0.00     0.248 C 
BRANCH  14  15
ATOM     15  N   UNL A   1      31.851  25.454  25.949  1.00  0.00    -0.217 N 
ATOM     16  N   UNL A   1      31.164  26.227  26.871  1.00  0.00    -0.131 NA
ATOM     17  C   UNL A   1      33.055  25.861  25.385  1.00  0.00     0.267 A 
ATOM     18  C   UNL A   1      31.699  27.360  27.155  1.00  0.00     0.229 A 
ATOM     19  C   UNL A   1      33.587  27.180  25.780  1.00  0.00     0.079 A 
ATOM     20  O   UNL A   1      33.679  25.242  24.535  1.00  0.00    -0.268 OA
ATOM     21  C   UNL A   1      32.915  27.955  26.629  1.00  0.00     0.075 A 
BRANCH  18  22
ATOM     22  O   UNL A   1      31.109  28.160  28.049  1.00  0.00    -0.492 OA
ATOM     23  H   UNL A   1      31.492  28.279  28.895  1.00  0.00     0.295 HD
ENDBRANCH  18  22
ENDBRANCH  14  15
ENDBRANCH  11  14
ENDBRANCH   5  10
ENDBRANCH   3   5
ENDBRANCH   2   3
ENDBRANCH   1   2
BRANCH   1  24
ATOM     24  C   UNL A   1      36.659  21.144  25.064  1.00  0.00     0.275 C 
BRANCH  24  25
ATOM     25  O   UNL A   1      37.428  22.075  25.834  1.00  0.00    -0.458 OA
BRANCH  25  26
ATOM     26  C   UNL A   1      38.699  21.680  26.120  1.00  0.00     0.338 C 
ATOM     27  O   UNL A   1      39.268  20.671  25.775  1.00  0.00    -0.246 OA
BRANCH  26  28
ATOM     28  C   UNL A   1      39.353  22.876  26.686  1.00  0.00     0.060 A 
ATOM     29  C   UNL A   1      39.035  24.143  26.195  1.00  0.00     0.016 A 
ATOM     30  C   UNL A   1      40.389  22.701  27.612  1.00  0.00     0.016 A 
ATOM     31  C   UNL A   1      39.793  25.232  26.594  1.00  0.00     0.010 A 
ATOM     32  C   UNL A   1      41.150  23.793  28.012  1.00  0.00     0.010 A 
ATOM     33  C   UNL A   1      40.859  25.057  27.492  1.00  0.00    -0.014 A 
BRANCH  33  34
ATOM     34  C   UNL A   1      41.567  26.255  27.971  1.00  0.00     0.031 A 
ATOM     35  C   UNL A   1      42.975  26.532  27.565  1.00  0.00     0.074 A 
ATOM     36  C   UNL A   1      40.859  27.118  28.719  1.00  0.00     0.049 A 
ATOM     37  N   UNL A   1      43.650  27.642  27.688  1.00  0.00    -0.248 NA
ATOM     38  C   UNL A   1      43.723  25.430  26.939  1.00  0.00     0.031 C 
ATOM     39  C   UNL A   1      39.487  26.881  29.174  1.00  0.00     0.029 A 
ATOM     40  N   UNL A   1      41.167  28.360  29.196  1.00  0.00    -0.354 N 
ATOM     41  C   UNL A   1      44.894  27.391  27.125  1.00  0.00     0.074 A 
ATOM     42  C   UNL A   1      44.899  26.003  26.711  1.00  0.00     0.031 C 
ATOM     43  C   UNL A   1      39.057  27.964  29.834  1.00  0.00     0.029 A 
ATOM     44  C   UNL A   1      40.123  28.961  29.856  1.00  0.00     0.049 A 
ATOM     45  H   UNL A   1      42.048  28.783  29.078  1.00  0.00     0.167 HD
ATOM     46  C   UNL A   1      45.918  28.260  26.959  1.00  0.00     0.034 A 
ATOM     47  C   UNL A   1      40.027  30.192  30.393  1.00  0.00     0.034 A 
ATOM     48  C   UNL A   1      45.872  29.628  27.417  1.00  0.00     0.049 A 
ATOM     49  C   UNL A   1      41.182  31.138  30.199  1.00  0.00     0.074 A 
ATOM     50  C   UNL A   1      46.833  30.612  27.273  1.00  0.00     0.029 A 
ATOM     51  N   UNL A   1      44.816  30.201  28.116  1.00  0.00    -0.354 N 
ATOM     52  N   UNL A   1      42.311  30.933  29.559  1.00  0.00    -0.248 NA
ATOM     53  C   UNL A   1      41.049  32.481  30.769  1.00  0.00     0.031 C 
ATOM     54  C   UNL A   1      46.388  31.755  27.941  1.00  0.00     0.029 A 
ATOM     55  C   UNL A   1      45.117  31.513  28.442  1.00  0.00     0.049 A 
ATOM     56  H   UNL A   1      43.976  29.741  28.345  1.00  0.00     0.167 HD
ATOM     57  C   UNL A   1      43.021  32.125  29.641  1.00  0.00     0.074 A 
ATOM     58  C   UNL A   1      42.174  33.056  30.362  1.00  0.00     0.031 C 
ATOM     59  C   UNL A   1      44.259  32.420  29.170  1.00  0.00     0.034 A 
BRANCH  46  60
ATOM     60  C   UNL A   1      47.162  27.794  26.244  1.00  0.00     0.023 A 
ATOM     61  C   UNL A   1      47.305  27.996  24.858  1.00  0.00     0.031 A 
ATOM     62  C   UNL A   1      48.138  27.027  26.907  1.00  0.00     0.131 A 
ATOM     63  C   UNL A   1      48.378  27.410  24.176  1.00  0.00     0.055 A 
ATOM     64  C   UNL A   1      49.225  26.475  26.228  1.00  0.00     0.041 A 
ATOM     65  F   UNL A   1      48.046  26.800  28.228  1.00  0.00    -0.206 F 
ATOM     66  C   UNL A   1      49.342  26.656  24.853  1.00  0.00     0.022 A 
BRANCH  63  67
ATOM     67  S   UNL A   1      48.536  27.550  22.374  1.00  0.00     0.124 S 
ATOM     68  O   UNL A   1      48.506  26.148  21.959  1.00  0.00    -0.237 OA
ATOM     69  O   UNL A   1      47.350  28.328  22.024  1.00  0.00    -0.237 OA
ATOM     70  O   UNL A   1      49.814  28.226  22.185  1.00  0.00    -0.744 OA
ENDBRANCH  63  67
ENDBRANCH  46  60
BRANCH  47  71
ATOM     71  C   UNL A   1      38.752  30.584  31.056  1.00  0.00     0.023 A 
ATOM     72  C   UNL A   1      37.802  31.368  30.373  1.00  0.00     0.031 A 
ATOM     73  C   UNL A   1      38.536  30.324  32.418  1.00  0.00     0.131 A 
ATOM     74  C   UNL A   1      36.727  31.929  31.072  1.00  0.00     0.055 A 
ATOM     75  C   UNL A   1      37.424  30.826  33.096  1.00  0.00     0.041 A 
ATOM     76  F   UNL A   1      39.425  29.603  33.118  1.00  0.00    -0.206 F 
ATOM     77  C   UNL A   1      36.523  31.650  32.426  1.00  0.00     0.022 A 
BRANCH  74  78
ATOM     78  S   UNL A   1      35.654  33.166  30.288  1.00  0.00     0.124 S 
ATOM     79  O   UNL A   1      34.498  32.364  29.901  1.00  0.00    -0.237 OA
ATOM     80  O   UNL A   1      35.432  34.109  31.382  1.00  0.00    -0.237 OA
ATOM     81  O   UNL A   1      36.465  33.677  29.187  1.00  0.00    -0.744 OA
ENDBRANCH  74  78
ENDBRANCH  47  71
BRANCH  59  82
ATOM     82  C   UNL A   1      44.807  33.801  29.440  1.00  0.00     0.023 A 
ATOM     83  C   UNL A   1      44.654  34.821  28.482  1.00  0.00     0.031 A 
ATOM     84  C   UNL A   1      45.600  34.058  30.570  1.00  0.00     0.131 A 
ATOM     85  C   UNL A   1      45.321  36.040  28.655  1.00  0.00     0.055 A 
ATOM     86  C   UNL A   1      46.223  35.292  30.761  1.00  0.00     0.041 A 
ATOM     87  F   UNL A   1      45.784  33.112  31.505  1.00  0.00    -0.206 F 
ATOM     88  C   UNL A   1      46.097  36.283  29.793  1.00  0.00     0.022 A 
BRANCH  85  89
ATOM     89  S   UNL A   1      45.281  37.320  27.370  1.00  0.00     0.124 S 
ATOM     90  O   UNL A   1      46.141  36.741  26.341  1.00  0.00    -0.237 OA
ATOM     91  O   UNL A   1      43.860  37.375  27.036  1.00  0.00    -0.237 OA
ATOM     92  O   UNL A   1      45.816  38.503  28.033  1.00  0.00    -0.744 OA
ENDBRANCH  85  89
ENDBRANCH  59  82
ENDBRANCH  33  34
ENDBRANCH  26  28
ENDBRANCH  25  26
ENDBRANCH  24  25
ENDBRANCH   1  24
TORSDOF 20
ENDMDL
MODEL 2
REMARK VINA RESULT:     -11.3      1.081      3.084
REMARK SMILES CC(C)C[C@@H](NC(=O)Cn1nc(O)ccc1=O)C(=O)OCCOC(=O)c1ccc(-c2c3nc(c(-c4cc(S(=O)(=O)[O-])ccc4F)c4ccc([nH]4)c(-c4cc(S(=O)(=O)[O-])ccc4F)c4nc(c(-c5cc(S(=O)(=O)[O-])ccc5F)c5ccc2[nH]5)C=C4)C=C3)cc1
REMARK SMILES IDX 21 1 20 2 18 3 19 4 5 5 4 6 2 7 1 8 3 9 6 10 7 11 8 13 9 14
REMARK SMILES IDX 10 15 11 16 16 17 12 18 15 19 17 20 14 21 13 22 22 24 23 25
REMARK SMILES IDX 24 26 25 27 26 28 27 29 88 30 28 31 87 32 29 33 30 34 31 35
REMARK SMILES IDX 81 36 32 37 86 38 80 39 82 40 33 41 85 42 79 43 78 44 34 46
REMARK SMILES IDX 66 47 46 48 65 49 47 50 50 51 64 52 83 53 48 54 49 55 63 57
REMARK SMILES IDX 84 58 51 59 35 60 36 61 44 62 37 63 43 64 45 65 42 66 38 67
REMARK SMILES IDX 39 68 40 69 41 70 67 71 68 72 76 73 69 74 75 75 77 76 74 77
REMARK SMILES IDX 70 78 71 79 72 80 73 81 52 82 53 83 61 84 54 85 60 86 62 87
REMARK SMILES IDX 59 88 55 89 56 90 57 91 58 92
REMARK H PARENT 6 12 13 23 82 45 50 56
REMARK Flexibility Score: inf
ROOT
ATOM      1  C   UNL A   1      35.813  21.681  24.689  1.00  0.00     0.274 C 
ENDROOT
BRANCH   1   2
ATOM      2  O   UNL A   1      35.534  22.834  25.508  1.00  0.00    -0.461 OA
BRANCH   2   3
ATOM      3  C   UNL A   1      34.684  22.698  26.545  1.00  0.00     0.328 C 
ATOM      4  O   UNL A   1      34.660  21.729  27.294  1.00  0.00    -0.250 OA
BRANCH   3   5
ATOM      5  C   UNL A   1      33.636  23.831  26.580  1.00  0.00     0.192 C 
BRANCH   5   6
ATOM      6  C   UNL A   1      33.816  25.033  25.633  1.00  0.00     0.040 C 
BRANCH   6   7
ATOM      7  C   UNL A   1      33.048  26.299  26.098  1.00  0.00    -0.015 C 
ATOM      8  C   UNL A   1      33.940  27.545  26.139  1.00  0.00     0.007 C 
ATOM      9  C   UNL A   1      31.854  26.569  25.179  1.00  0.00     0.007 C 
ENDBRANCH   6   7
ENDBRANCH   5   6
BRANCH   5  10
ATOM     10  N   UNL A   1      32.245  23.346  26.545  1.00  0.00    -0.341 N 
ATOM     11  C   UNL A   1      31.499  22.858  25.507  1.00  0.00     0.242 C 
ATOM     12  H   UNL A   1      31.776  23.377  27.410  1.00  0.00     0.164 HD
ATOM     13  O   UNL A   1      30.272  22.956  25.608  1.00  0.00    -0.273 OA
BRANCH  11  14
ATOM     14  C   UNL A   1      32.144  22.166  24.298  1.00  0.00     0.248 C 
BRANCH  14  15
ATOM     15  N   UNL A   1      32.176  20.701  24.265  1.00  0.00    -0.217 N 
ATOM     16  N   UNL A   1      32.410  20.040  25.460  1.00  0.00    -0.131 NA
ATOM     17  C   UNL A   1      32.144  20.040  23.042  1.00  0.00     0.267 A 
ATOM     18  C   UNL A   1      32.622  18.777  25.364  1.00  0.00     0.229 A 
ATOM     19  C   UNL A   1      32.398  18.586  23.041  1.00  0.00     0.079 A 
ATOM     20  O   UNL A   1      31.987  20.577  21.955  1.00  0.00    -0.268 OA
ATOM     21  C   UNL A   1      32.671  17.945  24.175  1.00  0.00     0.075 A 
BRANCH  18  22
ATOM     22  O   UNL A   1      32.840  18.062  26.473  1.00  0.00    -0.492 OA
ATOM     23  H   UNL A   1      33.126  18.489  27.257  1.00  0.00     0.295 HD
ENDBRANCH  18  22
ENDBRANCH  14  15
ENDBRANCH  11  14
ENDBRANCH   5  10
ENDBRANCH   3   5
ENDBRANCH   2   3
ENDBRANCH   1   2
BRANCH   1  24
ATOM     24  C   UNL A   1      37.311  21.362  24.772  1.00  0.00     0.275 C 
BRANCH  24  25
ATOM     25  O   UNL A   1      37.873  22.076  25.879  1.00  0.00    -0.458 OA
BRANCH  25  26
ATOM     26  C   UNL A   1      39.117  21.671  26.258  1.00  0.00     0.338 C 
ATOM     27  O   UNL A   1      39.646  20.600  26.075  1.00  0.00    -0.246 OA
BRANCH  26  28
ATOM     28  C   UNL A   1      39.811  22.905  26.674  1.00  0.00     0.060 A 
ATOM     29  C   UNL A   1      40.768  22.859  27.689  1.00  0.00     0.016 A 
ATOM     30  C   UNL A   1      39.391  24.127  26.136  1.00  0.00     0.016 A 
ATOM     31  C   UNL A   1      41.267  24.046  28.202  1.00  0.00     0.010 A 
ATOM     32  C   UNL A   1      39.890  25.318  26.651  1.00  0.00     0.010 A 
ATOM     33  C   UNL A   1      40.819  25.276  27.694  1.00  0.00    -0.014 A 
BRANCH  33  34
ATOM     34  C   UNL A   1      41.454  26.506  28.193  1.00  0.00     0.031 A 
ATOM     35  C   UNL A   1      42.870  26.833  27.857  1.00  0.00     0.074 A 
ATOM     36  C   UNL A   1      40.675  27.350  28.890  1.00  0.00     0.049 A 
ATOM     37  N   UNL A   1      43.495  27.969  27.999  1.00  0.00    -0.248 NA
ATOM     38  C   UNL A   1      43.691  25.753  27.287  1.00  0.00     0.031 C 
ATOM     39  C   UNL A   1      39.291  27.065  29.275  1.00  0.00     0.029 A 
ATOM     40  N   UNL A   1      40.909  28.609  29.364  1.00  0.00    -0.354 N 
ATOM     41  C   UNL A   1      44.775  27.760  27.506  1.00  0.00     0.074 A 
ATOM     42  C   UNL A   1      44.855  26.368  27.112  1.00  0.00     0.031 C 
ATOM     43  C   UNL A   1      38.785  28.139  29.897  1.00  0.00     0.029 A 
ATOM     44  C   UNL A   1      39.809  29.177  29.960  1.00  0.00     0.049 A 
ATOM     45  H   UNL A   1      41.779  29.064  29.287  1.00  0.00     0.167 HD
ATOM     46  C   UNL A   1      45.773  28.666  27.381  1.00  0.00     0.034 A 
ATOM     47  C   UNL A   1      39.639  30.410  30.474  1.00  0.00     0.034 A 
ATOM     48  C   UNL A   1      45.650  30.037  27.817  1.00  0.00     0.049 A 
ATOM     49  C   UNL A   1      40.765  31.397  30.327  1.00  0.00     0.074 A 
ATOM     50  C   UNL A   1      46.579  31.056  27.708  1.00  0.00     0.029 A 
ATOM     51  N   UNL A   1      44.537  30.577  28.450  1.00  0.00    -0.354 N 
ATOM     52  N   UNL A   1      41.934  31.228  29.750  1.00  0.00    -0.248 NA
ATOM     53  C   UNL A   1      40.551  32.741  30.869  1.00  0.00     0.031 C 
ATOM     54  C   UNL A   1      46.056  32.189  28.335  1.00  0.00     0.029 A 
ATOM     55  C   UNL A   1      44.770  31.904  28.773  1.00  0.00     0.049 A 
ATOM     56  H   UNL A   1      43.705  30.088  28.642  1.00  0.00     0.167 HD
ATOM     57  C   UNL A   1      42.592  32.448  29.851  1.00  0.00     0.074 A 
ATOM     58  C   UNL A   1      41.673  33.354  30.513  1.00  0.00     0.031 C 
ATOM     59  C   UNL A   1      43.841  32.785  29.442  1.00  0.00     0.034 A 
BRANCH  46  60
ATOM     60  C   UNL A   1      47.070  28.240  26.739  1.00  0.00     0.023 A 
ATOM     61  C   UNL A   1      47.189  28.197  25.337  1.00  0.00     0.031 A 
ATOM     62  C   UNL A   1      48.135  27.743  27.512  1.00  0.00     0.131 A 
ATOM     63  C   UNL A   1      48.333  27.637  24.753  1.00  0.00     0.055 A 
ATOM     64  C   UNL A   1      49.288  27.220  26.924  1.00  0.00     0.041 A 
ATOM     65  F   UNL A   1      48.069  27.756  28.853  1.00  0.00    -0.206 F 
ATOM     66  C   UNL A   1      49.385  27.155  25.538  1.00  0.00     0.022 A 
BRANCH  63  67
ATOM     67  S   UNL A   1      48.477  27.458  22.953  1.00  0.00     0.124 S 
ATOM     68  O   UNL A   1      48.364  26.010  22.785  1.00  0.00    -0.237 OA
ATOM     69  O   UNL A   1      47.333  28.231  22.477  1.00  0.00    -0.237 OA
ATOM     70  O   UNL A   1      49.789  28.017  22.649  1.00  0.00    -0.744 OA
ENDBRANCH  63  67
ENDBRANCH  46  60
BRANCH  47  71
ATOM     71  C   UNL A   1      38.316  30.760  31.063  1.00  0.00     0.023 A 
ATOM     72  C   UNL A   1      37.314  31.351  30.270  1.00  0.00     0.031 A 
ATOM     73  C   UNL A   1      38.093  30.662  32.445  1.00  0.00     0.131 A 
ATOM     74  C   UNL A   1      36.173  31.892  30.875  1.00  0.00     0.055 A 
ATOM     75  C   UNL A   1      36.921  31.139  33.036  1.00  0.00     0.041 A 
ATOM     76  F   UNL A   1      39.028  30.130  33.246  1.00  0.00    -0.206 F 
ATOM     77  C   UNL A   1      35.963  31.776  32.252  1.00  0.00     0.022 A 
BRANCH  74  78
ATOM     78  S   UNL A   1      35.007  32.905  29.920  1.00  0.00     0.124 S 
ATOM     79  O   UNL A   1      35.886  33.921  29.350  1.00  0.00    -0.237 OA
ATOM     80  O   UNL A   1      34.470  31.931  28.972  1.00  0.00    -0.237 OA
ATOM     81  O   UNL A   1      34.059  33.379  30.923  1.00  0.00    -0.744 OA
ENDBRANCH  74  78
ENDBRANCH  47  71
BRANCH  59  82
ATOM     82  C   UNL A   1      44.321  34.189  29.720  1.00  0.00     0.023 A 
ATOM     83  C   UNL A   1      44.306  35.157  28.697  1.00  0.00     0.031 A 
ATOM     84  C   UNL A   1      44.923  34.521  30.945  1.00  0.00     0.131 A 
ATOM     85  C   UNL A   1      44.921  36.398  28.907  1.00  0.00     0.055 A 
ATOM     86  C   UNL A   1      45.492  35.776  31.165  1.00  0.00     0.041 A 
ATOM     87  F   UNL A   1      44.971  33.627  31.946  1.00  0.00    -0.206 F 
ATOM     88  C   UNL A   1      45.505  36.715  30.138  1.00  0.00     0.022 A 
BRANCH  85  89
ATOM     89  S   UNL A   1      45.064  37.610  27.565  1.00  0.00     0.124 S 
ATOM     90  O   UNL A   1      43.664  37.874  27.247  1.00  0.00    -0.237 OA
ATOM     91  O   UNL A   1      45.774  38.707  28.217  1.00  0.00    -0.237 OA
ATOM     92  O   UNL A   1      45.814  36.904  26.532  1.00  0.00    -0.744 OA
ENDBRANCH  85  89
ENDBRANCH  59  82
ENDBRANCH  33  34
ENDBRANCH  26  28
ENDBRANCH  25  26
ENDBRANCH  24  25
ENDBRANCH   1  24
TORSDOF 20
ENDMDL
MODEL 3
REMARK VINA RESULT:     -11.2      1.662      2.779
REMARK SMILES CC(C)C[C@@H](NC(=O)Cn1nc(O)ccc1=O)C(=O)OCCOC(=O)c1ccc(-c2c3nc(c(-c4cc(S(=O)(=O)[O-])ccc4F)c4ccc([nH]4)c(-c4cc(S(=O)(=O)[O-])ccc4F)c4nc(c(-c5cc(S(=O)(=O)[O-])ccc5F)c5ccc2[nH]5)C=C4)C=C3)cc1
REMARK SMILES IDX 21 1 20 2 18 3 19 4 5 5 4 6 2 7 1 8 3 9 6 10 7 11 8 13 9 14
REMARK SMILES IDX 10 15 11 16 16 17 12 18 15 19 17 20 14 21 13 22 22 24 23 25
REMARK SMILES IDX 24 26 25 27 26 28 27 29 88 30 28 31 87 32 29 33 30 34 31 35
REMARK SMILES IDX 81 36 32 37 86 38 80 39 82 40 33 41 85 42 79 43 78 44 34 46
REMARK SMILES IDX 66 47 46 48 65 49 47 50 50 51 64 52 83 53 48 54 49 55 63 57
REMARK SMILES IDX 84 58 51 59 35 60 36 61 44 62 37 63 43 64 45 65 42 66 38 67
REMARK SMILES IDX 39 68 40 69 41 70 67 71 68 72 76 73 69 74 75 75 77 76 74 77
REMARK SMILES IDX 70 78 71 79 72 80 73 81 52 82 53 83 61 84 54 85 60 86 62 87
REMARK SMILES IDX 59 88 55 89 56 90 57 91 58 92
REMARK H PARENT 6 12 13 23 82 45 50 56
REMARK Flexibility Score: inf
ROOT
ATOM      1  C   UNL A   1      35.372  22.119  25.968  1.00  0.00     0.274 C 
ENDROOT
BRANCH   1   2
ATOM      2  O   UNL A   1      35.084  23.315  25.216  1.00  0.00    -0.461 OA
BRANCH   2   3
ATOM      3  C   UNL A   1      33.824  23.518  24.783  1.00  0.00     0.328 C 
ATOM      4  O   UNL A   1      33.030  22.620  24.528  1.00  0.00    -0.250 OA
BRANCH   3   5
ATOM      5  C   UNL A   1      33.551  25.009  24.490  1.00  0.00     0.192 C 
BRANCH   5   6
ATOM      6  C   UNL A   1      34.217  26.071  25.386  1.00  0.00     0.040 C 
BRANCH   6   7
ATOM      7  C   UNL A   1      33.397  27.384  25.492  1.00  0.00    -0.015 C 
ATOM      8  C   UNL A   1      33.484  28.019  26.884  1.00  0.00     0.007 C 
ATOM      9  C   UNL A   1      33.869  28.399  24.449  1.00  0.00     0.007 C 
ENDBRANCH   6   7
ENDBRANCH   5   6
BRANCH   5  10
ATOM     10  N   UNL A   1      33.695  25.364  23.068  1.00  0.00    -0.341 N 
ATOM     11  C   UNL A   1      32.791  25.313  22.042  1.00  0.00     0.242 C 
ATOM     12  H   UNL A   1      34.587  25.694  22.814  1.00  0.00     0.164 HD
ATOM     13  O   UNL A   1      33.249  25.211  20.899  1.00  0.00    -0.273 OA
BRANCH  11  14
ATOM     14  C   UNL A   1      31.281  25.434  22.285  1.00  0.00     0.248 C 
BRANCH  14  15
ATOM     15  N   UNL A   1      30.737  26.737  22.677  1.00  0.00    -0.217 N 
ATOM     16  N   UNL A   1      30.871  27.782  21.777  1.00  0.00    -0.131 NA
ATOM     17  C   UNL A   1      30.271  26.926  23.973  1.00  0.00     0.267 A 
ATOM     18  C   UNL A   1      30.561  28.945  22.225  1.00  0.00     0.229 A 
ATOM     19  C   UNL A   1      29.938  28.303  24.390  1.00  0.00     0.079 A 
ATOM     20  O   UNL A   1      30.175  26.051  24.822  1.00  0.00    -0.268 OA
ATOM     21  C   UNL A   1      30.107  29.323  23.552  1.00  0.00     0.075 A 
BRANCH  18  22
ATOM     22  O   UNL A   1      30.646  30.006  21.415  1.00  0.00    -0.492 OA
ATOM     23  H   UNL A   1      30.292  29.963  20.549  1.00  0.00     0.295 HD
ENDBRANCH  18  22
ENDBRANCH  14  15
ENDBRANCH  11  14
ENDBRANCH   5  10
ENDBRANCH   3   5
ENDBRANCH   2   3
ENDBRANCH   1   2
BRANCH   1  24
ATOM     24  C   UNL A   1      36.313  21.230  25.147  1.00  0.00     0.275 C 
BRANCH  24  25
ATOM     25  O   UNL A   1      37.582  21.884  25.032  1.00  0.00    -0.458 OA
BRANCH  25  26
ATOM     26  C   UNL A   1      38.577  21.359  25.799  1.00  0.00     0.338 C 
ATOM     27  O   UNL A   1      39.004  20.228  25.804  1.00  0.00    -0.246 OA
BRANCH  26  28
ATOM     28  C   UNL A   1      39.243  22.524  26.412  1.00  0.00     0.060 A 
ATOM     29  C   UNL A   1      38.807  23.816  26.112  1.00  0.00     0.016 A 
ATOM     30  C   UNL A   1      40.397  22.313  27.177  1.00  0.00     0.016 A 
ATOM     31  C   UNL A   1      39.560  24.899  26.536  1.00  0.00     0.010 A 
ATOM     32  C   UNL A   1      41.153  23.400  27.602  1.00  0.00     0.010 A 
ATOM     33  C   UNL A   1      40.740  24.693  27.269  1.00  0.00    -0.014 A 
BRANCH  33  34
ATOM     34  C   UNL A   1      41.449  25.872  27.791  1.00  0.00     0.031 A 
ATOM     35  C   UNL A   1      42.855  26.165  27.392  1.00  0.00     0.074 A 
ATOM     36  C   UNL A   1      40.742  26.706  28.572  1.00  0.00     0.049 A 
ATOM     37  N   UNL A   1      43.530  27.270  27.554  1.00  0.00    -0.248 NA
ATOM     38  C   UNL A   1      43.602  25.087  26.724  1.00  0.00     0.031 C 
ATOM     39  C   UNL A   1      39.371  26.452  29.021  1.00  0.00     0.029 A 
ATOM     40  N   UNL A   1      41.050  27.930  29.094  1.00  0.00    -0.354 N 
ATOM     41  C   UNL A   1      44.773  27.041  26.980  1.00  0.00     0.074 A 
ATOM     42  C   UNL A   1      44.777  25.670  26.514  1.00  0.00     0.031 C 
ATOM     43  C   UNL A   1      38.942  27.510  29.722  1.00  0.00     0.029 A 
ATOM     44  C   UNL A   1      40.007  28.506  29.779  1.00  0.00     0.049 A 
ATOM     45  H   UNL A   1      41.931  28.358  28.990  1.00  0.00     0.167 HD
ATOM     46  C   UNL A   1      45.796  27.916  26.843  1.00  0.00     0.034 A 
ATOM     47  C   UNL A   1      39.912  29.716  30.361  1.00  0.00     0.034 A 
ATOM     48  C   UNL A   1      45.750  29.266  27.352  1.00  0.00     0.049 A 
ATOM     49  C   UNL A   1      41.066  30.669  30.200  1.00  0.00     0.074 A 
ATOM     50  C   UNL A   1      46.710  30.256  27.242  1.00  0.00     0.029 A 
ATOM     51  N   UNL A   1      44.695  29.812  28.074  1.00  0.00    -0.354 N 
ATOM     52  N   UNL A   1      42.194  30.488  29.550  1.00  0.00    -0.248 NA
ATOM     53  C   UNL A   1      40.934  31.990  30.819  1.00  0.00     0.031 C 
ATOM     54  C   UNL A   1      46.266  31.373  27.953  1.00  0.00     0.029 A 
ATOM     55  C   UNL A   1      44.996  31.111  28.448  1.00  0.00     0.049 A 
ATOM     56  H   UNL A   1      43.857  29.344  28.288  1.00  0.00     0.167 HD
ATOM     57  C   UNL A   1      42.903  31.677  29.674  1.00  0.00     0.074 A 
ATOM     58  C   UNL A   1      42.058  32.580  30.430  1.00  0.00     0.031 C 
ATOM     59  C   UNL A   1      44.140  31.990  29.211  1.00  0.00     0.034 A 
BRANCH  46  60
ATOM     60  C   UNL A   1      47.038  27.477  26.109  1.00  0.00     0.023 A 
ATOM     61  C   UNL A   1      47.228  27.829  24.759  1.00  0.00     0.031 A 
ATOM     62  C   UNL A   1      47.961  26.597  26.702  1.00  0.00     0.131 A 
ATOM     63  C   UNL A   1      48.295  27.275  24.038  1.00  0.00     0.055 A 
ATOM     64  C   UNL A   1      49.043  26.076  25.988  1.00  0.00     0.041 A 
ATOM     65  F   UNL A   1      47.822  26.225  27.985  1.00  0.00    -0.206 F 
ATOM     66  C   UNL A   1      49.206  26.406  24.647  1.00  0.00     0.022 A 
BRANCH  63  67
ATOM     67  S   UNL A   1      48.509  27.612  22.269  1.00  0.00     0.124 S 
ATOM     68  O   UNL A   1      49.762  28.363  22.254  1.00  0.00    -0.237 OA
ATOM     69  O   UNL A   1      48.584  26.265  21.709  1.00  0.00    -0.237 OA
ATOM     70  O   UNL A   1      47.321  28.380  21.911  1.00  0.00    -0.744 OA
ENDBRANCH  63  67
ENDBRANCH  46  60
BRANCH  47  71
ATOM     71  C   UNL A   1      38.638  30.082  31.041  1.00  0.00     0.023 A 
ATOM     72  C   UNL A   1      37.626  30.767  30.342  1.00  0.00     0.031 A 
ATOM     73  C   UNL A   1      38.480  29.902  32.424  1.00  0.00     0.131 A 
ATOM     74  C   UNL A   1      36.543  31.314  31.041  1.00  0.00     0.055 A 
ATOM     75  C   UNL A   1      37.363  30.389  33.106  1.00  0.00     0.041 A 
ATOM     76  F   UNL A   1      39.429  29.279  33.138  1.00  0.00    -0.206 F 
ATOM     77  C   UNL A   1      36.398  31.117  32.416  1.00  0.00     0.022 A 
BRANCH  74  78
ATOM     78  S   UNL A   1      35.379  32.437  30.215  1.00  0.00     0.124 S 
ATOM     79  O   UNL A   1      36.228  33.583  29.910  1.00  0.00    -0.237 OA
ATOM     80  O   UNL A   1      34.956  31.640  29.066  1.00  0.00    -0.237 OA
ATOM     81  O   UNL A   1      34.347  32.666  31.222  1.00  0.00    -0.744 OA
ENDBRANCH  74  78
ENDBRANCH  47  71
BRANCH  59  82
ATOM     82  C   UNL A   1      44.688  33.360  29.531  1.00  0.00     0.023 A 
ATOM     83  C   UNL A   1      44.520  34.419  28.618  1.00  0.00     0.031 A 
ATOM     84  C   UNL A   1      45.495  33.573  30.661  1.00  0.00     0.131 A 
ATOM     85  C   UNL A   1      45.186  35.632  28.832  1.00  0.00     0.055 A 
ATOM     86  C   UNL A   1      46.117  34.800  30.894  1.00  0.00     0.041 A 
ATOM     87  F   UNL A   1      45.693  32.590  31.553  1.00  0.00    -0.206 F 
ATOM     88  C   UNL A   1      45.976  35.830  29.969  1.00  0.00     0.022 A 
BRANCH  85  89
ATOM     89  S   UNL A   1      45.126  36.963  27.602  1.00  0.00     0.124 S 
ATOM     90  O   UNL A   1      45.870  38.027  28.271  1.00  0.00    -0.237 OA
ATOM     91  O   UNL A   1      45.799  36.355  26.458  1.00  0.00    -0.237 OA
ATOM     92  O   UNL A   1      43.700  37.217  27.427  1.00  0.00    -0.744 OA
ENDBRANCH  85  89
ENDBRANCH  59  82
ENDBRANCH  33  34
ENDBRANCH  26  28
ENDBRANCH  25  26
ENDBRANCH  24  25
ENDBRANCH   1  24
TORSDOF 20
ENDMDL
