MODEL 1
REMARK VINA RESULT:     -11.5      0.000      0.000
REMARK SMILES C[NH2+][C@@]1(C(=O)OCCOC(=O)c2ccc(-c3c4nc(c(-c5cc(S(=O)(=O)[O-])ccc5F)c5ccc([nH]5)c(-c5cc(S(=O)(=O)[O-])ccc5F)c5nc(c(-c6cc(S(=O)(=O)[O-])ccc6F)c6ccc3[nH]6)C=C5)C=C4)cc2)CC[C@H](SC2CCOCC2)C1
REMARK SMILES IDX 8 1 7 2 6 3 4 4 5 5 3 6 75 7 85 8 76 9 77 10 2 11 1 12 78 15
REMARK SMILES IDX 79 16 80 17 84 18 81 19 83 20 82 21 9 22 10 23 11 24 12 25
REMARK SMILES IDX 13 26 74 27 14 28 73 29 15 30 16 31 17 32 67 33 18 34 72 35
REMARK SMILES IDX 66 36 68 37 19 38 71 39 65 40 64 41 20 43 52 44 32 45 51 46
REMARK SMILES IDX 33 47 36 48 50 49 69 50 34 51 35 52 49 54 70 55 37 56 21 57
REMARK SMILES IDX 22 58 30 59 23 60 29 61 31 62 28 63 24 64 25 65 26 66 27 67
REMARK SMILES IDX 53 68 54 69 62 70 55 71 61 72 63 73 60 74 56 75 57 76 58 77
REMARK SMILES IDX 59 78 38 79 39 80 47 81 40 82 46 83 48 84 45 85 41 86 42 87
REMARK SMILES IDX 43 88 44 89
REMARK H PARENT 2 13 2 14 68 42 36 53
REMARK Flexibility Score: inf
ROOT
ATOM      1  C   UNL A   1      31.703  29.781  26.203  1.00  0.00     0.275 C 
ENDROOT
BRANCH   1   2
ATOM      2  C   UNL A   1      31.891  28.459  26.936  1.00  0.00     0.274 C 
BRANCH   2   3
ATOM      3  O   UNL A   1      32.281  27.433  26.002  1.00  0.00    -0.457 OA
BRANCH   3   4
ATOM      4  C   UNL A   1      31.317  26.900  25.211  1.00  0.00     0.368 C 
ATOM      5  O   UNL A   1      30.193  26.595  25.602  1.00  0.00    -0.245 OA
BRANCH   4   6
ATOM      6  C   UNL A   1      31.798  26.646  23.749  1.00  0.00     0.195 C 
ATOM      7  C   UNL A   1      32.719  27.813  23.368  1.00  0.00     0.082 C 
ATOM      8  C   UNL A   1      30.703  26.748  22.672  1.00  0.00     0.095 C 
ATOM      9  C   UNL A   1      31.744  28.934  23.033  1.00  0.00     0.022 C 
ATOM     10  C   UNL A   1      30.570  28.247  22.328  1.00  0.00     0.054 C 
BRANCH   6  11
ATOM     11  N   UNL A   1      32.607  25.406  23.709  1.00  0.00    -0.335 N 
ATOM     12  C   UNL A   1      33.620  25.363  22.666  1.00  0.00     0.331 C 
ATOM     13  H   UNL A   1      33.076  25.307  24.609  1.00  0.00     0.347 HD
ATOM     14  H   UNL A   1      31.955  24.649  23.505  1.00  0.00     0.347 HD
ENDBRANCH   6  11
BRANCH  10  15
ATOM     15  S   UNL A   1      28.920  28.878  22.818  1.00  0.00    -0.155 SA
BRANCH  15  16
ATOM     16  C   UNL A   1      28.920  30.614  22.241  1.00  0.00     0.051 C 
ATOM     17  C   UNL A   1      28.693  31.640  23.347  1.00  0.00     0.043 C 
ATOM     18  C   UNL A   1      27.985  30.865  21.059  1.00  0.00     0.043 C 
ATOM     19  C   UNL A   1      28.799  33.042  22.757  1.00  0.00     0.161 C 
ATOM     20  C   UNL A   1      28.123  32.311  20.599  1.00  0.00     0.161 C 
ATOM     21  O   UNL A   1      27.876  33.210  21.680  1.00  0.00    -0.381 OA
ENDBRANCH  15  16
ENDBRANCH  10  15
ENDBRANCH   4   6
ENDBRANCH   3   4
ENDBRANCH   2   3
ENDBRANCH   1   2
BRANCH   1  22
ATOM     22  O   UNL A   1      32.990  30.404  26.082  1.00  0.00    -0.458 OA
BRANCH  22  23
ATOM     23  C   UNL A   1      33.286  31.352  26.996  1.00  0.00     0.338 C 
ATOM     24  O   UNL A   1      32.582  32.291  27.338  1.00  0.00    -0.246 OA
BRANCH  23  25
ATOM     25  C   UNL A   1      34.619  31.073  27.567  1.00  0.00     0.060 A 
ATOM     26  C   UNL A   1      34.974  29.772  27.926  1.00  0.00     0.016 A 
ATOM     27  C   UNL A   1      35.485  32.129  27.844  1.00  0.00     0.016 A 
ATOM     28  C   UNL A   1      36.143  29.536  28.645  1.00  0.00     0.010 A 
ATOM     29  C   UNL A   1      36.711  31.872  28.465  1.00  0.00     0.010 A 
ATOM     30  C   UNL A   1      37.043  30.576  28.905  1.00  0.00    -0.014 A 
BRANCH  30  31
ATOM     31  C   UNL A   1      38.302  30.332  29.668  1.00  0.00     0.031 A 
ATOM     32  C   UNL A   1      39.386  29.471  29.071  1.00  0.00     0.074 A 
ATOM     33  C   UNL A   1      38.484  30.865  30.894  1.00  0.00     0.049 A 
ATOM     34  N   UNL A   1      40.406  28.896  29.653  1.00  0.00    -0.248 NA
ATOM     35  C   UNL A   1      39.287  29.200  27.628  1.00  0.00     0.031 C 
ATOM     36  C   UNL A   1      37.558  31.771  31.577  1.00  0.00     0.029 A 
ATOM     37  N   UNL A   1      39.519  30.723  31.787  1.00  0.00    -0.354 N 
ATOM     38  C   UNL A   1      41.025  28.130  28.669  1.00  0.00     0.074 A 
ATOM     39  C   UNL A   1      40.266  28.323  27.451  1.00  0.00     0.031 C 
ATOM     40  C   UNL A   1      38.082  32.133  32.757  1.00  0.00     0.029 A 
ATOM     41  C   UNL A   1      39.322  31.398  32.970  1.00  0.00     0.049 A 
ATOM     42  H   UNL A   1      40.324  30.188  31.599  1.00  0.00     0.167 HD
ATOM     43  C   UNL A   1      42.115  27.331  28.782  1.00  0.00     0.034 A 
ATOM     44  C   UNL A   1      40.017  31.380  34.123  1.00  0.00     0.034 A 
ATOM     45  C   UNL A   1      42.896  27.208  29.991  1.00  0.00     0.049 A 
ATOM     46  C   UNL A   1      41.215  30.477  34.235  1.00  0.00     0.074 A 
ATOM     47  C   UNL A   1      44.025  26.437  30.217  1.00  0.00     0.029 A 
ATOM     48  N   UNL A   1      42.642  27.890  31.174  1.00  0.00    -0.354 N 
ATOM     49  N   UNL A   1      41.719  29.662  33.338  1.00  0.00    -0.248 NA
ATOM     50  C   UNL A   1      41.918  30.470  35.523  1.00  0.00     0.031 C 
ATOM     51  C   UNL A   1      44.424  26.618  31.546  1.00  0.00     0.029 A 
ATOM     52  C   UNL A   1      43.583  27.549  32.134  1.00  0.00     0.049 A 
ATOM     53  H   UNL A   1      41.901  28.524  31.311  1.00  0.00     0.167 HD
ATOM     54  C   UNL A   1      42.800  29.044  33.956  1.00  0.00     0.074 A 
ATOM     55  C   UNL A   1      42.891  29.601  35.291  1.00  0.00     0.031 C 
ATOM     56  C   UNL A   1      43.639  28.095  33.469  1.00  0.00     0.034 A 
BRANCH  43  57
ATOM     57  C   UNL A   1      42.480  26.476  27.592  1.00  0.00     0.023 A 
ATOM     58  C   UNL A   1      42.023  25.156  27.443  1.00  0.00     0.031 A 
ATOM     59  C   UNL A   1      43.330  26.995  26.597  1.00  0.00     0.131 A 
ATOM     60  C   UNL A   1      42.471  24.379  26.361  1.00  0.00     0.055 A 
ATOM     61  C   UNL A   1      43.711  26.243  25.484  1.00  0.00     0.041 A 
ATOM     62  F   UNL A   1      43.816  28.242  26.696  1.00  0.00    -0.206 F 
ATOM     63  C   UNL A   1      43.292  24.921  25.369  1.00  0.00     0.022 A 
BRANCH  60  64
ATOM     64  S   UNL A   1      42.071  22.610  26.336  1.00  0.00     0.124 S 
ATOM     65  O   UNL A   1      42.752  22.137  27.540  1.00  0.00    -0.237 OA
ATOM     66  O   UNL A   1      40.615  22.614  26.386  1.00  0.00    -0.237 OA
ATOM     67  O   UNL A   1      42.651  22.144  25.078  1.00  0.00    -0.744 OA
ENDBRANCH  60  64
ENDBRANCH  43  57
BRANCH  44  68
ATOM     68  C   UNL A   1      39.545  32.171  35.296  1.00  0.00     0.023 A 
ATOM     69  C   UNL A   1      39.946  33.502  35.484  1.00  0.00     0.031 A 
ATOM     70  C   UNL A   1      38.689  31.595  36.254  1.00  0.00     0.131 A 
ATOM     71  C   UNL A   1      39.511  34.207  36.617  1.00  0.00     0.055 A 
ATOM     72  C   UNL A   1      38.219  32.317  37.350  1.00  0.00     0.041 A 
ATOM     73  F   UNL A   1      38.277  30.324  36.120  1.00  0.00    -0.206 F 
ATOM     74  C   UNL A   1      38.638  33.629  37.542  1.00  0.00     0.022 A 
BRANCH  71  75
ATOM     75  S   UNL A   1      40.153  35.879  36.901  1.00  0.00     0.124 S 
ATOM     76  O   UNL A   1      41.591  35.643  36.947  1.00  0.00    -0.237 OA
ATOM     77  O   UNL A   1      39.658  36.597  35.732  1.00  0.00    -0.237 OA
ATOM     78  O   UNL A   1      39.545  36.266  38.172  1.00  0.00    -0.744 OA
ENDBRANCH  71  75
ENDBRANCH  44  68
BRANCH  56  79
ATOM     79  C   UNL A   1      44.738  27.633  34.390  1.00  0.00     0.023 A 
ATOM     80  C   UNL A   1      44.554  26.550  35.266  1.00  0.00     0.031 A 
ATOM     81  C   UNL A   1      45.970  28.310  34.415  1.00  0.00     0.131 A 
ATOM     82  C   UNL A   1      45.568  26.208  36.172  1.00  0.00     0.055 A 
ATOM     83  C   UNL A   1      46.994  27.932  35.285  1.00  0.00     0.041 A 
ATOM     84  F   UNL A   1      46.194  29.351  33.599  1.00  0.00    -0.206 F 
ATOM     85  C   UNL A   1      46.791  26.885  36.179  1.00  0.00     0.022 A 
BRANCH  82  86
ATOM     86  S   UNL A   1      45.236  24.920  37.407  1.00  0.00     0.124 S 
ATOM     87  O   UNL A   1      46.241  25.208  38.425  1.00  0.00    -0.237 OA
ATOM     88  O   UNL A   1      43.853  25.195  37.781  1.00  0.00    -0.237 OA
ATOM     89  O   UNL A   1      45.441  23.676  36.668  1.00  0.00    -0.744 OA
ENDBRANCH  82  86
ENDBRANCH  56  79
ENDBRANCH  30  31
ENDBRANCH  23  25
ENDBRANCH  22  23
ENDBRANCH   1  22
TORSDOF 17
ENDMDL
MODEL 2
REMARK VINA RESULT:     -11.5      5.741     10.770
REMARK SMILES C[NH2+][C@@]1(C(=O)OCCOC(=O)c2ccc(-c3c4nc(c(-c5cc(S(=O)(=O)[O-])ccc5F)c5ccc([nH]5)c(-c5cc(S(=O)(=O)[O-])ccc5F)c5nc(c(-c6cc(S(=O)(=O)[O-])ccc6F)c6ccc3[nH]6)C=C5)C=C4)cc2)CC[C@H](SC2CCOCC2)C1
REMARK SMILES IDX 8 1 7 2 6 3 4 4 5 5 3 6 75 7 85 8 76 9 77 10 2 11 1 12 78 15
REMARK SMILES IDX 79 16 80 17 84 18 81 19 83 20 82 21 9 22 10 23 11 24 12 25
REMARK SMILES IDX 13 26 74 27 14 28 73 29 15 30 16 31 17 32 67 33 18 34 72 35
REMARK SMILES IDX 66 36 68 37 19 38 71 39 65 40 64 41 20 43 52 44 32 45 51 46
REMARK SMILES IDX 33 47 36 48 50 49 69 50 34 51 35 52 49 54 70 55 37 56 21 57
REMARK SMILES IDX 22 58 30 59 23 60 29 61 31 62 28 63 24 64 25 65 26 66 27 67
REMARK SMILES IDX 53 68 54 69 62 70 55 71 61 72 63 73 60 74 56 75 57 76 58 77
REMARK SMILES IDX 59 78 38 79 39 80 47 81 40 82 46 83 48 84 45 85 41 86 42 87
REMARK SMILES IDX 43 88 44 89
REMARK H PARENT 2 13 2 14 68 42 36 53
REMARK Flexibility Score: inf
ROOT
ATOM      1  C   UNL A   1      37.031  21.597  24.229  1.00  0.00     0.275 C 
ENDROOT
BRANCH   1   2
ATOM      2  C   UNL A   1      36.669  22.911  23.550  1.00  0.00     0.274 C 
BRANCH   2   3
ATOM      3  O   UNL A   1      35.601  23.557  24.271  1.00  0.00    -0.457 OA
BRANCH   3   4
ATOM      4  C   UNL A   1      34.340  23.415  23.792  1.00  0.00     0.368 C 
ATOM      5  O   UNL A   1      34.056  23.363  22.598  1.00  0.00    -0.245 OA
BRANCH   4   6
ATOM      6  C   UNL A   1      33.259  23.389  24.917  1.00  0.00     0.195 C 
ATOM      7  C   UNL A   1      33.872  22.651  26.115  1.00  0.00     0.082 C 
ATOM      8  C   UNL A   1      32.021  22.524  24.616  1.00  0.00     0.095 C 
ATOM      9  C   UNL A   1      33.745  21.185  25.725  1.00  0.00     0.022 C 
ATOM     10  C   UNL A   1      32.401  21.077  24.999  1.00  0.00     0.054 C 
BRANCH   6  11
ATOM     11  N   UNL A   1      32.967  24.776  25.347  1.00  0.00    -0.335 N 
ATOM     12  C   UNL A   1      31.816  25.392  24.707  1.00  0.00     0.331 C 
ATOM     13  H   UNL A   1      32.802  24.766  26.354  1.00  0.00     0.347 HD
ATOM     14  H   UNL A   1      33.777  25.334  25.074  1.00  0.00     0.347 HD
ENDBRANCH   6  11
BRANCH  10  15
ATOM     15  S   UNL A   1      32.427  20.002  23.514  1.00  0.00    -0.155 SA
BRANCH  15  16
ATOM     16  C   UNL A   1      33.178  18.444  24.108  1.00  0.00     0.051 C 
ATOM     17  C   UNL A   1      33.515  17.450  23.001  1.00  0.00     0.043 C 
ATOM     18  C   UNL A   1      32.385  17.770  25.226  1.00  0.00     0.043 C 
ATOM     19  C   UNL A   1      34.208  16.238  23.612  1.00  0.00     0.161 C 
ATOM     20  C   UNL A   1      33.134  16.536  25.711  1.00  0.00     0.161 C 
ATOM     21  O   UNL A   1      33.394  15.645  24.625  1.00  0.00    -0.381 OA
ENDBRANCH  15  16
ENDBRANCH  10  15
ENDBRANCH   4   6
ENDBRANCH   3   4
ENDBRANCH   2   3
ENDBRANCH   1   2
BRANCH   1  22
ATOM     22  O   UNL A   1      37.384  21.887  25.590  1.00  0.00    -0.458 OA
BRANCH  22  23
ATOM     23  C   UNL A   1      38.656  21.614  25.951  1.00  0.00     0.338 C 
ATOM     24  O   UNL A   1      39.260  20.565  25.784  1.00  0.00    -0.246 OA
BRANCH  23  25
ATOM     25  C   UNL A   1      39.249  22.814  26.576  1.00  0.00     0.060 A 
ATOM     26  C   UNL A   1      38.806  24.088  26.218  1.00  0.00     0.016 A 
ATOM     27  C   UNL A   1      40.325  22.675  27.449  1.00  0.00     0.016 A 
ATOM     28  C   UNL A   1      39.493  25.219  26.652  1.00  0.00     0.010 A 
ATOM     29  C   UNL A   1      40.941  23.816  27.973  1.00  0.00     0.010 A 
ATOM     30  C   UNL A   1      40.556  25.104  27.555  1.00  0.00    -0.014 A 
BRANCH  30  31
ATOM     31  C   UNL A   1      41.294  26.310  28.031  1.00  0.00     0.031 A 
ATOM     32  C   UNL A   1      40.579  27.352  28.853  1.00  0.00     0.074 A 
ATOM     33  C   UNL A   1      42.597  26.489  27.731  1.00  0.00     0.049 A 
ATOM     34  N   UNL A   1      40.926  28.585  29.118  1.00  0.00    -0.248 NA
ATOM     35  C   UNL A   1      39.284  26.956  29.429  1.00  0.00     0.031 C 
ATOM     36  C   UNL A   1      43.443  25.541  27.001  1.00  0.00     0.029 A 
ATOM     37  N   UNL A   1      43.443  27.537  28.005  1.00  0.00    -0.354 N 
ATOM     38  C   UNL A   1      39.859  29.139  29.820  1.00  0.00     0.074 A 
ATOM     39  C   UNL A   1      38.857  28.100  29.945  1.00  0.00     0.031 C 
ATOM     40  C   UNL A   1      44.689  26.030  26.922  1.00  0.00     0.029 A 
ATOM     41  C   UNL A   1      44.709  27.372  27.488  1.00  0.00     0.049 A 
ATOM     42  H   UNL A   1      43.171  28.329  28.521  1.00  0.00     0.167 HD
ATOM     43  C   UNL A   1      39.728  30.401  30.299  1.00  0.00     0.034 A 
ATOM     44  C   UNL A   1      45.749  28.224  27.413  1.00  0.00     0.034 A 
ATOM     45  C   UNL A   1      40.769  31.400  30.221  1.00  0.00     0.049 A 
ATOM     46  C   UNL A   1      45.581  29.624  27.936  1.00  0.00     0.074 A 
ATOM     47  C   UNL A   1      40.751  32.706  30.682  1.00  0.00     0.029 A 
ATOM     48  N   UNL A   1      42.025  31.196  29.663  1.00  0.00    -0.354 N 
ATOM     49  N   UNL A   1      44.525  30.176  28.487  1.00  0.00    -0.248 NA
ATOM     50  C   UNL A   1      46.734  30.522  27.801  1.00  0.00     0.031 C 
ATOM     51  C   UNL A   1      41.976  33.303  30.361  1.00  0.00     0.029 A 
ATOM     52  C   UNL A   1      42.783  32.354  29.756  1.00  0.00     0.049 A 
ATOM     53  H   UNL A   1      42.332  30.352  29.260  1.00  0.00     0.167 HD
ATOM     54  C   UNL A   1      44.888  31.490  28.763  1.00  0.00     0.074 A 
ATOM     55  C   UNL A   1      46.268  31.637  28.344  1.00  0.00     0.031 C 
ATOM     56  C   UNL A   1      44.148  32.488  29.307  1.00  0.00     0.034 A 
BRANCH  43  57
ATOM     57  C   UNL A   1      38.390  30.791  30.881  1.00  0.00     0.023 A 
ATOM     58  C   UNL A   1      37.388  31.413  30.118  1.00  0.00     0.031 A 
ATOM     59  C   UNL A   1      38.129  30.555  32.244  1.00  0.00     0.131 A 
ATOM     60  C   UNL A   1      36.199  31.835  30.737  1.00  0.00     0.055 A 
ATOM     61  C   UNL A   1      36.915  30.910  32.836  1.00  0.00     0.041 A 
ATOM     62  F   UNL A   1      39.056  29.984  33.028  1.00  0.00    -0.206 F 
ATOM     63  C   UNL A   1      35.947  31.567  32.084  1.00  0.00     0.022 A 
BRANCH  60  64
ATOM     64  S   UNL A   1      35.041  32.860  29.787  1.00  0.00     0.124 S 
ATOM     65  O   UNL A   1      34.173  33.379  30.842  1.00  0.00    -0.237 OA
ATOM     66  O   UNL A   1      35.925  33.829  29.152  1.00  0.00    -0.237 OA
ATOM     67  O   UNL A   1      34.405  31.907  28.880  1.00  0.00    -0.744 OA
ENDBRANCH  60  64
ENDBRANCH  43  57
BRANCH  44  68
ATOM     68  C   UNL A   1      47.010  27.808  26.733  1.00  0.00     0.023 A 
ATOM     69  C   UNL A   1      47.156  27.918  25.343  1.00  0.00     0.031 A 
ATOM     70  C   UNL A   1      48.085  27.282  27.473  1.00  0.00     0.131 A 
ATOM     71  C   UNL A   1      48.342  27.484  24.730  1.00  0.00     0.055 A 
ATOM     72  C   UNL A   1      49.282  26.902  26.866  1.00  0.00     0.041 A 
ATOM     73  F   UNL A   1      47.996  27.155  28.806  1.00  0.00    -0.206 F 
ATOM     74  C   UNL A   1      49.412  26.993  25.484  1.00  0.00     0.022 A 
BRANCH  71  75
ATOM     75  S   UNL A   1      48.449  27.515  22.920  1.00  0.00     0.124 S 
ATOM     76  O   UNL A   1      48.468  26.093  22.599  1.00  0.00    -0.237 OA
ATOM     77  O   UNL A   1      47.237  28.240  22.556  1.00  0.00    -0.237 OA
ATOM     78  O   UNL A   1      49.699  28.228  22.665  1.00  0.00    -0.744 OA
ENDBRANCH  71  75
ENDBRANCH  44  68
BRANCH  56  79
ATOM     79  C   UNL A   1      44.841  33.812  29.497  1.00  0.00     0.023 A 
ATOM     80  C   UNL A   1      44.884  34.771  28.470  1.00  0.00     0.031 A 
ATOM     81  C   UNL A   1      45.496  34.100  30.707  1.00  0.00     0.131 A 
ATOM     82  C   UNL A   1      45.616  35.953  28.653  1.00  0.00     0.055 A 
ATOM     83  C   UNL A   1      46.182  35.300  30.899  1.00  0.00     0.041 A 
ATOM     84  F   UNL A   1      45.486  33.215  31.716  1.00  0.00    -0.206 F 
ATOM     85  C   UNL A   1      46.256  36.229  29.866  1.00  0.00     0.022 A 
BRANCH  82  86
ATOM     86  S   UNL A   1      45.798  37.092  27.252  1.00  0.00     0.124 S 
ATOM     87  O   UNL A   1      46.904  37.937  27.689  1.00  0.00    -0.237 OA
ATOM     88  O   UNL A   1      46.088  36.184  26.147  1.00  0.00    -0.237 OA
ATOM     89  O   UNL A   1      44.499  37.758  27.181  1.00  0.00    -0.744 OA
ENDBRANCH  82  86
ENDBRANCH  56  79
ENDBRANCH  30  31
ENDBRANCH  23  25
ENDBRANCH  22  23
ENDBRANCH   1  22
TORSDOF 17
ENDMDL
MODEL 3
REMARK VINA RESULT:     -11.3      1.362      1.690
REMARK SMILES C[NH2+][C@@]1(C(=O)OCCOC(=O)c2ccc(-c3c4nc(c(-c5cc(S(=O)(=O)[O-])ccc5F)c5ccc([nH]5)c(-c5cc(S(=O)(=O)[O-])ccc5F)c5nc(c(-c6cc(S(=O)(=O)[O-])ccc6F)c6ccc3[nH]6)C=C5)C=C4)cc2)CC[C@H](SC2CCOCC2)C1
REMARK SMILES IDX 8 1 7 2 6 3 4 4 5 5 3 6 75 7 85 8 76 9 77 10 2 11 1 12 78 15
REMARK SMILES IDX 79 16 80 17 84 18 81 19 83 20 82 21 9 22 10 23 11 24 12 25
REMARK SMILES IDX 13 26 74 27 14 28 73 29 15 30 16 31 17 32 67 33 18 34 72 35
REMARK SMILES IDX 66 36 68 37 19 38 71 39 65 40 64 41 20 43 52 44 32 45 51 46
REMARK SMILES IDX 33 47 36 48 50 49 69 50 34 51 35 52 49 54 70 55 37 56 21 57
REMARK SMILES IDX 22 58 30 59 23 60 29 61 31 62 28 63 24 64 25 65 26 66 27 67
REMARK SMILES IDX 53 68 54 69 62 70 55 71 61 72 63 73 60 74 56 75 57 76 58 77
REMARK SMILES IDX 59 78 38 79 39 80 47 81 40 82 46 83 48 84 45 85 41 86 42 87
REMARK SMILES IDX 43 88 44 89
REMARK H PARENT 2 13 2 14 68 42 36 53
REMARK Flexibility Score: inf
ROOT
ATOM      1  C   UNL A   1      31.786  29.864  26.742  1.00  0.00     0.275 C 
ENDROOT
BRANCH   1   2
ATOM      2  C   UNL A   1      31.951  28.441  27.257  1.00  0.00     0.274 C 
BRANCH   2   3
ATOM      3  O   UNL A   1      32.451  27.594  26.202  1.00  0.00    -0.457 OA
BRANCH   3   4
ATOM      4  C   UNL A   1      31.544  26.998  25.388  1.00  0.00     0.368 C 
ATOM      5  O   UNL A   1      30.470  26.539  25.768  1.00  0.00    -0.245 OA
BRANCH   4   6
ATOM      6  C   UNL A   1      32.030  26.892  23.909  1.00  0.00     0.195 C 
ATOM      7  C   UNL A   1      32.614  28.259  23.527  1.00  0.00     0.082 C 
ATOM      8  C   UNL A   1      30.913  26.726  22.863  1.00  0.00     0.095 C 
ATOM      9  C   UNL A   1      31.378  29.100  23.239  1.00  0.00     0.022 C 
ATOM     10  C   UNL A   1      30.395  28.147  22.552  1.00  0.00     0.054 C 
BRANCH   6  11
ATOM     11  N   UNL A   1      33.124  25.898  23.824  1.00  0.00    -0.335 N 
ATOM     12  C   UNL A   1      33.405  25.400  22.486  1.00  0.00     0.331 C 
ATOM     13  H   UNL A   1      33.974  26.333  24.184  1.00  0.00     0.347 HD
ATOM     14  H   UNL A   1      32.819  25.092  24.370  1.00  0.00     0.347 HD
ENDBRANCH   6  11
BRANCH  10  15
ATOM     15  S   UNL A   1      28.654  28.334  23.096  1.00  0.00    -0.155 SA
BRANCH  15  16
ATOM     16  C   UNL A   1      28.239  30.063  22.668  1.00  0.00     0.051 C 
ATOM     17  C   UNL A   1      28.502  30.427  21.210  1.00  0.00     0.043 C 
ATOM     18  C   UNL A   1      28.861  31.092  23.610  1.00  0.00     0.043 C 
ATOM     19  C   UNL A   1      28.040  31.858  20.961  1.00  0.00     0.161 C 
ATOM     20  C   UNL A   1      28.387  32.488  23.226  1.00  0.00     0.161 C 
ATOM     21  O   UNL A   1      28.686  32.763  21.857  1.00  0.00    -0.381 OA
ENDBRANCH  15  16
ENDBRANCH  10  15
ENDBRANCH   4   6
ENDBRANCH   3   4
ENDBRANCH   2   3
ENDBRANCH   1   2
BRANCH   1  22
ATOM     22  O   UNL A   1      33.092  30.379  26.443  1.00  0.00    -0.458 OA
BRANCH  22  23
ATOM     23  C   UNL A   1      33.525  31.401  27.212  1.00  0.00     0.338 C 
ATOM     24  O   UNL A   1      32.922  32.431  27.474  1.00  0.00    -0.246 OA
BRANCH  23  25
ATOM     25  C   UNL A   1      34.868  31.079  27.733  1.00  0.00     0.060 A 
ATOM     26  C   UNL A   1      35.199  29.765  28.068  1.00  0.00     0.016 A 
ATOM     27  C   UNL A   1      35.773  32.107  27.987  1.00  0.00     0.016 A 
ATOM     28  C   UNL A   1      36.385  29.489  28.743  1.00  0.00     0.010 A 
ATOM     29  C   UNL A   1      37.013  31.809  28.562  1.00  0.00     0.010 A 
ATOM     30  C   UNL A   1      37.323  30.501  28.980  1.00  0.00    -0.014 A 
BRANCH  30  31
ATOM     31  C   UNL A   1      38.600  30.214  29.695  1.00  0.00     0.031 A 
ATOM     32  C   UNL A   1      39.623  29.301  29.068  1.00  0.00     0.074 A 
ATOM     33  C   UNL A   1      38.854  30.755  30.905  1.00  0.00     0.049 A 
ATOM     34  N   UNL A   1      40.641  28.691  29.618  1.00  0.00    -0.248 NA
ATOM     35  C   UNL A   1      39.455  29.015  27.635  1.00  0.00     0.031 C 
ATOM     36  C   UNL A   1      37.994  31.708  31.611  1.00  0.00     0.029 A 
ATOM     37  N   UNL A   1      39.917  30.581  31.758  1.00  0.00    -0.354 N 
ATOM     38  C   UNL A   1      41.188  27.887  28.621  1.00  0.00     0.074 A 
ATOM     39  C   UNL A   1      40.388  28.096  27.431  1.00  0.00     0.031 C 
ATOM     40  C   UNL A   1      38.580  32.063  32.764  1.00  0.00     0.029 A 
ATOM     41  C   UNL A   1      39.796  31.280  32.938  1.00  0.00     0.049 A 
ATOM     42  H   UNL A   1      40.691  30.011  31.546  1.00  0.00     0.167 HD
ATOM     43  C   UNL A   1      42.247  27.045  28.702  1.00  0.00     0.034 A 
ATOM     44  C   UNL A   1      40.536  31.248  34.063  1.00  0.00     0.034 A 
ATOM     45  C   UNL A   1      43.071  26.904  29.881  1.00  0.00     0.049 A 
ATOM     46  C   UNL A   1      41.699  30.296  34.140  1.00  0.00     0.074 A 
ATOM     47  C   UNL A   1      44.175  26.090  30.072  1.00  0.00     0.029 A 
ATOM     48  N   UNL A   1      42.893  27.612  31.063  1.00  0.00    -0.354 N 
ATOM     49  N   UNL A   1      42.133  29.449  33.235  1.00  0.00    -0.248 NA
ATOM     50  C   UNL A   1      42.453  30.277  35.399  1.00  0.00     0.031 C 
ATOM     51  C   UNL A   1      44.634  26.272  31.382  1.00  0.00     0.029 A 
ATOM     52  C   UNL A   1      43.857  27.244  31.990  1.00  0.00     0.049 A 
ATOM     53  H   UNL A   1      42.185  28.278  31.220  1.00  0.00     0.167 HD
ATOM     54  C   UNL A   1      43.211  28.794  33.819  1.00  0.00     0.074 A 
ATOM     55  C   UNL A   1      43.379  29.365  35.141  1.00  0.00     0.031 C 
ATOM     56  C   UNL A   1      43.990  27.806  33.313  1.00  0.00     0.034 A 
BRANCH  43  57
ATOM     57  C   UNL A   1      42.528  26.159  27.511  1.00  0.00     0.023 A 
ATOM     58  C   UNL A   1      42.037  24.847  27.414  1.00  0.00     0.031 A 
ATOM     59  C   UNL A   1      43.331  26.641  26.460  1.00  0.00     0.131 A 
ATOM     60  C   UNL A   1      42.408  24.041  26.325  1.00  0.00     0.055 A 
ATOM     61  C   UNL A   1      43.634  25.860  25.344  1.00  0.00     0.041 A 
ATOM     62  F   UNL A   1      43.847  27.879  26.507  1.00  0.00    -0.206 F 
ATOM     63  C   UNL A   1      43.183  24.546  25.278  1.00  0.00     0.022 A 
BRANCH  60  64
ATOM     64  S   UNL A   1      41.972  22.280  26.358  1.00  0.00     0.124 S 
ATOM     65  O   UNL A   1      42.688  21.776  25.188  1.00  0.00    -0.237 OA
ATOM     66  O   UNL A   1      42.485  21.852  27.654  1.00  0.00    -0.237 OA
ATOM     67  O   UNL A   1      40.516  22.284  26.235  1.00  0.00    -0.744 OA
ENDBRANCH  60  64
ENDBRANCH  43  57
BRANCH  44  68
ATOM     68  C   UNL A   1      40.145  32.073  35.241  1.00  0.00     0.023 A 
ATOM     69  C   UNL A   1      39.195  31.614  36.166  1.00  0.00     0.031 A 
ATOM     70  C   UNL A   1      40.711  33.345  35.448  1.00  0.00     0.131 A 
ATOM     71  C   UNL A   1      38.822  32.431  37.245  1.00  0.00     0.055 A 
ATOM     72  C   UNL A   1      40.376  34.130  36.551  1.00  0.00     0.041 A 
ATOM     73  F   UNL A   1      41.623  33.830  34.592  1.00  0.00    -0.206 F 
ATOM     74  C   UNL A   1      39.418  33.678  37.453  1.00  0.00     0.022 A 
BRANCH  71  75
ATOM     75  S   UNL A   1      37.498  31.866  38.348  1.00  0.00     0.124 S 
ATOM     76  O   UNL A   1      36.461  32.863  38.103  1.00  0.00    -0.237 OA
ATOM     77  O   UNL A   1      37.230  30.525  37.840  1.00  0.00    -0.237 OA
ATOM     78  O   UNL A   1      38.112  31.918  39.672  1.00  0.00    -0.744 OA
ENDBRANCH  71  75
ENDBRANCH  44  68
BRANCH  56  79
ATOM     79  C   UNL A   1      45.105  27.310  34.196  1.00  0.00     0.023 A 
ATOM     80  C   UNL A   1      44.928  26.209  35.052  1.00  0.00     0.031 A 
ATOM     81  C   UNL A   1      46.346  27.971  34.206  1.00  0.00     0.131 A 
ATOM     82  C   UNL A   1      45.960  25.834  35.925  1.00  0.00     0.055 A 
ATOM     83  C   UNL A   1      47.385  27.562  35.042  1.00  0.00     0.041 A 
ATOM     84  F   UNL A   1      46.563  29.028  33.408  1.00  0.00    -0.206 F 
ATOM     85  C   UNL A   1      47.192  26.497  35.917  1.00  0.00     0.022 A 
BRANCH  82  86
ATOM     86  S   UNL A   1      45.642  24.523  37.138  1.00  0.00     0.124 S 
ATOM     87  O   UNL A   1      46.989  24.209  37.605  1.00  0.00    -0.237 OA
ATOM     88  O   UNL A   1      44.774  25.192  38.101  1.00  0.00    -0.237 OA
ATOM     89  O   UNL A   1      45.000  23.474  36.349  1.00  0.00    -0.744 OA
ENDBRANCH  82  86
ENDBRANCH  56  79
ENDBRANCH  30  31
ENDBRANCH  23  25
ENDBRANCH  22  23
ENDBRANCH   1  22
TORSDOF 17
ENDMDL
