MODEL 1
REMARK VINA RESULT:     -11.7      0.000      0.000
REMARK SMILES CC1=C(C)C[C@@H](C(=O)NNC(=O)c2sccc2C)[C@@H](C(=O)OCCOC(=O)c2ccc(-c3c4nc(c(-c5cc(S(=O)(=O)[O-])ccc5F)c5ccc([nH]5)c(-c5cc(S(=O)(=O)[O-])ccc5F)c5nc(c(-c6cc(S(=O)(=O)[O-])ccc6F)c6ccc3[nH]6)C=C5)C=C4)cc2)C1
REMARK SMILES IDX 23 1 22 2 20 3 21 4 19 5 1 6 2 7 3 8 91 9 4 10 5 11 6 12
REMARK SMILES IDX 7 13 8 14 9 15 10 17 11 18 12 20 13 21 14 22 17 23 15 24
REMARK SMILES IDX 16 25 18 26 24 27 25 28 26 29 27 30 28 31 29 32 90 33 30 34
REMARK SMILES IDX 89 35 31 36 32 37 33 38 83 39 34 40 88 41 82 42 84 43 35 44
REMARK SMILES IDX 87 45 81 46 80 47 36 49 68 50 48 51 67 52 49 53 52 54 66 55
REMARK SMILES IDX 85 56 50 57 51 58 65 60 86 61 53 62 37 63 38 64 46 65 39 66
REMARK SMILES IDX 45 67 47 68 44 69 40 70 41 71 42 72 43 73 69 74 70 75 78 76
REMARK SMILES IDX 71 77 77 78 79 79 76 80 72 81 73 82 74 83 75 84 54 85 55 86
REMARK SMILES IDX 63 87 56 88 62 89 64 90 61 91 57 92 58 93 59 94 60 95
REMARK H PARENT 9 16 10 19 84 48 52 59
REMARK Flexibility Score: inf
ROOT
ATOM      1  C   UNL A   1      35.984  23.019  23.197  1.00  0.00     0.274 C 
ENDROOT
BRANCH   1   2
ATOM      2  O   UNL A   1      34.737  22.904  22.433  1.00  0.00    -0.462 OA
BRANCH   2   3
ATOM      3  C   UNL A   1      33.791  23.903  22.562  1.00  0.00     0.310 C 
ATOM      4  O   UNL A   1      33.799  24.921  21.895  1.00  0.00    -0.252 OA
BRANCH   3   5
ATOM      5  C   UNL A   1      32.701  23.545  23.638  1.00  0.00     0.116 C 
ATOM      6  C   UNL A   1      33.387  20.198  25.615  1.00  0.00     0.039 C 
ATOM      7  C   UNL A   1      33.001  21.646  25.459  1.00  0.00    -0.073 C 
ATOM      8  C   UNL A   1      32.966  22.512  26.494  1.00  0.00    -0.074 C 
ATOM      9  C   UNL A   1      32.650  22.049  24.027  1.00  0.00     0.046 C 
ATOM     10  C   UNL A   1      33.320  22.215  27.934  1.00  0.00     0.039 C 
ATOM     11  C   UNL A   1      32.553  23.931  26.281  1.00  0.00     0.045 C 
ATOM     12  C   UNL A   1      32.746  24.454  24.868  1.00  0.00     0.099 C 
BRANCH  12  13
ATOM     13  C   UNL A   1      33.943  25.343  24.831  1.00  0.00     0.242 C 
ATOM     14  O   UNL A   1      34.895  24.938  25.513  1.00  0.00    -0.273 OA
ATOM     15  N   UNL A   1      33.972  26.567  24.177  1.00  0.00    -0.267 N 
ATOM     16  H   UNL A   1      34.807  27.084  24.248  1.00  0.00     0.191 HD
BRANCH  15  17
ATOM     17  N   UNL A   1      32.953  27.141  23.431  1.00  0.00    -0.263 N 
ATOM     18  C   UNL A   1      31.916  27.961  23.861  1.00  0.00     0.280 C 
ATOM     19  H   UNL A   1      32.966  26.940  22.467  1.00  0.00     0.191 HD
ATOM     20  O   UNL A   1      31.085  28.268  23.001  1.00  0.00    -0.266 OA
BRANCH  18  21
ATOM     21  C   UNL A   1      31.812  28.444  25.232  1.00  0.00     0.096 A 
ATOM     22  S   UNL A   1      32.696  29.864  25.637  1.00  0.00    -0.138 S 
ATOM     23  C   UNL A   1      31.285  27.846  26.369  1.00  0.00    -0.027 A 
ATOM     24  C   UNL A   1      32.429  29.651  27.309  1.00  0.00     0.066 A 
ATOM     25  C   UNL A   1      31.641  28.556  27.564  1.00  0.00     0.016 A 
ATOM     26  C   UNL A   1      30.549  26.564  26.431  1.00  0.00     0.046 C 
ENDBRANCH  18  21
ENDBRANCH  15  17
ENDBRANCH  12  13
ENDBRANCH   3   5
ENDBRANCH   2   3
ENDBRANCH   1   2
BRANCH   1  27
ATOM     27  C   UNL A   1      36.362  21.728  24.029  1.00  0.00     0.275 C 
BRANCH  27  28
ATOM     28  O   UNL A   1      36.801  21.985  25.412  1.00  0.00    -0.458 OA
BRANCH  28  29
ATOM     29  C   UNL A   1      38.038  21.500  25.778  1.00  0.00     0.338 C 
ATOM     30  O   UNL A   1      38.352  20.315  25.772  1.00  0.00    -0.246 OA
BRANCH  29  31
ATOM     31  C   UNL A   1      38.960  22.594  26.265  1.00  0.00     0.060 A 
ATOM     32  C   UNL A   1      38.837  23.911  25.814  1.00  0.00     0.016 A 
ATOM     33  C   UNL A   1      40.027  22.340  27.126  1.00  0.00     0.016 A 
ATOM     34  C   UNL A   1      39.526  24.988  26.359  1.00  0.00     0.010 A 
ATOM     35  C   UNL A   1      40.805  23.414  27.630  1.00  0.00     0.010 A 
ATOM     36  C   UNL A   1      40.509  24.755  27.301  1.00  0.00    -0.014 A 
BRANCH  36  37
ATOM     37  C   UNL A   1      41.315  25.913  27.754  1.00  0.00     0.031 A 
ATOM     38  C   UNL A   1      40.635  26.958  28.579  1.00  0.00     0.074 A 
ATOM     39  C   UNL A   1      42.653  25.971  27.583  1.00  0.00     0.049 A 
ATOM     40  N   UNL A   1      41.054  28.143  28.924  1.00  0.00    -0.248 NA
ATOM     41  C   UNL A   1      39.322  26.588  29.132  1.00  0.00     0.031 C 
ATOM     42  C   UNL A   1      43.495  24.876  27.111  1.00  0.00     0.029 A 
ATOM     43  N   UNL A   1      43.550  26.994  27.778  1.00  0.00    -0.354 N 
ATOM     44  C   UNL A   1      40.039  28.680  29.705  1.00  0.00     0.074 A 
ATOM     45  C   UNL A   1      38.997  27.684  29.802  1.00  0.00     0.031 C 
ATOM     46  C   UNL A   1      44.750  25.313  26.922  1.00  0.00     0.029 A 
ATOM     47  C   UNL A   1      44.800  26.727  27.253  1.00  0.00     0.049 A 
ATOM     48  H   UNL A   1      43.324  27.830  28.243  1.00  0.00     0.167 HD
ATOM     49  C   UNL A   1      39.992  29.910  30.266  1.00  0.00     0.034 A 
ATOM     50  C   UNL A   1      45.843  27.549  27.019  1.00  0.00     0.034 A 
ATOM     51  C   UNL A   1      41.061  30.868  30.137  1.00  0.00     0.049 A 
ATOM     52  C   UNL A   1      45.702  28.978  27.475  1.00  0.00     0.074 A 
ATOM     53  C   UNL A   1      41.108  32.178  30.575  1.00  0.00     0.029 A 
ATOM     54  N   UNL A   1      42.277  30.611  29.511  1.00  0.00    -0.354 N 
ATOM     55  N   UNL A   1      44.691  29.540  28.101  1.00  0.00    -0.248 NA
ATOM     56  C   UNL A   1      46.830  29.879  27.219  1.00  0.00     0.031 C 
ATOM     57  C   UNL A   1      42.322  32.732  30.152  1.00  0.00     0.029 A 
ATOM     58  C   UNL A   1      43.068  31.746  29.521  1.00  0.00     0.049 A 
ATOM     59  H   UNL A   1      42.538  29.747  29.118  1.00  0.00     0.167 HD
ATOM     60  C   UNL A   1      45.082  30.848  28.355  1.00  0.00     0.074 A 
ATOM     61  C   UNL A   1      46.424  30.987  27.820  1.00  0.00     0.031 C 
ATOM     62  C   UNL A   1      44.402  31.844  28.979  1.00  0.00     0.034 A 
BRANCH  49  63
ATOM     63  C   UNL A   1      38.700  30.310  30.926  1.00  0.00     0.023 A 
ATOM     64  C   UNL A   1      37.661  30.954  30.232  1.00  0.00     0.031 A 
ATOM     65  C   UNL A   1      38.545  30.107  32.310  1.00  0.00     0.131 A 
ATOM     66  C   UNL A   1      36.541  31.423  30.937  1.00  0.00     0.055 A 
ATOM     67  C   UNL A   1      37.398  30.511  32.990  1.00  0.00     0.041 A 
ATOM     68  F   UNL A   1      39.523  29.532  33.028  1.00  0.00    -0.206 F 
ATOM     69  C   UNL A   1      36.392  31.185  32.306  1.00  0.00     0.022 A 
BRANCH  66  70
ATOM     70  S   UNL A   1      35.335  32.465  30.069  1.00  0.00     0.124 S 
ATOM     71  O   UNL A   1      34.946  31.601  28.957  1.00  0.00    -0.237 OA
ATOM     72  O   UNL A   1      34.316  32.687  31.089  1.00  0.00    -0.237 OA
ATOM     73  O   UNL A   1      36.109  33.646  29.693  1.00  0.00    -0.744 OA
ENDBRANCH  66  70
ENDBRANCH  49  63
BRANCH  50  74
ATOM     74  C   UNL A   1      47.043  27.088  26.253  1.00  0.00     0.023 A 
ATOM     75  C   UNL A   1      48.108  26.416  26.874  1.00  0.00     0.031 A 
ATOM     76  C   UNL A   1      47.183  27.401  24.885  1.00  0.00     0.131 A 
ATOM     77  C   UNL A   1      49.282  26.135  26.153  1.00  0.00     0.055 A 
ATOM     78  C   UNL A   1      48.328  27.066  24.157  1.00  0.00     0.041 A 
ATOM     79  F   UNL A   1      46.206  28.050  24.232  1.00  0.00    -0.206 F 
ATOM     80  C   UNL A   1      49.394  26.445  24.796  1.00  0.00     0.022 A 
BRANCH  77  81
ATOM     81  S   UNL A   1      50.716  25.469  27.045  1.00  0.00     0.124 S 
ATOM     82  O   UNL A   1      50.144  24.296  27.696  1.00  0.00    -0.237 OA
ATOM     83  O   UNL A   1      51.650  25.205  25.956  1.00  0.00    -0.237 OA
ATOM     84  O   UNL A   1      51.096  26.558  27.942  1.00  0.00    -0.744 OA
ENDBRANCH  77  81
ENDBRANCH  50  74
BRANCH  62  85
ATOM     85  C   UNL A   1      45.136  33.144  29.158  1.00  0.00     0.023 A 
ATOM     86  C   UNL A   1      45.077  34.161  28.192  1.00  0.00     0.031 A 
ATOM     87  C   UNL A   1      45.912  33.360  30.311  1.00  0.00     0.131 A 
ATOM     88  C   UNL A   1      45.833  35.327  28.367  1.00  0.00     0.055 A 
ATOM     89  C   UNL A   1      46.607  34.552  30.511  1.00  0.00     0.041 A 
ATOM     90  F   UNL A   1      46.001  32.415  31.261  1.00  0.00    -0.206 F 
ATOM     91  C   UNL A   1      46.582  35.537  29.529  1.00  0.00     0.022 A 
BRANCH  88  92
ATOM     92  S   UNL A   1      45.902  36.523  27.007  1.00  0.00     0.124 S 
ATOM     93  O   UNL A   1      46.240  35.670  25.873  1.00  0.00    -0.237 OA
ATOM     94  O   UNL A   1      44.552  37.075  27.008  1.00  0.00    -0.237 OA
ATOM     95  O   UNL A   1      46.951  37.452  27.422  1.00  0.00    -0.744 OA
ENDBRANCH  88  92
ENDBRANCH  62  85
ENDBRANCH  36  37
ENDBRANCH  29  31
ENDBRANCH  28  29
ENDBRANCH  27  28
ENDBRANCH   1  27
TORSDOF 17
ENDMDL
MODEL 2
REMARK VINA RESULT:     -11.5      2.587      4.420
REMARK SMILES CC1=C(C)C[C@@H](C(=O)NNC(=O)c2sccc2C)[C@@H](C(=O)OCCOC(=O)c2ccc(-c3c4nc(c(-c5cc(S(=O)(=O)[O-])ccc5F)c5ccc([nH]5)c(-c5cc(S(=O)(=O)[O-])ccc5F)c5nc(c(-c6cc(S(=O)(=O)[O-])ccc6F)c6ccc3[nH]6)C=C5)C=C4)cc2)C1
REMARK SMILES IDX 23 1 22 2 20 3 21 4 19 5 1 6 2 7 3 8 91 9 4 10 5 11 6 12
REMARK SMILES IDX 7 13 8 14 9 15 10 17 11 18 12 20 13 21 14 22 17 23 15 24
REMARK SMILES IDX 16 25 18 26 24 27 25 28 26 29 27 30 28 31 29 32 90 33 30 34
REMARK SMILES IDX 89 35 31 36 32 37 33 38 83 39 34 40 88 41 82 42 84 43 35 44
REMARK SMILES IDX 87 45 81 46 80 47 36 49 68 50 48 51 67 52 49 53 52 54 66 55
REMARK SMILES IDX 85 56 50 57 51 58 65 60 86 61 53 62 37 63 38 64 46 65 39 66
REMARK SMILES IDX 45 67 47 68 44 69 40 70 41 71 42 72 43 73 69 74 70 75 78 76
REMARK SMILES IDX 71 77 77 78 79 79 76 80 72 81 73 82 74 83 75 84 54 85 55 86
REMARK SMILES IDX 63 87 56 88 62 89 64 90 61 91 57 92 58 93 59 94 60 95
REMARK H PARENT 9 16 10 19 84 48 52 59
REMARK Flexibility Score: inf
ROOT
ATOM      1  C   UNL A   1      35.396  24.452  25.086  1.00  0.00     0.274 C 
ENDROOT
BRANCH   1   2
ATOM      2  O   UNL A   1      34.590  23.876  24.004  1.00  0.00    -0.462 OA
BRANCH   2   3
ATOM      3  C   UNL A   1      33.731  24.705  23.308  1.00  0.00     0.310 C 
ATOM      4  O   UNL A   1      33.654  24.722  22.094  1.00  0.00    -0.252 OA
BRANCH   3   5
ATOM      5  C   UNL A   1      32.853  25.584  24.274  1.00  0.00     0.116 C 
ATOM      6  C   UNL A   1      30.767  28.411  22.472  1.00  0.00     0.039 C 
ATOM      7  C   UNL A   1      30.995  27.277  23.437  1.00  0.00    -0.073 C 
ATOM      8  C   UNL A   1      29.986  26.591  24.015  1.00  0.00    -0.074 C 
ATOM      9  C   UNL A   1      32.469  26.971  23.707  1.00  0.00     0.046 C 
ATOM     10  C   UNL A   1      28.505  26.800  23.793  1.00  0.00     0.039 C 
ATOM     11  C   UNL A   1      30.275  25.491  24.983  1.00  0.00     0.045 C 
ATOM     12  C   UNL A   1      31.638  24.839  24.831  1.00  0.00     0.099 C 
BRANCH  12  13
ATOM     13  C   UNL A   1      31.478  23.511  24.169  1.00  0.00     0.242 C 
ATOM     14  O   UNL A   1      30.759  23.532  23.160  1.00  0.00    -0.273 OA
ATOM     15  N   UNL A   1      31.999  22.330  24.680  1.00  0.00    -0.267 N 
ATOM     16  H   UNL A   1      31.801  21.508  24.175  1.00  0.00     0.191 HD
BRANCH  15  17
ATOM     17  N   UNL A   1      32.769  22.181  25.824  1.00  0.00    -0.263 N 
ATOM     18  C   UNL A   1      33.559  21.104  26.207  1.00  0.00     0.280 C 
ATOM     19  H   UNL A   1      32.753  22.941  26.449  1.00  0.00     0.191 HD
ATOM     20  O   UNL A   1      34.077  21.190  27.324  1.00  0.00    -0.266 OA
BRANCH  18  21
ATOM     21  C   UNL A   1      33.781  19.946  25.348  1.00  0.00     0.096 A 
ATOM     22  S   UNL A   1      32.467  18.855  25.140  1.00  0.00    -0.138 S 
ATOM     23  C   UNL A   1      34.951  19.423  24.812  1.00  0.00    -0.027 A 
ATOM     24  C   UNL A   1      33.456  17.678  24.398  1.00  0.00     0.066 A 
ATOM     25  C   UNL A   1      34.750  18.115  24.258  1.00  0.00     0.016 A 
ATOM     26  C   UNL A   1      36.300  20.026  24.882  1.00  0.00     0.046 C 
ENDBRANCH  18  21
ENDBRANCH  15  17
ENDBRANCH  12  13
ENDBRANCH   3   5
ENDBRANCH   2   3
ENDBRANCH   1   2
BRANCH   1  27
ATOM     27  C   UNL A   1      36.335  23.415  25.824  1.00  0.00     0.275 C 
BRANCH  27  28
ATOM     28  O   UNL A   1      37.688  23.287  25.255  1.00  0.00    -0.458 OA
BRANCH  28  29
ATOM     29  C   UNL A   1      38.707  22.969  26.127  1.00  0.00     0.338 C 
ATOM     30  O   UNL A   1      39.080  21.828  26.378  1.00  0.00    -0.246 OA
BRANCH  29  31
ATOM     31  C   UNL A   1      39.278  24.190  26.810  1.00  0.00     0.060 A 
ATOM     32  C   UNL A   1      40.043  25.129  26.113  1.00  0.00     0.016 A 
ATOM     33  C   UNL A   1      39.140  24.411  28.180  1.00  0.00     0.016 A 
ATOM     34  C   UNL A   1      40.435  26.356  26.635  1.00  0.00     0.010 A 
ATOM     35  C   UNL A   1      39.610  25.618  28.757  1.00  0.00     0.010 A 
ATOM     36  C   UNL A   1      40.199  26.630  27.968  1.00  0.00    -0.014 A 
BRANCH  36  37
ATOM     37  C   UNL A   1      40.755  27.889  28.519  1.00  0.00     0.031 A 
ATOM     38  C   UNL A   1      39.792  28.920  29.015  1.00  0.00     0.074 A 
ATOM     39  C   UNL A   1      42.076  28.061  28.730  1.00  0.00     0.049 A 
ATOM     40  N   UNL A   1      40.007  30.160  29.351  1.00  0.00    -0.248 NA
ATOM     41  C   UNL A   1      38.404  28.467  29.206  1.00  0.00     0.031 C 
ATOM     42  C   UNL A   1      43.095  27.020  28.622  1.00  0.00     0.029 A 
ATOM     43  N   UNL A   1      42.804  29.175  29.073  1.00  0.00    -0.354 N 
ATOM     44  C   UNL A   1      38.775  30.653  29.758  1.00  0.00     0.074 A 
ATOM     45  C   UNL A   1      37.822  29.571  29.649  1.00  0.00     0.031 C 
ATOM     46  C   UNL A   1      44.317  27.560  28.756  1.00  0.00     0.029 A 
ATOM     47  C   UNL A   1      44.168  28.992  28.953  1.00  0.00     0.049 A 
ATOM     48  H   UNL A   1      42.394  30.017  29.375  1.00  0.00     0.167 HD
ATOM     49  C   UNL A   1      38.480  31.909  30.163  1.00  0.00     0.034 A 
ATOM     50  C   UNL A   1      45.173  29.891  28.948  1.00  0.00     0.034 A 
ATOM     51  C   UNL A   1      39.470  32.953  30.252  1.00  0.00     0.049 A 
ATOM     52  C   UNL A   1      44.805  31.329  29.208  1.00  0.00     0.074 A 
ATOM     53  C   UNL A   1      39.295  34.289  30.560  1.00  0.00     0.029 A 
ATOM     54  N   UNL A   1      40.831  32.769  30.025  1.00  0.00    -0.354 N 
ATOM     55  N   UNL A   1      43.619  31.835  29.465  1.00  0.00    -0.248 NA
ATOM     56  C   UNL A   1      45.893  32.312  29.198  1.00  0.00     0.031 C 
ATOM     57  C   UNL A   1      40.537  34.924  30.448  1.00  0.00     0.029 A 
ATOM     58  C   UNL A   1      41.502  33.971  30.151  1.00  0.00     0.049 A 
ATOM     59  H   UNL A   1      41.254  31.907  29.805  1.00  0.00     0.167 HD
ATOM     60  C   UNL A   1      43.826  33.189  29.695  1.00  0.00     0.074 A 
ATOM     61  C   UNL A   1      45.252  33.416  29.551  1.00  0.00     0.031 C 
ATOM     62  C   UNL A   1      42.926  34.157  30.003  1.00  0.00     0.034 A 
BRANCH  49  63
ATOM     63  C   UNL A   1      37.027  32.230  30.389  1.00  0.00     0.023 A 
ATOM     64  C   UNL A   1      36.155  32.577  29.342  1.00  0.00     0.031 A 
ATOM     65  C   UNL A   1      36.528  32.262  31.704  1.00  0.00     0.131 A 
ATOM     66  C   UNL A   1      34.849  32.998  29.637  1.00  0.00     0.055 A 
ATOM     67  C   UNL A   1      35.208  32.613  31.983  1.00  0.00     0.041 A 
ATOM     68  F   UNL A   1      37.328  31.978  32.744  1.00  0.00    -0.206 F 
ATOM     69  C   UNL A   1      34.362  32.996  30.947  1.00  0.00     0.022 A 
BRANCH  66  70
ATOM     70  S   UNL A   1      33.826  33.677  28.300  1.00  0.00     0.124 S 
ATOM     71  O   UNL A   1      33.354  32.460  27.645  1.00  0.00    -0.237 OA
ATOM     72  O   UNL A   1      32.819  34.441  29.027  1.00  0.00    -0.237 OA
ATOM     73  O   UNL A   1      34.768  34.474  27.518  1.00  0.00    -0.744 OA
ENDBRANCH  66  70
ENDBRANCH  49  63
BRANCH  50  74
ATOM     74  C   UNL A   1      46.573  29.493  28.601  1.00  0.00     0.023 A 
ATOM     75  C   UNL A   1      46.933  29.097  27.302  1.00  0.00     0.031 A 
ATOM     76  C   UNL A   1      47.565  29.414  29.600  1.00  0.00     0.131 A 
ATOM     77  C   UNL A   1      48.219  28.586  27.051  1.00  0.00     0.055 A 
ATOM     78  C   UNL A   1      48.860  28.962  29.333  1.00  0.00     0.041 A 
ATOM     79  F   UNL A   1      47.286  29.769  30.865  1.00  0.00    -0.206 F 
ATOM     80  C   UNL A   1      49.188  28.527  28.054  1.00  0.00     0.022 A 
BRANCH  77  81
ATOM     81  S   UNL A   1      48.572  27.878  25.417  1.00  0.00     0.124 S 
ATOM     82  O   UNL A   1      47.407  28.304  24.650  1.00  0.00    -0.237 OA
ATOM     83  O   UNL A   1      49.834  28.526  25.076  1.00  0.00    -0.237 OA
ATOM     84  O   UNL A   1      48.657  26.443  25.677  1.00  0.00    -0.744 OA
ENDBRANCH  77  81
ENDBRANCH  50  74
BRANCH  62  85
ATOM     85  C   UNL A   1      43.482  35.530  30.259  1.00  0.00     0.023 A 
ATOM     86  C   UNL A   1      43.609  36.476  29.230  1.00  0.00     0.031 A 
ATOM     87  C   UNL A   1      43.899  35.889  31.553  1.00  0.00     0.131 A 
ATOM     88  C   UNL A   1      44.198  37.718  29.499  1.00  0.00     0.055 A 
ATOM     89  C   UNL A   1      44.420  37.152  31.829  1.00  0.00     0.041 A 
ATOM     90  F   UNL A   1      43.800  35.017  32.570  1.00  0.00    -0.206 F 
ATOM     91  C   UNL A   1      44.586  38.069  30.795  1.00  0.00     0.022 A 
BRANCH  88  92
ATOM     92  S   UNL A   1      44.541  38.830  28.110  1.00  0.00     0.124 S 
ATOM     93  O   UNL A   1      45.993  38.744  28.006  1.00  0.00    -0.237 OA
ATOM     94  O   UNL A   1      43.787  38.213  27.023  1.00  0.00    -0.237 OA
ATOM     95  O   UNL A   1      44.025  40.118  28.568  1.00  0.00    -0.744 OA
ENDBRANCH  88  92
ENDBRANCH  62  85
ENDBRANCH  36  37
ENDBRANCH  29  31
ENDBRANCH  28  29
ENDBRANCH  27  28
ENDBRANCH   1  27
TORSDOF 17
ENDMDL
MODEL 3
REMARK VINA RESULT:     -11.4      5.007      9.766
REMARK SMILES CC1=C(C)C[C@@H](C(=O)NNC(=O)c2sccc2C)[C@@H](C(=O)OCCOC(=O)c2ccc(-c3c4nc(c(-c5cc(S(=O)(=O)[O-])ccc5F)c5ccc([nH]5)c(-c5cc(S(=O)(=O)[O-])ccc5F)c5nc(c(-c6cc(S(=O)(=O)[O-])ccc6F)c6ccc3[nH]6)C=C5)C=C4)cc2)C1
REMARK SMILES IDX 23 1 22 2 20 3 21 4 19 5 1 6 2 7 3 8 91 9 4 10 5 11 6 12
REMARK SMILES IDX 7 13 8 14 9 15 10 17 11 18 12 20 13 21 14 22 17 23 15 24
REMARK SMILES IDX 16 25 18 26 24 27 25 28 26 29 27 30 28 31 29 32 90 33 30 34
REMARK SMILES IDX 89 35 31 36 32 37 33 38 83 39 34 40 88 41 82 42 84 43 35 44
REMARK SMILES IDX 87 45 81 46 80 47 36 49 68 50 48 51 67 52 49 53 52 54 66 55
REMARK SMILES IDX 85 56 50 57 51 58 65 60 86 61 53 62 37 63 38 64 46 65 39 66
REMARK SMILES IDX 45 67 47 68 44 69 40 70 41 71 42 72 43 73 69 74 70 75 78 76
REMARK SMILES IDX 71 77 77 78 79 79 76 80 72 81 73 82 74 83 75 84 54 85 55 86
REMARK SMILES IDX 63 87 56 88 62 89 64 90 61 91 57 92 58 93 59 94 60 95
REMARK H PARENT 9 16 10 19 84 48 52 59
REMARK Flexibility Score: inf
ROOT
ATOM      1  C   UNL A   1      31.891  28.538  27.700  1.00  0.00     0.274 C 
ENDROOT
BRANCH   1   2
ATOM      2  O   UNL A   1      31.386  27.257  27.194  1.00  0.00    -0.462 OA
BRANCH   2   3
ATOM      3  C   UNL A   1      32.048  26.658  26.139  1.00  0.00     0.310 C 
ATOM      4  O   UNL A   1      33.252  26.731  25.977  1.00  0.00    -0.252 OA
BRANCH   3   5
ATOM      5  C   UNL A   1      31.067  25.853  25.210  1.00  0.00     0.116 C 
ATOM      6  C   UNL A   1      32.221  25.588  21.444  1.00  0.00     0.039 C 
ATOM      7  C   UNL A   1      31.674  25.077  22.752  1.00  0.00    -0.073 C 
ATOM      8  C   UNL A   1      31.607  23.764  23.056  1.00  0.00    -0.074 C 
ATOM      9  C   UNL A   1      31.199  26.175  23.703  1.00  0.00     0.046 C 
ATOM     10  C   UNL A   1      32.073  22.610  22.196  1.00  0.00     0.039 C 
ATOM     11  C   UNL A   1      31.032  23.317  24.360  1.00  0.00     0.045 C 
ATOM     12  C   UNL A   1      31.085  24.346  25.475  1.00  0.00     0.099 C 
BRANCH  12  13
ATOM     13  C   UNL A   1      32.177  23.986  26.427  1.00  0.00     0.242 C 
ATOM     14  O   UNL A   1      31.794  23.812  27.594  1.00  0.00    -0.273 OA
ATOM     15  N   UNL A   1      33.519  23.942  26.077  1.00  0.00    -0.267 N 
ATOM     16  H   UNL A   1      34.154  23.724  26.797  1.00  0.00     0.191 HD
BRANCH  15  17
ATOM     17  N   UNL A   1      34.064  24.169  24.822  1.00  0.00    -0.263 N 
ATOM     18  C   UNL A   1      34.990  23.403  24.124  1.00  0.00     0.280 C 
ATOM     19  H   UNL A   1      33.752  24.983  24.364  1.00  0.00     0.191 HD
ATOM     20  O   UNL A   1      35.378  23.877  23.053  1.00  0.00    -0.266 OA
BRANCH  18  21
ATOM     21  C   UNL A   1      35.469  22.114  24.608  1.00  0.00     0.096 A 
ATOM     22  S   UNL A   1      37.170  21.919  24.782  1.00  0.00    -0.138 S 
ATOM     23  C   UNL A   1      34.812  20.900  24.765  1.00  0.00    -0.027 A 
ATOM     24  C   UNL A   1      37.036  20.232  25.005  1.00  0.00     0.066 A 
ATOM     25  C   UNL A   1      35.726  19.820  25.002  1.00  0.00     0.016 A 
ATOM     26  C   UNL A   1      33.364  20.653  24.593  1.00  0.00     0.046 C 
ENDBRANCH  18  21
ENDBRANCH  15  17
ENDBRANCH  12  13
ENDBRANCH   3   5
ENDBRANCH   2   3
ENDBRANCH   1   2
BRANCH   1  27
ATOM     27  C   UNL A   1      31.779  29.736  26.674  1.00  0.00     0.275 C 
BRANCH  27  28
ATOM     28  O   UNL A   1      33.058  30.381  26.327  1.00  0.00    -0.458 OA
BRANCH  28  29
ATOM     29  C   UNL A   1      33.526  31.348  27.190  1.00  0.00     0.338 C 
ATOM     30  O   UNL A   1      32.987  32.433  27.380  1.00  0.00    -0.246 OA
BRANCH  29  31
ATOM     31  C   UNL A   1      34.836  30.956  27.834  1.00  0.00     0.060 A 
ATOM     32  C   UNL A   1      35.870  31.879  28.013  1.00  0.00     0.016 A 
ATOM     33  C   UNL A   1      35.116  29.643  28.213  1.00  0.00     0.016 A 
ATOM     34  C   UNL A   1      37.015  31.629  28.759  1.00  0.00     0.010 A 
ATOM     35  C   UNL A   1      36.321  29.343  28.899  1.00  0.00     0.010 A 
ATOM     36  C   UNL A   1      37.246  30.355  29.238  1.00  0.00    -0.014 A 
BRANCH  36  37
ATOM     37  C   UNL A   1      38.543  30.096  29.907  1.00  0.00     0.031 A 
ATOM     38  C   UNL A   1      39.484  29.131  29.260  1.00  0.00     0.074 A 
ATOM     39  C   UNL A   1      38.957  30.811  30.974  1.00  0.00     0.049 A 
ATOM     40  N   UNL A   1      40.570  28.590  29.734  1.00  0.00    -0.248 NA
ATOM     41  C   UNL A   1      39.178  28.770  27.866  1.00  0.00     0.031 C 
ATOM     42  C   UNL A   1      38.306  32.009  31.497  1.00  0.00     0.029 A 
ATOM     43  N   UNL A   1      40.023  30.638  31.825  1.00  0.00    -0.354 N 
ATOM     44  C   UNL A   1      41.062  27.791  28.710  1.00  0.00     0.074 A 
ATOM     45  C   UNL A   1      40.169  27.937  27.583  1.00  0.00     0.031 C 
ATOM     46  C   UNL A   1      38.893  32.384  32.645  1.00  0.00     0.029 A 
ATOM     47  C   UNL A   1      39.961  31.446  32.944  1.00  0.00     0.049 A 
ATOM     48  H   UNL A   1      40.754  30.003  31.653  1.00  0.00     0.167 HD
ATOM     49  C   UNL A   1      42.156  26.995  28.737  1.00  0.00     0.034 A 
ATOM     50  C   UNL A   1      40.655  31.394  34.099  1.00  0.00     0.034 A 
ATOM     51  C   UNL A   1      43.013  26.885  29.889  1.00  0.00     0.049 A 
ATOM     52  C   UNL A   1      41.751  30.363  34.192  1.00  0.00     0.074 A 
ATOM     53  C   UNL A   1      44.098  26.052  30.086  1.00  0.00     0.029 A 
ATOM     54  N   UNL A   1      42.871  27.638  31.051  1.00  0.00    -0.354 N 
ATOM     55  N   UNL A   1      42.145  29.505  33.276  1.00  0.00    -0.248 NA
ATOM     56  C   UNL A   1      42.505  30.296  35.447  1.00  0.00     0.031 C 
ATOM     57  C   UNL A   1      44.566  26.251  31.390  1.00  0.00     0.029 A 
ATOM     58  C   UNL A   1      43.825  27.265  31.980  1.00  0.00     0.049 A 
ATOM     59  H   UNL A   1      42.189  28.334  31.192  1.00  0.00     0.167 HD
ATOM     60  C   UNL A   1      43.225  28.830  33.829  1.00  0.00     0.074 A 
ATOM     61  C   UNL A   1      43.422  29.387  35.154  1.00  0.00     0.031 C 
ATOM     62  C   UNL A   1      43.991  27.846  33.291  1.00  0.00     0.034 A 
BRANCH  49  63
ATOM     63  C   UNL A   1      42.376  26.100  27.547  1.00  0.00     0.023 A 
ATOM     64  C   UNL A   1      41.894  24.780  27.491  1.00  0.00     0.031 A 
ATOM     65  C   UNL A   1      43.160  26.564  26.475  1.00  0.00     0.131 A 
ATOM     66  C   UNL A   1      42.253  23.955  26.414  1.00  0.00     0.055 A 
ATOM     67  C   UNL A   1      43.452  25.761  25.374  1.00  0.00     0.041 A 
ATOM     68  F   UNL A   1      43.678  27.802  26.495  1.00  0.00    -0.206 F 
ATOM     69  C   UNL A   1      43.008  24.443  25.344  1.00  0.00     0.022 A 
BRANCH  66  70
ATOM     70  S   UNL A   1      41.829  22.191  26.485  1.00  0.00     0.124 S 
ATOM     71  O   UNL A   1      40.379  22.230  26.316  1.00  0.00    -0.237 OA
ATOM     72  O   UNL A   1      42.586  21.639  25.367  1.00  0.00    -0.237 OA
ATOM     73  O   UNL A   1      42.288  21.782  27.810  1.00  0.00    -0.744 OA
ENDBRANCH  66  70
ENDBRANCH  49  63
BRANCH  50  74
ATOM     74  C   UNL A   1      40.288  32.250  35.269  1.00  0.00     0.023 A 
ATOM     75  C   UNL A   1      39.300  31.866  36.190  1.00  0.00     0.031 A 
ATOM     76  C   UNL A   1      40.865  33.527  35.433  1.00  0.00     0.131 A 
ATOM     77  C   UNL A   1      38.877  32.763  37.187  1.00  0.00     0.055 A 
ATOM     78  C   UNL A   1      40.483  34.392  36.461  1.00  0.00     0.041 A 
ATOM     79  F   UNL A   1      41.809  33.960  34.582  1.00  0.00    -0.206 F 
ATOM     80  C   UNL A   1      39.469  34.019  37.336  1.00  0.00     0.022 A 
BRANCH  77  81
ATOM     81  S   UNL A   1      37.447  32.316  38.213  1.00  0.00     0.124 S 
ATOM     82  O   UNL A   1      36.377  33.079  37.580  1.00  0.00    -0.237 OA
ATOM     83  O   UNL A   1      37.393  30.869  38.039  1.00  0.00    -0.237 OA
ATOM     84  O   UNL A   1      37.830  32.770  39.548  1.00  0.00    -0.744 OA
ENDBRANCH  77  81
ENDBRANCH  50  74
BRANCH  62  85
ATOM     85  C   UNL A   1      45.143  27.363  34.130  1.00  0.00     0.023 A 
ATOM     86  C   UNL A   1      45.018  26.253  34.981  1.00  0.00     0.031 A 
ATOM     87  C   UNL A   1      46.378  28.031  34.079  1.00  0.00     0.131 A 
ATOM     88  C   UNL A   1      46.094  25.881  35.796  1.00  0.00     0.055 A 
ATOM     89  C   UNL A   1      47.467  27.613  34.842  1.00  0.00     0.041 A 
ATOM     90  F   UNL A   1      46.545  29.100  33.282  1.00  0.00    -0.206 F 
ATOM     91  C   UNL A   1      47.324  26.541  35.718  1.00  0.00     0.022 A 
BRANCH  88  92
ATOM     92  S   UNL A   1      45.831  24.583  37.034  1.00  0.00     0.124 S 
ATOM     93  O   UNL A   1      45.717  25.359  38.264  1.00  0.00    -0.237 OA
ATOM     94  O   UNL A   1      44.603  23.950  36.565  1.00  0.00    -0.237 OA
ATOM     95  O   UNL A   1      47.033  23.760  36.926  1.00  0.00    -0.744 OA
ENDBRANCH  88  92
ENDBRANCH  62  85
ENDBRANCH  36  37
ENDBRANCH  29  31
ENDBRANCH  28  29
ENDBRANCH  27  28
ENDBRANCH   1  27
TORSDOF 17
ENDMDL
