MODEL 1
REMARK VINA RESULT:     -10.8      0.000      0.000
REMARK SMILES O=C(OCCOC(=O)c1cccnc1C[N@@H+]1CCC[C@H]1c1ccccn1)c1ccc(-c2c3nc(c(-c4cc(S(=O)(=O)[O-])ccc4F)c4ccc([nH]4)c(-c4cc(S(=O)(=O)[O-])ccc4F)c4nc(c(-c5cc(S(=O)(=O)[O-])ccc5F)c5ccc2[nH]5)C=C4)C=C3)cc1
REMARK SMILES IDX 4 1 3 2 2 3 1 4 27 5 28 6 89 7 29 8 88 9 30 10 31 11 32 12
REMARK SMILES IDX 82 13 33 14 87 15 81 16 83 17 34 18 86 19 80 20 79 21 35 23
REMARK SMILES IDX 67 24 47 25 66 26 48 27 51 28 65 29 84 30 49 31 50 32 64 34
REMARK SMILES IDX 85 35 52 36 36 37 37 38 45 39 38 40 44 41 46 42 43 43 39 44
REMARK SMILES IDX 40 45 41 46 42 47 68 48 69 49 77 50 70 51 76 52 78 53 75 54
REMARK SMILES IDX 71 55 72 56 73 57 74 58 53 59 54 60 62 61 55 62 61 63 63 64
REMARK SMILES IDX 60 65 56 66 57 67 58 68 59 69 5 70 6 71 7 72 8 73 9 74 10 75
REMARK SMILES IDX 14 76 11 77 13 78 12 79 15 80 16 81 17 82 20 83 18 85 19 86
REMARK SMILES IDX 21 87 22 88 26 89 23 90 25 91 24 92
REMARK H PARENT 83 22 51 33 16 84
REMARK Flexibility Score: inf
ROOT
ATOM      1  C   UNL A   1      33.448  33.398  27.689  1.00  0.00     0.275 C 
ENDROOT
BRANCH   1   2
ATOM      2  O   UNL A   1      34.614  32.584  27.824  1.00  0.00    -0.458 OA
BRANCH   2   3
ATOM      3  C   UNL A   1      34.603  31.236  27.787  1.00  0.00     0.338 C 
ATOM      4  O   UNL A   1      33.603  30.654  27.381  1.00  0.00    -0.246 OA
BRANCH   3   5
ATOM      5  C   UNL A   1      35.726  30.447  28.372  1.00  0.00     0.060 A 
ATOM      6  C   UNL A   1      35.823  29.896  29.643  1.00  0.00     0.016 A 
ATOM      7  C   UNL A   1      36.803  30.295  27.516  1.00  0.00     0.016 A 
ATOM      8  C   UNL A   1      37.010  29.234  30.024  1.00  0.00     0.010 A 
ATOM      9  C   UNL A   1      37.975  29.641  27.857  1.00  0.00     0.010 A 
ATOM     10  C   UNL A   1      38.101  29.144  29.143  1.00  0.00    -0.014 A 
BRANCH  10  11
ATOM     11  C   UNL A   1      39.441  28.686  29.556  1.00  0.00     0.031 A 
ATOM     12  C   UNL A   1      40.202  29.523  30.544  1.00  0.00     0.074 A 
ATOM     13  C   UNL A   1      40.018  27.638  28.944  1.00  0.00     0.049 A 
ATOM     14  N   UNL A   1      41.306  29.242  31.182  1.00  0.00    -0.248 NA
ATOM     15  C   UNL A   1      39.657  30.860  30.842  1.00  0.00     0.031 C 
ATOM     16  C   UNL A   1      39.418  26.865  27.856  1.00  0.00     0.029 A 
ATOM     17  N   UNL A   1      41.246  27.063  29.127  1.00  0.00    -0.354 N 
ATOM     18  C   UNL A   1      41.539  30.327  32.020  1.00  0.00     0.074 A 
ATOM     19  C   UNL A   1      40.533  31.321  31.720  1.00  0.00     0.031 C 
ATOM     20  C   UNL A   1      40.289  25.921  27.459  1.00  0.00     0.029 A 
ATOM     21  C   UNL A   1      41.490  26.005  28.286  1.00  0.00     0.049 A 
ATOM     22  H   UNL A   1      41.893  27.378  29.798  1.00  0.00     0.167 HD
ATOM     23  C   UNL A   1      42.482  30.446  32.985  1.00  0.00     0.034 A 
ATOM     24  C   UNL A   1      42.551  25.177  28.227  1.00  0.00     0.034 A 
ATOM     25  C   UNL A   1      43.514  29.456  33.179  1.00  0.00     0.049 A 
ATOM     26  C   UNL A   1      43.610  25.320  29.292  1.00  0.00     0.074 A 
ATOM     27  C   UNL A   1      44.487  29.390  34.158  1.00  0.00     0.029 A 
ATOM     28  N   UNL A   1      43.723  28.368  32.335  1.00  0.00    -0.354 N 
ATOM     29  N   UNL A   1      43.712  26.229  30.237  1.00  0.00    -0.248 NA
ATOM     30  C   UNL A   1      44.654  24.291  29.328  1.00  0.00     0.031 C 
ATOM     31  C   UNL A   1      45.327  28.309  33.862  1.00  0.00     0.029 A 
ATOM     32  C   UNL A   1      44.829  27.648  32.747  1.00  0.00     0.049 A 
ATOM     33  H   UNL A   1      43.163  28.145  31.558  1.00  0.00     0.167 HD
ATOM     34  C   UNL A   1      44.801  25.850  31.015  1.00  0.00     0.074 A 
ATOM     35  C   UNL A   1      45.316  24.626  30.425  1.00  0.00     0.031 C 
ATOM     36  C   UNL A   1      45.323  26.440  32.122  1.00  0.00     0.034 A 
BRANCH  23  37
ATOM     37  C   UNL A   1      42.420  31.663  33.880  1.00  0.00     0.023 A 
ATOM     38  C   UNL A   1      41.872  31.586  35.176  1.00  0.00     0.031 A 
ATOM     39  C   UNL A   1      42.897  32.912  33.450  1.00  0.00     0.131 A 
ATOM     40  C   UNL A   1      41.748  32.741  35.964  1.00  0.00     0.055 A 
ATOM     41  C   UNL A   1      42.841  34.044  34.267  1.00  0.00     0.041 A 
ATOM     42  F   UNL A   1      43.414  33.061  32.220  1.00  0.00    -0.206 F 
ATOM     43  C   UNL A   1      42.252  33.966  35.528  1.00  0.00     0.022 A 
BRANCH  40  44
ATOM     44  S   UNL A   1      40.809  32.641  37.515  1.00  0.00     0.124 S 
ATOM     45  O   UNL A   1      40.436  34.037  37.728  1.00  0.00    -0.237 OA
ATOM     46  O   UNL A   1      39.720  31.736  37.167  1.00  0.00    -0.237 OA
ATOM     47  O   UNL A   1      41.780  32.111  38.469  1.00  0.00    -0.744 OA
ENDBRANCH  40  44
ENDBRANCH  23  37
BRANCH  24  48
ATOM     48  C   UNL A   1      42.605  24.099  27.202  1.00  0.00     0.023 A 
ATOM     49  C   UNL A   1      41.782  22.966  27.293  1.00  0.00     0.031 A 
ATOM     50  C   UNL A   1      43.482  24.188  26.105  1.00  0.00     0.131 A 
ATOM     51  C   UNL A   1      41.880  21.947  26.334  1.00  0.00     0.055 A 
ATOM     52  C   UNL A   1      43.549  23.189  25.130  1.00  0.00     0.041 A 
ATOM     53  F   UNL A   1      44.274  25.262  25.954  1.00  0.00    -0.206 F 
ATOM     54  C   UNL A   1      42.753  22.053  25.248  1.00  0.00     0.022 A 
BRANCH  51  55
ATOM     55  S   UNL A   1      40.892  20.443  26.561  1.00  0.00     0.124 S 
ATOM     56  O   UNL A   1      41.638  19.473  25.768  1.00  0.00    -0.237 OA
ATOM     57  O   UNL A   1      40.946  20.266  28.008  1.00  0.00    -0.237 OA
ATOM     58  O   UNL A   1      39.584  20.813  26.028  1.00  0.00    -0.744 OA
ENDBRANCH  51  55
ENDBRANCH  24  48
BRANCH  36  59
ATOM     59  C   UNL A   1      46.488  25.741  32.777  1.00  0.00     0.023 A 
ATOM     60  C   UNL A   1      47.803  25.909  32.312  1.00  0.00     0.031 A 
ATOM     61  C   UNL A   1      46.275  24.886  33.872  1.00  0.00     0.131 A 
ATOM     62  C   UNL A   1      48.845  25.175  32.894  1.00  0.00     0.055 A 
ATOM     63  C   UNL A   1      47.328  24.218  34.497  1.00  0.00     0.041 A 
ATOM     64  F   UNL A   1      45.038  24.687  34.356  1.00  0.00    -0.206 F 
ATOM     65  C   UNL A   1      48.620  24.348  33.997  1.00  0.00     0.022 A 
BRANCH  62  66
ATOM     66  S   UNL A   1      50.478  25.225  32.109  1.00  0.00     0.124 S 
ATOM     67  O   UNL A   1      50.212  26.017  30.913  1.00  0.00    -0.237 OA
ATOM     68  O   UNL A   1      51.295  25.870  33.132  1.00  0.00    -0.237 OA
ATOM     69  O   UNL A   1      50.785  23.817  31.867  1.00  0.00    -0.744 OA
ENDBRANCH  62  66
ENDBRANCH  36  59
ENDBRANCH  10  11
ENDBRANCH   3   5
ENDBRANCH   2   3
ENDBRANCH   1   2
BRANCH   1  70
ATOM     70  C   UNL A   1      33.496  34.723  28.461  1.00  0.00     0.275 C 
BRANCH  70  71
ATOM     71  O   UNL A   1      32.893  34.687  29.769  1.00  0.00    -0.458 OA
BRANCH  71  72
ATOM     72  C   UNL A   1      33.642  34.264  30.835  1.00  0.00     0.340 C 
ATOM     73  O   UNL A   1      34.046  33.138  31.032  1.00  0.00    -0.246 OA
BRANCH  72  74
ATOM     74  C   UNL A   1      33.829  35.403  31.784  1.00  0.00     0.087 A 
ATOM     75  C   UNL A   1      33.451  36.676  31.298  1.00  0.00     0.019 A 
ATOM     76  C   UNL A   1      34.354  35.304  33.094  1.00  0.00     0.109 A 
ATOM     77  C   UNL A   1      33.565  37.801  32.100  1.00  0.00     0.021 A 
ATOM     78  N   UNL A   1      34.358  36.410  33.892  1.00  0.00    -0.254 NA
ATOM     79  C   UNL A   1      34.001  37.614  33.389  1.00  0.00     0.111 A 
BRANCH  76  80
ATOM     80  C   UNL A   1      34.929  34.012  33.740  1.00  0.00     0.321 C 
BRANCH  80  81
ATOM     81  N   UNL A   1      36.122  33.278  33.153  1.00  0.00    -0.322 N 
ATOM     82  C   UNL A   1      36.572  32.118  33.928  1.00  0.00     0.263 C 
ATOM     83  C   UNL A   1      37.346  34.066  32.850  1.00  0.00     0.234 C 
ATOM     84  H   UNL A   1      35.694  33.001  32.270  1.00  0.00     0.349 HD
ATOM     85  C   UNL A   1      37.858  32.530  34.629  1.00  0.00     0.068 C 
ATOM     86  C   UNL A   1      38.514  33.467  33.648  1.00  0.00     0.078 C 
BRANCH  83  87
ATOM     87  C   UNL A   1      37.780  34.259  31.398  1.00  0.00     0.098 A 
ATOM     88  C   UNL A   1      37.112  33.643  30.338  1.00  0.00     0.030 A 
ATOM     89  N   UNL A   1      39.004  34.826  31.223  1.00  0.00    -0.255 NA
ATOM     90  C   UNL A   1      37.748  33.553  29.096  1.00  0.00     0.004 A 
ATOM     91  C   UNL A   1      39.584  34.750  30.006  1.00  0.00     0.111 A 
ATOM     92  C   UNL A   1      39.010  34.108  28.926  1.00  0.00     0.020 A 
ENDBRANCH  83  87
ENDBRANCH  80  81
ENDBRANCH  76  80
ENDBRANCH  72  74
ENDBRANCH  71  72
ENDBRANCH  70  71
ENDBRANCH   1  70
TORSDOF 17
ENDMDL
MODEL 2
REMARK VINA RESULT:     -10.8      3.935      6.477
REMARK SMILES O=C(OCCOC(=O)c1cccnc1C[N@@H+]1CCC[C@H]1c1ccccn1)c1ccc(-c2c3nc(c(-c4cc(S(=O)(=O)[O-])ccc4F)c4ccc([nH]4)c(-c4cc(S(=O)(=O)[O-])ccc4F)c4nc(c(-c5cc(S(=O)(=O)[O-])ccc5F)c5ccc2[nH]5)C=C4)C=C3)cc1
REMARK SMILES IDX 4 1 3 2 2 3 1 4 27 5 28 6 89 7 29 8 88 9 30 10 31 11 32 12
REMARK SMILES IDX 82 13 33 14 87 15 81 16 83 17 34 18 86 19 80 20 79 21 35 23
REMARK SMILES IDX 67 24 47 25 66 26 48 27 51 28 65 29 84 30 49 31 50 32 64 34
REMARK SMILES IDX 85 35 52 36 36 37 37 38 45 39 38 40 44 41 46 42 43 43 39 44
REMARK SMILES IDX 40 45 41 46 42 47 68 48 69 49 77 50 70 51 76 52 78 53 75 54
REMARK SMILES IDX 71 55 72 56 73 57 74 58 53 59 54 60 62 61 55 62 61 63 63 64
REMARK SMILES IDX 60 65 56 66 57 67 58 68 59 69 5 70 6 71 7 72 8 73 9 74 10 75
REMARK SMILES IDX 14 76 11 77 13 78 12 79 15 80 16 81 17 82 20 83 18 85 19 86
REMARK SMILES IDX 21 87 22 88 26 89 23 90 25 91 24 92
REMARK H PARENT 83 22 51 33 16 84
REMARK Flexibility Score: inf
ROOT
ATOM      1  C   UNL A   1      33.672  29.856  26.476  1.00  0.00     0.275 C 
ENDROOT
BRANCH   1   2
ATOM      2  O   UNL A   1      33.767  31.048  27.257  1.00  0.00    -0.458 OA
BRANCH   2   3
ATOM      3  C   UNL A   1      34.924  31.540  27.747  1.00  0.00     0.338 C 
ATOM      4  O   UNL A   1      35.179  32.731  27.608  1.00  0.00    -0.246 OA
BRANCH   3   5
ATOM      5  C   UNL A   1      35.958  30.629  28.318  1.00  0.00     0.060 A 
ATOM      6  C   UNL A   1      35.873  29.830  29.451  1.00  0.00     0.016 A 
ATOM      7  C   UNL A   1      37.152  30.634  27.618  1.00  0.00     0.016 A 
ATOM      8  C   UNL A   1      36.999  29.083  29.860  1.00  0.00     0.010 A 
ATOM      9  C   UNL A   1      38.269  29.904  27.988  1.00  0.00     0.010 A 
ATOM     10  C   UNL A   1      38.210  29.154  29.150  1.00  0.00    -0.014 A 
BRANCH  10  11
ATOM     11  C   UNL A   1      39.478  28.597  29.654  1.00  0.00     0.031 A 
ATOM     12  C   UNL A   1      40.153  29.296  30.801  1.00  0.00     0.074 A 
ATOM     13  C   UNL A   1      40.085  27.592  29.002  1.00  0.00     0.049 A 
ATOM     14  N   UNL A   1      41.168  28.903  31.521  1.00  0.00    -0.248 NA
ATOM     15  C   UNL A   1      39.622  30.619  31.177  1.00  0.00     0.031 C 
ATOM     16  C   UNL A   1      39.585  26.960  27.780  1.00  0.00     0.029 A 
ATOM     17  N   UNL A   1      41.265  26.947  29.254  1.00  0.00    -0.354 N 
ATOM     18  C   UNL A   1      41.343  29.887  32.488  1.00  0.00     0.074 A 
ATOM     19  C   UNL A   1      40.410  30.950  32.187  1.00  0.00     0.031 C 
ATOM     20  C   UNL A   1      40.463  26.022  27.382  1.00  0.00     0.029 A 
ATOM     21  C   UNL A   1      41.565  25.968  28.338  1.00  0.00     0.049 A 
ATOM     22  H   UNL A   1      41.844  27.163  30.020  1.00  0.00     0.167 HD
ATOM     23  C   UNL A   1      42.176  29.866  33.555  1.00  0.00     0.034 A 
ATOM     24  C   UNL A   1      42.599  25.104  28.307  1.00  0.00     0.034 A 
ATOM     25  C   UNL A   1      43.146  28.817  33.755  1.00  0.00     0.049 A 
ATOM     26  C   UNL A   1      43.537  25.092  29.488  1.00  0.00     0.074 A 
ATOM     27  C   UNL A   1      44.001  28.609  34.820  1.00  0.00     0.029 A 
ATOM     28  N   UNL A   1      43.411  27.811  32.829  1.00  0.00    -0.354 N 
ATOM     29  N   UNL A   1      43.563  25.896  30.529  1.00  0.00    -0.248 NA
ATOM     30  C   UNL A   1      44.535  24.019  29.528  1.00  0.00     0.031 C 
ATOM     31  C   UNL A   1      44.832  27.527  34.504  1.00  0.00     0.029 A 
ATOM     32  C   UNL A   1      44.440  27.004  33.279  1.00  0.00     0.049 A 
ATOM     33  H   UNL A   1      42.935  27.692  31.976  1.00  0.00     0.167 HD
ATOM     34  C   UNL A   1      44.546  25.392  31.375  1.00  0.00     0.074 A 
ATOM     35  C   UNL A   1      45.082  24.212  30.719  1.00  0.00     0.031 C 
ATOM     36  C   UNL A   1      44.960  25.844  32.588  1.00  0.00     0.034 A 
BRANCH  23  37
ATOM     37  C   UNL A   1      42.055  30.988  34.561  1.00  0.00     0.023 A 
ATOM     38  C   UNL A   1      40.930  31.093  35.404  1.00  0.00     0.031 A 
ATOM     39  C   UNL A   1      43.052  31.969  34.686  1.00  0.00     0.131 A 
ATOM     40  C   UNL A   1      40.795  32.184  36.275  1.00  0.00     0.055 A 
ATOM     41  C   UNL A   1      42.949  33.013  35.610  1.00  0.00     0.041 A 
ATOM     42  F   UNL A   1      44.142  31.942  33.902  1.00  0.00    -0.206 F 
ATOM     43  C   UNL A   1      41.809  33.133  36.402  1.00  0.00     0.022 A 
BRANCH  40  44
ATOM     44  S   UNL A   1      39.220  32.411  37.151  1.00  0.00     0.124 S 
ATOM     45  O   UNL A   1      39.673  32.737  38.500  1.00  0.00    -0.237 OA
ATOM     46  O   UNL A   1      38.598  33.500  36.406  1.00  0.00    -0.237 OA
ATOM     47  O   UNL A   1      38.565  31.112  37.019  1.00  0.00    -0.744 OA
ENDBRANCH  40  44
ENDBRANCH  23  37
BRANCH  24  48
ATOM     48  C   UNL A   1      42.731  24.133  27.186  1.00  0.00     0.023 A 
ATOM     49  C   UNL A   1      42.141  22.861  27.252  1.00  0.00     0.031 A 
ATOM     50  C   UNL A   1      43.448  24.467  26.022  1.00  0.00     0.131 A 
ATOM     51  C   UNL A   1      42.314  21.951  26.197  1.00  0.00     0.055 A 
ATOM     52  C   UNL A   1      43.584  23.572  24.957  1.00  0.00     0.041 A 
ATOM     53  F   UNL A   1      44.010  25.680  25.894  1.00  0.00    -0.206 F 
ATOM     54  C   UNL A   1      43.025  22.300  25.047  1.00  0.00     0.022 A 
BRANCH  51  55
ATOM     55  S   UNL A   1      41.646  20.275  26.380  1.00  0.00     0.124 S 
ATOM     56  O   UNL A   1      42.308  19.570  25.288  1.00  0.00    -0.237 OA
ATOM     57  O   UNL A   1      42.082  19.925  27.728  1.00  0.00    -0.237 OA
ATOM     58  O   UNL A   1      40.207  20.465  26.221  1.00  0.00    -0.744 OA
ENDBRANCH  51  55
ENDBRANCH  24  48
BRANCH  36  59
ATOM     59  C   UNL A   1      46.021  25.032  33.287  1.00  0.00     0.023 A 
ATOM     60  C   UNL A   1      47.387  25.320  33.136  1.00  0.00     0.031 A 
ATOM     61  C   UNL A   1      45.657  23.947  34.104  1.00  0.00     0.131 A 
ATOM     62  C   UNL A   1      48.343  24.488  33.734  1.00  0.00     0.055 A 
ATOM     63  C   UNL A   1      46.612  23.170  34.759  1.00  0.00     0.041 A 
ATOM     64  F   UNL A   1      44.365  23.625  34.280  1.00  0.00    -0.206 F 
ATOM     65  C   UNL A   1      47.965  23.429  34.563  1.00  0.00     0.022 A 
BRANCH  62  66
ATOM     66  S   UNL A   1      50.089  24.740  33.314  1.00  0.00     0.124 S 
ATOM     67  O   UNL A   1      50.689  24.934  34.630  1.00  0.00    -0.237 OA
ATOM     68  O   UNL A   1      50.429  23.493  32.636  1.00  0.00    -0.237 OA
ATOM     69  O   UNL A   1      50.068  25.925  32.459  1.00  0.00    -0.744 OA
ENDBRANCH  62  66
ENDBRANCH  36  59
ENDBRANCH  10  11
ENDBRANCH   3   5
ENDBRANCH   2   3
ENDBRANCH   1   2
BRANCH   1  70
ATOM     70  C   UNL A   1      32.759  28.773  27.066  1.00  0.00     0.275 C 
BRANCH  70  71
ATOM     71  O   UNL A   1      32.840  27.489  26.417  1.00  0.00    -0.458 OA
BRANCH  71  72
ATOM     72  C   UNL A   1      31.764  26.644  26.478  1.00  0.00     0.340 C 
ATOM     73  O   UNL A   1      30.746  26.815  27.114  1.00  0.00    -0.246 OA
BRANCH  72  74
ATOM     74  C   UNL A   1      32.066  25.412  25.688  1.00  0.00     0.087 A 
ATOM     75  C   UNL A   1      33.075  24.574  26.216  1.00  0.00     0.019 A 
ATOM     76  C   UNL A   1      31.439  25.040  24.475  1.00  0.00     0.109 A 
ATOM     77  C   UNL A   1      33.423  23.396  25.575  1.00  0.00     0.021 A 
ATOM     78  N   UNL A   1      31.730  23.827  23.924  1.00  0.00    -0.254 NA
ATOM     79  C   UNL A   1      32.711  23.057  24.449  1.00  0.00     0.111 A 
BRANCH  76  80
ATOM     80  C   UNL A   1      30.404  25.898  23.695  1.00  0.00     0.321 C 
BRANCH  80  81
ATOM     81  N   UNL A   1      30.823  27.033  22.777  1.00  0.00    -0.322 N 
ATOM     82  C   UNL A   1      32.036  26.777  21.995  1.00  0.00     0.263 C 
ATOM     83  C   UNL A   1      31.001  28.383  23.376  1.00  0.00     0.234 C 
ATOM     84  H   UNL A   1      29.989  27.052  22.190  1.00  0.00     0.349 HD
ATOM     85  C   UNL A   1      33.149  27.599  22.627  1.00  0.00     0.068 C 
ATOM     86  C   UNL A   1      32.444  28.840  23.110  1.00  0.00     0.078 C 
BRANCH  83  87
ATOM     87  C   UNL A   1      30.043  29.510  22.994  1.00  0.00     0.098 A 
ATOM     88  C   UNL A   1      29.739  30.552  23.872  1.00  0.00     0.030 A 
ATOM     89  N   UNL A   1      29.298  29.292  21.877  1.00  0.00    -0.255 NA
ATOM     90  C   UNL A   1      28.609  31.338  23.627  1.00  0.00     0.004 A 
ATOM     91  C   UNL A   1      28.227  30.084  21.648  1.00  0.00     0.111 A 
ATOM     92  C   UNL A   1      27.833  31.096  22.500  1.00  0.00     0.020 A 
ENDBRANCH  83  87
ENDBRANCH  80  81
ENDBRANCH  76  80
ENDBRANCH  72  74
ENDBRANCH  71  72
ENDBRANCH  70  71
ENDBRANCH   1  70
TORSDOF 17
ENDMDL
MODEL 3
REMARK VINA RESULT:     -10.8      4.735      7.405
REMARK SMILES O=C(OCCOC(=O)c1cccnc1C[N@@H+]1CCC[C@H]1c1ccccn1)c1ccc(-c2c3nc(c(-c4cc(S(=O)(=O)[O-])ccc4F)c4ccc([nH]4)c(-c4cc(S(=O)(=O)[O-])ccc4F)c4nc(c(-c5cc(S(=O)(=O)[O-])ccc5F)c5ccc2[nH]5)C=C4)C=C3)cc1
REMARK SMILES IDX 4 1 3 2 2 3 1 4 27 5 28 6 89 7 29 8 88 9 30 10 31 11 32 12
REMARK SMILES IDX 82 13 33 14 87 15 81 16 83 17 34 18 86 19 80 20 79 21 35 23
REMARK SMILES IDX 67 24 47 25 66 26 48 27 51 28 65 29 84 30 49 31 50 32 64 34
REMARK SMILES IDX 85 35 52 36 36 37 37 38 45 39 38 40 44 41 46 42 43 43 39 44
REMARK SMILES IDX 40 45 41 46 42 47 68 48 69 49 77 50 70 51 76 52 78 53 75 54
REMARK SMILES IDX 71 55 72 56 73 57 74 58 53 59 54 60 62 61 55 62 61 63 63 64
REMARK SMILES IDX 60 65 56 66 57 67 58 68 59 69 5 70 6 71 7 72 8 73 9 74 10 75
REMARK SMILES IDX 14 76 11 77 13 78 12 79 15 80 16 81 17 82 20 83 18 85 19 86
REMARK SMILES IDX 21 87 22 88 26 89 23 90 25 91 24 92
REMARK H PARENT 83 22 51 33 16 84
REMARK Flexibility Score: inf
ROOT
ATOM      1  C   UNL A   1      31.766  29.077  26.177  1.00  0.00     0.275 C 
ENDROOT
BRANCH   1   2
ATOM      2  O   UNL A   1      33.041  29.721  26.145  1.00  0.00    -0.458 OA
BRANCH   2   3
ATOM      3  C   UNL A   1      33.362  30.798  26.892  1.00  0.00     0.338 C 
ATOM      4  O   UNL A   1      32.691  31.819  26.795  1.00  0.00    -0.246 OA
BRANCH   3   5
ATOM      5  C   UNL A   1      34.606  30.811  27.715  1.00  0.00     0.060 A 
ATOM      6  C   UNL A   1      35.590  31.790  27.777  1.00  0.00     0.016 A 
ATOM      7  C   UNL A   1      34.782  29.669  28.477  1.00  0.00     0.016 A 
ATOM      8  C   UNL A   1      36.731  31.578  28.581  1.00  0.00     0.010 A 
ATOM      9  C   UNL A   1      35.884  29.438  29.283  1.00  0.00     0.010 A 
ATOM     10  C   UNL A   1      36.895  30.382  29.300  1.00  0.00    -0.014 A 
BRANCH  10  11
ATOM     11  C   UNL A   1      38.158  29.999  29.957  1.00  0.00     0.031 A 
ATOM     12  C   UNL A   1      38.476  30.609  31.293  1.00  0.00     0.074 A 
ATOM     13  C   UNL A   1      39.063  29.251  29.303  1.00  0.00     0.049 A 
ATOM     14  N   UNL A   1      39.426  30.299  32.133  1.00  0.00    -0.248 NA
ATOM     15  C   UNL A   1      37.620  31.724  31.734  1.00  0.00     0.031 C 
ATOM     16  C   UNL A   1      38.910  28.751  27.936  1.00  0.00     0.029 A 
ATOM     17  N   UNL A   1      40.300  28.807  29.686  1.00  0.00    -0.354 N 
ATOM     18  C   UNL A   1      39.230  31.121  33.238  1.00  0.00     0.074 A 
ATOM     19  C   UNL A   1      38.149  32.023  32.910  1.00  0.00     0.031 C 
ATOM     20  C   UNL A   1      40.021  28.077  27.590  1.00  0.00     0.029 A 
ATOM     21  C   UNL A   1      40.945  28.072  28.722  1.00  0.00     0.049 A 
ATOM     22  H   UNL A   1      40.690  28.997  30.570  1.00  0.00     0.167 HD
ATOM     23  C   UNL A   1      39.869  31.077  34.431  1.00  0.00     0.034 A 
ATOM     24  C   UNL A   1      42.131  27.437  28.772  1.00  0.00     0.034 A 
ATOM     25  C   UNL A   1      40.998  30.212  34.669  1.00  0.00     0.049 A 
ATOM     26  C   UNL A   1      42.852  27.403  30.097  1.00  0.00     0.074 A 
ATOM     27  C   UNL A   1      41.699  29.993  35.840  1.00  0.00     0.029 A 
ATOM     28  N   UNL A   1      41.617  29.446  33.685  1.00  0.00    -0.354 N 
ATOM     29  N   UNL A   1      42.539  28.010  31.221  1.00  0.00    -0.248 NA
ATOM     30  C   UNL A   1      44.039  26.547  30.182  1.00  0.00     0.031 C 
ATOM     31  C   UNL A   1      42.783  29.157  35.546  1.00  0.00     0.029 A 
ATOM     32  C   UNL A   1      42.712  28.784  34.210  1.00  0.00     0.049 A 
ATOM     33  H   UNL A   1      41.318  29.384  32.749  1.00  0.00     0.167 HD
ATOM     34  C   UNL A   1      43.462  27.566  32.164  1.00  0.00     0.074 A 
ATOM     35  C   UNL A   1      44.336  26.637  31.470  1.00  0.00     0.031 C 
ATOM     36  C   UNL A   1      43.572  27.877  33.482  1.00  0.00     0.034 A 
BRANCH  23  37
ATOM     37  C   UNL A   1      39.351  31.970  35.536  1.00  0.00     0.023 A 
ATOM     38  C   UNL A   1      39.784  33.307  35.655  1.00  0.00     0.031 A 
ATOM     39  C   UNL A   1      38.429  31.499  36.485  1.00  0.00     0.131 A 
ATOM     40  C   UNL A   1      39.355  34.097  36.732  1.00  0.00     0.055 A 
ATOM     41  C   UNL A   1      37.947  32.315  37.513  1.00  0.00     0.041 A 
ATOM     42  F   UNL A   1      37.989  30.232  36.442  1.00  0.00    -0.206 F 
ATOM     43  C   UNL A   1      38.420  33.619  37.649  1.00  0.00     0.022 A 
BRANCH  40  44
ATOM     44  S   UNL A   1      40.133  35.718  36.987  1.00  0.00     0.124 S 
ATOM     45  O   UNL A   1      39.578  36.116  38.278  1.00  0.00    -0.237 OA
ATOM     46  O   UNL A   1      41.554  35.392  36.976  1.00  0.00    -0.237 OA
ATOM     47  O   UNL A   1      39.666  36.505  35.848  1.00  0.00    -0.744 OA
ENDBRANCH  40  44
ENDBRANCH  23  37
BRANCH  24  48
ATOM     48  C   UNL A   1      42.645  26.712  27.577  1.00  0.00     0.023 A 
ATOM     49  C   UNL A   1      42.339  25.360  27.360  1.00  0.00     0.031 A 
ATOM     50  C   UNL A   1      43.451  27.366  26.626  1.00  0.00     0.131 A 
ATOM     51  C   UNL A   1      42.868  24.690  26.246  1.00  0.00     0.055 A 
ATOM     52  C   UNL A   1      43.943  26.705  25.498  1.00  0.00     0.041 A 
ATOM     53  F   UNL A   1      43.753  28.666  26.771  1.00  0.00    -0.206 F 
ATOM     54  C   UNL A   1      43.662  25.355  25.308  1.00  0.00     0.022 A 
BRANCH  51  55
ATOM     55  S   UNL A   1      42.554  22.912  26.072  1.00  0.00     0.124 S 
ATOM     56  O   UNL A   1      43.036  22.654  24.720  1.00  0.00    -0.237 OA
ATOM     57  O   UNL A   1      43.357  22.360  27.157  1.00  0.00    -0.237 OA
ATOM     58  O   UNL A   1      41.108  22.804  26.251  1.00  0.00    -0.744 OA
ENDBRANCH  51  55
ENDBRANCH  24  48
BRANCH  36  59
ATOM     59  C   UNL A   1      44.659  27.174  34.255  1.00  0.00     0.023 A 
ATOM     60  C   UNL A   1      44.438  25.933  34.874  1.00  0.00     0.031 A 
ATOM     61  C   UNL A   1      45.930  27.763  34.383  1.00  0.00     0.131 A 
ATOM     62  C   UNL A   1      45.448  25.355  35.654  1.00  0.00     0.055 A 
ATOM     63  C   UNL A   1      46.956  27.144  35.097  1.00  0.00     0.041 A 
ATOM     64  F   UNL A   1      46.195  28.950  33.814  1.00  0.00    -0.206 F 
ATOM     65  C   UNL A   1      46.713  25.940  35.751  1.00  0.00     0.022 A 
BRANCH  62  66
ATOM     66  S   UNL A   1      45.045  23.886  36.637  1.00  0.00     0.124 S 
ATOM     67  O   UNL A   1      44.211  23.125  35.712  1.00  0.00    -0.237 OA
ATOM     68  O   UNL A   1      46.364  23.325  36.915  1.00  0.00    -0.237 OA
ATOM     69  O   UNL A   1      44.346  24.433  37.798  1.00  0.00    -0.744 OA
ENDBRANCH  62  66
ENDBRANCH  36  59
ENDBRANCH  10  11
ENDBRANCH   3   5
ENDBRANCH   2   3
ENDBRANCH   1   2
BRANCH   1  70
ATOM     70  C   UNL A   1      31.757  27.707  26.868  1.00  0.00     0.275 C 
BRANCH  70  71
ATOM     71  O   UNL A   1      32.457  26.665  26.161  1.00  0.00    -0.458 OA
BRANCH  71  72
ATOM     72  C   UNL A   1      31.955  25.390  26.186  1.00  0.00     0.340 C 
ATOM     73  O   UNL A   1      31.035  24.990  26.867  1.00  0.00    -0.246 OA
BRANCH  72  74
ATOM     74  C   UNL A   1      32.775  24.524  25.287  1.00  0.00     0.087 A 
ATOM     75  C   UNL A   1      33.969  24.014  25.845  1.00  0.00     0.019 A 
ATOM     76  C   UNL A   1      32.458  24.198  23.947  1.00  0.00     0.109 A 
ATOM     77  C   UNL A   1      34.797  23.184  25.106  1.00  0.00     0.021 A 
ATOM     78  N   UNL A   1      33.238  23.299  23.281  1.00  0.00    -0.254 NA
ATOM     79  C   UNL A   1      34.380  22.840  23.843  1.00  0.00     0.111 A 
BRANCH  76  80
ATOM     80  C   UNL A   1      31.257  24.767  23.140  1.00  0.00     0.321 C 
BRANCH  80  81
ATOM     81  N   UNL A   1      31.366  26.041  22.321  1.00  0.00    -0.322 N 
ATOM     82  C   UNL A   1      32.506  26.086  21.400  1.00  0.00     0.263 C 
ATOM     83  C   UNL A   1      31.377  27.338  23.048  1.00  0.00     0.234 C 
ATOM     84  H   UNL A   1      30.478  25.961  21.823  1.00  0.00     0.349 HD
ATOM     85  C   UNL A   1      33.526  27.035  22.010  1.00  0.00     0.068 C 
ATOM     86  C   UNL A   1      32.678  28.075  22.697  1.00  0.00     0.078 C 
BRANCH  83  87
ATOM     87  C   UNL A   1      30.201  28.301  22.891  1.00  0.00     0.098 A 
ATOM     88  C   UNL A   1      28.916  27.978  23.330  1.00  0.00     0.030 A 
ATOM     89  N   UNL A   1      30.416  29.357  22.060  1.00  0.00    -0.255 NA
ATOM     90  C   UNL A   1      27.829  28.715  22.849  1.00  0.00     0.004 A 
ATOM     91  C   UNL A   1      29.351  30.070  21.632  1.00  0.00     0.111 A 
ATOM     92  C   UNL A   1      28.047  29.775  21.978  1.00  0.00     0.020 A 
ENDBRANCH  83  87
ENDBRANCH  80  81
ENDBRANCH  76  80
ENDBRANCH  72  74
ENDBRANCH  71  72
ENDBRANCH  70  71
ENDBRANCH   1  70
TORSDOF 17
ENDMDL
