MODEL 1
REMARK VINA RESULT:     -10.6      0.000      0.000
REMARK SMILES C=CC[N@H+](CC(=O)OCCOC(=O)c1ccc(-c2c3nc(c(-c4cc(S(=O)(=O)[O-])ccc4F)c4ccc([nH]4)c(-c4cc(S(=O)(=O)[O-])ccc4F)c4nc(c(-c5cc(S(=O)(=O)[O-])ccc5F)c5ccc2[nH]5)C=C4)C=C3)cc1)[C@H](C)c1ccc(F)cc1O
REMARK SMILES IDX 9 1 8 2 6 3 7 4 5 5 4 6 3 8 2 9 1 10 77 11 78 12 79 13 80 14
REMARK SMILES IDX 85 15 81 16 84 17 82 18 83 19 86 20 10 22 11 23 12 24 13 25
REMARK SMILES IDX 14 26 15 27 76 28 16 29 75 30 17 31 18 32 19 33 69 34 20 35
REMARK SMILES IDX 74 36 68 37 70 38 21 39 73 40 67 41 66 42 22 44 54 45 34 46
REMARK SMILES IDX 53 47 35 48 38 49 52 50 71 51 36 52 37 53 51 55 72 56 39 57
REMARK SMILES IDX 23 58 24 59 32 60 25 61 31 62 33 63 30 64 26 65 27 66 28 67
REMARK SMILES IDX 29 68 55 69 56 70 64 71 57 72 63 73 65 74 62 75 58 76 59 77
REMARK SMILES IDX 60 78 61 79 40 80 41 81 49 82 42 83 48 84 50 85 47 86 43 87
REMARK SMILES IDX 44 88 45 89 46 90
REMARK H PARENT 4 7 86 21 70 43 38 54
REMARK Flexibility Score: inf
ROOT
ATOM      1  C   UNL A   1      36.407  21.951  24.890  1.00  0.00     0.274 C 
ENDROOT
BRANCH   1   2
ATOM      2  O   UNL A   1      36.089  23.112  25.682  1.00  0.00    -0.458 OA
BRANCH   2   3
ATOM      3  C   UNL A   1      34.842  23.142  26.215  1.00  0.00     0.361 C 
ATOM      4  O   UNL A   1      34.595  22.850  27.383  1.00  0.00    -0.245 OA
BRANCH   3   5
ATOM      5  C   UNL A   1      33.723  23.436  25.220  1.00  0.00     0.387 C 
BRANCH   5   6
ATOM      6  N   UNL A   1      32.600  22.458  25.147  1.00  0.00    -0.316 N 
ATOM      7  H   UNL A   1      32.595  21.848  25.966  1.00  0.00     0.349 HD
BRANCH   6   8
ATOM      8  C   UNL A   1      31.307  23.150  25.202  1.00  0.00     0.291 C 
BRANCH   8   9
ATOM      9  C   UNL A   1      30.729  23.314  26.580  1.00  0.00     0.025 C 
ATOM     10  C   UNL A   1      29.668  22.649  27.059  1.00  0.00     0.010 C 
ENDBRANCH   8   9
ENDBRANCH   6   8
BRANCH   6  11
ATOM     11  C   UNL A   1      32.799  21.535  23.980  1.00  0.00     0.216 C 
ATOM     12  C   UNL A   1      32.011  21.910  22.703  1.00  0.00     0.081 C 
BRANCH  11  13
ATOM     13  C   UNL A   1      32.768  20.037  24.307  1.00  0.00     0.051 A 
ATOM     14  C   UNL A   1      32.548  19.143  23.236  1.00  0.00     0.017 A 
ATOM     15  C   UNL A   1      32.915  19.475  25.589  1.00  0.00     0.127 A 
ATOM     16  C   UNL A   1      32.455  17.762  23.445  1.00  0.00     0.040 A 
ATOM     17  C   UNL A   1      32.804  18.102  25.805  1.00  0.00     0.085 A 
ATOM     18  C   UNL A   1      32.580  17.257  24.730  1.00  0.00     0.126 A 
ATOM     19  F   UNL A   1      32.506  15.935  24.938  1.00  0.00    -0.207 F 
BRANCH  15  20
ATOM     20  O   UNL A   1      33.232  20.202  26.703  1.00  0.00    -0.507 OA
ATOM     21  H   UNL A   1      32.583  20.358  27.361  1.00  0.00     0.293 HD
ENDBRANCH  15  20
ENDBRANCH  11  13
ENDBRANCH   6  11
ENDBRANCH   5   6
ENDBRANCH   3   5
ENDBRANCH   2   3
ENDBRANCH   1   2
BRANCH   1  22
ATOM     22  C   UNL A   1      37.387  21.019  25.607  1.00  0.00     0.275 C 
BRANCH  22  23
ATOM     23  O   UNL A   1      38.749  21.294  25.235  1.00  0.00    -0.458 OA
BRANCH  23  24
ATOM     24  C   UNL A   1      39.658  21.077  26.216  1.00  0.00     0.338 C 
ATOM     25  O   UNL A   1      40.170  20.013  26.514  1.00  0.00    -0.246 OA
BRANCH  24  26
ATOM     26  C   UNL A   1      40.052  22.357  26.832  1.00  0.00     0.060 A 
ATOM     27  C   UNL A   1      39.481  23.530  26.327  1.00  0.00     0.016 A 
ATOM     28  C   UNL A   1      41.035  22.415  27.823  1.00  0.00     0.016 A 
ATOM     29  C   UNL A   1      39.911  24.770  26.795  1.00  0.00     0.010 A 
ATOM     30  C   UNL A   1      41.468  23.661  28.288  1.00  0.00     0.010 A 
ATOM     31  C   UNL A   1      40.929  24.845  27.756  1.00  0.00    -0.014 A 
BRANCH  31  32
ATOM     32  C   UNL A   1      41.497  26.171  28.108  1.00  0.00     0.031 A 
ATOM     33  C   UNL A   1      42.884  26.524  27.644  1.00  0.00     0.074 A 
ATOM     34  C   UNL A   1      40.762  27.067  28.792  1.00  0.00     0.049 A 
ATOM     35  N   UNL A   1      43.566  27.626  27.823  1.00  0.00    -0.248 NA
ATOM     36  C   UNL A   1      43.599  25.491  26.879  1.00  0.00     0.031 C 
ATOM     37  C   UNL A   1      39.399  26.847  29.272  1.00  0.00     0.029 A 
ATOM     38  N   UNL A   1      41.059  28.344  29.196  1.00  0.00    -0.354 N 
ATOM     39  C   UNL A   1      44.790  27.422  27.196  1.00  0.00     0.074 A 
ATOM     40  C   UNL A   1      44.769  26.072  26.670  1.00  0.00     0.031 C 
ATOM     41  C   UNL A   1      38.973  27.955  29.901  1.00  0.00     0.029 A 
ATOM     42  C   UNL A   1      40.042  28.952  29.894  1.00  0.00     0.049 A 
ATOM     43  H   UNL A   1      41.918  28.785  29.002  1.00  0.00     0.167 HD
ATOM     44  C   UNL A   1      45.830  28.282  27.061  1.00  0.00     0.034 A 
ATOM     45  C   UNL A   1      39.986  30.169  30.471  1.00  0.00     0.034 A 
ATOM     46  C   UNL A   1      45.841  29.622  27.599  1.00  0.00     0.049 A 
ATOM     47  C   UNL A   1      41.174  31.092  30.351  1.00  0.00     0.074 A 
ATOM     48  C   UNL A   1      46.838  30.579  27.517  1.00  0.00     0.029 A 
ATOM     49  N   UNL A   1      44.806  30.194  28.331  1.00  0.00    -0.354 N 
ATOM     50  N   UNL A   1      42.322  30.889  29.745  1.00  0.00    -0.248 NA
ATOM     51  C   UNL A   1      41.049  32.412  30.980  1.00  0.00     0.031 C 
ATOM     52  C   UNL A   1      46.431  31.704  28.247  1.00  0.00     0.029 A 
ATOM     53  C   UNL A   1      45.152  31.477  28.727  1.00  0.00     0.049 A 
ATOM     54  H   UNL A   1      43.952  29.751  28.538  1.00  0.00     0.167 HD
ATOM     55  C   UNL A   1      43.047  32.067  29.904  1.00  0.00     0.074 A 
ATOM     56  C   UNL A   1      42.196  32.981  30.640  1.00  0.00     0.031 C 
ATOM     57  C   UNL A   1      44.301  32.370  29.480  1.00  0.00     0.034 A 
BRANCH  44  58
ATOM     58  C   UNL A   1      47.057  27.772  26.344  1.00  0.00     0.023 A 
ATOM     59  C   UNL A   1      47.275  28.023  24.977  1.00  0.00     0.031 A 
ATOM     60  C   UNL A   1      48.003  26.986  27.026  1.00  0.00     0.131 A 
ATOM     61  C   UNL A   1      48.365  27.433  24.321  1.00  0.00     0.055 A 
ATOM     62  C   UNL A   1      49.129  26.466  26.385  1.00  0.00     0.041 A 
ATOM     63  F   UNL A   1      47.838  26.694  28.327  1.00  0.00    -0.206 F 
ATOM     64  C   UNL A   1      49.307  26.674  25.021  1.00  0.00     0.022 A 
BRANCH  61  65
ATOM     65  S   UNL A   1      48.457  27.548  22.513  1.00  0.00     0.124 S 
ATOM     66  O   UNL A   1      48.475  26.139  22.128  1.00  0.00    -0.237 OA
ATOM     67  O   UNL A   1      47.245  28.287  22.182  1.00  0.00    -0.237 OA
ATOM     68  O   UNL A   1      49.709  28.266  22.278  1.00  0.00    -0.744 OA
ENDBRANCH  61  65
ENDBRANCH  44  58
BRANCH  45  69
ATOM     69  C   UNL A   1      38.779  30.584  31.240  1.00  0.00     0.023 A 
ATOM     70  C   UNL A   1      37.747  31.322  30.638  1.00  0.00     0.031 A 
ATOM     71  C   UNL A   1      38.668  30.293  32.611  1.00  0.00     0.131 A 
ATOM     72  C   UNL A   1      36.671  31.781  31.413  1.00  0.00     0.055 A 
ATOM     73  C   UNL A   1      37.572  30.710  33.368  1.00  0.00     0.041 A 
ATOM     74  F   UNL A   1      39.626  29.590  33.236  1.00  0.00    -0.206 F 
ATOM     75  C   UNL A   1      36.571  31.470  32.772  1.00  0.00     0.022 A 
BRANCH  72  76
ATOM     76  S   UNL A   1      35.438  32.861  30.637  1.00  0.00     0.124 S 
ATOM     77  O   UNL A   1      35.433  32.370  29.264  1.00  0.00    -0.237 OA
ATOM     78  O   UNL A   1      34.245  32.573  31.425  1.00  0.00    -0.237 OA
ATOM     79  O   UNL A   1      35.995  34.200  30.819  1.00  0.00    -0.744 OA
ENDBRANCH  72  76
ENDBRANCH  45  69
BRANCH  57  80
ATOM     80  C   UNL A   1      44.802  33.763  29.779  1.00  0.00     0.023 A 
ATOM     81  C   UNL A   1      44.635  34.819  28.866  1.00  0.00     0.031 A 
ATOM     82  C   UNL A   1      45.488  34.028  30.977  1.00  0.00     0.131 A 
ATOM     83  C   UNL A   1      45.206  36.073  29.134  1.00  0.00     0.055 A 
ATOM     84  C   UNL A   1      46.002  35.293  31.266  1.00  0.00     0.041 A 
ATOM     85  F   UNL A   1      45.678  33.057  31.886  1.00  0.00    -0.206 F 
ATOM     86  C   UNL A   1      45.877  36.320  30.334  1.00  0.00     0.022 A 
BRANCH  83  87
ATOM     87  S   UNL A   1      45.160  37.345  27.841  1.00  0.00     0.124 S 
ATOM     88  O   UNL A   1      45.455  38.558  28.597  1.00  0.00    -0.237 OA
ATOM     89  O   UNL A   1      46.203  36.895  26.925  1.00  0.00    -0.237 OA
ATOM     90  O   UNL A   1      43.798  37.255  27.320  1.00  0.00    -0.744 OA
ENDBRANCH  83  87
ENDBRANCH  57  80
ENDBRANCH  31  32
ENDBRANCH  24  26
ENDBRANCH  23  24
ENDBRANCH  22  23
ENDBRANCH   1  22
TORSDOF 20
ENDMDL
MODEL 2
REMARK VINA RESULT:     -10.5      5.628     10.614
REMARK SMILES C=CC[N@H+](CC(=O)OCCOC(=O)c1ccc(-c2c3nc(c(-c4cc(S(=O)(=O)[O-])ccc4F)c4ccc([nH]4)c(-c4cc(S(=O)(=O)[O-])ccc4F)c4nc(c(-c5cc(S(=O)(=O)[O-])ccc5F)c5ccc2[nH]5)C=C4)C=C3)cc1)[C@H](C)c1ccc(F)cc1O
REMARK SMILES IDX 9 1 8 2 6 3 7 4 5 5 4 6 3 8 2 9 1 10 77 11 78 12 79 13 80 14
REMARK SMILES IDX 85 15 81 16 84 17 82 18 83 19 86 20 10 22 11 23 12 24 13 25
REMARK SMILES IDX 14 26 15 27 76 28 16 29 75 30 17 31 18 32 19 33 69 34 20 35
REMARK SMILES IDX 74 36 68 37 70 38 21 39 73 40 67 41 66 42 22 44 54 45 34 46
REMARK SMILES IDX 53 47 35 48 38 49 52 50 71 51 36 52 37 53 51 55 72 56 39 57
REMARK SMILES IDX 23 58 24 59 32 60 25 61 31 62 33 63 30 64 26 65 27 66 28 67
REMARK SMILES IDX 29 68 55 69 56 70 64 71 57 72 63 73 65 74 62 75 58 76 59 77
REMARK SMILES IDX 60 78 61 79 40 80 41 81 49 82 42 83 48 84 50 85 47 86 43 87
REMARK SMILES IDX 44 88 45 89 46 90
REMARK H PARENT 4 7 86 21 70 43 38 54
REMARK Flexibility Score: inf
ROOT
ATOM      1  C   UNL A   1      31.893  30.079  25.872  1.00  0.00     0.274 C 
ENDROOT
BRANCH   1   2
ATOM      2  O   UNL A   1      32.088  28.849  26.596  1.00  0.00    -0.458 OA
BRANCH   2   3
ATOM      3  C   UNL A   1      33.038  28.015  26.103  1.00  0.00     0.361 C 
ATOM      4  O   UNL A   1      34.229  28.307  26.033  1.00  0.00    -0.245 OA
BRANCH   3   5
ATOM      5  C   UNL A   1      32.505  26.717  25.503  1.00  0.00     0.387 C 
BRANCH   5   6
ATOM      6  N   UNL A   1      32.018  26.765  24.094  1.00  0.00    -0.316 N 
ATOM      7  H   UNL A   1      32.028  27.722  23.739  1.00  0.00     0.349 HD
BRANCH   6   8
ATOM      8  C   UNL A   1      32.933  26.039  23.205  1.00  0.00     0.291 C 
BRANCH   8   9
ATOM      9  C   UNL A   1      33.520  26.856  22.087  1.00  0.00     0.025 C 
ATOM     10  C   UNL A   1      33.893  28.139  22.180  1.00  0.00     0.010 C 
ENDBRANCH   8   9
ENDBRANCH   6   8
BRANCH   6  11
ATOM     11  C   UNL A   1      30.578  26.346  24.035  1.00  0.00     0.216 C 
ATOM     12  C   UNL A   1      30.326  24.937  23.450  1.00  0.00     0.081 C 
BRANCH  11  13
ATOM     13  C   UNL A   1      29.599  27.410  23.525  1.00  0.00     0.051 A 
ATOM     14  C   UNL A   1      30.148  28.553  22.902  1.00  0.00     0.017 A 
ATOM     15  C   UNL A   1      28.198  27.361  23.647  1.00  0.00     0.127 A 
ATOM     16  C   UNL A   1      29.337  29.599  22.449  1.00  0.00     0.040 A 
ATOM     17  C   UNL A   1      27.386  28.410  23.216  1.00  0.00     0.085 A 
ATOM     18  C   UNL A   1      27.963  29.518  22.615  1.00  0.00     0.126 A 
ATOM     19  F   UNL A   1      27.176  30.509  22.173  1.00  0.00    -0.207 F 
BRANCH  15  20
ATOM     20  O   UNL A   1      27.518  26.280  24.135  1.00  0.00    -0.507 OA
ATOM     21  H   UNL A   1      26.879  26.394  24.811  1.00  0.00     0.293 HD
ENDBRANCH  15  20
ENDBRANCH  11  13
ENDBRANCH   6  11
ENDBRANCH   5   6
ENDBRANCH   3   5
ENDBRANCH   2   3
ENDBRANCH   1   2
BRANCH   1  22
ATOM     22  C   UNL A   1      32.166  31.307  26.744  1.00  0.00     0.275 C 
BRANCH  22  23
ATOM     23  O   UNL A   1      33.179  31.042  27.731  1.00  0.00    -0.458 OA
BRANCH  23  24
ATOM     24  C   UNL A   1      34.088  32.034  27.888  1.00  0.00     0.338 C 
ATOM     25  O   UNL A   1      33.871  33.232  27.869  1.00  0.00    -0.246 OA
BRANCH  24  26
ATOM     26  C   UNL A   1      35.409  31.463  28.209  1.00  0.00     0.060 A 
ATOM     27  C   UNL A   1      35.477  30.099  28.511  1.00  0.00     0.016 A 
ATOM     28  C   UNL A   1      36.546  32.269  28.302  1.00  0.00     0.016 A 
ATOM     29  C   UNL A   1      36.680  29.540  28.936  1.00  0.00     0.010 A 
ATOM     30  C   UNL A   1      37.752  31.706  28.734  1.00  0.00     0.010 A 
ATOM     31  C   UNL A   1      37.818  30.345  29.079  1.00  0.00    -0.014 A 
BRANCH  31  32
ATOM     32  C   UNL A   1      39.038  29.773  29.703  1.00  0.00     0.031 A 
ATOM     33  C   UNL A   1      39.451  30.234  31.074  1.00  0.00     0.074 A 
ATOM     34  C   UNL A   1      39.740  28.815  29.070  1.00  0.00     0.049 A 
ATOM     35  N   UNL A   1      40.466  29.858  31.808  1.00  0.00    -0.248 NA
ATOM     36  C   UNL A   1      38.605  31.264  31.697  1.00  0.00     0.031 C 
ATOM     37  C   UNL A   1      39.423  28.270  27.750  1.00  0.00     0.029 A 
ATOM     38  N   UNL A   1      40.862  28.126  29.457  1.00  0.00    -0.354 N 
ATOM     39  C   UNL A   1      40.385  30.603  32.980  1.00  0.00     0.074 A 
ATOM     40  C   UNL A   1      39.243  31.484  32.836  1.00  0.00     0.031 C 
ATOM     41  C   UNL A   1      40.326  27.326  27.440  1.00  0.00     0.029 A 
ATOM     42  C   UNL A   1      41.302  27.218  28.522  1.00  0.00     0.049 A 
ATOM     43  H   UNL A   1      41.309  28.267  30.323  1.00  0.00     0.167 HD
ATOM     44  C   UNL A   1      41.179  30.550  34.078  1.00  0.00     0.034 A 
ATOM     45  C   UNL A   1      42.376  26.403  28.535  1.00  0.00     0.034 A 
ATOM     46  C   UNL A   1      42.320  29.674  34.204  1.00  0.00     0.049 A 
ATOM     47  C   UNL A   1      43.275  26.397  29.747  1.00  0.00     0.074 A 
ATOM     48  C   UNL A   1      43.190  29.534  35.272  1.00  0.00     0.029 A 
ATOM     49  N   UNL A   1      42.757  28.791  33.223  1.00  0.00    -0.354 N 
ATOM     50  N   UNL A   1      43.180  27.100  30.852  1.00  0.00    -0.248 NA
ATOM     51  C   UNL A   1      44.417  25.475  29.715  1.00  0.00     0.031 C 
ATOM     52  C   UNL A   1      44.184  28.614  34.914  1.00  0.00     0.029 A 
ATOM     53  C   UNL A   1      43.896  28.125  33.650  1.00  0.00     0.049 A 
ATOM     54  H   UNL A   1      42.320  28.658  32.350  1.00  0.00     0.167 HD
ATOM     55  C   UNL A   1      44.240  26.687  31.656  1.00  0.00     0.074 A 
ATOM     56  C   UNL A   1      44.943  25.658  30.917  1.00  0.00     0.031 C 
ATOM     57  C   UNL A   1      44.600  27.116  32.893  1.00  0.00     0.034 A 
BRANCH  44  58
ATOM     58  C   UNL A   1      40.864  31.508  35.202  1.00  0.00     0.023 A 
ATOM     59  C   UNL A   1      39.727  31.347  36.015  1.00  0.00     0.031 A 
ATOM     60  C   UNL A   1      41.688  32.621  35.439  1.00  0.00     0.131 A 
ATOM     61  C   UNL A   1      39.406  32.322  36.971  1.00  0.00     0.055 A 
ATOM     62  C   UNL A   1      41.406  33.547  36.445  1.00  0.00     0.041 A 
ATOM     63  F   UNL A   1      42.776  32.840  34.682  1.00  0.00    -0.206 F 
ATOM     64  C   UNL A   1      40.250  33.410  37.207  1.00  0.00     0.022 A 
BRANCH  61  65
ATOM     65  S   UNL A   1      37.795  32.227  37.801  1.00  0.00     0.124 S 
ATOM     66  O   UNL A   1      37.509  30.797  37.728  1.00  0.00    -0.237 OA
ATOM     67  O   UNL A   1      38.093  32.755  39.127  1.00  0.00    -0.237 OA
ATOM     68  O   UNL A   1      36.933  33.070  36.973  1.00  0.00    -0.744 OA
ENDBRANCH  61  65
ENDBRANCH  44  58
BRANCH  45  69
ATOM     69  C   UNL A   1      42.684  25.544  27.358  1.00  0.00     0.023 A 
ATOM     70  C   UNL A   1      42.246  24.211  27.293  1.00  0.00     0.031 A 
ATOM     71  C   UNL A   1      43.473  26.031  26.301  1.00  0.00     0.131 A 
ATOM     72  C   UNL A   1      42.636  23.399  26.216  1.00  0.00     0.055 A 
ATOM     73  C   UNL A   1      43.819  25.234  25.209  1.00  0.00     0.041 A 
ATOM     74  F   UNL A   1      43.918  27.298  26.315  1.00  0.00    -0.206 F 
ATOM     75  C   UNL A   1      43.410  23.905  25.168  1.00  0.00     0.022 A 
BRANCH  72  76
ATOM     76  S   UNL A   1      42.182  21.643  26.242  1.00  0.00     0.124 S 
ATOM     77  O   UNL A   1      40.796  21.686  25.792  1.00  0.00    -0.237 OA
ATOM     78  O   UNL A   1      43.143  21.069  25.306  1.00  0.00    -0.237 OA
ATOM     79  O   UNL A   1      42.373  21.262  27.640  1.00  0.00    -0.744 OA
ENDBRANCH  72  76
ENDBRANCH  45  69
BRANCH  57  80
ATOM     80  C   UNL A   1      45.792  26.439  33.527  1.00  0.00     0.023 A 
ATOM     81  C   UNL A   1      45.668  25.215  34.209  1.00  0.00     0.031 A 
ATOM     82  C   UNL A   1      47.060  27.044  33.480  1.00  0.00     0.131 A 
ATOM     83  C   UNL A   1      46.777  24.670  34.875  1.00  0.00     0.055 A 
ATOM     84  C   UNL A   1      48.173  26.467  34.092  1.00  0.00     0.041 A 
ATOM     85  F   UNL A   1      47.237  28.213  32.843  1.00  0.00    -0.206 F 
ATOM     86  C   UNL A   1      48.032  25.281  34.810  1.00  0.00     0.022 A 
BRANCH  83  87
ATOM     87  S   UNL A   1      46.533  23.210  35.924  1.00  0.00     0.124 S 
ATOM     88  O   UNL A   1      47.636  23.328  36.872  1.00  0.00    -0.237 OA
ATOM     89  O   UNL A   1      45.198  23.438  36.467  1.00  0.00    -0.237 OA
ATOM     90  O   UNL A   1      46.638  22.093  34.987  1.00  0.00    -0.744 OA
ENDBRANCH  83  87
ENDBRANCH  57  80
ENDBRANCH  31  32
ENDBRANCH  24  26
ENDBRANCH  23  24
ENDBRANCH  22  23
ENDBRANCH   1  22
TORSDOF 20
ENDMDL
MODEL 3
REMARK VINA RESULT:     -10.2      2.259      3.318
REMARK SMILES C=CC[N@H+](CC(=O)OCCOC(=O)c1ccc(-c2c3nc(c(-c4cc(S(=O)(=O)[O-])ccc4F)c4ccc([nH]4)c(-c4cc(S(=O)(=O)[O-])ccc4F)c4nc(c(-c5cc(S(=O)(=O)[O-])ccc5F)c5ccc2[nH]5)C=C4)C=C3)cc1)[C@H](C)c1ccc(F)cc1O
REMARK SMILES IDX 9 1 8 2 6 3 7 4 5 5 4 6 3 8 2 9 1 10 77 11 78 12 79 13 80 14
REMARK SMILES IDX 85 15 81 16 84 17 82 18 83 19 86 20 10 22 11 23 12 24 13 25
REMARK SMILES IDX 14 26 15 27 76 28 16 29 75 30 17 31 18 32 19 33 69 34 20 35
REMARK SMILES IDX 74 36 68 37 70 38 21 39 73 40 67 41 66 42 22 44 54 45 34 46
REMARK SMILES IDX 53 47 35 48 38 49 52 50 71 51 36 52 37 53 51 55 72 56 39 57
REMARK SMILES IDX 23 58 24 59 32 60 25 61 31 62 33 63 30 64 26 65 27 66 28 67
REMARK SMILES IDX 29 68 55 69 56 70 64 71 57 72 63 73 65 74 62 75 58 76 59 77
REMARK SMILES IDX 60 78 61 79 40 80 41 81 49 82 42 83 48 84 50 85 47 86 43 87
REMARK SMILES IDX 44 88 45 89 46 90
REMARK H PARENT 4 7 86 21 70 43 38 54
REMARK Flexibility Score: inf
ROOT
ATOM      1  C   UNL A   1      35.807  20.779  24.592  1.00  0.00     0.274 C 
ENDROOT
BRANCH   1   2
ATOM      2  O   UNL A   1      34.721  20.268  25.389  1.00  0.00    -0.458 OA
BRANCH   2   3
ATOM      3  C   UNL A   1      33.477  20.443  24.877  1.00  0.00     0.361 C 
ATOM      4  O   UNL A   1      33.087  19.910  23.841  1.00  0.00    -0.245 OA
BRANCH   3   5
ATOM      5  C   UNL A   1      32.618  21.470  25.609  1.00  0.00     0.387 C 
BRANCH   5   6
ATOM      6  N   UNL A   1      32.406  22.785  24.938  1.00  0.00    -0.316 N 
ATOM      7  H   UNL A   1      32.291  22.665  23.931  1.00  0.00     0.349 HD
BRANCH   6   8
ATOM      8  C   UNL A   1      31.143  23.392  25.377  1.00  0.00     0.291 C 
BRANCH   8   9
ATOM      9  C   UNL A   1      30.290  22.522  26.259  1.00  0.00     0.025 C 
ATOM     10  C   UNL A   1      29.534  22.957  27.276  1.00  0.00     0.010 C 
ENDBRANCH   8   9
ENDBRANCH   6   8
BRANCH   6  11
ATOM     11  C   UNL A   1      33.629  23.641  25.089  1.00  0.00     0.216 C 
ATOM     12  C   UNL A   1      34.178  23.759  26.530  1.00  0.00     0.081 C 
BRANCH  11  13
ATOM     13  C   UNL A   1      33.604  24.972  24.326  1.00  0.00     0.051 A 
ATOM     14  C   UNL A   1      33.697  26.158  25.088  1.00  0.00     0.017 A 
ATOM     15  C   UNL A   1      33.470  25.116  22.933  1.00  0.00     0.127 A 
ATOM     16  C   UNL A   1      33.634  27.419  24.485  1.00  0.00     0.040 A 
ATOM     17  C   UNL A   1      33.386  26.371  22.330  1.00  0.00     0.085 A 
ATOM     18  C   UNL A   1      33.474  27.511  23.111  1.00  0.00     0.126 A 
ATOM     19  F   UNL A   1      33.426  28.715  22.523  1.00  0.00    -0.207 F 
BRANCH  15  20
ATOM     20  O   UNL A   1      33.468  24.064  22.060  1.00  0.00    -0.507 OA
ATOM     21  H   UNL A   1      33.987  23.305  22.239  1.00  0.00     0.293 HD
ENDBRANCH  15  20
ENDBRANCH  11  13
ENDBRANCH   6  11
ENDBRANCH   5   6
ENDBRANCH   3   5
ENDBRANCH   2   3
ENDBRANCH   1   2
BRANCH   1  22
ATOM     22  C   UNL A   1      37.159  20.216  25.037  1.00  0.00     0.275 C 
BRANCH  22  23
ATOM     23  O   UNL A   1      38.174  21.234  25.069  1.00  0.00    -0.458 OA
BRANCH  23  24
ATOM     24  C   UNL A   1      39.198  20.985  25.920  1.00  0.00     0.338 C 
ATOM     25  O   UNL A   1      39.740  19.911  26.114  1.00  0.00    -0.246 OA
BRANCH  24  26
ATOM     26  C   UNL A   1      39.671  22.243  26.525  1.00  0.00     0.060 A 
ATOM     27  C   UNL A   1      39.110  23.440  26.069  1.00  0.00     0.016 A 
ATOM     28  C   UNL A   1      40.713  22.256  27.456  1.00  0.00     0.016 A 
ATOM     29  C   UNL A   1      39.608  24.660  26.523  1.00  0.00     0.010 A 
ATOM     30  C   UNL A   1      41.214  23.481  27.908  1.00  0.00     0.010 A 
ATOM     31  C   UNL A   1      40.683  24.689  27.422  1.00  0.00    -0.014 A 
BRANCH  31  32
ATOM     32  C   UNL A   1      41.316  25.991  27.754  1.00  0.00     0.031 A 
ATOM     33  C   UNL A   1      42.722  26.265  27.294  1.00  0.00     0.074 A 
ATOM     34  C   UNL A   1      40.622  26.936  28.416  1.00  0.00     0.049 A 
ATOM     35  N   UNL A   1      43.457  27.335  27.458  1.00  0.00    -0.248 NA
ATOM     36  C   UNL A   1      43.388  25.183  26.554  1.00  0.00     0.031 C 
ATOM     37  C   UNL A   1      39.246  26.793  28.889  1.00  0.00     0.029 A 
ATOM     38  N   UNL A   1      40.980  28.204  28.798  1.00  0.00    -0.354 N 
ATOM     39  C   UNL A   1      44.674  27.057  26.844  1.00  0.00     0.074 A 
ATOM     40  C   UNL A   1      44.588  25.701  26.343  1.00  0.00     0.031 C 
ATOM     41  C   UNL A   1      38.873  27.934  29.494  1.00  0.00     0.029 A 
ATOM     42  C   UNL A   1      39.990  28.875  29.477  1.00  0.00     0.049 A 
ATOM     43  H   UNL A   1      41.862  28.597  28.603  1.00  0.00     0.167 HD
ATOM     44  C   UNL A   1      45.756  27.862  26.701  1.00  0.00     0.034 A 
ATOM     45  C   UNL A   1      39.991  30.104  30.031  1.00  0.00     0.034 A 
ATOM     46  C   UNL A   1      45.831  29.209  27.215  1.00  0.00     0.049 A 
ATOM     47  C   UNL A   1      41.225  30.963  29.902  1.00  0.00     0.074 A 
ATOM     48  C   UNL A   1      46.875  30.113  27.123  1.00  0.00     0.029 A 
ATOM     49  N   UNL A   1      44.822  29.846  27.928  1.00  0.00    -0.354 N 
ATOM     50  N   UNL A   1      42.366  30.692  29.310  1.00  0.00    -0.248 NA
ATOM     51  C   UNL A   1      41.163  32.300  30.506  1.00  0.00     0.031 C 
ATOM     52  C   UNL A   1      46.521  31.270  27.829  1.00  0.00     0.029 A 
ATOM     53  C   UNL A   1      45.228  31.117  28.303  1.00  0.00     0.049 A 
ATOM     54  H   UNL A   1      43.944  29.450  28.136  1.00  0.00     0.167 HD
ATOM     55  C   UNL A   1      43.148  31.834  29.452  1.00  0.00     0.074 A 
ATOM     56  C   UNL A   1      42.339  32.804  30.165  1.00  0.00     0.031 C 
ATOM     57  C   UNL A   1      44.419  32.066  29.032  1.00  0.00     0.034 A 
BRANCH  44  58
ATOM     58  C   UNL A   1      46.961  27.277  26.004  1.00  0.00     0.023 A 
ATOM     59  C   UNL A   1      47.947  26.560  26.706  1.00  0.00     0.031 A 
ATOM     60  C   UNL A   1      47.150  27.475  24.625  1.00  0.00     0.131 A 
ATOM     61  C   UNL A   1      49.109  26.135  26.044  1.00  0.00     0.055 A 
ATOM     62  C   UNL A   1      48.271  26.981  23.956  1.00  0.00     0.041 A 
ATOM     63  F   UNL A   1      46.253  28.169  23.906  1.00  0.00    -0.206 F 
ATOM     64  C   UNL A   1      49.267  26.321  24.669  1.00  0.00     0.022 A 
BRANCH  61  65
ATOM     65  S   UNL A   1      50.476  25.466  27.032  1.00  0.00     0.124 S 
ATOM     66  O   UNL A   1      50.913  26.648  27.770  1.00  0.00    -0.237 OA
ATOM     67  O   UNL A   1      49.820  24.427  27.816  1.00  0.00    -0.237 OA
ATOM     68  O   UNL A   1      51.422  24.985  26.026  1.00  0.00    -0.744 OA
ENDBRANCH  61  65
ENDBRANCH  44  58
BRANCH  45  69
ATOM     69  C   UNL A   1      38.802  30.593  30.782  1.00  0.00     0.023 A 
ATOM     70  C   UNL A   1      37.730  31.220  30.126  1.00  0.00     0.031 A 
ATOM     71  C   UNL A   1      38.747  30.489  32.184  1.00  0.00     0.131 A 
ATOM     72  C   UNL A   1      36.671  31.757  30.873  1.00  0.00     0.055 A 
ATOM     73  C   UNL A   1      37.667  30.982  32.919  1.00  0.00     0.041 A 
ATOM     74  F   UNL A   1      39.745  29.899  32.860  1.00  0.00    -0.206 F 
ATOM     75  C   UNL A   1      36.626  31.632  32.264  1.00  0.00     0.022 A 
BRANCH  72  76
ATOM     76  S   UNL A   1      35.382  32.695  30.005  1.00  0.00     0.124 S 
ATOM     77  O   UNL A   1      34.453  32.995  31.088  1.00  0.00    -0.237 OA
ATOM     78  O   UNL A   1      36.137  33.825  29.476  1.00  0.00    -0.237 OA
ATOM     79  O   UNL A   1      34.891  31.751  29.003  1.00  0.00    -0.744 OA
ENDBRANCH  72  76
ENDBRANCH  45  69
BRANCH  57  80
ATOM     80  C   UNL A   1      44.988  33.437  29.310  1.00  0.00     0.023 A 
ATOM     81  C   UNL A   1      44.779  34.514  28.429  1.00  0.00     0.031 A 
ATOM     82  C   UNL A   1      45.778  33.660  30.450  1.00  0.00     0.131 A 
ATOM     83  C   UNL A   1      45.411  35.745  28.667  1.00  0.00     0.055 A 
ATOM     84  C   UNL A   1      46.355  34.903  30.714  1.00  0.00     0.041 A 
ATOM     85  F   UNL A   1      46.012  32.668  31.325  1.00  0.00    -0.206 F 
ATOM     86  C   UNL A   1      46.187  35.950  29.811  1.00  0.00     0.022 A 
BRANCH  83  87
ATOM     87  S   UNL A   1      45.298  37.041  27.403  1.00  0.00     0.124 S 
ATOM     88  O   UNL A   1      43.899  36.953  26.998  1.00  0.00    -0.237 OA
ATOM     89  O   UNL A   1      45.673  38.237  28.150  1.00  0.00    -0.237 OA
ATOM     90  O   UNL A   1      46.264  36.617  26.390  1.00  0.00    -0.744 OA
ENDBRANCH  83  87
ENDBRANCH  57  80
ENDBRANCH  31  32
ENDBRANCH  24  26
ENDBRANCH  23  24
ENDBRANCH  22  23
ENDBRANCH   1  22
TORSDOF 20
ENDMDL
