MODEL 1
REMARK VINA RESULT:     -11.0      0.000      0.000
REMARK SMILES CC(C)n1cncc1[C@@H](NC(=O)OC(C)(C)C)C(=O)OCCOC(=O)c1ccc(-c2c3nc(c(-c4cc(S(=O)(=O)[O-])ccc4F)c4ccc([nH]4)c(-c4cc(S(=O)(=O)[O-])ccc4F)c4nc(c(-c5cc(S(=O)(=O)[O-])ccc5F)c5ccc2[nH]5)C=C4)C=C3)cc1
REMARK SMILES IDX 21 1 20 2 18 3 19 4 9 5 8 6 4 7 5 8 6 9 7 10 2 11 1 12 3 13
REMARK SMILES IDX 10 14 11 15 12 17 13 18 14 19 15 20 16 21 17 22 22 23 23 24
REMARK SMILES IDX 24 25 25 26 26 27 27 28 88 29 28 30 87 31 29 32 30 33 31 34
REMARK SMILES IDX 81 35 32 36 86 37 80 38 82 39 33 40 85 41 79 42 78 43 34 45
REMARK SMILES IDX 66 46 46 47 65 48 47 49 50 50 64 51 83 52 48 53 49 54 63 56
REMARK SMILES IDX 84 57 51 58 35 59 36 60 44 61 37 62 43 63 45 64 42 65 38 66
REMARK SMILES IDX 39 67 40 68 41 69 67 70 68 71 76 72 69 73 75 74 77 75 74 76
REMARK SMILES IDX 70 77 71 78 72 79 73 80 52 81 53 82 61 83 54 84 60 85 62 86
REMARK SMILES IDX 59 87 55 88 56 89 57 90 58 91
REMARK H PARENT 10 16 82 44 50 55
REMARK Flexibility Score: inf
ROOT
ATOM      1  C   UNL A   1      32.576  29.321  26.853  1.00  0.00     0.274 C 
ENDROOT
BRANCH   1   2
ATOM      2  O   UNL A   1      31.883  28.631  25.806  1.00  0.00    -0.460 OA
BRANCH   2   3
ATOM      3  C   UNL A   1      32.641  27.943  24.898  1.00  0.00     0.335 C 
ATOM      4  O   UNL A   1      33.867  27.831  24.946  1.00  0.00    -0.249 OA
BRANCH   3   5
ATOM      5  C   UNL A   1      31.817  27.490  23.682  1.00  0.00     0.244 C 
BRANCH   5   6
ATOM      6  C   UNL A   1      32.442  26.364  22.895  1.00  0.00     0.072 A 
ATOM      7  N   UNL A   1      32.631  25.044  23.280  1.00  0.00    -0.330 N 
ATOM      8  C   UNL A   1      33.103  24.366  22.178  1.00  0.00     0.199 A 
ATOM      9  N   UNL A   1      33.339  25.167  21.170  1.00  0.00    -0.245 NA
ATOM     10  C   UNL A   1      32.910  26.391  21.589  1.00  0.00     0.137 A 
BRANCH   7  11
ATOM     11  C   UNL A   1      32.398  24.351  24.546  1.00  0.00     0.082 C 
ATOM     12  C   UNL A   1      31.081  23.581  24.605  1.00  0.00     0.031 C 
ATOM     13  C   UNL A   1      33.567  23.482  24.959  1.00  0.00     0.031 C 
ENDBRANCH   7  11
ENDBRANCH   5   6
BRANCH   5  14
ATOM     14  N   UNL A   1      30.443  27.109  24.019  1.00  0.00    -0.302 N 
ATOM     15  C   UNL A   1      29.267  27.489  23.436  1.00  0.00     0.408 C 
ATOM     16  H   UNL A   1      30.354  26.487  24.777  1.00  0.00     0.168 HD
ATOM     17  O   UNL A   1      28.203  27.042  23.860  1.00  0.00    -0.225 OA
BRANCH  15  18
ATOM     18  O   UNL A   1      29.382  28.368  22.412  1.00  0.00    -0.444 OA
BRANCH  18  19
ATOM     19  C   UNL A   1      29.019  29.769  22.544  1.00  0.00     0.106 C 
ATOM     20  C   UNL A   1      29.608  30.365  23.824  1.00  0.00     0.056 C 
ATOM     21  C   UNL A   1      29.406  30.529  21.273  1.00  0.00     0.056 C 
ATOM     22  C   UNL A   1      27.487  29.850  22.682  1.00  0.00     0.056 C 
ENDBRANCH  18  19
ENDBRANCH  15  18
ENDBRANCH   5  14
ENDBRANCH   3   5
ENDBRANCH   2   3
ENDBRANCH   1   2
BRANCH   1  23
ATOM     23  C   UNL A   1      32.422  30.820  26.750  1.00  0.00     0.275 C 
BRANCH  23  24
ATOM     24  O   UNL A   1      33.043  31.420  27.880  1.00  0.00    -0.458 OA
BRANCH  24  25
ATOM     25  C   UNL A   1      32.947  32.765  27.914  1.00  0.00     0.338 C 
ATOM     26  O   UNL A   1      32.155  33.476  27.316  1.00  0.00    -0.246 OA
BRANCH  25  27
ATOM     27  C   UNL A   1      34.119  33.302  28.600  1.00  0.00     0.060 A 
ATOM     28  C   UNL A   1      35.163  33.631  27.743  1.00  0.00     0.016 A 
ATOM     29  C   UNL A   1      34.328  32.848  29.903  1.00  0.00     0.016 A 
ATOM     30  C   UNL A   1      36.396  33.121  28.025  1.00  0.00     0.010 A 
ATOM     31  C   UNL A   1      35.579  32.401  30.222  1.00  0.00     0.010 A 
ATOM     32  C   UNL A   1      36.566  32.448  29.238  1.00  0.00    -0.014 A 
BRANCH  32  33
ATOM     33  C   UNL A   1      37.914  32.069  29.587  1.00  0.00     0.031 A 
ATOM     34  C   UNL A   1      38.090  30.616  29.326  1.00  0.00     0.074 A 
ATOM     35  C   UNL A   1      38.838  32.984  29.927  1.00  0.00     0.049 A 
ATOM     36  N   UNL A   1      38.279  29.676  30.190  1.00  0.00    -0.248 NA
ATOM     37  C   UNL A   1      37.675  30.114  27.993  1.00  0.00     0.031 C 
ATOM     38  C   UNL A   1      38.697  34.444  29.947  1.00  0.00     0.029 A 
ATOM     39  N   UNL A   1      40.154  32.816  30.200  1.00  0.00    -0.354 N 
ATOM     40  C   UNL A   1      38.318  28.507  29.438  1.00  0.00     0.074 A 
ATOM     41  C   UNL A   1      37.650  28.800  28.207  1.00  0.00     0.031 C 
ATOM     42  C   UNL A   1      39.925  35.011  29.942  1.00  0.00     0.029 A 
ATOM     43  C   UNL A   1      40.926  33.964  30.053  1.00  0.00     0.049 A 
ATOM     44  H   UNL A   1      40.534  31.951  30.479  1.00  0.00     0.167 HD
ATOM     45  C   UNL A   1      39.231  27.546  29.733  1.00  0.00     0.034 A 
ATOM     46  C   UNL A   1      42.283  34.013  29.929  1.00  0.00     0.034 A 
ATOM     47  C   UNL A   1      39.670  27.683  31.107  1.00  0.00     0.049 A 
ATOM     48  C   UNL A   1      42.788  32.709  30.442  1.00  0.00     0.074 A 
ATOM     49  C   UNL A   1      39.034  27.639  32.332  1.00  0.00     0.029 A 
ATOM     50  N   UNL A   1      40.864  28.336  31.317  1.00  0.00    -0.354 N 
ATOM     51  N   UNL A   1      42.642  32.322  31.683  1.00  0.00    -0.248 NA
ATOM     52  C   UNL A   1      42.985  31.631  29.483  1.00  0.00     0.031 C 
ATOM     53  C   UNL A   1      39.672  28.644  33.118  1.00  0.00     0.029 A 
ATOM     54  C   UNL A   1      40.728  29.189  32.382  1.00  0.00     0.049 A 
ATOM     55  H   UNL A   1      41.684  28.210  30.787  1.00  0.00     0.167 HD
ATOM     56  C   UNL A   1      42.303  30.977  31.609  1.00  0.00     0.074 A 
ATOM     57  C   UNL A   1      42.623  30.588  30.236  1.00  0.00     0.031 C 
ATOM     58  C   UNL A   1      41.521  30.396  32.569  1.00  0.00     0.034 A 
BRANCH  45  59
ATOM     59  C   UNL A   1      40.069  26.851  28.674  1.00  0.00     0.023 A 
ATOM     60  C   UNL A   1      41.103  27.613  28.103  1.00  0.00     0.031 A 
ATOM     61  C   UNL A   1      39.748  25.653  27.988  1.00  0.00     0.131 A 
ATOM     62  C   UNL A   1      41.660  27.260  26.864  1.00  0.00     0.055 A 
ATOM     63  C   UNL A   1      40.343  25.279  26.782  1.00  0.00     0.041 A 
ATOM     64  F   UNL A   1      38.794  24.805  28.384  1.00  0.00    -0.206 F 
ATOM     65  C   UNL A   1      41.281  26.102  26.192  1.00  0.00     0.022 A 
BRANCH  62  66
ATOM     66  S   UNL A   1      42.765  28.443  26.061  1.00  0.00     0.124 S 
ATOM     67  O   UNL A   1      44.072  27.927  26.449  1.00  0.00    -0.237 OA
ATOM     68  O   UNL A   1      42.398  28.285  24.657  1.00  0.00    -0.237 OA
ATOM     69  O   UNL A   1      42.389  29.719  26.664  1.00  0.00    -0.744 OA
ENDBRANCH  62  66
ENDBRANCH  45  59
BRANCH  46  70
ATOM     70  C   UNL A   1      43.061  34.894  29.002  1.00  0.00     0.023 A 
ATOM     71  C   UNL A   1      42.584  36.138  28.527  1.00  0.00     0.031 A 
ATOM     72  C   UNL A   1      44.425  34.610  28.749  1.00  0.00     0.131 A 
ATOM     73  C   UNL A   1      43.452  37.022  27.835  1.00  0.00     0.055 A 
ATOM     74  C   UNL A   1      45.274  35.486  28.068  1.00  0.00     0.041 A 
ATOM     75  F   UNL A   1      45.006  33.500  29.231  1.00  0.00    -0.206 F 
ATOM     76  C   UNL A   1      44.793  36.701  27.614  1.00  0.00     0.022 A 
BRANCH  73  77
ATOM     77  S   UNL A   1      42.865  38.651  27.254  1.00  0.00     0.124 S 
ATOM     78  O   UNL A   1      44.000  39.132  26.475  1.00  0.00    -0.237 OA
ATOM     79  O   UNL A   1      41.664  38.300  26.505  1.00  0.00    -0.237 OA
ATOM     80  O   UNL A   1      42.618  39.390  28.493  1.00  0.00    -0.744 OA
ENDBRANCH  73  77
ENDBRANCH  46  70
BRANCH  58  81
ATOM     81  C   UNL A   1      41.346  31.118  33.892  1.00  0.00     0.023 A 
ATOM     82  C   UNL A   1      40.355  32.081  34.198  1.00  0.00     0.031 A 
ATOM     83  C   UNL A   1      42.183  30.689  34.939  1.00  0.00     0.131 A 
ATOM     84  C   UNL A   1      40.237  32.569  35.521  1.00  0.00     0.055 A 
ATOM     85  C   UNL A   1      42.046  31.153  36.243  1.00  0.00     0.041 A 
ATOM     86  F   UNL A   1      43.130  29.763  34.713  1.00  0.00    -0.206 F 
ATOM     87  C   UNL A   1      41.074  32.099  36.539  1.00  0.00     0.022 A 
BRANCH  84  88
ATOM     88  S   UNL A   1      39.002  33.842  35.954  1.00  0.00     0.124 S 
ATOM     89  O   UNL A   1      38.486  34.268  34.659  1.00  0.00    -0.237 OA
ATOM     90  O   UNL A   1      38.074  33.103  36.805  1.00  0.00    -0.237 OA
ATOM     91  O   UNL A   1      39.792  34.856  36.658  1.00  0.00    -0.744 OA
ENDBRANCH  84  88
ENDBRANCH  58  81
ENDBRANCH  32  33
ENDBRANCH  25  27
ENDBRANCH  24  25
ENDBRANCH  23  24
ENDBRANCH   1  23
TORSDOF 19
ENDMDL
MODEL 2
REMARK VINA RESULT:     -11.0      3.409      7.627
REMARK SMILES CC(C)n1cncc1[C@@H](NC(=O)OC(C)(C)C)C(=O)OCCOC(=O)c1ccc(-c2c3nc(c(-c4cc(S(=O)(=O)[O-])ccc4F)c4ccc([nH]4)c(-c4cc(S(=O)(=O)[O-])ccc4F)c4nc(c(-c5cc(S(=O)(=O)[O-])ccc5F)c5ccc2[nH]5)C=C4)C=C3)cc1
REMARK SMILES IDX 21 1 20 2 18 3 19 4 9 5 8 6 4 7 5 8 6 9 7 10 2 11 1 12 3 13
REMARK SMILES IDX 10 14 11 15 12 17 13 18 14 19 15 20 16 21 17 22 22 23 23 24
REMARK SMILES IDX 24 25 25 26 26 27 27 28 88 29 28 30 87 31 29 32 30 33 31 34
REMARK SMILES IDX 81 35 32 36 86 37 80 38 82 39 33 40 85 41 79 42 78 43 34 45
REMARK SMILES IDX 66 46 46 47 65 48 47 49 50 50 64 51 83 52 48 53 49 54 63 56
REMARK SMILES IDX 84 57 51 58 35 59 36 60 44 61 37 62 43 63 45 64 42 65 38 66
REMARK SMILES IDX 39 67 40 68 41 69 67 70 68 71 76 72 69 73 75 74 77 75 74 76
REMARK SMILES IDX 70 77 71 78 72 79 73 80 52 81 53 82 61 83 54 84 60 85 62 86
REMARK SMILES IDX 59 87 55 88 56 89 57 90 58 91
REMARK H PARENT 10 16 82 44 50 55
REMARK Flexibility Score: inf
ROOT
ATOM      1  C   UNL A   1      32.790  29.294  27.346  1.00  0.00     0.274 C 
ENDROOT
BRANCH   1   2
ATOM      2  O   UNL A   1      32.050  28.871  26.194  1.00  0.00    -0.460 OA
BRANCH   2   3
ATOM      3  C   UNL A   1      32.571  27.843  25.457  1.00  0.00     0.335 C 
ATOM      4  O   UNL A   1      33.613  27.242  25.725  1.00  0.00    -0.249 OA
BRANCH   3   5
ATOM      5  C   UNL A   1      31.823  27.647  24.128  1.00  0.00     0.244 C 
BRANCH   5   6
ATOM      6  C   UNL A   1      32.519  26.727  23.155  1.00  0.00     0.072 A 
ATOM      7  N   UNL A   1      32.529  25.339  23.138  1.00  0.00    -0.330 N 
ATOM      8  C   UNL A   1      33.173  24.955  21.982  1.00  0.00     0.199 A 
ATOM      9  N   UNL A   1      33.671  25.976  21.333  1.00  0.00    -0.245 NA
ATOM     10  C   UNL A   1      33.251  27.070  22.028  1.00  0.00     0.137 A 
BRANCH   7  11
ATOM     11  C   UNL A   1      31.986  24.345  24.061  1.00  0.00     0.082 C 
ATOM     12  C   UNL A   1      30.749  23.617  23.542  1.00  0.00     0.031 C 
ATOM     13  C   UNL A   1      33.036  23.371  24.553  1.00  0.00     0.031 C 
ENDBRANCH   7  11
ENDBRANCH   5   6
BRANCH   5  14
ATOM     14  N   UNL A   1      30.445  27.179  24.300  1.00  0.00    -0.302 N 
ATOM     15  C   UNL A   1      29.321  27.506  23.595  1.00  0.00     0.408 C 
ATOM     16  H   UNL A   1      30.309  26.533  25.031  1.00  0.00     0.168 HD
ATOM     17  O   UNL A   1      28.245  26.987  23.887  1.00  0.00    -0.225 OA
BRANCH  15  18
ATOM     18  O   UNL A   1      29.498  28.416  22.607  1.00  0.00    -0.444 OA
BRANCH  18  19
ATOM     19  C   UNL A   1      28.941  29.757  22.675  1.00  0.00     0.106 C 
ATOM     20  C   UNL A   1      29.565  30.546  23.827  1.00  0.00     0.056 C 
ATOM     21  C   UNL A   1      29.070  30.444  21.314  1.00  0.00     0.056 C 
ATOM     22  C   UNL A   1      27.438  29.630  22.989  1.00  0.00     0.056 C 
ENDBRANCH  18  19
ENDBRANCH  15  18
ENDBRANCH   5  14
ENDBRANCH   3   5
ENDBRANCH   2   3
ENDBRANCH   1   2
BRANCH   1  23
ATOM     23  C   UNL A   1      33.605  30.537  27.078  1.00  0.00     0.275 C 
BRANCH  23  24
ATOM     24  O   UNL A   1      34.956  30.283  27.444  1.00  0.00    -0.458 OA
BRANCH  24  25
ATOM     25  C   UNL A   1      35.594  31.347  27.972  1.00  0.00     0.338 C 
ATOM     26  O   UNL A   1      35.614  32.494  27.553  1.00  0.00    -0.246 OA
BRANCH  25  27
ATOM     27  C   UNL A   1      36.495  30.881  29.022  1.00  0.00     0.060 A 
ATOM     28  C   UNL A   1      37.581  31.722  29.237  1.00  0.00     0.016 A 
ATOM     29  C   UNL A   1      36.567  29.498  29.200  1.00  0.00     0.016 A 
ATOM     30  C   UNL A   1      38.825  31.164  29.220  1.00  0.00     0.010 A 
ATOM     31  C   UNL A   1      37.809  28.933  29.257  1.00  0.00     0.010 A 
ATOM     32  C   UNL A   1      38.919  29.771  29.159  1.00  0.00    -0.014 A 
BRANCH  32  33
ATOM     33  C   UNL A   1      40.236  29.201  29.313  1.00  0.00     0.031 A 
ATOM     34  C   UNL A   1      40.593  29.196  30.756  1.00  0.00     0.074 A 
ATOM     35  C   UNL A   1      40.888  28.641  28.279  1.00  0.00     0.049 A 
ATOM     36  N   UNL A   1      41.514  29.882  31.345  1.00  0.00    -0.248 NA
ATOM     37  C   UNL A   1      39.600  28.620  31.696  1.00  0.00     0.031 C 
ATOM     38  C   UNL A   1      40.407  28.450  26.908  1.00  0.00     0.029 A 
ATOM     39  N   UNL A   1      42.078  27.995  28.263  1.00  0.00    -0.354 N 
ATOM     40  C   UNL A   1      41.392  29.557  32.692  1.00  0.00     0.074 A 
ATOM     41  C   UNL A   1      40.062  29.059  32.864  1.00  0.00     0.031 C 
ATOM     42  C   UNL A   1      41.165  27.512  26.295  1.00  0.00     0.029 A 
ATOM     43  C   UNL A   1      42.256  27.139  27.180  1.00  0.00     0.049 A 
ATOM     44  H   UNL A   1      42.762  28.120  28.961  1.00  0.00     0.167 HD
ATOM     45  C   UNL A   1      42.508  29.358  33.440  1.00  0.00     0.034 A 
ATOM     46  C   UNL A   1      43.175  26.137  27.087  1.00  0.00     0.034 A 
ATOM     47  C   UNL A   1      43.640  30.023  32.829  1.00  0.00     0.049 A 
ATOM     48  C   UNL A   1      44.212  26.437  28.114  1.00  0.00     0.074 A 
ATOM     49  C   UNL A   1      43.932  31.334  32.508  1.00  0.00     0.029 A 
ATOM     50  N   UNL A   1      44.483  29.244  32.068  1.00  0.00    -0.354 N 
ATOM     51  N   UNL A   1      44.969  27.503  28.078  1.00  0.00    -0.248 NA
ATOM     52  C   UNL A   1      44.057  25.840  29.432  1.00  0.00     0.031 C 
ATOM     53  C   UNL A   1      44.621  31.266  31.261  1.00  0.00     0.029 A 
ATOM     54  C   UNL A   1      44.809  29.923  30.922  1.00  0.00     0.049 A 
ATOM     55  H   UNL A   1      44.800  28.343  32.308  1.00  0.00     0.167 HD
ATOM     56  C   UNL A   1      45.030  27.953  29.391  1.00  0.00     0.074 A 
ATOM     57  C   UNL A   1      44.527  26.834  30.190  1.00  0.00     0.031 C 
ATOM     58  C   UNL A   1      45.192  29.281  29.672  1.00  0.00     0.034 A 
BRANCH  45  59
ATOM     59  C   UNL A   1      42.665  28.183  34.390  1.00  0.00     0.023 A 
ATOM     60  C   UNL A   1      43.476  27.128  33.940  1.00  0.00     0.031 A 
ATOM     61  C   UNL A   1      41.863  27.893  35.522  1.00  0.00     0.131 A 
ATOM     62  C   UNL A   1      43.371  25.846  34.504  1.00  0.00     0.055 A 
ATOM     63  C   UNL A   1      41.803  26.630  36.114  1.00  0.00     0.041 A 
ATOM     64  F   UNL A   1      41.032  28.774  36.087  1.00  0.00    -0.206 F 
ATOM     65  C   UNL A   1      42.532  25.586  35.584  1.00  0.00     0.022 A 
BRANCH  62  66
ATOM     66  S   UNL A   1      44.224  24.482  33.681  1.00  0.00     0.124 S 
ATOM     67  O   UNL A   1      43.580  23.326  34.295  1.00  0.00    -0.237 OA
ATOM     68  O   UNL A   1      43.902  24.734  32.281  1.00  0.00    -0.237 OA
ATOM     69  O   UNL A   1      45.623  24.689  34.048  1.00  0.00    -0.744 OA
ENDBRANCH  62  66
ENDBRANCH  45  59
BRANCH  46  70
ATOM     70  C   UNL A   1      42.950  24.773  26.513  1.00  0.00     0.023 A 
ATOM     71  C   UNL A   1      43.795  24.189  25.541  1.00  0.00     0.031 A 
ATOM     72  C   UNL A   1      41.995  23.914  27.108  1.00  0.00     0.131 A 
ATOM     73  C   UNL A   1      43.658  22.818  25.202  1.00  0.00     0.055 A 
ATOM     74  C   UNL A   1      41.866  22.564  26.771  1.00  0.00     0.041 A 
ATOM     75  F   UNL A   1      41.203  24.338  28.105  1.00  0.00    -0.206 F 
ATOM     76  C   UNL A   1      42.703  22.008  25.820  1.00  0.00     0.022 A 
BRANCH  73  77
ATOM     77  S   UNL A   1      44.768  22.037  23.981  1.00  0.00     0.124 S 
ATOM     78  O   UNL A   1      46.048  22.672  24.272  1.00  0.00    -0.237 OA
ATOM     79  O   UNL A   1      44.653  20.622  24.314  1.00  0.00    -0.237 OA
ATOM     80  O   UNL A   1      44.180  22.411  22.693  1.00  0.00    -0.744 OA
ENDBRANCH  73  77
ENDBRANCH  46  70
BRANCH  58  81
ATOM     81  C   UNL A   1      45.683  30.198  28.567  1.00  0.00     0.023 A 
ATOM     82  C   UNL A   1      44.910  31.154  27.865  1.00  0.00     0.031 A 
ATOM     83  C   UNL A   1      47.067  30.164  28.313  1.00  0.00     0.131 A 
ATOM     84  C   UNL A   1      45.541  32.030  26.951  1.00  0.00     0.055 A 
ATOM     85  C   UNL A   1      47.686  31.045  27.432  1.00  0.00     0.041 A 
ATOM     86  F   UNL A   1      47.854  29.292  28.964  1.00  0.00    -0.206 F 
ATOM     87  C   UNL A   1      46.924  31.980  26.744  1.00  0.00     0.022 A 
BRANCH  84  88
ATOM     88  S   UNL A   1      44.581  33.249  25.991  1.00  0.00     0.124 S 
ATOM     89  O   UNL A   1      43.842  33.980  27.013  1.00  0.00    -0.237 OA
ATOM     90  O   UNL A   1      45.625  33.997  25.296  1.00  0.00    -0.237 OA
ATOM     91  O   UNL A   1      43.750  32.417  25.118  1.00  0.00    -0.744 OA
ENDBRANCH  84  88
ENDBRANCH  58  81
ENDBRANCH  32  33
ENDBRANCH  25  27
ENDBRANCH  24  25
ENDBRANCH  23  24
ENDBRANCH   1  23
TORSDOF 19
ENDMDL
MODEL 3
REMARK VINA RESULT:     -10.8      4.437      8.982
REMARK SMILES CC(C)n1cncc1[C@@H](NC(=O)OC(C)(C)C)C(=O)OCCOC(=O)c1ccc(-c2c3nc(c(-c4cc(S(=O)(=O)[O-])ccc4F)c4ccc([nH]4)c(-c4cc(S(=O)(=O)[O-])ccc4F)c4nc(c(-c5cc(S(=O)(=O)[O-])ccc5F)c5ccc2[nH]5)C=C4)C=C3)cc1
REMARK SMILES IDX 21 1 20 2 18 3 19 4 9 5 8 6 4 7 5 8 6 9 7 10 2 11 1 12 3 13
REMARK SMILES IDX 10 14 11 15 12 17 13 18 14 19 15 20 16 21 17 22 22 23 23 24
REMARK SMILES IDX 24 25 25 26 26 27 27 28 88 29 28 30 87 31 29 32 30 33 31 34
REMARK SMILES IDX 81 35 32 36 86 37 80 38 82 39 33 40 85 41 79 42 78 43 34 45
REMARK SMILES IDX 66 46 46 47 65 48 47 49 50 50 64 51 83 52 48 53 49 54 63 56
REMARK SMILES IDX 84 57 51 58 35 59 36 60 44 61 37 62 43 63 45 64 42 65 38 66
REMARK SMILES IDX 39 67 40 68 41 69 67 70 68 71 76 72 69 73 75 74 77 75 74 76
REMARK SMILES IDX 70 77 71 78 72 79 73 80 52 81 53 82 61 83 54 84 60 85 62 86
REMARK SMILES IDX 59 87 55 88 56 89 57 90 58 91
REMARK H PARENT 10 16 82 44 50 55
REMARK Flexibility Score: inf
ROOT
ATOM      1  C   UNL A   1      33.568  30.023  26.737  1.00  0.00     0.274 C 
ENDROOT
BRANCH   1   2
ATOM      2  O   UNL A   1      33.534  28.642  27.116  1.00  0.00    -0.460 OA
BRANCH   2   3
ATOM      3  C   UNL A   1      32.371  27.957  26.887  1.00  0.00     0.335 C 
ATOM      4  O   UNL A   1      31.367  28.017  27.599  1.00  0.00    -0.249 OA
BRANCH   3   5
ATOM      5  C   UNL A   1      32.517  26.931  25.752  1.00  0.00     0.244 C 
BRANCH   5   6
ATOM      6  C   UNL A   1      32.776  27.541  24.396  1.00  0.00     0.072 A 
ATOM      7  N   UNL A   1      31.976  28.423  23.681  1.00  0.00    -0.330 N 
ATOM      8  C   UNL A   1      32.695  28.810  22.572  1.00  0.00     0.199 A 
ATOM      9  N   UNL A   1      33.826  28.161  22.466  1.00  0.00    -0.245 NA
ATOM     10  C   UNL A   1      33.899  27.400  23.594  1.00  0.00     0.137 A 
BRANCH   7  11
ATOM     11  C   UNL A   1      30.638  28.955  23.933  1.00  0.00     0.082 C 
ATOM     12  C   UNL A   1      30.624  30.313  24.628  1.00  0.00     0.031 C 
ATOM     13  C   UNL A   1      29.770  28.959  22.692  1.00  0.00     0.031 C 
ENDBRANCH   7  11
ENDBRANCH   5   6
BRANCH   5  14
ATOM     14  N   UNL A   1      33.548  25.923  26.008  1.00  0.00    -0.302 N 
ATOM     15  C   UNL A   1      33.494  24.566  25.856  1.00  0.00     0.408 C 
ATOM     16  H   UNL A   1      34.407  26.275  26.337  1.00  0.00     0.168 HD
ATOM     17  O   UNL A   1      34.485  23.883  26.113  1.00  0.00    -0.225 OA
BRANCH  15  18
ATOM     18  O   UNL A   1      32.306  24.074  25.431  1.00  0.00    -0.444 OA
BRANCH  18  19
ATOM     19  C   UNL A   1      32.144  23.443  24.132  1.00  0.00     0.106 C 
ATOM     20  C   UNL A   1      30.775  23.772  23.535  1.00  0.00     0.056 C 
ATOM     21  C   UNL A   1      33.319  23.811  23.224  1.00  0.00     0.056 C 
ATOM     22  C   UNL A   1      32.181  21.917  24.339  1.00  0.00     0.056 C 
ENDBRANCH  18  19
ENDBRANCH  15  18
ENDBRANCH   5  14
ENDBRANCH   3   5
ENDBRANCH   2   3
ENDBRANCH   1   2
BRANCH   1  23
ATOM     23  C   UNL A   1      34.349  30.866  27.718  1.00  0.00     0.275 C 
BRANCH  23  24
ATOM     24  O   UNL A   1      35.128  30.004  28.539  1.00  0.00    -0.458 OA
BRANCH  24  25
ATOM     25  C   UNL A   1      36.139  30.621  29.184  1.00  0.00     0.338 C 
ATOM     26  O   UNL A   1      36.063  31.479  30.050  1.00  0.00    -0.246 OA
BRANCH  25  27
ATOM     27  C   UNL A   1      37.393  30.293  28.515  1.00  0.00     0.060 A 
ATOM     28  C   UNL A   1      37.479  28.965  28.112  1.00  0.00     0.016 A 
ATOM     29  C   UNL A   1      38.510  31.034  28.906  1.00  0.00     0.016 A 
ATOM     30  C   UNL A   1      38.582  28.260  28.491  1.00  0.00     0.010 A 
ATOM     31  C   UNL A   1      39.647  30.345  29.220  1.00  0.00     0.010 A 
ATOM     32  C   UNL A   1      39.626  28.955  29.107  1.00  0.00    -0.014 A 
BRANCH  32  33
ATOM     33  C   UNL A   1      40.847  28.221  29.342  1.00  0.00     0.031 A 
ATOM     34  C   UNL A   1      41.133  28.216  30.800  1.00  0.00     0.074 A 
ATOM     35  C   UNL A   1      41.464  27.545  28.357  1.00  0.00     0.049 A 
ATOM     36  N   UNL A   1      42.110  28.793  31.415  1.00  0.00    -0.248 NA
ATOM     37  C   UNL A   1      40.030  27.809  31.705  1.00  0.00     0.031 C 
ATOM     38  C   UNL A   1      41.025  27.374  26.969  1.00  0.00     0.029 A 
ATOM     39  N   UNL A   1      42.556  26.747  28.417  1.00  0.00    -0.354 N 
ATOM     40  C   UNL A   1      41.885  28.532  32.763  1.00  0.00     0.074 A 
ATOM     41  C   UNL A   1      40.494  28.221  32.883  1.00  0.00     0.031 C 
ATOM     42  C   UNL A   1      41.677  26.324  26.420  1.00  0.00     0.029 A 
ATOM     43  C   UNL A   1      42.666  25.839  27.368  1.00  0.00     0.049 A 
ATOM     44  H   UNL A   1      43.217  26.803  29.145  1.00  0.00     0.167 HD
ATOM     45  C   UNL A   1      42.928  28.212  33.571  1.00  0.00     0.034 A 
ATOM     46  C   UNL A   1      43.446  24.721  27.348  1.00  0.00     0.034 A 
ATOM     47  C   UNL A   1      44.167  28.699  32.999  1.00  0.00     0.049 A 
ATOM     48  C   UNL A   1      44.466  24.914  28.416  1.00  0.00     0.074 A 
ATOM     49  C   UNL A   1      44.646  29.948  32.657  1.00  0.00     0.029 A 
ATOM     50  N   UNL A   1      44.931  27.790  32.302  1.00  0.00    -0.354 N 
ATOM     51  N   UNL A   1      45.360  25.868  28.389  1.00  0.00    -0.248 NA
ATOM     52  C   UNL A   1      44.171  24.387  29.741  1.00  0.00     0.031 C 
ATOM     53  C   UNL A   1      45.376  29.748  31.449  1.00  0.00     0.029 A 
ATOM     54  C   UNL A   1      45.397  28.381  31.156  1.00  0.00     0.049 A 
ATOM     55  H   UNL A   1      45.113  26.864  32.582  1.00  0.00     0.167 HD
ATOM     56  C   UNL A   1      45.420  26.349  29.691  1.00  0.00     0.074 A 
ATOM     57  C   UNL A   1      44.736  25.335  30.494  1.00  0.00     0.031 C 
ATOM     58  C   UNL A   1      45.747  27.652  29.944  1.00  0.00     0.034 A 
BRANCH  45  59
ATOM     59  C   UNL A   1      42.883  27.058  34.558  1.00  0.00     0.023 A 
ATOM     60  C   UNL A   1      43.630  25.919  34.216  1.00  0.00     0.031 A 
ATOM     61  C   UNL A   1      41.952  26.880  35.612  1.00  0.00     0.131 A 
ATOM     62  C   UNL A   1      43.352  24.671  34.796  1.00  0.00     0.055 A 
ATOM     63  C   UNL A   1      41.717  25.647  36.224  1.00  0.00     0.041 A 
ATOM     64  F   UNL A   1      41.157  27.850  36.072  1.00  0.00    -0.206 F 
ATOM     65  C   UNL A   1      42.393  24.524  35.794  1.00  0.00     0.022 A 
BRANCH  62  66
ATOM     66  S   UNL A   1      44.148  23.210  34.093  1.00  0.00     0.124 S 
ATOM     67  O   UNL A   1      44.317  22.375  35.277  1.00  0.00    -0.237 OA
ATOM     68  O   UNL A   1      43.150  22.766  33.126  1.00  0.00    -0.237 OA
ATOM     69  O   UNL A   1      45.382  23.741  33.519  1.00  0.00    -0.744 OA
ENDBRANCH  62  66
ENDBRANCH  45  59
BRANCH  46  70
ATOM     70  C   UNL A   1      43.066  23.381  26.800  1.00  0.00     0.023 A 
ATOM     71  C   UNL A   1      43.968  22.537  26.112  1.00  0.00     0.031 A 
ATOM     72  C   UNL A   1      41.825  22.804  27.164  1.00  0.00     0.131 A 
ATOM     73  C   UNL A   1      43.612  21.195  25.815  1.00  0.00     0.055 A 
ATOM     74  C   UNL A   1      41.480  21.482  26.869  1.00  0.00     0.041 A 
ATOM     75  F   UNL A   1      40.929  23.484  27.896  1.00  0.00    -0.206 F 
ATOM     76  C   UNL A   1      42.377  20.669  26.199  1.00  0.00     0.022 A 
BRANCH  73  77
ATOM     77  S   UNL A   1      44.781  20.079  24.966  1.00  0.00     0.124 S 
ATOM     78  O   UNL A   1      46.075  20.600  25.394  1.00  0.00    -0.237 OA
ATOM     79  O   UNL A   1      44.402  18.772  25.489  1.00  0.00    -0.237 OA
ATOM     80  O   UNL A   1      44.481  20.280  23.548  1.00  0.00    -0.744 OA
ENDBRANCH  73  77
ENDBRANCH  46  70
BRANCH  58  81
ATOM     81  C   UNL A   1      46.406  28.459  28.840  1.00  0.00     0.023 A 
ATOM     82  C   UNL A   1      47.774  28.422  28.477  1.00  0.00     0.031 A 
ATOM     83  C   UNL A   1      45.537  29.217  28.034  1.00  0.00     0.131 A 
ATOM     84  C   UNL A   1      48.215  29.133  27.337  1.00  0.00     0.055 A 
ATOM     85  C   UNL A   1      45.972  29.894  26.899  1.00  0.00     0.041 A 
ATOM     86  F   UNL A   1      44.226  29.274  28.318  1.00  0.00    -0.206 F 
ATOM     87  C   UNL A   1      47.315  29.858  26.547  1.00  0.00     0.022 A 
BRANCH  84  88
ATOM     88  S   UNL A   1      49.975  29.151  26.854  1.00  0.00     0.124 S 
ATOM     89  O   UNL A   1      50.665  28.754  28.074  1.00  0.00    -0.237 OA
ATOM     90  O   UNL A   1      50.010  28.191  25.754  1.00  0.00    -0.237 OA
ATOM     91  O   UNL A   1      50.203  30.541  26.451  1.00  0.00    -0.744 OA
ENDBRANCH  84  88
ENDBRANCH  58  81
ENDBRANCH  32  33
ENDBRANCH  25  27
ENDBRANCH  24  25
ENDBRANCH  23  24
ENDBRANCH   1  23
TORSDOF 19
ENDMDL
