MODEL 1
REMARK VINA RESULT:     -10.8      0.000      0.000
REMARK SMILES CCOC(=O)[C@@H](/C=N/c1ccnn1C1CCCCC1)C(=O)OCCOC(=O)c1ccc(-c2c3nc(c(-c4cc(S(=O)(=O)[O-])ccc4F)c4ccc([nH]4)c(-c4cc(S(=O)(=O)[O-])ccc4F)c4nc(c(-c5cc(S(=O)(=O)[O-])ccc5F)c5ccc2[nH]5)C=C4)C=C3)cc1
REMARK SMILES IDX 23 1 22 2 20 3 21 4 6 5 4 6 5 7 3 8 2 9 1 10 7 11 8 12 9 13
REMARK SMILES IDX 10 14 13 15 11 16 12 17 14 18 15 19 19 20 16 21 18 22 17 23
REMARK SMILES IDX 24 24 25 25 26 26 27 27 28 28 29 29 90 30 30 31 89 32 31 33
REMARK SMILES IDX 32 34 33 35 83 36 34 37 88 38 82 39 84 40 35 41 87 42 81 43
REMARK SMILES IDX 80 44 36 46 68 47 48 48 67 49 49 50 52 51 66 52 85 53 50 54
REMARK SMILES IDX 51 55 65 57 86 58 53 59 37 60 38 61 46 62 39 63 45 64 47 65
REMARK SMILES IDX 44 66 40 67 41 68 42 69 43 70 69 71 70 72 78 73 71 74 77 75
REMARK SMILES IDX 79 76 76 77 72 78 73 79 74 80 75 81 54 82 55 83 63 84 56 85
REMARK SMILES IDX 62 86 64 87 61 88 57 89 58 90 59 91 60 92
REMARK H PARENT 84 45 52 56
REMARK Flexibility Score: inf
ROOT
ATOM      1  C   UNL A   1      37.682  21.780  25.626  1.00  0.00     0.274 C 
ENDROOT
BRANCH   1   2
ATOM      2  O   UNL A   1      36.862  22.942  25.845  1.00  0.00    -0.461 OA
BRANCH   2   3
ATOM      3  C   UNL A   1      35.515  22.742  25.929  1.00  0.00     0.326 C 
ATOM      4  O   UNL A   1      34.833  23.016  26.914  1.00  0.00    -0.251 OA
BRANCH   3   5
ATOM      5  C   UNL A   1      34.953  22.041  24.726  1.00  0.00     0.250 C 
BRANCH   5   6
ATOM      6  C   UNL A   1      33.892  21.028  25.008  1.00  0.00     0.325 C 
ATOM      7  O   UNL A   1      32.810  21.327  25.505  1.00  0.00    -0.251 OA
BRANCH   6   8
ATOM      8  O   UNL A   1      34.301  19.758  24.746  1.00  0.00    -0.465 OA
BRANCH   8   9
ATOM      9  C   UNL A   1      33.289  18.743  24.852  1.00  0.00     0.229 C 
ATOM     10  C   UNL A   1      32.484  18.651  23.569  1.00  0.00     0.049 C 
ENDBRANCH   8   9
ENDBRANCH   6   8
ENDBRANCH   5   6
BRANCH   5  11
ATOM     11  C   UNL A   1      34.551  23.025  23.673  1.00  0.00     0.113 C 
ATOM     12  N   UNL A   1      33.470  23.699  23.860  1.00  0.00    -0.240 NA
BRANCH  12  13
ATOM     13  C   UNL A   1      33.118  24.659  22.991  1.00  0.00     0.150 A 
ATOM     14  C   UNL A   1      32.891  24.692  21.636  1.00  0.00     0.070 A 
ATOM     15  N   UNL A   1      32.812  25.922  23.456  1.00  0.00    -0.245 N 
ATOM     16  C   UNL A   1      32.460  26.003  21.374  1.00  0.00     0.137 A 
ATOM     17  N   UNL A   1      32.424  26.766  22.470  1.00  0.00    -0.179 NA
BRANCH  15  18
ATOM     18  C   UNL A   1      32.880  26.401  24.840  1.00  0.00     0.110 C 
ATOM     19  C   UNL A   1      33.822  27.608  25.012  1.00  0.00     0.027 C 
ATOM     20  C   UNL A   1      31.488  26.686  25.433  1.00  0.00     0.027 C 
ATOM     21  C   UNL A   1      33.888  28.076  26.466  1.00  0.00     0.002 C 
ATOM     22  C   UNL A   1      31.578  27.152  26.887  1.00  0.00     0.002 C 
ATOM     23  C   UNL A   1      32.502  28.356  27.038  1.00  0.00     0.000 C 
ENDBRANCH  15  18
ENDBRANCH  12  13
ENDBRANCH   5  11
ENDBRANCH   3   5
ENDBRANCH   2   3
ENDBRANCH   1   2
BRANCH   1  24
ATOM     24  C   UNL A   1      39.105  21.999  26.116  1.00  0.00     0.275 C 
BRANCH  24  25
ATOM     25  O   UNL A   1      39.319  23.369  26.440  1.00  0.00    -0.458 OA
BRANCH  25  26
ATOM     26  C   UNL A   1      40.590  23.661  26.809  1.00  0.00     0.338 C 
ATOM     27  O   UNL A   1      41.608  23.163  26.366  1.00  0.00    -0.246 OA
BRANCH  26  28
ATOM     28  C   UNL A   1      40.578  24.584  27.941  1.00  0.00     0.060 A 
ATOM     29  C   UNL A   1      39.397  25.304  28.145  1.00  0.00     0.016 A 
ATOM     30  C   UNL A   1      41.799  24.959  28.511  1.00  0.00     0.016 A 
ATOM     31  C   UNL A   1      39.491  26.546  28.725  1.00  0.00     0.010 A 
ATOM     32  C   UNL A   1      41.896  26.209  29.058  1.00  0.00     0.010 A 
ATOM     33  C   UNL A   1      40.759  27.014  29.076  1.00  0.00    -0.014 A 
BRANCH  33  34
ATOM     34  C   UNL A   1      40.888  28.383  29.512  1.00  0.00     0.031 A 
ATOM     35  C   UNL A   1      41.978  29.110  28.839  1.00  0.00     0.074 A 
ATOM     36  C   UNL A   1      39.992  28.956  30.334  1.00  0.00     0.049 A 
ATOM     37  N   UNL A   1      43.078  29.540  29.354  1.00  0.00    -0.248 NA
ATOM     38  C   UNL A   1      41.915  29.212  27.373  1.00  0.00     0.031 C 
ATOM     39  C   UNL A   1      38.721  28.406  30.811  1.00  0.00     0.029 A 
ATOM     40  N   UNL A   1      39.989  30.221  30.821  1.00  0.00    -0.354 N 
ATOM     41  C   UNL A   1      43.745  30.174  28.316  1.00  0.00     0.074 A 
ATOM     42  C   UNL A   1      43.109  29.736  27.105  1.00  0.00     0.031 C 
ATOM     43  C   UNL A   1      37.978  29.407  31.335  1.00  0.00     0.029 A 
ATOM     44  C   UNL A   1      38.769  30.628  31.345  1.00  0.00     0.049 A 
ATOM     45  H   UNL A   1      40.784  30.803  30.806  1.00  0.00     0.167 HD
ATOM     46  C   UNL A   1      44.585  31.215  28.552  1.00  0.00     0.034 A 
ATOM     47  C   UNL A   1      38.420  31.895  31.683  1.00  0.00     0.034 A 
ATOM     48  C   UNL A   1      44.993  31.246  29.940  1.00  0.00     0.049 A 
ATOM     49  C   UNL A   1      39.682  32.652  31.890  1.00  0.00     0.074 A 
ATOM     50  C   UNL A   1      45.644  30.356  30.773  1.00  0.00     0.029 A 
ATOM     51  N   UNL A   1      44.382  32.155  30.777  1.00  0.00    -0.354 N 
ATOM     52  N   UNL A   1      40.527  32.385  32.848  1.00  0.00    -0.248 NA
ATOM     53  C   UNL A   1      40.248  33.383  30.763  1.00  0.00     0.031 C 
ATOM     54  C   UNL A   1      44.996  30.487  32.037  1.00  0.00     0.029 A 
ATOM     55  C   UNL A   1      44.031  31.490  31.927  1.00  0.00     0.049 A 
ATOM     56  H   UNL A   1      44.226  33.108  30.586  1.00  0.00     0.167 HD
ATOM     57  C   UNL A   1      41.783  32.517  32.274  1.00  0.00     0.074 A 
ATOM     58  C   UNL A   1      41.552  33.246  31.030  1.00  0.00     0.031 C 
ATOM     59  C   UNL A   1      42.845  31.779  32.715  1.00  0.00     0.034 A 
BRANCH  46  60
ATOM     60  C   UNL A   1      44.742  32.400  27.626  1.00  0.00     0.023 A 
ATOM     61  C   UNL A   1      44.141  33.606  28.028  1.00  0.00     0.031 A 
ATOM     62  C   UNL A   1      45.190  32.360  26.284  1.00  0.00     0.131 A 
ATOM     63  C   UNL A   1      43.920  34.645  27.110  1.00  0.00     0.055 A 
ATOM     64  C   UNL A   1      45.036  33.424  25.393  1.00  0.00     0.041 A 
ATOM     65  F   UNL A   1      45.714  31.267  25.717  1.00  0.00    -0.206 F 
ATOM     66  C   UNL A   1      44.366  34.565  25.794  1.00  0.00     0.022 A 
BRANCH  63  67
ATOM     67  S   UNL A   1      42.867  36.025  27.618  1.00  0.00     0.124 S 
ATOM     68  O   UNL A   1      42.750  35.792  29.054  1.00  0.00    -0.237 OA
ATOM     69  O   UNL A   1      43.668  37.175  27.214  1.00  0.00    -0.237 OA
ATOM     70  O   UNL A   1      41.642  35.815  26.851  1.00  0.00    -0.744 OA
ENDBRANCH  63  67
ENDBRANCH  46  60
BRANCH  47  71
ATOM     71  C   UNL A   1      37.087  32.526  31.504  1.00  0.00     0.023 A 
ATOM     72  C   UNL A   1      36.623  32.994  30.259  1.00  0.00     0.031 A 
ATOM     73  C   UNL A   1      36.142  32.472  32.555  1.00  0.00     0.131 A 
ATOM     74  C   UNL A   1      35.273  33.390  30.107  1.00  0.00     0.055 A 
ATOM     75  C   UNL A   1      34.813  32.875  32.403  1.00  0.00     0.041 A 
ATOM     76  F   UNL A   1      36.458  31.947  33.749  1.00  0.00    -0.206 F 
ATOM     77  C   UNL A   1      34.371  33.330  31.172  1.00  0.00     0.022 A 
BRANCH  74  78
ATOM     78  S   UNL A   1      34.647  33.915  28.479  1.00  0.00     0.124 S 
ATOM     79  O   UNL A   1      34.505  35.356  28.649  1.00  0.00    -0.237 OA
ATOM     80  O   UNL A   1      35.705  33.468  27.581  1.00  0.00    -0.237 OA
ATOM     81  O   UNL A   1      33.385  33.185  28.346  1.00  0.00    -0.744 OA
ENDBRANCH  74  78
ENDBRANCH  47  71
BRANCH  59  82
ATOM     82  C   UNL A   1      42.688  31.017  34.018  1.00  0.00     0.023 A 
ATOM     83  C   UNL A   1      42.268  29.670  34.113  1.00  0.00     0.031 A 
ATOM     84  C   UNL A   1      43.114  31.651  35.197  1.00  0.00     0.131 A 
ATOM     85  C   UNL A   1      42.276  29.012  35.359  1.00  0.00     0.055 A 
ATOM     86  C   UNL A   1      43.140  30.992  36.426  1.00  0.00     0.041 A 
ATOM     87  F   UNL A   1      43.557  32.919  35.166  1.00  0.00    -0.206 F 
ATOM     88  C   UNL A   1      42.716  29.669  36.513  1.00  0.00     0.022 A 
BRANCH  85  89
ATOM     89  S   UNL A   1      41.719  27.282  35.499  1.00  0.00     0.124 S 
ATOM     90  O   UNL A   1      41.066  27.239  36.802  1.00  0.00    -0.237 OA
ATOM     91  O   UNL A   1      40.845  27.133  34.338  1.00  0.00    -0.237 OA
ATOM     92  O   UNL A   1      42.964  26.515  35.418  1.00  0.00    -0.744 OA
ENDBRANCH  85  89
ENDBRANCH  59  82
ENDBRANCH  33  34
ENDBRANCH  26  28
ENDBRANCH  25  26
ENDBRANCH  24  25
ENDBRANCH   1  24
TORSDOF 20
ENDMDL
MODEL 2
REMARK VINA RESULT:     -10.6      4.550      9.571
REMARK SMILES CCOC(=O)[C@@H](/C=N/c1ccnn1C1CCCCC1)C(=O)OCCOC(=O)c1ccc(-c2c3nc(c(-c4cc(S(=O)(=O)[O-])ccc4F)c4ccc([nH]4)c(-c4cc(S(=O)(=O)[O-])ccc4F)c4nc(c(-c5cc(S(=O)(=O)[O-])ccc5F)c5ccc2[nH]5)C=C4)C=C3)cc1
REMARK SMILES IDX 23 1 22 2 20 3 21 4 6 5 4 6 5 7 3 8 2 9 1 10 7 11 8 12 9 13
REMARK SMILES IDX 10 14 13 15 11 16 12 17 14 18 15 19 19 20 16 21 18 22 17 23
REMARK SMILES IDX 24 24 25 25 26 26 27 27 28 28 29 29 90 30 30 31 89 32 31 33
REMARK SMILES IDX 32 34 33 35 83 36 34 37 88 38 82 39 84 40 35 41 87 42 81 43
REMARK SMILES IDX 80 44 36 46 68 47 48 48 67 49 49 50 52 51 66 52 85 53 50 54
REMARK SMILES IDX 51 55 65 57 86 58 53 59 37 60 38 61 46 62 39 63 45 64 47 65
REMARK SMILES IDX 44 66 40 67 41 68 42 69 43 70 69 71 70 72 78 73 71 74 77 75
REMARK SMILES IDX 79 76 76 77 72 78 73 79 74 80 75 81 54 82 55 83 63 84 56 85
REMARK SMILES IDX 62 86 64 87 61 88 57 89 58 90 59 91 60 92
REMARK H PARENT 84 45 52 56
REMARK Flexibility Score: inf
ROOT
ATOM      1  C   UNL A   1      43.389  24.165  27.556  1.00  0.00     0.274 C 
ENDROOT
BRANCH   1   2
ATOM      2  O   UNL A   1      44.312  24.881  26.718  1.00  0.00    -0.461 OA
BRANCH   2   3
ATOM      3  C   UNL A   1      44.297  24.583  25.386  1.00  0.00     0.326 C 
ATOM      4  O   UNL A   1      43.295  24.629  24.677  1.00  0.00    -0.251 OA
BRANCH   3   5
ATOM      5  C   UNL A   1      45.621  24.080  24.886  1.00  0.00     0.250 C 
BRANCH   5   6
ATOM      6  C   UNL A   1      46.793  24.963  25.163  1.00  0.00     0.325 C 
ATOM      7  O   UNL A   1      47.593  24.733  26.065  1.00  0.00    -0.251 OA
BRANCH   6   8
ATOM      8  O   UNL A   1      46.804  26.075  24.381  1.00  0.00    -0.465 OA
BRANCH   8   9
ATOM      9  C   UNL A   1      47.933  26.947  24.555  1.00  0.00     0.229 C 
ATOM     10  C   UNL A   1      48.860  26.873  23.356  1.00  0.00     0.049 C 
ENDBRANCH   8   9
ENDBRANCH   6   8
ENDBRANCH   5   6
BRANCH   5  11
ATOM     11  C   UNL A   1      45.849  22.663  25.308  1.00  0.00     0.113 C 
ATOM     12  N   UNL A   1      45.274  21.732  24.629  1.00  0.00    -0.240 NA
BRANCH  12  13
ATOM     13  C   UNL A   1      45.523  20.444  24.911  1.00  0.00     0.150 A 
ATOM     14  C   UNL A   1      46.664  19.681  24.996  1.00  0.00     0.070 A 
ATOM     15  N   UNL A   1      44.488  19.617  25.297  1.00  0.00    -0.245 N 
ATOM     16  C   UNL A   1      46.224  18.420  25.429  1.00  0.00     0.137 A 
ATOM     17  N   UNL A   1      44.900  18.362  25.600  1.00  0.00    -0.179 NA
BRANCH  15  18
ATOM     18  C   UNL A   1      43.064  19.956  25.387  1.00  0.00     0.110 C 
ATOM     19  C   UNL A   1      42.210  18.816  25.975  1.00  0.00     0.027 C 
ATOM     20  C   UNL A   1      42.821  21.281  26.133  1.00  0.00     0.027 C 
ATOM     21  C   UNL A   1      40.729  19.189  26.040  1.00  0.00     0.002 C 
ATOM     22  C   UNL A   1      41.334  21.634  26.186  1.00  0.00     0.002 C 
ATOM     23  C   UNL A   1      40.505  20.502  26.784  1.00  0.00     0.000 C 
ENDBRANCH  15  18
ENDBRANCH  12  13
ENDBRANCH   5  11
ENDBRANCH   3   5
ENDBRANCH   2   3
ENDBRANCH   1   2
BRANCH   1  24
ATOM     24  C   UNL A   1      42.362  25.098  28.181  1.00  0.00     0.275 C 
BRANCH  24  25
ATOM     25  O   UNL A   1      41.052  24.551  28.066  1.00  0.00    -0.458 OA
BRANCH  25  26
ATOM     26  C   UNL A   1      40.244  25.220  27.208  1.00  0.00     0.338 C 
ATOM     27  O   UNL A   1      40.073  24.973  26.030  1.00  0.00    -0.246 OA
BRANCH  26  28
ATOM     28  C   UNL A   1      39.690  26.400  27.867  1.00  0.00     0.060 A 
ATOM     29  C   UNL A   1      40.070  27.641  27.346  1.00  0.00     0.016 A 
ATOM     30  C   UNL A   1      39.136  26.255  29.144  1.00  0.00     0.016 A 
ATOM     31  C   UNL A   1      40.122  28.712  28.205  1.00  0.00     0.010 A 
ATOM     32  C   UNL A   1      39.221  27.314  30.006  1.00  0.00     0.010 A 
ATOM     33  C   UNL A   1      39.794  28.499  29.545  1.00  0.00    -0.014 A 
BRANCH  33  34
ATOM     34  C   UNL A   1      40.022  29.567  30.486  1.00  0.00     0.031 A 
ATOM     35  C   UNL A   1      38.849  30.437  30.679  1.00  0.00     0.074 A 
ATOM     36  C   UNL A   1      41.147  29.643  31.217  1.00  0.00     0.049 A 
ATOM     37  N   UNL A   1      38.712  31.669  30.328  1.00  0.00    -0.248 NA
ATOM     38  C   UNL A   1      37.612  29.803  31.159  1.00  0.00     0.031 C 
ATOM     39  C   UNL A   1      42.233  28.664  31.312  1.00  0.00     0.029 A 
ATOM     40  N   UNL A   1      41.493  30.584  32.131  1.00  0.00    -0.354 N 
ATOM     41  C   UNL A   1      37.444  32.032  30.756  1.00  0.00     0.074 A 
ATOM     42  C   UNL A   1      36.747  30.807  31.030  1.00  0.00     0.031 C 
ATOM     43  C   UNL A   1      42.999  28.959  32.387  1.00  0.00     0.029 A 
ATOM     44  C   UNL A   1      42.534  30.210  32.969  1.00  0.00     0.049 A 
ATOM     45  H   UNL A   1      41.045  31.459  32.195  1.00  0.00     0.167 HD
ATOM     46  C   UNL A   1      37.161  33.314  31.109  1.00  0.00     0.034 A 
ATOM     47  C   UNL A   1      42.926  30.847  34.101  1.00  0.00     0.034 A 
ATOM     48  C   UNL A   1      38.150  34.227  30.578  1.00  0.00     0.049 A 
ATOM     49  C   UNL A   1      42.422  32.242  34.010  1.00  0.00     0.074 A 
ATOM     50  C   UNL A   1      38.591  34.533  29.304  1.00  0.00     0.029 A 
ATOM     51  N   UNL A   1      39.124  34.699  31.430  1.00  0.00    -0.354 N 
ATOM     52  N   UNL A   1      42.838  33.095  33.113  1.00  0.00    -0.248 NA
ATOM     53  C   UNL A   1      41.123  32.552  34.591  1.00  0.00     0.031 C 
ATOM     54  C   UNL A   1      40.000  34.722  29.435  1.00  0.00     0.029 A 
ATOM     55  C   UNL A   1      40.332  34.585  30.785  1.00  0.00     0.049 A 
ATOM     56  H   UNL A   1      38.980  35.055  32.337  1.00  0.00     0.167 HD
ATOM     57  C   UNL A   1      41.702  33.781  32.709  1.00  0.00     0.074 A 
ATOM     58  C   UNL A   1      40.703  33.490  33.734  1.00  0.00     0.031 C 
ATOM     59  C   UNL A   1      41.591  34.284  31.443  1.00  0.00     0.034 A 
BRANCH  46  60
ATOM     60  C   UNL A   1      36.213  33.692  32.225  1.00  0.00     0.023 A 
ATOM     61  C   UNL A   1      35.221  34.642  31.924  1.00  0.00     0.031 A 
ATOM     62  C   UNL A   1      36.380  33.400  33.600  1.00  0.00     0.131 A 
ATOM     63  C   UNL A   1      34.532  35.316  32.945  1.00  0.00     0.055 A 
ATOM     64  C   UNL A   1      35.639  34.018  34.609  1.00  0.00     0.041 A 
ATOM     65  F   UNL A   1      37.327  32.578  34.066  1.00  0.00    -0.206 F 
ATOM     66  C   UNL A   1      34.731  35.009  34.287  1.00  0.00     0.022 A 
BRANCH  63  67
ATOM     67  S   UNL A   1      33.509  36.737  32.491  1.00  0.00     0.124 S 
ATOM     68  O   UNL A   1      33.626  36.731  31.036  1.00  0.00    -0.237 OA
ATOM     69  O   UNL A   1      32.211  36.355  33.036  1.00  0.00    -0.237 OA
ATOM     70  O   UNL A   1      34.166  37.854  33.164  1.00  0.00    -0.744 OA
ENDBRANCH  63  67
ENDBRANCH  46  60
BRANCH  47  71
ATOM     71  C   UNL A   1      43.406  30.212  35.356  1.00  0.00     0.023 A 
ATOM     72  C   UNL A   1      43.000  28.928  35.768  1.00  0.00     0.031 A 
ATOM     73  C   UNL A   1      44.475  30.801  36.072  1.00  0.00     0.131 A 
ATOM     74  C   UNL A   1      43.646  28.292  36.854  1.00  0.00     0.055 A 
ATOM     75  C   UNL A   1      45.102  30.174  37.150  1.00  0.00     0.041 A 
ATOM     76  F   UNL A   1      45.002  31.976  35.694  1.00  0.00    -0.206 F 
ATOM     77  C   UNL A   1      44.694  28.911  37.542  1.00  0.00     0.022 A 
BRANCH  74  78
ATOM     78  S   UNL A   1      43.181  26.598  37.337  1.00  0.00     0.124 S 
ATOM     79  O   UNL A   1      43.780  25.797  36.277  1.00  0.00    -0.237 OA
ATOM     80  O   UNL A   1      43.781  26.478  38.661  1.00  0.00    -0.237 OA
ATOM     81  O   UNL A   1      41.718  26.630  37.330  1.00  0.00    -0.744 OA
ENDBRANCH  74  78
ENDBRANCH  47  71
BRANCH  59  82
ATOM     82  C   UNL A   1      42.838  34.315  30.579  1.00  0.00     0.023 A 
ATOM     83  C   UNL A   1      43.276  33.245  29.765  1.00  0.00     0.031 A 
ATOM     84  C   UNL A   1      43.530  35.534  30.481  1.00  0.00     0.131 A 
ATOM     85  C   UNL A   1      44.377  33.417  28.902  1.00  0.00     0.055 A 
ATOM     86  C   UNL A   1      44.607  35.707  29.611  1.00  0.00     0.041 A 
ATOM     87  F   UNL A   1      43.141  36.598  31.202  1.00  0.00    -0.206 F 
ATOM     88  C   UNL A   1      45.038  34.647  28.820  1.00  0.00     0.022 A 
BRANCH  85  89
ATOM     89  S   UNL A   1      44.964  32.040  27.861  1.00  0.00     0.124 S 
ATOM     90  O   UNL A   1      45.050  30.922  28.793  1.00  0.00    -0.237 OA
ATOM     91  O   UNL A   1      43.923  31.946  26.841  1.00  0.00    -0.237 OA
ATOM     92  O   UNL A   1      46.256  32.516  27.363  1.00  0.00    -0.744 OA
ENDBRANCH  85  89
ENDBRANCH  59  82
ENDBRANCH  33  34
ENDBRANCH  26  28
ENDBRANCH  25  26
ENDBRANCH  24  25
ENDBRANCH   1  24
TORSDOF 20
ENDMDL
MODEL 3
REMARK VINA RESULT:     -10.5      2.498      7.336
REMARK SMILES CCOC(=O)[C@@H](/C=N/c1ccnn1C1CCCCC1)C(=O)OCCOC(=O)c1ccc(-c2c3nc(c(-c4cc(S(=O)(=O)[O-])ccc4F)c4ccc([nH]4)c(-c4cc(S(=O)(=O)[O-])ccc4F)c4nc(c(-c5cc(S(=O)(=O)[O-])ccc5F)c5ccc2[nH]5)C=C4)C=C3)cc1
REMARK SMILES IDX 23 1 22 2 20 3 21 4 6 5 4 6 5 7 3 8 2 9 1 10 7 11 8 12 9 13
REMARK SMILES IDX 10 14 13 15 11 16 12 17 14 18 15 19 19 20 16 21 18 22 17 23
REMARK SMILES IDX 24 24 25 25 26 26 27 27 28 28 29 29 90 30 30 31 89 32 31 33
REMARK SMILES IDX 32 34 33 35 83 36 34 37 88 38 82 39 84 40 35 41 87 42 81 43
REMARK SMILES IDX 80 44 36 46 68 47 48 48 67 49 49 50 52 51 66 52 85 53 50 54
REMARK SMILES IDX 51 55 65 57 86 58 53 59 37 60 38 61 46 62 39 63 45 64 47 65
REMARK SMILES IDX 44 66 40 67 41 68 42 69 43 70 69 71 70 72 78 73 71 74 77 75
REMARK SMILES IDX 79 76 76 77 72 78 73 79 74 80 75 81 54 82 55 83 63 84 56 85
REMARK SMILES IDX 62 86 64 87 61 88 57 89 58 90 59 91 60 92
REMARK H PARENT 84 45 52 56
REMARK Flexibility Score: inf
ROOT
ATOM      1  C   UNL A   1      37.283  22.982  25.747  1.00  0.00     0.274 C 
ENDROOT
BRANCH   1   2
ATOM      2  O   UNL A   1      36.514  24.181  25.954  1.00  0.00    -0.461 OA
BRANCH   2   3
ATOM      3  C   UNL A   1      35.158  24.072  25.847  1.00  0.00     0.326 C 
ATOM      4  O   UNL A   1      34.460  23.364  26.568  1.00  0.00    -0.251 OA
BRANCH   3   5
ATOM      5  C   UNL A   1      34.603  24.828  24.673  1.00  0.00     0.250 C 
BRANCH   5   6
ATOM      6  C   UNL A   1      33.417  24.207  24.010  1.00  0.00     0.325 C 
ATOM      7  O   UNL A   1      32.643  24.849  23.307  1.00  0.00    -0.251 OA
BRANCH   6   8
ATOM      8  O   UNL A   1      33.252  22.903  24.355  1.00  0.00    -0.465 OA
BRANCH   8   9
ATOM      9  C   UNL A   1      31.905  22.405  24.282  1.00  0.00     0.229 C 
ATOM     10  C   UNL A   1      31.221  22.507  25.633  1.00  0.00     0.049 C 
ENDBRANCH   8   9
ENDBRANCH   6   8
ENDBRANCH   5   6
BRANCH   5  11
ATOM     11  C   UNL A   1      34.388  26.268  25.018  1.00  0.00     0.113 C 
ATOM     12  N   UNL A   1      33.677  26.539  26.057  1.00  0.00    -0.240 NA
BRANCH  12  13
ATOM     13  C   UNL A   1      33.535  27.811  26.459  1.00  0.00     0.150 A 
ATOM     14  C   UNL A   1      34.375  28.740  27.025  1.00  0.00     0.070 A 
ATOM     15  N   UNL A   1      32.343  28.469  26.234  1.00  0.00    -0.245 N 
ATOM     16  C   UNL A   1      33.611  29.916  27.108  1.00  0.00     0.137 A 
ATOM     17  N   UNL A   1      32.368  29.760  26.646  1.00  0.00    -0.179 NA
BRANCH  15  18
ATOM     18  C   UNL A   1      31.123  27.919  25.635  1.00  0.00     0.110 C 
ATOM     19  C   UNL A   1      31.079  28.083  24.103  1.00  0.00     0.027 C 
ATOM     20  C   UNL A   1      30.870  26.458  26.050  1.00  0.00     0.027 C 
ATOM     21  C   UNL A   1      29.789  27.519  23.506  1.00  0.00     0.002 C 
ATOM     22  C   UNL A   1      29.576  25.915  25.443  1.00  0.00     0.002 C 
ATOM     23  C   UNL A   1      29.554  26.071  23.925  1.00  0.00     0.000 C 
ENDBRANCH  15  18
ENDBRANCH  12  13
ENDBRANCH   5  11
ENDBRANCH   3   5
ENDBRANCH   2   3
ENDBRANCH   1   2
BRANCH   1  24
ATOM     24  C   UNL A   1      38.715  23.145  26.235  1.00  0.00     0.275 C 
BRANCH  24  25
ATOM     25  O   UNL A   1      39.083  24.521  26.260  1.00  0.00    -0.458 OA
BRANCH  25  26
ATOM     26  C   UNL A   1      39.884  24.863  27.298  1.00  0.00     0.338 C 
ATOM     27  O   UNL A   1      40.843  24.239  27.712  1.00  0.00    -0.246 OA
BRANCH  26  28
ATOM     28  C   UNL A   1      39.350  26.046  27.967  1.00  0.00     0.060 A 
ATOM     29  C   UNL A   1      39.645  27.280  27.380  1.00  0.00     0.016 A 
ATOM     30  C   UNL A   1      38.910  25.925  29.290  1.00  0.00     0.016 A 
ATOM     31  C   UNL A   1      39.734  28.380  28.200  1.00  0.00     0.010 A 
ATOM     32  C   UNL A   1      39.032  27.013  30.110  1.00  0.00     0.010 A 
ATOM     33  C   UNL A   1      39.525  28.199  29.569  1.00  0.00    -0.014 A 
BRANCH  33  34
ATOM     34  C   UNL A   1      39.797  29.302  30.456  1.00  0.00     0.031 A 
ATOM     35  C   UNL A   1      38.636  30.185  30.663  1.00  0.00     0.074 A 
ATOM     36  C   UNL A   1      40.953  29.402  31.135  1.00  0.00     0.049 A 
ATOM     37  N   UNL A   1      38.489  31.403  30.269  1.00  0.00    -0.248 NA
ATOM     38  C   UNL A   1      37.418  29.577  31.220  1.00  0.00     0.031 C 
ATOM     39  C   UNL A   1      42.038  28.422  31.223  1.00  0.00     0.029 A 
ATOM     40  N   UNL A   1      41.340  30.377  31.995  1.00  0.00    -0.354 N 
ATOM     41  C   UNL A   1      37.240  31.789  30.736  1.00  0.00     0.074 A 
ATOM     42  C   UNL A   1      36.552  30.579  31.088  1.00  0.00     0.031 C 
ATOM     43  C   UNL A   1      42.849  28.756  32.252  1.00  0.00     0.029 A 
ATOM     44  C   UNL A   1      42.414  30.031  32.802  1.00  0.00     0.049 A 
ATOM     45  H   UNL A   1      40.897  31.255  32.043  1.00  0.00     0.167 HD
ATOM     46  C   UNL A   1      36.977  33.085  31.049  1.00  0.00     0.034 A 
ATOM     47  C   UNL A   1      42.856  30.711  33.891  1.00  0.00     0.034 A 
ATOM     48  C   UNL A   1      37.945  33.972  30.440  1.00  0.00     0.049 A 
ATOM     49  C   UNL A   1      42.353  32.104  33.765  1.00  0.00     0.074 A 
ATOM     50  C   UNL A   1      38.333  34.224  29.138  1.00  0.00     0.029 A 
ATOM     51  N   UNL A   1      38.956  34.472  31.231  1.00  0.00    -0.354 N 
ATOM     52  N   UNL A   1      42.733  32.918  32.819  1.00  0.00    -0.248 NA
ATOM     53  C   UNL A   1      41.080  32.443  34.388  1.00  0.00     0.031 C 
ATOM     54  C   UNL A   1      39.747  34.412  29.202  1.00  0.00     0.029 A 
ATOM     55  C   UNL A   1      40.135  34.327  30.541  1.00  0.00     0.049 A 
ATOM     56  H   UNL A   1      38.852  34.865  32.128  1.00  0.00     0.167 HD
ATOM     57  C   UNL A   1      41.584  33.593  32.436  1.00  0.00     0.074 A 
ATOM     58  C   UNL A   1      40.628  33.348  33.512  1.00  0.00     0.031 C 
ATOM     59  C   UNL A   1      41.420  34.046  31.156  1.00  0.00     0.034 A 
BRANCH  46  60
ATOM     60  C   UNL A   1      36.078  33.512  32.188  1.00  0.00     0.023 A 
ATOM     61  C   UNL A   1      34.928  34.246  31.851  1.00  0.00     0.031 A 
ATOM     62  C   UNL A   1      36.404  33.487  33.565  1.00  0.00     0.131 A 
ATOM     63  C   UNL A   1      34.229  34.981  32.821  1.00  0.00     0.055 A 
ATOM     64  C   UNL A   1      35.662  34.159  34.539  1.00  0.00     0.041 A 
ATOM     65  F   UNL A   1      37.505  32.900  34.049  1.00  0.00    -0.206 F 
ATOM     66  C   UNL A   1      34.586  34.941  34.166  1.00  0.00     0.022 A 
BRANCH  63  67
ATOM     67  S   UNL A   1      32.961  36.145  32.263  1.00  0.00     0.124 S 
ATOM     68  O   UNL A   1      33.341  36.348  30.869  1.00  0.00    -0.237 OA
ATOM     69  O   UNL A   1      31.737  35.384  32.495  1.00  0.00    -0.237 OA
ATOM     70  O   UNL A   1      33.154  37.299  33.137  1.00  0.00    -0.744 OA
ENDBRANCH  63  67
ENDBRANCH  46  60
BRANCH  47  71
ATOM     71  C   UNL A   1      43.386  30.124  35.149  1.00  0.00     0.023 A 
ATOM     72  C   UNL A   1      43.136  28.794  35.539  1.00  0.00     0.031 A 
ATOM     73  C   UNL A   1      44.359  30.832  35.893  1.00  0.00     0.131 A 
ATOM     74  C   UNL A   1      43.834  28.230  36.631  1.00  0.00     0.055 A 
ATOM     75  C   UNL A   1      45.039  30.274  36.978  1.00  0.00     0.041 A 
ATOM     76  F   UNL A   1      44.743  32.069  35.539  1.00  0.00    -0.206 F 
ATOM     77  C   UNL A   1      44.783  28.965  37.347  1.00  0.00     0.022 A 
BRANCH  74  78
ATOM     78  S   UNL A   1      43.576  26.485  37.086  1.00  0.00     0.124 S 
ATOM     79  O   UNL A   1      42.288  26.528  37.766  1.00  0.00    -0.237 OA
ATOM     80  O   UNL A   1      43.605  25.819  35.789  1.00  0.00    -0.237 OA
ATOM     81  O   UNL A   1      44.718  26.184  37.951  1.00  0.00    -0.744 OA
ENDBRANCH  74  78
ENDBRANCH  47  71
BRANCH  59  82
ATOM     82  C   UNL A   1      42.629  34.037  30.240  1.00  0.00     0.023 A 
ATOM     83  C   UNL A   1      42.963  32.978  29.364  1.00  0.00     0.031 A 
ATOM     84  C   UNL A   1      43.394  35.212  30.161  1.00  0.00     0.131 A 
ATOM     85  C   UNL A   1      44.036  33.118  28.461  1.00  0.00     0.055 A 
ATOM     86  C   UNL A   1      44.443  35.356  29.253  1.00  0.00     0.041 A 
ATOM     87  F   UNL A   1      43.105  36.266  30.943  1.00  0.00    -0.206 F 
ATOM     88  C   UNL A   1      44.771  34.306  28.401  1.00  0.00     0.022 A 
BRANCH  85  89
ATOM     89  S   UNL A   1      44.489  31.754  27.339  1.00  0.00     0.124 S 
ATOM     90  O   UNL A   1      45.915  31.575  27.580  1.00  0.00    -0.237 OA
ATOM     91  O   UNL A   1      43.621  30.669  27.790  1.00  0.00    -0.237 OA
ATOM     92  O   UNL A   1      44.158  32.278  26.012  1.00  0.00    -0.744 OA
ENDBRANCH  85  89
ENDBRANCH  59  82
ENDBRANCH  33  34
ENDBRANCH  26  28
ENDBRANCH  25  26
ENDBRANCH  24  25
ENDBRANCH   1  24
TORSDOF 20
ENDMDL
