MODEL 1
REMARK VINA RESULT:     -11.3      0.000      0.000
REMARK SMILES CC(C)(C)[C@](O)(c1ccc(C(=O)OCCOC(=O)c2ccc(-c3c4nc(c(-c5cc(S(=O)(=O)[O-])ccc5F)c5ccc([nH]5)c(-c5cc(S(=O)(=O)[O-])ccc5F)c5nc(c(-c6cc(S(=O)(=O)[O-])ccc6F)c6ccc3[nH]6)C=C5)C=C4)cc2)cc1)c1ccc(C(F)(F)F)cc1
REMARK SMILES IDX 14 1 13 2 11 3 12 4 10 5 7 6 8 7 83 8 9 9 82 10 5 11 2 12
REMARK SMILES IDX 1 13 3 14 4 15 84 16 85 17 93 18 86 19 92 20 87 21 88 22
REMARK SMILES IDX 89 23 90 24 91 25 6 26 15 28 16 29 17 30 18 31 19 32 20 33
REMARK SMILES IDX 81 34 21 35 80 36 22 37 23 38 24 39 74 40 25 41 79 42 73 43
REMARK SMILES IDX 75 44 26 45 78 46 72 47 71 48 27 50 59 51 39 52 58 53 40 54
REMARK SMILES IDX 43 55 57 56 76 57 41 58 42 59 56 61 77 62 44 63 28 64 29 65
REMARK SMILES IDX 37 66 30 67 36 68 38 69 35 70 31 71 32 72 33 73 34 74 60 75
REMARK SMILES IDX 61 76 69 77 62 78 68 79 70 80 67 81 63 82 64 83 65 84 66 85
REMARK SMILES IDX 45 86 46 87 54 88 47 89 53 90 55 91 52 92 48 93 49 94 50 95
REMARK SMILES IDX 51 96
REMARK H PARENT 6 27 75 49 43 60
REMARK Flexibility Score: inf
ROOT
ATOM      1  C   UNL A   1      33.073  33.970  27.968  1.00  0.00     0.275 C 
ENDROOT
BRANCH   1   2
ATOM      2  O   UNL A   1      34.195  33.132  27.621  1.00  0.00    -0.458 OA
BRANCH   2   3
ATOM      3  C   UNL A   1      34.274  31.971  28.309  1.00  0.00     0.338 C 
ATOM      4  O   UNL A   1      34.747  31.815  29.426  1.00  0.00    -0.246 OA
BRANCH   3   5
ATOM      5  C   UNL A   1      33.665  30.859  27.555  1.00  0.00     0.060 A 
ATOM      6  C   UNL A   1      32.723  28.853  25.782  1.00  0.00    -0.011 A 
ATOM      7  C   UNL A   1      33.978  28.755  26.406  1.00  0.00     0.008 A 
ATOM      8  C   UNL A   1      31.964  30.009  26.064  1.00  0.00     0.008 A 
ATOM      9  C   UNL A   1      34.434  29.735  27.278  1.00  0.00     0.016 A 
ATOM     10  C   UNL A   1      32.413  30.991  26.964  1.00  0.00     0.016 A 
BRANCH   6  11
ATOM     11  C   UNL A   1      32.304  27.774  24.752  1.00  0.00     0.119 C 
BRANCH  11  12
ATOM     12  C   UNL A   1      32.564  28.127  23.166  1.00  0.00    -0.001 C 
ATOM     13  C   UNL A   1      32.484  26.844  22.274  1.00  0.00     0.014 C 
ATOM     14  C   UNL A   1      33.952  28.732  22.863  1.00  0.00     0.014 C 
ATOM     15  C   UNL A   1      31.521  29.086  22.541  1.00  0.00     0.014 C 
ENDBRANCH  11  12
BRANCH  11  16
ATOM     16  C   UNL A   1      32.758  26.394  25.315  1.00  0.00    -0.011 A 
ATOM     17  C   UNL A   1      31.894  25.519  25.988  1.00  0.00     0.008 A 
ATOM     18  C   UNL A   1      34.065  25.909  25.063  1.00  0.00     0.008 A 
ATOM     19  C   UNL A   1      32.355  24.310  26.530  1.00  0.00     0.013 A 
ATOM     20  C   UNL A   1      34.525  24.694  25.579  1.00  0.00     0.013 A 
ATOM     21  C   UNL A   1      33.681  23.894  26.349  1.00  0.00     0.056 A 
BRANCH  21  22
ATOM     22  C   UNL A   1      34.182  22.624  26.991  1.00  0.00     0.416 C 
ATOM     23  F   UNL A   1      34.520  22.814  28.298  1.00  0.00    -0.166 F 
ATOM     24  F   UNL A   1      33.246  21.633  26.996  1.00  0.00    -0.166 F 
ATOM     25  F   UNL A   1      35.284  22.097  26.392  1.00  0.00    -0.166 F 
ENDBRANCH  21  22
ENDBRANCH  11  16
BRANCH  11  26
ATOM     26  O   UNL A   1      30.851  27.731  24.833  1.00  0.00    -0.380 OA
ATOM     27  H   UNL A   1      30.578  27.758  25.764  1.00  0.00     0.212 HD
ENDBRANCH  11  26
ENDBRANCH   6  11
ENDBRANCH   3   5
ENDBRANCH   2   3
ENDBRANCH   1   2
BRANCH   1  28
ATOM     28  C   UNL A   1      33.440  35.009  29.031  1.00  0.00     0.275 C 
BRANCH  28  29
ATOM     29  O   UNL A   1      32.600  34.894  30.194  1.00  0.00    -0.458 OA
BRANCH  29  30
ATOM     30  C   UNL A   1      32.939  35.715  31.213  1.00  0.00     0.338 C 
ATOM     31  O   UNL A   1      32.487  36.823  31.443  1.00  0.00    -0.246 OA
BRANCH  30  32
ATOM     32  C   UNL A   1      33.911  35.074  32.110  1.00  0.00     0.060 A 
ATOM     33  C   UNL A   1      35.186  35.618  32.186  1.00  0.00     0.016 A 
ATOM     34  C   UNL A   1      33.661  33.812  32.645  1.00  0.00     0.016 A 
ATOM     35  C   UNL A   1      36.251  34.828  32.599  1.00  0.00     0.010 A 
ATOM     36  C   UNL A   1      34.709  33.098  33.243  1.00  0.00     0.010 A 
ATOM     37  C   UNL A   1      36.032  33.571  33.181  1.00  0.00    -0.014 A 
BRANCH  37  38
ATOM     38  C   UNL A   1      37.185  32.779  33.713  1.00  0.00     0.031 A 
ATOM     39  C   UNL A   1      37.790  33.103  35.059  1.00  0.00     0.074 A 
ATOM     40  C   UNL A   1      37.691  31.755  32.991  1.00  0.00     0.049 A 
ATOM     41  N   UNL A   1      38.908  32.674  35.590  1.00  0.00    -0.248 NA
ATOM     42  C   UNL A   1      37.053  34.050  35.908  1.00  0.00     0.031 C 
ATOM     43  C   UNL A   1      37.178  31.291  31.698  1.00  0.00     0.029 A 
ATOM     44  N   UNL A   1      38.745  30.909  33.239  1.00  0.00    -0.354 N 
ATOM     45  C   UNL A   1      39.038  33.342  36.805  1.00  0.00     0.074 A 
ATOM     46  C   UNL A   1      37.893  34.220  36.919  1.00  0.00     0.031 C 
ATOM     47  C   UNL A   1      37.871  30.217  31.301  1.00  0.00     0.029 A 
ATOM     48  C   UNL A   1      38.971  30.000  32.229  1.00  0.00     0.049 A 
ATOM     49  H   UNL A   1      39.288  30.948  34.059  1.00  0.00     0.167 HD
ATOM     50  C   UNL A   1      40.024  33.231  37.734  1.00  0.00     0.034 A 
ATOM     51  C   UNL A   1      39.981  29.135  32.020  1.00  0.00     0.034 A 
ATOM     52  C   UNL A   1      41.138  32.317  37.614  1.00  0.00     0.049 A 
ATOM     53  C   UNL A   1      41.102  29.087  33.019  1.00  0.00     0.074 A 
ATOM     54  C   UNL A   1      42.181  32.107  38.500  1.00  0.00     0.029 A 
ATOM     55  N   UNL A   1      41.354  31.457  36.542  1.00  0.00    -0.354 N 
ATOM     56  N   UNL A   1      41.244  29.769  34.132  1.00  0.00    -0.248 NA
ATOM     57  C   UNL A   1      42.205  28.165  32.729  1.00  0.00     0.031 C 
ATOM     58  C   UNL A   1      43.066  31.186  37.931  1.00  0.00     0.029 A 
ATOM     59  C   UNL A   1      42.532  30.746  36.731  1.00  0.00     0.049 A 
ATOM     60  H   UNL A   1      40.759  31.366  35.764  1.00  0.00     0.167 HD
ATOM     61  C   UNL A   1      42.445  29.339  34.687  1.00  0.00     0.074 A 
ATOM     62  C   UNL A   1      42.973  28.324  33.796  1.00  0.00     0.031 C 
ATOM     63  C   UNL A   1      43.055  29.745  35.829  1.00  0.00     0.034 A 
BRANCH  50  64
ATOM     64  C   UNL A   1      39.979  34.165  38.924  1.00  0.00     0.023 A 
ATOM     65  C   UNL A   1      39.257  33.863  40.093  1.00  0.00     0.031 A 
ATOM     66  C   UNL A   1      40.657  35.398  38.877  1.00  0.00     0.131 A 
ATOM     67  C   UNL A   1      39.167  34.809  41.126  1.00  0.00     0.055 A 
ATOM     68  C   UNL A   1      40.635  36.297  39.945  1.00  0.00     0.041 A 
ATOM     69  F   UNL A   1      41.347  35.757  37.782  1.00  0.00    -0.206 F 
ATOM     70  C   UNL A   1      39.872  36.013  41.072  1.00  0.00     0.022 A 
BRANCH  67  71
ATOM     71  S   UNL A   1      37.988  34.512  42.473  1.00  0.00     0.124 S 
ATOM     72  O   UNL A   1      36.718  34.487  41.752  1.00  0.00    -0.237 OA
ATOM     73  O   UNL A   1      38.441  33.237  43.016  1.00  0.00    -0.237 OA
ATOM     74  O   UNL A   1      38.172  35.665  43.352  1.00  0.00    -0.744 OA
ENDBRANCH  67  71
ENDBRANCH  50  64
BRANCH  51  75
ATOM     75  C   UNL A   1      40.022  28.309  30.776  1.00  0.00     0.023 A 
ATOM     76  C   UNL A   1      40.856  28.657  29.704  1.00  0.00     0.031 A 
ATOM     77  C   UNL A   1      39.202  27.173  30.631  1.00  0.00     0.131 A 
ATOM     78  C   UNL A   1      40.824  27.903  28.521  1.00  0.00     0.055 A 
ATOM     79  C   UNL A   1      39.227  26.385  29.480  1.00  0.00     0.041 A 
ATOM     80  F   UNL A   1      38.379  26.796  31.622  1.00  0.00    -0.206 F 
ATOM     81  C   UNL A   1      40.032  26.756  28.410  1.00  0.00     0.022 A 
BRANCH  78  82
ATOM     82  S   UNL A   1      41.763  28.497  27.089  1.00  0.00     0.124 S 
ATOM     83  O   UNL A   1      42.626  29.502  27.698  1.00  0.00    -0.237 OA
ATOM     84  O   UNL A   1      42.422  27.278  26.631  1.00  0.00    -0.237 OA
ATOM     85  O   UNL A   1      40.729  29.018  26.197  1.00  0.00    -0.744 OA
ENDBRANCH  78  82
ENDBRANCH  51  75
BRANCH  63  86
ATOM     86  C   UNL A   1      44.340  29.047  36.199  1.00  0.00     0.023 A 
ATOM     87  C   UNL A   1      44.349  27.870  36.968  1.00  0.00     0.031 A 
ATOM     88  C   UNL A   1      45.576  29.583  35.796  1.00  0.00     0.131 A 
ATOM     89  C   UNL A   1      45.570  27.304  37.365  1.00  0.00     0.055 A 
ATOM     90  C   UNL A   1      46.786  28.976  36.133  1.00  0.00     0.041 A 
ATOM     91  F   UNL A   1      45.628  30.709  35.067  1.00  0.00    -0.206 F 
ATOM     92  C   UNL A   1      46.788  27.838  36.935  1.00  0.00     0.022 A 
BRANCH  89  93
ATOM     93  S   UNL A   1      45.548  25.926  38.544  1.00  0.00     0.124 S 
ATOM     94  O   UNL A   1      45.235  26.605  39.797  1.00  0.00    -0.237 OA
ATOM     95  O   UNL A   1      44.499  25.069  38.003  1.00  0.00    -0.237 OA
ATOM     96  O   UNL A   1      46.902  25.379  38.456  1.00  0.00    -0.744 OA
ENDBRANCH  89  93
ENDBRANCH  63  86
ENDBRANCH  37  38
ENDBRANCH  30  32
ENDBRANCH  29  30
ENDBRANCH  28  29
ENDBRANCH   1  28
TORSDOF 19
ENDMDL
MODEL 2
REMARK VINA RESULT:     -11.3      0.932      7.669
REMARK SMILES CC(C)(C)[C@](O)(c1ccc(C(=O)OCCOC(=O)c2ccc(-c3c4nc(c(-c5cc(S(=O)(=O)[O-])ccc5F)c5ccc([nH]5)c(-c5cc(S(=O)(=O)[O-])ccc5F)c5nc(c(-c6cc(S(=O)(=O)[O-])ccc6F)c6ccc3[nH]6)C=C5)C=C4)cc2)cc1)c1ccc(C(F)(F)F)cc1
REMARK SMILES IDX 14 1 13 2 11 3 12 4 10 5 7 6 8 7 83 8 9 9 82 10 5 11 2 12
REMARK SMILES IDX 1 13 3 14 4 15 84 16 85 17 93 18 86 19 92 20 87 21 88 22
REMARK SMILES IDX 89 23 90 24 91 25 6 26 15 28 16 29 17 30 18 31 19 32 20 33
REMARK SMILES IDX 81 34 21 35 80 36 22 37 23 38 24 39 74 40 25 41 79 42 73 43
REMARK SMILES IDX 75 44 26 45 78 46 72 47 71 48 27 50 59 51 39 52 58 53 40 54
REMARK SMILES IDX 43 55 57 56 76 57 41 58 42 59 56 61 77 62 44 63 28 64 29 65
REMARK SMILES IDX 37 66 30 67 36 68 38 69 35 70 31 71 32 72 33 73 34 74 60 75
REMARK SMILES IDX 61 76 69 77 62 78 68 79 70 80 67 81 63 82 64 83 65 84 66 85
REMARK SMILES IDX 45 86 46 87 54 88 47 89 53 90 55 91 52 92 48 93 49 94 50 95
REMARK SMILES IDX 51 96
REMARK H PARENT 6 27 75 49 43 60
REMARK Flexibility Score: inf
ROOT
ATOM      1  C   UNL A   1      34.692  33.889  28.148  1.00  0.00     0.275 C 
ENDROOT
BRANCH   1   2
ATOM      2  O   UNL A   1      33.892  32.724  27.855  1.00  0.00    -0.458 OA
BRANCH   2   3
ATOM      3  C   UNL A   1      34.469  31.542  28.170  1.00  0.00     0.338 C 
ATOM      4  O   UNL A   1      35.393  31.368  28.952  1.00  0.00    -0.246 OA
BRANCH   3   5
ATOM      5  C   UNL A   1      33.815  30.423  27.470  1.00  0.00     0.060 A 
ATOM      6  C   UNL A   1      32.778  28.382  25.791  1.00  0.00    -0.011 A 
ATOM      7  C   UNL A   1      34.044  28.271  26.390  1.00  0.00     0.008 A 
ATOM      8  C   UNL A   1      32.057  29.568  26.048  1.00  0.00     0.008 A 
ATOM      9  C   UNL A   1      34.547  29.268  27.217  1.00  0.00     0.016 A 
ATOM     10  C   UNL A   1      32.553  30.568  26.902  1.00  0.00     0.016 A 
BRANCH   6  11
ATOM     11  C   UNL A   1      32.307  27.279  24.810  1.00  0.00     0.119 C 
BRANCH  11  12
ATOM     12  C   UNL A   1      32.280  27.675  23.213  1.00  0.00    -0.001 C 
ATOM     13  C   UNL A   1      33.535  28.517  22.810  1.00  0.00     0.014 C 
ATOM     14  C   UNL A   1      31.073  28.540  22.787  1.00  0.00     0.014 C 
ATOM     15  C   UNL A   1      32.313  26.463  22.249  1.00  0.00     0.014 C 
ENDBRANCH  11  12
BRANCH  11  16
ATOM     16  C   UNL A   1      32.973  25.944  25.257  1.00  0.00    -0.011 A 
ATOM     17  C   UNL A   1      34.276  25.577  24.892  1.00  0.00     0.008 A 
ATOM     18  C   UNL A   1      32.312  25.079  26.164  1.00  0.00     0.008 A 
ATOM     19  C   UNL A   1      34.818  24.339  25.267  1.00  0.00     0.013 A 
ATOM     20  C   UNL A   1      32.857  23.855  26.562  1.00  0.00     0.013 A 
ATOM     21  C   UNL A   1      34.107  23.455  26.090  1.00  0.00     0.056 A 
BRANCH  21  22
ATOM     22  C   UNL A   1      34.674  22.101  26.434  1.00  0.00     0.416 C 
ATOM     23  F   UNL A   1      34.186  21.123  25.619  1.00  0.00    -0.166 F 
ATOM     24  F   UNL A   1      36.030  22.048  26.295  1.00  0.00    -0.166 F 
ATOM     25  F   UNL A   1      34.410  21.695  27.705  1.00  0.00    -0.166 F 
ENDBRANCH  21  22
ENDBRANCH  11  16
BRANCH  11  26
ATOM     26  O   UNL A   1      30.896  27.093  25.114  1.00  0.00    -0.380 OA
ATOM     27  H   UNL A   1      30.784  26.976  26.071  1.00  0.00     0.212 HD
ENDBRANCH  11  26
ENDBRANCH   6  11
ENDBRANCH   3   5
ENDBRANCH   2   3
ENDBRANCH   1   2
BRANCH   1  28
ATOM     28  C   UNL A   1      33.853  35.026  28.736  1.00  0.00     0.275 C 
BRANCH  28  29
ATOM     29  O   UNL A   1      33.013  34.562  29.808  1.00  0.00    -0.458 OA
BRANCH  29  30
ATOM     30  C   UNL A   1      33.193  35.211  30.981  1.00  0.00     0.338 C 
ATOM     31  O   UNL A   1      32.556  36.163  31.398  1.00  0.00    -0.246 OA
BRANCH  30  32
ATOM     32  C   UNL A   1      34.247  34.573  31.784  1.00  0.00     0.060 A 
ATOM     33  C   UNL A   1      35.318  35.355  32.192  1.00  0.00     0.016 A 
ATOM     34  C   UNL A   1      34.317  33.186  31.892  1.00  0.00     0.016 A 
ATOM     35  C   UNL A   1      36.530  34.755  32.507  1.00  0.00     0.010 A 
ATOM     36  C   UNL A   1      35.482  32.594  32.400  1.00  0.00     0.010 A 
ATOM     37  C   UNL A   1      36.628  33.366  32.665  1.00  0.00    -0.014 A 
BRANCH  37  38
ATOM     38  C   UNL A   1      37.918  32.748  33.104  1.00  0.00     0.031 A 
ATOM     39  C   UNL A   1      38.572  31.660  32.286  1.00  0.00     0.074 A 
ATOM     40  C   UNL A   1      38.514  33.167  34.242  1.00  0.00     0.049 A 
ATOM     41  N   UNL A   1      39.566  30.868  32.603  1.00  0.00    -0.248 NA
ATOM     42  C   UNL A   1      38.024  31.418  30.943  1.00  0.00     0.031 C 
ATOM     43  C   UNL A   1      38.028  34.245  35.111  1.00  0.00     0.029 A 
ATOM     44  N   UNL A   1      39.665  32.748  34.867  1.00  0.00    -0.354 N 
ATOM     45  C   UNL A   1      39.722  29.996  31.528  1.00  0.00     0.074 A 
ATOM     46  C   UNL A   1      38.705  30.347  30.560  1.00  0.00     0.031 C 
ATOM     47  C   UNL A   1      38.897  34.441  36.109  1.00  0.00     0.029 A 
ATOM     48  C   UNL A   1      39.925  33.414  36.044  1.00  0.00     0.049 A 
ATOM     49  H   UNL A   1      40.247  32.039  34.508  1.00  0.00     0.167 HD
ATOM     50  C   UNL A   1      40.629  28.996  31.370  1.00  0.00     0.034 A 
ATOM     51  C   UNL A   1      40.837  33.189  37.009  1.00  0.00     0.034 A 
ATOM     52  C   UNL A   1      41.660  28.691  32.335  1.00  0.00     0.049 A 
ATOM     53  C   UNL A   1      41.777  32.028  36.852  1.00  0.00     0.074 A 
ATOM     54  C   UNL A   1      42.642  27.717  32.270  1.00  0.00     0.029 A 
ATOM     55  N   UNL A   1      41.848  29.357  33.542  1.00  0.00    -0.354 N 
ATOM     56  N   UNL A   1      41.873  31.173  35.859  1.00  0.00    -0.248 NA
ATOM     57  C   UNL A   1      42.723  31.792  37.948  1.00  0.00     0.031 C 
ATOM     58  C   UNL A   1      43.367  27.739  33.466  1.00  0.00     0.029 A 
ATOM     59  C   UNL A   1      42.904  28.788  34.242  1.00  0.00     0.049 A 
ATOM     60  H   UNL A   1      41.310  30.120  33.854  1.00  0.00     0.167 HD
ATOM     61  C   UNL A   1      42.908  30.311  36.203  1.00  0.00     0.074 A 
ATOM     62  C   UNL A   1      43.417  30.764  37.484  1.00  0.00     0.031 C 
ATOM     63  C   UNL A   1      43.394  29.241  35.524  1.00  0.00     0.034 A 
BRANCH  50  64
ATOM     64  C   UNL A   1      40.504  28.120  30.142  1.00  0.00     0.023 A 
ATOM     65  C   UNL A   1      41.361  28.247  29.034  1.00  0.00     0.031 A 
ATOM     66  C   UNL A   1      39.486  27.149  30.072  1.00  0.00     0.131 A 
ATOM     67  C   UNL A   1      41.137  27.476  27.882  1.00  0.00     0.055 A 
ATOM     68  C   UNL A   1      39.325  26.325  28.956  1.00  0.00     0.041 A 
ATOM     69  F   UNL A   1      38.621  26.990  31.086  1.00  0.00    -0.206 F 
ATOM     70  C   UNL A   1      40.142  26.498  27.844  1.00  0.00     0.022 A 
BRANCH  67  71
ATOM     71  S   UNL A   1      42.062  27.882  26.375  1.00  0.00     0.124 S 
ATOM     72  O   UNL A   1      41.505  26.926  25.421  1.00  0.00    -0.237 OA
ATOM     73  O   UNL A   1      41.714  29.281  26.156  1.00  0.00    -0.237 OA
ATOM     74  O   UNL A   1      43.454  27.636  26.749  1.00  0.00    -0.744 OA
ENDBRANCH  67  71
ENDBRANCH  50  64
BRANCH  51  75
ATOM     75  C   UNL A   1      40.848  34.028  38.245  1.00  0.00     0.023 A 
ATOM     76  C   UNL A   1      39.955  33.777  39.297  1.00  0.00     0.031 A 
ATOM     77  C   UNL A   1      41.736  35.113  38.379  1.00  0.00     0.131 A 
ATOM     78  C   UNL A   1      39.941  34.622  40.418  1.00  0.00     0.055 A 
ATOM     79  C   UNL A   1      41.765  35.906  39.527  1.00  0.00     0.041 A 
ATOM     80  F   UNL A   1      42.608  35.404  37.402  1.00  0.00    -0.206 F 
ATOM     81  C   UNL A   1      40.854  35.671  40.550  1.00  0.00     0.022 A 
BRANCH  78  82
ATOM     82  S   UNL A   1      38.643  34.389  41.661  1.00  0.00     0.124 S 
ATOM     83  O   UNL A   1      39.428  34.199  42.876  1.00  0.00    -0.237 OA
ATOM     84  O   UNL A   1      37.903  35.644  41.566  1.00  0.00    -0.237 OA
ATOM     85  O   UNL A   1      37.926  33.207  41.188  1.00  0.00    -0.744 OA
ENDBRANCH  78  82
ENDBRANCH  51  75
BRANCH  63  86
ATOM     86  C   UNL A   1      44.570  28.523  36.137  1.00  0.00     0.023 A 
ATOM     87  C   UNL A   1      44.410  27.588  37.175  1.00  0.00     0.031 A 
ATOM     88  C   UNL A   1      45.875  28.799  35.693  1.00  0.00     0.131 A 
ATOM     89  C   UNL A   1      45.538  27.012  37.778  1.00  0.00     0.055 A 
ATOM     90  C   UNL A   1      46.990  28.170  36.247  1.00  0.00     0.041 A 
ATOM     91  F   UNL A   1      46.089  29.689  34.711  1.00  0.00    -0.206 F 
ATOM     92  C   UNL A   1      46.826  27.282  37.306  1.00  0.00     0.022 A 
BRANCH  89  93
ATOM     93  S   UNL A   1      45.309  25.992  39.260  1.00  0.00     0.124 S 
ATOM     94  O   UNL A   1      46.493  26.327  40.044  1.00  0.00    -0.237 OA
ATOM     95  O   UNL A   1      44.038  26.482  39.783  1.00  0.00    -0.237 OA
ATOM     96  O   UNL A   1      45.278  24.628  38.734  1.00  0.00    -0.744 OA
ENDBRANCH  89  93
ENDBRANCH  63  86
ENDBRANCH  37  38
ENDBRANCH  30  32
ENDBRANCH  29  30
ENDBRANCH  28  29
ENDBRANCH   1  28
TORSDOF 19
ENDMDL
MODEL 3
REMARK VINA RESULT:     -11.2      6.517     12.304
REMARK SMILES CC(C)(C)[C@](O)(c1ccc(C(=O)OCCOC(=O)c2ccc(-c3c4nc(c(-c5cc(S(=O)(=O)[O-])ccc5F)c5ccc([nH]5)c(-c5cc(S(=O)(=O)[O-])ccc5F)c5nc(c(-c6cc(S(=O)(=O)[O-])ccc6F)c6ccc3[nH]6)C=C5)C=C4)cc2)cc1)c1ccc(C(F)(F)F)cc1
REMARK SMILES IDX 14 1 13 2 11 3 12 4 10 5 7 6 8 7 83 8 9 9 82 10 5 11 2 12
REMARK SMILES IDX 1 13 3 14 4 15 84 16 85 17 93 18 86 19 92 20 87 21 88 22
REMARK SMILES IDX 89 23 90 24 91 25 6 26 15 28 16 29 17 30 18 31 19 32 20 33
REMARK SMILES IDX 81 34 21 35 80 36 22 37 23 38 24 39 74 40 25 41 79 42 73 43
REMARK SMILES IDX 75 44 26 45 78 46 72 47 71 48 27 50 59 51 39 52 58 53 40 54
REMARK SMILES IDX 43 55 57 56 76 57 41 58 42 59 56 61 77 62 44 63 28 64 29 65
REMARK SMILES IDX 37 66 30 67 36 68 38 69 35 70 31 71 32 72 33 73 34 74 60 75
REMARK SMILES IDX 61 76 69 77 62 78 68 79 70 80 67 81 63 82 64 83 65 84 66 85
REMARK SMILES IDX 45 86 46 87 54 88 47 89 53 90 55 91 52 92 48 93 49 94 50 95
REMARK SMILES IDX 51 96
REMARK H PARENT 6 27 75 49 43 60
REMARK Flexibility Score: inf
ROOT
ATOM      1  C   UNL A   1      40.001  21.156  26.605  1.00  0.00     0.275 C 
ENDROOT
BRANCH   1   2
ATOM      2  O   UNL A   1      38.950  21.622  25.733  1.00  0.00    -0.458 OA
BRANCH   2   3
ATOM      3  C   UNL A   1      38.494  22.866  26.004  1.00  0.00     0.338 C 
ATOM      4  O   UNL A   1      39.111  23.764  26.559  1.00  0.00    -0.246 OA
BRANCH   3   5
ATOM      5  C   UNL A   1      37.120  23.054  25.504  1.00  0.00     0.060 A 
ATOM      6  C   UNL A   1      34.607  23.785  24.405  1.00  0.00    -0.011 A 
ATOM      7  C   UNL A   1      35.654  23.309  23.598  1.00  0.00     0.008 A 
ATOM      8  C   UNL A   1      34.874  23.902  25.786  1.00  0.00     0.008 A 
ATOM      9  C   UNL A   1      36.881  22.946  24.139  1.00  0.00     0.016 A 
ATOM     10  C   UNL A   1      36.107  23.513  26.339  1.00  0.00     0.016 A 
BRANCH   6  11
ATOM     11  C   UNL A   1      33.292  24.257  23.736  1.00  0.00     0.119 C 
BRANCH  11  12
ATOM     12  C   UNL A   1      32.085  23.145  23.611  1.00  0.00    -0.001 C 
ATOM     13  C   UNL A   1      31.769  22.487  24.995  1.00  0.00     0.014 C 
ATOM     14  C   UNL A   1      32.401  21.959  22.674  1.00  0.00     0.014 C 
ATOM     15  C   UNL A   1      30.724  23.721  23.148  1.00  0.00     0.014 C 
ENDBRANCH  11  12
BRANCH  11  16
ATOM     16  C   UNL A   1      32.971  25.676  24.292  1.00  0.00    -0.011 A 
ATOM     17  C   UNL A   1      33.412  26.858  23.680  1.00  0.00     0.008 A 
ATOM     18  C   UNL A   1      32.107  25.834  25.403  1.00  0.00     0.008 A 
ATOM     19  C   UNL A   1      33.152  28.115  24.245  1.00  0.00     0.013 A 
ATOM     20  C   UNL A   1      31.821  27.086  25.957  1.00  0.00     0.013 A 
ATOM     21  C   UNL A   1      32.370  28.242  25.401  1.00  0.00     0.056 A 
BRANCH  21  22
ATOM     22  C   UNL A   1      32.150  29.592  26.035  1.00  0.00     0.416 C 
ATOM     23  F   UNL A   1      31.545  29.490  27.253  1.00  0.00    -0.166 F 
ATOM     24  F   UNL A   1      33.315  30.263  26.262  1.00  0.00    -0.166 F 
ATOM     25  F   UNL A   1      31.371  30.430  25.299  1.00  0.00    -0.166 F 
ENDBRANCH  21  22
ENDBRANCH  11  16
BRANCH  11  26
ATOM     26  O   UNL A   1      33.650  24.492  22.344  1.00  0.00    -0.380 OA
ATOM     27  H   UNL A   1      34.104  25.346  22.267  1.00  0.00     0.212 HD
ENDBRANCH  11  26
ENDBRANCH   6  11
ENDBRANCH   3   5
ENDBRANCH   2   3
ENDBRANCH   1   2
BRANCH   1  28
ATOM     28  C   UNL A   1      40.589  19.825  26.132  1.00  0.00     0.275 C 
BRANCH  28  29
ATOM     29  O   UNL A   1      41.955  19.671  26.559  1.00  0.00    -0.458 OA
BRANCH  29  30
ATOM     30  C   UNL A   1      42.874  19.903  25.595  1.00  0.00     0.338 C 
ATOM     31  O   UNL A   1      43.158  19.173  24.662  1.00  0.00    -0.246 OA
BRANCH  30  32
ATOM     32  C   UNL A   1      43.481  21.233  25.751  1.00  0.00     0.060 A 
ATOM     33  C   UNL A   1      43.825  21.646  27.031  1.00  0.00     0.016 A 
ATOM     34  C   UNL A   1      43.455  22.154  24.706  1.00  0.00     0.016 A 
ATOM     35  C   UNL A   1      43.935  23.001  27.312  1.00  0.00     0.010 A 
ATOM     36  C   UNL A   1      43.763  23.497  24.966  1.00  0.00     0.010 A 
ATOM     37  C   UNL A   1      43.954  23.952  26.283  1.00  0.00    -0.014 A 
BRANCH  37  38
ATOM     38  C   UNL A   1      44.176  25.398  26.599  1.00  0.00     0.031 A 
ATOM     39  C   UNL A   1      45.531  26.035  26.396  1.00  0.00     0.074 A 
ATOM     40  C   UNL A   1      43.156  26.151  27.065  1.00  0.00     0.049 A 
ATOM     41  N   UNL A   1      45.968  27.201  26.802  1.00  0.00    -0.248 NA
ATOM     42  C   UNL A   1      46.530  25.250  25.658  1.00  0.00     0.031 C 
ATOM     43  C   UNL A   1      41.778  25.688  27.263  1.00  0.00     0.029 A 
ATOM     44  N   UNL A   1      43.108  27.470  27.451  1.00  0.00    -0.354 N 
ATOM     45  C   UNL A   1      47.306  27.264  26.424  1.00  0.00     0.074 A 
ATOM     46  C   UNL A   1      47.612  26.008  25.773  1.00  0.00     0.031 C 
ATOM     47  C   UNL A   1      41.016  26.711  27.670  1.00  0.00     0.029 A 
ATOM     48  C   UNL A   1      41.870  27.866  27.905  1.00  0.00     0.049 A 
ATOM     49  H   UNL A   1      43.885  28.073  27.408  1.00  0.00     0.167 HD
ATOM     50  C   UNL A   1      48.194  28.276  26.607  1.00  0.00     0.034 A 
ATOM     51  C   UNL A   1      41.465  28.997  28.512  1.00  0.00     0.034 A 
ATOM     52  C   UNL A   1      47.854  29.537  27.226  1.00  0.00     0.049 A 
ATOM     53  C   UNL A   1      42.482  30.071  28.778  1.00  0.00     0.074 A 
ATOM     54  C   UNL A   1      48.665  30.638  27.444  1.00  0.00     0.029 A 
ATOM     55  N   UNL A   1      46.598  29.871  27.724  1.00  0.00    -0.354 N 
ATOM     56  N   UNL A   1      43.759  30.092  28.470  1.00  0.00    -0.248 NA
ATOM     57  C   UNL A   1      42.009  31.268  29.482  1.00  0.00     0.031 C 
ATOM     58  C   UNL A   1      47.927  31.600  28.143  1.00  0.00     0.029 A 
ATOM     59  C   UNL A   1      46.627  31.143  28.280  1.00  0.00     0.049 A 
ATOM     60  H   UNL A   1      45.805  29.289  27.686  1.00  0.00     0.167 HD
ATOM     61  C   UNL A   1      44.236  31.317  28.926  1.00  0.00     0.074 A 
ATOM     62  C   UNL A   1      43.104  32.012  29.508  1.00  0.00     0.031 C 
ATOM     63  C   UNL A   1      45.495  31.821  28.869  1.00  0.00     0.034 A 
BRANCH  50  64
ATOM     64  C   UNL A   1      49.631  28.037  26.195  1.00  0.00     0.023 A 
ATOM     65  C   UNL A   1      50.121  28.395  24.926  1.00  0.00     0.031 A 
ATOM     66  C   UNL A   1      50.524  27.413  27.087  1.00  0.00     0.131 A 
ATOM     67  C   UNL A   1      51.435  28.058  24.561  1.00  0.00     0.055 A 
ATOM     68  C   UNL A   1      51.855  27.161  26.748  1.00  0.00     0.041 A 
ATOM     69  F   UNL A   1      50.114  27.027  28.306  1.00  0.00    -0.206 F 
ATOM     70  C   UNL A   1      52.313  27.468  25.472  1.00  0.00     0.022 A 
BRANCH  67  71
ATOM     71  S   UNL A   1      51.931  28.259  22.827  1.00  0.00     0.124 S 
ATOM     72  O   UNL A   1      51.386  27.046  22.223  1.00  0.00    -0.237 OA
ATOM     73  O   UNL A   1      51.279  29.509  22.454  1.00  0.00    -0.237 OA
ATOM     74  O   UNL A   1      53.390  28.312  22.891  1.00  0.00    -0.744 OA
ENDBRANCH  67  71
ENDBRANCH  50  64
BRANCH  51  75
ATOM     75  C   UNL A   1      40.056  29.137  28.985  1.00  0.00     0.023 A 
ATOM     76  C   UNL A   1      39.740  29.057  30.350  1.00  0.00     0.031 A 
ATOM     77  C   UNL A   1      38.998  29.324  28.075  1.00  0.00     0.131 A 
ATOM     78  C   UNL A   1      38.400  29.123  30.761  1.00  0.00     0.055 A 
ATOM     79  C   UNL A   1      37.675  29.461  28.496  1.00  0.00     0.041 A 
ATOM     80  F   UNL A   1      39.240  29.402  26.757  1.00  0.00    -0.206 F 
ATOM     81  C   UNL A   1      37.367  29.347  29.846  1.00  0.00     0.022 A 
BRANCH  78  82
ATOM     82  S   UNL A   1      38.013  28.815  32.505  1.00  0.00     0.124 S 
ATOM     83  O   UNL A   1      36.653  29.334  32.602  1.00  0.00    -0.237 OA
ATOM     84  O   UNL A   1      38.154  27.366  32.595  1.00  0.00    -0.237 OA
ATOM     85  O   UNL A   1      39.029  29.585  33.220  1.00  0.00    -0.744 OA
ENDBRANCH  78  82
ENDBRANCH  51  75
BRANCH  63  86
ATOM     86  C   UNL A   1      45.694  33.215  29.408  1.00  0.00     0.023 A 
ATOM     87  C   UNL A   1      45.532  34.353  28.598  1.00  0.00     0.031 A 
ATOM     88  C   UNL A   1      46.077  33.407  30.747  1.00  0.00     0.131 A 
ATOM     89  C   UNL A   1      45.815  35.626  29.116  1.00  0.00     0.055 A 
ATOM     90  C   UNL A   1      46.288  34.679  31.278  1.00  0.00     0.041 A 
ATOM     91  F   UNL A   1      46.254  32.357  31.565  1.00  0.00    -0.206 F 
ATOM     92  C   UNL A   1      46.172  35.798  30.456  1.00  0.00     0.022 A 
BRANCH  89  93
ATOM     93  S   UNL A   1      45.820  37.044  27.986  1.00  0.00     0.124 S 
ATOM     94  O   UNL A   1      47.145  37.611  28.218  1.00  0.00    -0.237 OA
ATOM     95  O   UNL A   1      45.616  36.411  26.688  1.00  0.00    -0.237 OA
ATOM     96  O   UNL A   1      44.704  37.862  28.459  1.00  0.00    -0.744 OA
ENDBRANCH  89  93
ENDBRANCH  63  86
ENDBRANCH  37  38
ENDBRANCH  30  32
ENDBRANCH  29  30
ENDBRANCH  28  29
ENDBRANCH   1  28
TORSDOF 19
ENDMDL
