MODEL 1
REMARK VINA RESULT:     -12.2      0.000      0.000
REMARK SMILES O=C(OCCOC(=O)c1ccc2c(c1)[C@@H](C1CCOCC1)C(=O)N2)c1ccc(-c2c3nc(c(-c4cc(S(=O)(=O)[O-])ccc4F)c4ccc([nH]4)c(-c4cc(S(=O)(=O)[O-])ccc4F)c4nc(c(-c5cc(S(=O)(=O)[O-])ccc5F)c5ccc2[nH]5)C=C4)C=C3)cc1
REMARK SMILES IDX 4 1 3 2 2 3 1 4 25 5 26 6 87 7 27 8 86 9 28 10 29 11 30 12
REMARK SMILES IDX 80 13 31 14 85 15 79 16 81 17 32 18 84 19 78 20 77 21 33 23
REMARK SMILES IDX 65 24 45 25 64 26 46 27 49 28 63 29 82 30 47 31 48 32 62 34
REMARK SMILES IDX 83 35 50 36 34 37 35 38 43 39 36 40 42 41 44 42 41 43 37 44
REMARK SMILES IDX 38 45 39 46 40 47 66 48 67 49 75 50 68 51 74 52 76 53 73 54
REMARK SMILES IDX 69 55 70 56 71 57 72 58 51 59 52 60 60 61 53 62 59 63 61 64
REMARK SMILES IDX 58 65 54 66 55 67 56 68 57 69 5 70 6 71 7 72 8 73 9 74 10 75
REMARK SMILES IDX 14 76 11 77 13 78 12 79 15 80 24 81 22 82 23 84 16 85 17 86
REMARK SMILES IDX 21 87 18 88 20 89 19 90
REMARK H PARENT 81 22 49 33 24 83
REMARK Flexibility Score: inf
ROOT
ATOM      1  C   UNL A   1      37.502  20.669  25.313  1.00  0.00     0.275 C 
ENDROOT
BRANCH   1   2
ATOM      2  O   UNL A   1      38.763  21.345  25.370  1.00  0.00    -0.458 OA
BRANCH   2   3
ATOM      3  C   UNL A   1      39.610  21.489  26.413  1.00  0.00     0.338 C 
ATOM      4  O   UNL A   1      39.974  20.467  26.997  1.00  0.00    -0.246 OA
BRANCH   3   5
ATOM      5  C   UNL A   1      40.064  22.812  26.970  1.00  0.00     0.060 A 
ATOM      6  C   UNL A   1      40.915  23.045  28.061  1.00  0.00     0.016 A 
ATOM      7  C   UNL A   1      39.607  23.935  26.274  1.00  0.00     0.016 A 
ATOM      8  C   UNL A   1      41.379  24.329  28.384  1.00  0.00     0.010 A 
ATOM      9  C   UNL A   1      40.058  25.210  26.609  1.00  0.00     0.010 A 
ATOM     10  C   UNL A   1      40.977  25.426  27.638  1.00  0.00    -0.014 A 
BRANCH  10  11
ATOM     11  C   UNL A   1      41.387  26.811  27.978  1.00  0.00     0.031 A 
ATOM     12  C   UNL A   1      42.817  27.201  27.737  1.00  0.00     0.074 A 
ATOM     13  C   UNL A   1      40.521  27.679  28.541  1.00  0.00     0.049 A 
ATOM     14  N   UNL A   1      43.442  28.303  28.053  1.00  0.00    -0.248 NA
ATOM     15  C   UNL A   1      43.664  26.196  27.073  1.00  0.00     0.031 C 
ATOM     16  C   UNL A   1      39.106  27.417  28.799  1.00  0.00     0.029 A 
ATOM     17  N   UNL A   1      40.703  28.955  29.016  1.00  0.00    -0.354 N 
ATOM     18  C   UNL A   1      44.749  28.120  27.616  1.00  0.00     0.074 A 
ATOM     19  C   UNL A   1      44.857  26.757  27.152  1.00  0.00     0.031 C 
ATOM     20  C   UNL A   1      38.557  28.478  29.415  1.00  0.00     0.029 A 
ATOM     21  C   UNL A   1      39.579  29.500  29.597  1.00  0.00     0.049 A 
ATOM     22  H   UNL A   1      41.559  29.436  28.946  1.00  0.00     0.167 HD
ATOM     23  C   UNL A   1      45.747  29.031  27.532  1.00  0.00     0.034 A 
ATOM     24  C   UNL A   1      39.397  30.692  30.201  1.00  0.00     0.034 A 
ATOM     25  C   UNL A   1      45.605  30.389  27.982  1.00  0.00     0.049 A 
ATOM     26  C   UNL A   1      40.552  31.666  30.195  1.00  0.00     0.074 A 
ATOM     27  C   UNL A   1      46.525  31.418  27.932  1.00  0.00     0.029 A 
ATOM     28  N   UNL A   1      44.457  30.904  28.573  1.00  0.00    -0.354 N 
ATOM     29  N   UNL A   1      41.765  31.499  29.717  1.00  0.00    -0.248 NA
ATOM     30  C   UNL A   1      40.302  32.995  30.762  1.00  0.00     0.031 C 
ATOM     31  C   UNL A   1      45.954  32.538  28.547  1.00  0.00     0.029 A 
ATOM     32  C   UNL A   1      44.651  32.231  28.913  1.00  0.00     0.049 A 
ATOM     33  H   UNL A   1      43.626  30.398  28.728  1.00  0.00     0.167 HD
ATOM     34  C   UNL A   1      42.403  32.727  29.869  1.00  0.00     0.074 A 
ATOM     35  C   UNL A   1      41.438  33.618  30.484  1.00  0.00     0.031 C 
ATOM     36  C   UNL A   1      43.663  33.093  29.518  1.00  0.00     0.034 A 
BRANCH  23  37
ATOM     37  C   UNL A   1      47.046  28.556  26.929  1.00  0.00     0.023 A 
ATOM     38  C   UNL A   1      47.212  28.478  25.532  1.00  0.00     0.031 A 
ATOM     39  C   UNL A   1      48.085  28.076  27.741  1.00  0.00     0.131 A 
ATOM     40  C   UNL A   1      48.327  27.823  24.993  1.00  0.00     0.055 A 
ATOM     41  C   UNL A   1      49.242  27.516  27.195  1.00  0.00     0.041 A 
ATOM     42  F   UNL A   1      47.976  28.106  29.078  1.00  0.00    -0.206 F 
ATOM     43  C   UNL A   1      49.359  27.364  25.815  1.00  0.00     0.022 A 
BRANCH  40  44
ATOM     44  S   UNL A   1      48.311  27.407  23.227  1.00  0.00     0.124 S 
ATOM     45  O   UNL A   1      49.620  27.893  22.798  1.00  0.00    -0.237 OA
ATOM     46  O   UNL A   1      48.145  25.958  23.244  1.00  0.00    -0.237 OA
ATOM     47  O   UNL A   1      47.172  28.160  22.707  1.00  0.00    -0.744 OA
ENDBRANCH  40  44
ENDBRANCH  23  37
BRANCH  24  48
ATOM     48  C   UNL A   1      38.090  31.053  30.829  1.00  0.00     0.023 A 
ATOM     49  C   UNL A   1      37.110  31.762  30.116  1.00  0.00     0.031 A 
ATOM     50  C   UNL A   1      37.823  30.742  32.176  1.00  0.00     0.131 A 
ATOM     51  C   UNL A   1      35.939  32.192  30.764  1.00  0.00     0.055 A 
ATOM     52  C   UNL A   1      36.638  31.134  32.804  1.00  0.00     0.041 A 
ATOM     53  F   UNL A   1      38.714  30.048  32.902  1.00  0.00    -0.206 F 
ATOM     54  C   UNL A   1      35.693  31.877  32.102  1.00  0.00     0.022 A 
BRANCH  51  55
ATOM     55  S   UNL A   1      34.777  33.248  29.853  1.00  0.00     0.124 S 
ATOM     56  O   UNL A   1      34.121  32.283  28.979  1.00  0.00    -0.237 OA
ATOM     57  O   UNL A   1      33.962  33.795  30.934  1.00  0.00    -0.237 OA
ATOM     58  O   UNL A   1      35.647  34.211  29.182  1.00  0.00    -0.744 OA
ENDBRANCH  51  55
ENDBRANCH  24  48
BRANCH  36  59
ATOM     59  C   UNL A   1      44.037  34.537  29.732  1.00  0.00     0.023 A 
ATOM     60  C   UNL A   1      43.764  35.522  28.772  1.00  0.00     0.031 A 
ATOM     61  C   UNL A   1      44.675  34.928  30.925  1.00  0.00     0.131 A 
ATOM     62  C   UNL A   1      44.180  36.841  28.991  1.00  0.00     0.055 A 
ATOM     63  C   UNL A   1      45.020  36.256  31.169  1.00  0.00     0.041 A 
ATOM     64  F   UNL A   1      44.963  34.023  31.874  1.00  0.00    -0.206 F 
ATOM     65  C   UNL A   1      44.785  37.219  30.193  1.00  0.00     0.022 A 
BRANCH  62  66
ATOM     66  S   UNL A   1      44.014  38.036  27.639  1.00  0.00     0.124 S 
ATOM     67  O   UNL A   1      45.391  38.159  27.174  1.00  0.00    -0.237 OA
ATOM     68  O   UNL A   1      43.093  37.357  26.734  1.00  0.00    -0.237 OA
ATOM     69  O   UNL A   1      43.473  39.225  28.297  1.00  0.00    -0.744 OA
ENDBRANCH  62  66
ENDBRANCH  36  59
ENDBRANCH  10  11
ENDBRANCH   3   5
ENDBRANCH   2   3
ENDBRANCH   1   2
BRANCH   1  70
ATOM     70  C   UNL A   1      36.285  21.586  25.502  1.00  0.00     0.275 C 
BRANCH  70  71
ATOM     71  O   UNL A   1      36.439  22.912  24.957  1.00  0.00    -0.458 OA
BRANCH  71  72
ATOM     72  C   UNL A   1      35.826  23.157  23.767  1.00  0.00     0.338 C 
ATOM     73  O   UNL A   1      36.342  23.089  22.663  1.00  0.00    -0.246 OA
BRANCH  72  74
ATOM     74  C   UNL A   1      34.384  23.453  23.983  1.00  0.00     0.060 A 
ATOM     75  C   UNL A   1      33.409  22.744  23.254  1.00  0.00     0.018 A 
ATOM     76  C   UNL A   1      34.003  24.413  24.949  1.00  0.00     0.022 A 
ATOM     77  C   UNL A   1      32.049  22.973  23.482  1.00  0.00     0.027 A 
ATOM     78  C   UNL A   1      32.646  24.653  25.147  1.00  0.00    -0.011 A 
ATOM     79  C   UNL A   1      31.704  23.919  24.425  1.00  0.00     0.045 A 
ATOM     80  C   UNL A   1      31.911  25.562  26.125  1.00  0.00     0.114 C 
ATOM     81  N   UNL A   1      30.424  24.243  24.837  1.00  0.00    -0.325 N 
ATOM     82  C   UNL A   1      30.439  25.155  25.882  1.00  0.00     0.232 C 
ATOM     83  H   UNL A   1      29.604  23.871  24.439  1.00  0.00     0.169 HD
ATOM     84  O   UNL A   1      29.462  25.553  26.494  1.00  0.00    -0.274 OA
BRANCH  80  85
ATOM     85  C   UNL A   1      32.131  27.079  25.929  1.00  0.00     0.010 C 
ATOM     86  C   UNL A   1      31.803  27.914  27.182  1.00  0.00     0.033 C 
ATOM     87  C   UNL A   1      31.300  27.691  24.793  1.00  0.00     0.033 C 
ATOM     88  C   UNL A   1      32.083  29.399  26.929  1.00  0.00     0.160 C 
ATOM     89  C   UNL A   1      31.725  29.139  24.589  1.00  0.00     0.160 C 
ATOM     90  O   UNL A   1      31.421  29.891  25.765  1.00  0.00    -0.381 OA
ENDBRANCH  80  85
ENDBRANCH  72  74
ENDBRANCH  71  72
ENDBRANCH  70  71
ENDBRANCH   1  70
TORSDOF 15
ENDMDL
MODEL 2
REMARK VINA RESULT:     -12.0      4.712     10.320
REMARK SMILES O=C(OCCOC(=O)c1ccc2c(c1)[C@@H](C1CCOCC1)C(=O)N2)c1ccc(-c2c3nc(c(-c4cc(S(=O)(=O)[O-])ccc4F)c4ccc([nH]4)c(-c4cc(S(=O)(=O)[O-])ccc4F)c4nc(c(-c5cc(S(=O)(=O)[O-])ccc5F)c5ccc2[nH]5)C=C4)C=C3)cc1
REMARK SMILES IDX 4 1 3 2 2 3 1 4 25 5 26 6 87 7 27 8 86 9 28 10 29 11 30 12
REMARK SMILES IDX 80 13 31 14 85 15 79 16 81 17 32 18 84 19 78 20 77 21 33 23
REMARK SMILES IDX 65 24 45 25 64 26 46 27 49 28 63 29 82 30 47 31 48 32 62 34
REMARK SMILES IDX 83 35 50 36 34 37 35 38 43 39 36 40 42 41 44 42 41 43 37 44
REMARK SMILES IDX 38 45 39 46 40 47 66 48 67 49 75 50 68 51 74 52 76 53 73 54
REMARK SMILES IDX 69 55 70 56 71 57 72 58 51 59 52 60 60 61 53 62 59 63 61 64
REMARK SMILES IDX 58 65 54 66 55 67 56 68 57 69 5 70 6 71 7 72 8 73 9 74 10 75
REMARK SMILES IDX 14 76 11 77 13 78 12 79 15 80 24 81 22 82 23 84 16 85 17 86
REMARK SMILES IDX 21 87 18 88 20 89 19 90
REMARK H PARENT 81 22 49 33 24 83
REMARK Flexibility Score: inf
ROOT
ATOM      1  C   UNL A   1      32.187  30.981  27.077  1.00  0.00     0.275 C 
ENDROOT
BRANCH   1   2
ATOM      2  O   UNL A   1      32.751  32.294  26.975  1.00  0.00    -0.458 OA
BRANCH   2   3
ATOM      3  C   UNL A   1      33.613  32.921  27.805  1.00  0.00     0.338 C 
ATOM      4  O   UNL A   1      33.339  34.071  28.149  1.00  0.00    -0.246 OA
BRANCH   3   5
ATOM      5  C   UNL A   1      34.929  32.350  28.262  1.00  0.00     0.060 A 
ATOM      6  C   UNL A   1      36.211  32.898  28.106  1.00  0.00     0.016 A 
ATOM      7  C   UNL A   1      34.839  31.146  28.968  1.00  0.00     0.016 A 
ATOM      8  C   UNL A   1      37.343  32.334  28.713  1.00  0.00     0.010 A 
ATOM      9  C   UNL A   1      35.969  30.581  29.556  1.00  0.00     0.010 A 
ATOM     10  C   UNL A   1      37.227  31.181  29.473  1.00  0.00    -0.014 A 
BRANCH  10  11
ATOM     11  C   UNL A   1      38.402  30.510  30.082  1.00  0.00     0.031 A 
ATOM     12  C   UNL A   1      38.852  30.970  31.439  1.00  0.00     0.074 A 
ATOM     13  C   UNL A   1      39.085  29.555  29.417  1.00  0.00     0.049 A 
ATOM     14  N   UNL A   1      39.907  30.625  32.125  1.00  0.00    -0.248 NA
ATOM     15  C   UNL A   1      38.008  31.982  32.097  1.00  0.00     0.031 C 
ATOM     16  C   UNL A   1      38.726  29.013  28.107  1.00  0.00     0.029 A 
ATOM     17  N   UNL A   1      40.235  28.877  29.740  1.00  0.00    -0.354 N 
ATOM     18  C   UNL A   1      39.842  31.372  33.296  1.00  0.00     0.074 A 
ATOM     19  C   UNL A   1      38.733  32.286  33.158  1.00  0.00     0.031 C 
ATOM     20  C   UNL A   1      39.652  28.118  27.721  1.00  0.00     0.029 A 
ATOM     21  C   UNL A   1      40.672  28.017  28.756  1.00  0.00     0.049 A 
ATOM     22  H   UNL A   1      40.704  28.995  30.598  1.00  0.00     0.167 HD
ATOM     23  C   UNL A   1      40.588  31.249  34.419  1.00  0.00     0.034 A 
ATOM     24  C   UNL A   1      41.769  27.234  28.703  1.00  0.00     0.034 A 
ATOM     25  C   UNL A   1      41.674  30.315  34.538  1.00  0.00     0.049 A 
ATOM     26  C   UNL A   1      42.655  27.183  29.924  1.00  0.00     0.074 A 
ATOM     27  C   UNL A   1      42.492  30.071  35.624  1.00  0.00     0.029 A 
ATOM     28  N   UNL A   1      42.093  29.466  33.520  1.00  0.00    -0.354 N 
ATOM     29  N   UNL A   1      42.541  27.849  31.051  1.00  0.00    -0.248 NA
ATOM     30  C   UNL A   1      43.783  26.246  29.886  1.00  0.00     0.031 C 
ATOM     31  C   UNL A   1      43.444  29.119  35.242  1.00  0.00     0.029 A 
ATOM     32  C   UNL A   1      43.173  28.712  33.944  1.00  0.00     0.049 A 
ATOM     33  H   UNL A   1      41.683  29.410  32.626  1.00  0.00     0.167 HD
ATOM     34  C   UNL A   1      43.547  27.363  31.881  1.00  0.00     0.074 A 
ATOM     35  C   UNL A   1      44.254  26.351  31.121  1.00  0.00     0.031 C 
ATOM     36  C   UNL A   1      43.850  27.705  33.160  1.00  0.00     0.034 A 
BRANCH  23  37
ATOM     37  C   UNL A   1      40.225  32.151  35.573  1.00  0.00     0.023 A 
ATOM     38  C   UNL A   1      39.307  31.737  36.558  1.00  0.00     0.031 A 
ATOM     39  C   UNL A   1      40.707  33.468  35.638  1.00  0.00     0.131 A 
ATOM     40  C   UNL A   1      38.808  32.660  37.485  1.00  0.00     0.055 A 
ATOM     41  C   UNL A   1      40.281  34.356  36.629  1.00  0.00     0.041 A 
ATOM     42  F   UNL A   1      41.567  33.926  34.717  1.00  0.00    -0.206 F 
ATOM     43  C   UNL A   1      39.308  33.962  37.546  1.00  0.00     0.022 A 
BRANCH  40  44
ATOM     44  S   UNL A   1      37.360  32.191  38.473  1.00  0.00     0.124 S 
ATOM     45  O   UNL A   1      36.324  33.052  37.905  1.00  0.00    -0.237 OA
ATOM     46  O   UNL A   1      37.229  30.766  38.188  1.00  0.00    -0.237 OA
ATOM     47  O   UNL A   1      37.755  32.521  39.841  1.00  0.00    -0.744 OA
ENDBRANCH  40  44
ENDBRANCH  23  37
BRANCH  24  48
ATOM     48  C   UNL A   1      42.082  26.420  27.489  1.00  0.00     0.023 A 
ATOM     49  C   UNL A   1      41.746  25.059  27.417  1.00  0.00     0.031 A 
ATOM     50  C   UNL A   1      42.779  26.981  26.401  1.00  0.00     0.131 A 
ATOM     51  C   UNL A   1      42.156  24.288  26.316  1.00  0.00     0.055 A 
ATOM     52  C   UNL A   1      43.146  26.220  25.287  1.00  0.00     0.041 A 
ATOM     53  F   UNL A   1      43.109  28.281  26.404  1.00  0.00    -0.206 F 
ATOM     54  C   UNL A   1      42.849  24.860  25.247  1.00  0.00     0.022 A 
BRANCH  51  55
ATOM     55  S   UNL A   1      41.846  22.499  26.341  1.00  0.00     0.124 S 
ATOM     56  O   UNL A   1      42.570  22.056  25.156  1.00  0.00    -0.237 OA
ATOM     57  O   UNL A   1      42.422  22.115  27.627  1.00  0.00    -0.237 OA
ATOM     58  O   UNL A   1      40.391  22.405  26.258  1.00  0.00    -0.744 OA
ENDBRANCH  51  55
ENDBRANCH  24  48
BRANCH  36  59
ATOM     59  C   UNL A   1      44.952  26.927  33.830  1.00  0.00     0.023 A 
ATOM     60  C   UNL A   1      44.705  25.714  34.490  1.00  0.00     0.031 A 
ATOM     61  C   UNL A   1      46.273  27.412  33.801  1.00  0.00     0.131 A 
ATOM     62  C   UNL A   1      45.752  25.053  35.146  1.00  0.00     0.055 A 
ATOM     63  C   UNL A   1      47.323  26.713  34.392  1.00  0.00     0.041 A 
ATOM     64  F   UNL A   1      46.562  28.571  33.187  1.00  0.00    -0.206 F 
ATOM     65  C   UNL A   1      47.064  25.533  35.082  1.00  0.00     0.022 A 
BRANCH  62  66
ATOM     66  S   UNL A   1      45.357  23.614  36.174  1.00  0.00     0.124 S 
ATOM     67  O   UNL A   1      44.290  22.980  35.406  1.00  0.00    -0.237 OA
ATOM     68  O   UNL A   1      46.628  22.899  36.211  1.00  0.00    -0.237 OA
ATOM     69  O   UNL A   1      44.940  24.205  37.444  1.00  0.00    -0.744 OA
ENDBRANCH  62  66
ENDBRANCH  36  59
ENDBRANCH  10  11
ENDBRANCH   3   5
ENDBRANCH   2   3
ENDBRANCH   1   2
BRANCH   1  70
ATOM     70  C   UNL A   1      32.839  29.940  26.156  1.00  0.00     0.275 C 
BRANCH  70  71
ATOM     71  O   UNL A   1      33.189  28.699  26.801  1.00  0.00    -0.458 OA
BRANCH  71  72
ATOM     72  C   UNL A   1      32.170  27.831  27.044  1.00  0.00     0.338 C 
ATOM     73  O   UNL A   1      31.417  27.853  28.004  1.00  0.00    -0.246 OA
BRANCH  72  74
ATOM     74  C   UNL A   1      32.038  26.866  25.919  1.00  0.00     0.060 A 
ATOM     75  C   UNL A   1      30.764  26.580  25.391  1.00  0.00     0.018 A 
ATOM     76  C   UNL A   1      33.196  26.277  25.361  1.00  0.00     0.022 A 
ATOM     77  C   UNL A   1      30.627  25.715  24.301  1.00  0.00     0.027 A 
ATOM     78  C   UNL A   1      33.046  25.396  24.294  1.00  0.00    -0.011 A 
ATOM     79  C   UNL A   1      31.773  25.150  23.780  1.00  0.00     0.045 A 
ATOM     80  C   UNL A   1      34.068  24.648  23.447  1.00  0.00     0.114 C 
ATOM     81  N   UNL A   1      31.853  24.325  22.671  1.00  0.00    -0.325 N 
ATOM     82  C   UNL A   1      33.169  24.026  22.352  1.00  0.00     0.232 C 
ATOM     83  H   UNL A   1      31.073  23.994  22.170  1.00  0.00     0.169 HD
ATOM     84  O   UNL A   1      33.540  23.390  21.380  1.00  0.00    -0.274 OA
BRANCH  80  85
ATOM     85  C   UNL A   1      34.902  23.579  24.186  1.00  0.00     0.010 C 
ATOM     86  C   UNL A   1      36.113  23.076  23.377  1.00  0.00     0.033 C 
ATOM     87  C   UNL A   1      34.110  22.322  24.571  1.00  0.00     0.033 C 
ATOM     88  C   UNL A   1      36.915  22.052  24.187  1.00  0.00     0.160 C 
ATOM     89  C   UNL A   1      34.987  21.424  25.434  1.00  0.00     0.160 C 
ATOM     90  O   UNL A   1      36.107  20.979  24.667  1.00  0.00    -0.381 OA
ENDBRANCH  80  85
ENDBRANCH  72  74
ENDBRANCH  71  72
ENDBRANCH  70  71
ENDBRANCH   1  70
TORSDOF 15
ENDMDL
MODEL 3
REMARK VINA RESULT:     -12.0      5.379     11.538
REMARK SMILES O=C(OCCOC(=O)c1ccc2c(c1)[C@@H](C1CCOCC1)C(=O)N2)c1ccc(-c2c3nc(c(-c4cc(S(=O)(=O)[O-])ccc4F)c4ccc([nH]4)c(-c4cc(S(=O)(=O)[O-])ccc4F)c4nc(c(-c5cc(S(=O)(=O)[O-])ccc5F)c5ccc2[nH]5)C=C4)C=C3)cc1
REMARK SMILES IDX 4 1 3 2 2 3 1 4 25 5 26 6 87 7 27 8 86 9 28 10 29 11 30 12
REMARK SMILES IDX 80 13 31 14 85 15 79 16 81 17 32 18 84 19 78 20 77 21 33 23
REMARK SMILES IDX 65 24 45 25 64 26 46 27 49 28 63 29 82 30 47 31 48 32 62 34
REMARK SMILES IDX 83 35 50 36 34 37 35 38 43 39 36 40 42 41 44 42 41 43 37 44
REMARK SMILES IDX 38 45 39 46 40 47 66 48 67 49 75 50 68 51 74 52 76 53 73 54
REMARK SMILES IDX 69 55 70 56 71 57 72 58 51 59 52 60 60 61 53 62 59 63 61 64
REMARK SMILES IDX 58 65 54 66 55 67 56 68 57 69 5 70 6 71 7 72 8 73 9 74 10 75
REMARK SMILES IDX 14 76 11 77 13 78 12 79 15 80 24 81 22 82 23 84 16 85 17 86
REMARK SMILES IDX 21 87 18 88 20 89 19 90
REMARK H PARENT 81 22 49 33 24 83
REMARK Flexibility Score: inf
ROOT
ATOM      1  C   UNL A   1      33.605  33.613  28.306  1.00  0.00     0.275 C 
ENDROOT
BRANCH   1   2
ATOM      2  O   UNL A   1      34.606  32.800  27.683  1.00  0.00    -0.458 OA
BRANCH   2   3
ATOM      3  C   UNL A   1      34.779  31.461  27.741  1.00  0.00     0.338 C 
ATOM      4  O   UNL A   1      33.888  30.751  27.272  1.00  0.00    -0.246 OA
BRANCH   3   5
ATOM      5  C   UNL A   1      35.934  30.775  28.420  1.00  0.00     0.060 A 
ATOM      6  C   UNL A   1      35.890  29.792  29.420  1.00  0.00     0.016 A 
ATOM      7  C   UNL A   1      37.199  31.144  27.953  1.00  0.00     0.016 A 
ATOM      8  C   UNL A   1      37.042  29.126  29.863  1.00  0.00     0.010 A 
ATOM      9  C   UNL A   1      38.342  30.491  28.406  1.00  0.00     0.010 A 
ATOM     10  C   UNL A   1      38.283  29.449  29.335  1.00  0.00    -0.014 A 
BRANCH  10  11
ATOM     11  C   UNL A   1      39.538  28.820  29.816  1.00  0.00     0.031 A 
ATOM     12  C   UNL A   1      40.226  29.437  30.999  1.00  0.00     0.074 A 
ATOM     13  C   UNL A   1      40.079  27.763  29.178  1.00  0.00     0.049 A 
ATOM     14  N   UNL A   1      41.382  29.145  31.533  1.00  0.00    -0.248 NA
ATOM     15  C   UNL A   1      39.526  30.556  31.652  1.00  0.00     0.031 C 
ATOM     16  C   UNL A   1      39.488  27.069  28.034  1.00  0.00     0.029 A 
ATOM     17  N   UNL A   1      41.259  27.091  29.384  1.00  0.00    -0.354 N 
ATOM     18  C   UNL A   1      41.534  30.041  32.586  1.00  0.00     0.074 A 
ATOM     19  C   UNL A   1      40.430  30.969  32.520  1.00  0.00     0.031 C 
ATOM     20  C   UNL A   1      40.318  26.097  27.618  1.00  0.00     0.029 A 
ATOM     21  C   UNL A   1      41.504  26.095  28.464  1.00  0.00     0.049 A 
ATOM     22  H   UNL A   1      41.874  27.302  30.124  1.00  0.00     0.167 HD
ATOM     23  C   UNL A   1      42.465  30.037  33.569  1.00  0.00     0.034 A 
ATOM     24  C   UNL A   1      42.563  25.271  28.327  1.00  0.00     0.034 A 
ATOM     25  C   UNL A   1      43.543  29.087  33.622  1.00  0.00     0.049 A 
ATOM     26  C   UNL A   1      43.651  25.347  29.372  1.00  0.00     0.074 A 
ATOM     27  C   UNL A   1      44.536  28.956  34.573  1.00  0.00     0.029 A 
ATOM     28  N   UNL A   1      43.764  28.098  32.670  1.00  0.00    -0.354 N 
ATOM     29  N   UNL A   1      43.747  26.158  30.402  1.00  0.00    -0.248 NA
ATOM     30  C   UNL A   1      44.742  24.372  29.266  1.00  0.00     0.031 C 
ATOM     31  C   UNL A   1      45.393  27.928  34.164  1.00  0.00     0.029 A 
ATOM     32  C   UNL A   1      44.892  27.367  32.998  1.00  0.00     0.049 A 
ATOM     33  H   UNL A   1      43.202  27.941  31.877  1.00  0.00     0.167 HD
ATOM     34  C   UNL A   1      44.877  25.747  31.103  1.00  0.00     0.074 A 
ATOM     35  C   UNL A   1      45.425  24.619  30.375  1.00  0.00     0.031 C 
ATOM     36  C   UNL A   1      45.406  26.242  32.252  1.00  0.00     0.034 A 
BRANCH  23  37
ATOM     37  C   UNL A   1      42.324  31.095  34.636  1.00  0.00     0.023 A 
ATOM     38  C   UNL A   1      42.857  32.386  34.454  1.00  0.00     0.031 A 
ATOM     39  C   UNL A   1      41.756  30.790  35.882  1.00  0.00     0.131 A 
ATOM     40  C   UNL A   1      42.922  33.277  35.533  1.00  0.00     0.055 A 
ATOM     41  C   UNL A   1      41.732  31.720  36.925  1.00  0.00     0.041 A 
ATOM     42  F   UNL A   1      41.251  29.570  36.122  1.00  0.00    -0.206 F 
ATOM     43  C   UNL A   1      42.339  32.964  36.761  1.00  0.00     0.022 A 
BRANCH  40  44
ATOM     44  S   UNL A   1      43.951  34.762  35.361  1.00  0.00     0.124 S 
ATOM     45  O   UNL A   1      45.275  34.180  35.148  1.00  0.00    -0.237 OA
ATOM     46  O   UNL A   1      43.357  35.429  34.209  1.00  0.00    -0.237 OA
ATOM     47  O   UNL A   1      43.778  35.449  36.639  1.00  0.00    -0.744 OA
ENDBRANCH  40  44
ENDBRANCH  23  37
BRANCH  24  48
ATOM     48  C   UNL A   1      42.647  24.295  27.198  1.00  0.00     0.023 A 
ATOM     49  C   UNL A   1      42.035  23.034  27.278  1.00  0.00     0.031 A 
ATOM     50  C   UNL A   1      43.392  24.589  26.041  1.00  0.00     0.131 A 
ATOM     51  C   UNL A   1      42.227  22.091  26.255  1.00  0.00     0.055 A 
ATOM     52  C   UNL A   1      43.544  23.663  25.005  1.00  0.00     0.041 A 
ATOM     53  F   UNL A   1      43.983  25.786  25.899  1.00  0.00    -0.206 F 
ATOM     54  C   UNL A   1      42.972  22.399  25.115  1.00  0.00     0.022 A 
BRANCH  51  55
ATOM     55  S   UNL A   1      41.558  20.417  26.475  1.00  0.00     0.124 S 
ATOM     56  O   UNL A   1      40.125  20.650  26.340  1.00  0.00    -0.237 OA
ATOM     57  O   UNL A   1      42.198  19.694  25.381  1.00  0.00    -0.237 OA
ATOM     58  O   UNL A   1      42.008  20.045  27.814  1.00  0.00    -0.744 OA
ENDBRANCH  51  55
ENDBRANCH  24  48
BRANCH  36  59
ATOM     59  C   UNL A   1      46.599  25.518  32.820  1.00  0.00     0.023 A 
ATOM     60  C   UNL A   1      47.903  25.779  32.373  1.00  0.00     0.031 A 
ATOM     61  C   UNL A   1      46.421  24.554  33.829  1.00  0.00     0.131 A 
ATOM     62  C   UNL A   1      48.976  25.041  32.890  1.00  0.00     0.055 A 
ATOM     63  C   UNL A   1      47.501  23.876  34.393  1.00  0.00     0.041 A 
ATOM     64  F   UNL A   1      45.193  24.263  34.288  1.00  0.00    -0.206 F 
ATOM     65  C   UNL A   1      48.786  24.108  33.914  1.00  0.00     0.022 A 
BRANCH  62  66
ATOM     66  S   UNL A   1      50.610  25.243  32.133  1.00  0.00     0.124 S 
ATOM     67  O   UNL A   1      50.495  24.407  30.943  1.00  0.00    -0.237 OA
ATOM     68  O   UNL A   1      50.668  26.682  31.898  1.00  0.00    -0.237 OA
ATOM     69  O   UNL A   1      51.526  24.745  33.157  1.00  0.00    -0.744 OA
ENDBRANCH  62  66
ENDBRANCH  36  59
ENDBRANCH  10  11
ENDBRANCH   3   5
ENDBRANCH   2   3
ENDBRANCH   1   2
BRANCH   1  70
ATOM     70  C   UNL A   1      34.052  34.268  29.621  1.00  0.00     0.275 C 
BRANCH  70  71
ATOM     71  O   UNL A   1      35.429  34.029  29.977  1.00  0.00    -0.458 OA
BRANCH  71  72
ATOM     72  C   UNL A   1      35.649  33.265  31.081  1.00  0.00     0.338 C 
ATOM     73  O   UNL A   1      34.971  32.319  31.450  1.00  0.00    -0.246 OA
BRANCH  72  74
ATOM     74  C   UNL A   1      36.899  33.696  31.763  1.00  0.00     0.060 A 
ATOM     75  C   UNL A   1      38.033  34.028  30.996  1.00  0.00     0.018 A 
ATOM     76  C   UNL A   1      36.925  33.812  33.172  1.00  0.00     0.022 A 
ATOM     77  C   UNL A   1      39.199  34.485  31.617  1.00  0.00     0.027 A 
ATOM     78  C   UNL A   1      38.101  34.240  33.782  1.00  0.00    -0.011 A 
ATOM     79  C   UNL A   1      39.200  34.582  32.994  1.00  0.00     0.045 A 
ATOM     80  C   UNL A   1      38.441  34.517  35.241  1.00  0.00     0.114 C 
ATOM     81  N   UNL A   1      40.226  35.068  33.784  1.00  0.00    -0.325 N 
ATOM     82  C   UNL A   1      39.856  35.133  35.119  1.00  0.00     0.232 C 
ATOM     83  H   UNL A   1      41.109  35.337  33.441  1.00  0.00     0.169 HD
ATOM     84  O   UNL A   1      40.529  35.597  36.024  1.00  0.00    -0.274 OA
BRANCH  80  85
ATOM     85  C   UNL A   1      38.424  33.291  36.181  1.00  0.00     0.010 C 
ATOM     86  C   UNL A   1      38.130  31.964  35.455  1.00  0.00     0.033 C 
ATOM     87  C   UNL A   1      37.390  33.383  37.312  1.00  0.00     0.033 C 
ATOM     88  C   UNL A   1      38.170  30.790  36.438  1.00  0.00     0.160 C 
ATOM     89  C   UNL A   1      37.583  32.206  38.260  1.00  0.00     0.160 C 
ATOM     90  O   UNL A   1      37.316  30.989  37.563  1.00  0.00    -0.381 OA
ENDBRANCH  80  85
ENDBRANCH  72  74
ENDBRANCH  71  72
ENDBRANCH  70  71
ENDBRANCH   1  70
TORSDOF 15
ENDMDL
