MODEL 1
REMARK VINA RESULT:     -11.3      0.000      0.000
REMARK SMILES C[C@@H]1CCC[C@H](C)N1C(=O)Cn1cccc1C(=O)OCCOC(=O)c1ccc(-c2c3nc(c(-c4cc(S(=O)(=O)[O-])ccc4F)c4ccc([nH]4)c(-c4cc(S(=O)(=O)[O-])ccc4F)c4nc(c(-c5cc(S(=O)(=O)[O-])ccc5F)c5ccc2[nH]5)C=C4)C=C3)cc1
REMARK SMILES IDX 20 1 19 2 17 3 18 4 16 5 12 6 13 7 14 8 15 9 11 10 9 11
REMARK SMILES IDX 10 12 8 13 1 14 2 15 3 16 4 17 6 18 5 19 7 20 21 21 22 22
REMARK SMILES IDX 23 23 24 24 25 25 26 26 87 27 27 28 86 29 28 30 29 31 30 32
REMARK SMILES IDX 80 33 31 34 85 35 79 36 81 37 32 38 84 39 78 40 77 41 33 43
REMARK SMILES IDX 65 44 45 45 64 46 46 47 49 48 63 49 82 50 47 51 48 52 62 54
REMARK SMILES IDX 83 55 50 56 34 57 35 58 43 59 36 60 42 61 44 62 41 63 37 64
REMARK SMILES IDX 38 65 39 66 40 67 66 68 67 69 75 70 68 71 74 72 76 73 73 74
REMARK SMILES IDX 69 75 70 76 71 77 72 78 51 79 52 80 60 81 53 82 59 83 61 84
REMARK SMILES IDX 58 85 54 86 55 87 56 88 57 89
REMARK H PARENT 81 42 49 53
REMARK Flexibility Score: inf
ROOT
ATOM      1  C   UNL A   1      41.185  21.023  26.885  1.00  0.00     0.275 C 
ENDROOT
BRANCH   1   2
ATOM      2  O   UNL A   1      42.112  20.955  25.790  1.00  0.00    -0.457 OA
BRANCH   2   3
ATOM      3  C   UNL A   1      42.782  19.771  25.697  1.00  0.00     0.355 C 
ATOM      4  O   UNL A   1      42.297  18.676  25.953  1.00  0.00    -0.244 OA
BRANCH   3   5
ATOM      5  C   UNL A   1      44.087  19.963  25.098  1.00  0.00     0.128 A 
ATOM      6  N   UNL A   1      45.014  20.972  25.305  1.00  0.00    -0.333 N 
ATOM      7  C   UNL A   1      46.217  20.601  24.736  1.00  0.00     0.087 A 
ATOM      8  C   UNL A   1      46.033  19.432  24.042  1.00  0.00     0.020 A 
ATOM      9  C   UNL A   1      44.697  19.039  24.255  1.00  0.00     0.035 A 
BRANCH   6  10
ATOM     10  C   UNL A   1      44.910  22.190  26.108  1.00  0.00     0.222 C 
BRANCH  10  11
ATOM     11  C   UNL A   1      44.474  23.421  25.352  1.00  0.00     0.242 C 
ATOM     12  O   UNL A   1      43.779  23.277  24.340  1.00  0.00    -0.273 OA
BRANCH  11  13
ATOM     13  N   UNL A   1      44.905  24.677  25.772  1.00  0.00    -0.336 N 
ATOM     14  C   UNL A   1      47.028  25.288  26.969  1.00  0.00     0.031 C 
ATOM     15  C   UNL A   1      46.286  25.217  25.630  1.00  0.00     0.082 C 
ATOM     16  C   UNL A   1      46.290  26.595  24.959  1.00  0.00     0.025 C 
ATOM     17  C   UNL A   1      45.312  27.543  25.643  1.00  0.00     0.004 C 
ATOM     18  C   UNL A   1      43.850  25.567  26.281  1.00  0.00     0.082 C 
ATOM     19  C   UNL A   1      43.929  26.929  25.601  1.00  0.00     0.025 C 
ATOM     20  C   UNL A   1      43.752  25.668  27.796  1.00  0.00     0.031 C 
ENDBRANCH  11  13
ENDBRANCH  10  11
ENDBRANCH   6  10
ENDBRANCH   3   5
ENDBRANCH   2   3
ENDBRANCH   1   2
BRANCH   1  21
ATOM     21  C   UNL A   1      41.484  22.163  27.870  1.00  0.00     0.275 C 
BRANCH  21  22
ATOM     22  O   UNL A   1      41.191  23.521  27.492  1.00  0.00    -0.458 OA
BRANCH  22  23
ATOM     23  C   UNL A   1      39.935  23.975  27.307  1.00  0.00     0.338 C 
ATOM     24  O   UNL A   1      38.995  23.381  26.801  1.00  0.00    -0.246 OA
BRANCH  23  25
ATOM     25  C   UNL A   1      39.953  25.417  27.660  1.00  0.00     0.060 A 
ATOM     26  C   UNL A   1      39.593  25.795  28.960  1.00  0.00     0.016 A 
ATOM     27  C   UNL A   1      40.230  26.398  26.691  1.00  0.00     0.016 A 
ATOM     28  C   UNL A   1      39.506  27.147  29.292  1.00  0.00     0.010 A 
ATOM     29  C   UNL A   1      40.152  27.751  27.022  1.00  0.00     0.010 A 
ATOM     30  C   UNL A   1      39.811  28.127  28.331  1.00  0.00    -0.014 A 
BRANCH  30  31
ATOM     31  C   UNL A   1      40.151  29.493  28.811  1.00  0.00     0.031 A 
ATOM     32  C   UNL A   1      38.802  30.250  29.167  1.00  0.00     0.074 A 
ATOM     33  C   UNL A   1      41.486  29.839  28.857  1.00  0.00     0.049 A 
ATOM     34  N   UNL A   1      38.546  31.508  29.367  1.00  0.00    -0.248 NA
ATOM     35  C   UNL A   1      37.527  29.464  29.275  1.00  0.00     0.031 C 
ATOM     36  C   UNL A   1      42.634  28.959  28.503  1.00  0.00     0.029 A 
ATOM     37  N   UNL A   1      42.169  30.987  29.213  1.00  0.00    -0.354 N 
ATOM     38  C   UNL A   1      37.216  31.614  29.875  1.00  0.00     0.074 A 
ATOM     39  C   UNL A   1      36.607  30.343  29.672  1.00  0.00     0.031 C 
ATOM     40  C   UNL A   1      43.819  29.624  28.561  1.00  0.00     0.029 A 
ATOM     41  C   UNL A   1      43.592  30.989  28.994  1.00  0.00     0.049 A 
ATOM     42  H   UNL A   1      41.705  31.766  29.598  1.00  0.00     0.167 HD
ATOM     43  C   UNL A   1      36.741  32.704  30.553  1.00  0.00     0.034 A 
ATOM     44  C   UNL A   1      44.484  32.036  29.132  1.00  0.00     0.034 A 
ATOM     45  C   UNL A   1      37.733  33.717  30.549  1.00  0.00     0.049 A 
ATOM     46  C   UNL A   1      43.659  33.057  29.792  1.00  0.00     0.074 A 
ATOM     47  C   UNL A   1      38.160  34.561  29.562  1.00  0.00     0.029 A 
ATOM     48  N   UNL A   1      38.650  33.702  31.572  1.00  0.00    -0.354 N 
ATOM     49  N   UNL A   1      43.279  32.998  31.031  1.00  0.00    -0.248 NA
ATOM     50  C   UNL A   1      43.139  34.172  28.995  1.00  0.00     0.031 C 
ATOM     51  C   UNL A   1      39.552  34.556  29.756  1.00  0.00     0.029 A 
ATOM     52  C   UNL A   1      39.864  33.987  31.001  1.00  0.00     0.049 A 
ATOM     53  H   UNL A   1      38.473  33.522  32.522  1.00  0.00     0.167 HD
ATOM     54  C   UNL A   1      42.230  33.873  31.063  1.00  0.00     0.074 A 
ATOM     55  C   UNL A   1      42.408  34.765  29.934  1.00  0.00     0.031 C 
ATOM     56  C   UNL A   1      41.062  33.512  31.653  1.00  0.00     0.034 A 
BRANCH  43  57
ATOM     57  C   UNL A   1      35.526  32.980  31.407  1.00  0.00     0.023 A 
ATOM     58  C   UNL A   1      34.615  33.948  30.904  1.00  0.00     0.031 A 
ATOM     59  C   UNL A   1      35.384  32.642  32.757  1.00  0.00     0.131 A 
ATOM     60  C   UNL A   1      33.740  34.648  31.744  1.00  0.00     0.055 A 
ATOM     61  C   UNL A   1      34.451  33.293  33.585  1.00  0.00     0.041 A 
ATOM     62  F   UNL A   1      36.189  31.743  33.341  1.00  0.00    -0.206 F 
ATOM     63  C   UNL A   1      33.655  34.329  33.092  1.00  0.00     0.022 A 
BRANCH  60  64
ATOM     64  S   UNL A   1      32.877  36.098  31.064  1.00  0.00     0.124 S 
ATOM     65  O   UNL A   1      31.722  36.214  31.948  1.00  0.00    -0.237 OA
ATOM     66  O   UNL A   1      33.888  37.143  31.195  1.00  0.00    -0.237 OA
ATOM     67  O   UNL A   1      32.572  35.698  29.693  1.00  0.00    -0.744 OA
ENDBRANCH  60  64
ENDBRANCH  43  57
BRANCH  44  68
ATOM     68  C   UNL A   1      45.922  32.502  28.822  1.00  0.00     0.023 A 
ATOM     69  C   UNL A   1      46.419  33.064  27.630  1.00  0.00     0.031 A 
ATOM     70  C   UNL A   1      46.887  32.482  29.891  1.00  0.00     0.131 A 
ATOM     71  C   UNL A   1      47.733  33.646  27.596  1.00  0.00     0.055 A 
ATOM     72  C   UNL A   1      48.120  33.139  29.881  1.00  0.00     0.041 A 
ATOM     73  F   UNL A   1      46.681  31.812  31.033  1.00  0.00    -0.206 F 
ATOM     74  C   UNL A   1      48.543  33.748  28.730  1.00  0.00     0.022 A 
BRANCH  71  75
ATOM     75  S   UNL A   1      48.447  34.324  26.060  1.00  0.00     0.124 S 
ATOM     76  O   UNL A   1      49.412  33.293  25.693  1.00  0.00    -0.237 OA
ATOM     77  O   UNL A   1      47.282  34.454  25.192  1.00  0.00    -0.237 OA
ATOM     78  O   UNL A   1      49.036  35.594  26.487  1.00  0.00    -0.744 OA
ENDBRANCH  71  75
ENDBRANCH  44  68
BRANCH  56  79
ATOM     79  C   UNL A   1      41.169  32.368  32.667  1.00  0.00     0.023 A 
ATOM     80  C   UNL A   1      40.803  31.061  32.295  1.00  0.00     0.031 A 
ATOM     81  C   UNL A   1      41.521  32.533  34.022  1.00  0.00     0.131 A 
ATOM     82  C   UNL A   1      40.772  30.012  33.238  1.00  0.00     0.055 A 
ATOM     83  C   UNL A   1      41.491  31.495  34.965  1.00  0.00     0.041 A 
ATOM     84  F   UNL A   1      41.911  33.713  34.493  1.00  0.00    -0.206 F 
ATOM     85  C   UNL A   1      41.112  30.223  34.575  1.00  0.00     0.022 A 
BRANCH  82  86
ATOM     86  S   UNL A   1      40.307  28.346  32.696  1.00  0.00     0.124 S 
ATOM     87  O   UNL A   1      38.955  28.541  32.187  1.00  0.00    -0.237 OA
ATOM     88  O   UNL A   1      41.331  28.044  31.701  1.00  0.00    -0.237 OA
ATOM     89  O   UNL A   1      40.396  27.551  33.922  1.00  0.00    -0.744 OA
ENDBRANCH  82  86
ENDBRANCH  56  79
ENDBRANCH  30  31
ENDBRANCH  23  25
ENDBRANCH  22  23
ENDBRANCH  21  22
ENDBRANCH   1  21
TORSDOF 17
ENDMDL
MODEL 2
REMARK VINA RESULT:     -11.1      3.754      5.648
REMARK SMILES C[C@@H]1CCC[C@H](C)N1C(=O)Cn1cccc1C(=O)OCCOC(=O)c1ccc(-c2c3nc(c(-c4cc(S(=O)(=O)[O-])ccc4F)c4ccc([nH]4)c(-c4cc(S(=O)(=O)[O-])ccc4F)c4nc(c(-c5cc(S(=O)(=O)[O-])ccc5F)c5ccc2[nH]5)C=C4)C=C3)cc1
REMARK SMILES IDX 20 1 19 2 17 3 18 4 16 5 12 6 13 7 14 8 15 9 11 10 9 11
REMARK SMILES IDX 10 12 8 13 1 14 2 15 3 16 4 17 6 18 5 19 7 20 21 21 22 22
REMARK SMILES IDX 23 23 24 24 25 25 26 26 87 27 27 28 86 29 28 30 29 31 30 32
REMARK SMILES IDX 80 33 31 34 85 35 79 36 81 37 32 38 84 39 78 40 77 41 33 43
REMARK SMILES IDX 65 44 45 45 64 46 46 47 49 48 63 49 82 50 47 51 48 52 62 54
REMARK SMILES IDX 83 55 50 56 34 57 35 58 43 59 36 60 42 61 44 62 41 63 37 64
REMARK SMILES IDX 38 65 39 66 40 67 66 68 67 69 75 70 68 71 74 72 76 73 73 74
REMARK SMILES IDX 69 75 70 76 71 77 72 78 51 79 52 80 60 81 53 82 59 83 61 84
REMARK SMILES IDX 58 85 54 86 55 87 56 88 57 89
REMARK H PARENT 81 42 49 53
REMARK Flexibility Score: inf
ROOT
ATOM      1  C   UNL A   1      36.429  23.613  26.075  1.00  0.00     0.275 C 
ENDROOT
BRANCH   1   2
ATOM      2  O   UNL A   1      35.928  22.312  25.726  1.00  0.00    -0.457 OA
BRANCH   2   3
ATOM      3  C   UNL A   1      35.251  22.272  24.544  1.00  0.00     0.355 C 
ATOM      4  O   UNL A   1      35.521  22.955  23.564  1.00  0.00    -0.244 OA
BRANCH   3   5
ATOM      5  C   UNL A   1      34.277  21.199  24.545  1.00  0.00     0.128 A 
ATOM      6  N   UNL A   1      32.937  21.221  24.192  1.00  0.00    -0.333 N 
ATOM      7  C   UNL A   1      32.479  19.922  24.083  1.00  0.00     0.087 A 
ATOM      8  C   UNL A   1      33.469  19.070  24.502  1.00  0.00     0.020 A 
ATOM      9  C   UNL A   1      34.590  19.868  24.806  1.00  0.00     0.035 A 
BRANCH   6  10
ATOM     10  C   UNL A   1      32.086  22.349  23.813  1.00  0.00     0.222 C 
BRANCH  10  11
ATOM     11  C   UNL A   1      31.734  23.291  24.937  1.00  0.00     0.242 C 
ATOM     12  O   UNL A   1      31.079  22.855  25.891  1.00  0.00    -0.273 OA
BRANCH  11  13
ATOM     13  N   UNL A   1      32.101  24.632  24.855  1.00  0.00    -0.336 N 
ATOM     14  C   UNL A   1      31.563  26.505  26.441  1.00  0.00     0.031 C 
ATOM     15  C   UNL A   1      32.596  25.471  25.982  1.00  0.00     0.082 C 
ATOM     16  C   UNL A   1      33.914  26.171  25.632  1.00  0.00     0.025 C 
ATOM     17  C   UNL A   1      33.809  26.906  24.300  1.00  0.00     0.004 C 
ATOM     18  C   UNL A   1      32.105  25.202  23.498  1.00  0.00     0.082 C 
ATOM     19  C   UNL A   1      33.426  25.913  23.224  1.00  0.00     0.025 C 
ATOM     20  C   UNL A   1      30.894  26.048  23.139  1.00  0.00     0.031 C 
ENDBRANCH  11  13
ENDBRANCH  10  11
ENDBRANCH   6  10
ENDBRANCH   3   5
ENDBRANCH   2   3
ENDBRANCH   1   2
BRANCH   1  21
ATOM     21  C   UNL A   1      37.962  23.712  26.026  1.00  0.00     0.275 C 
BRANCH  21  22
ATOM     22  O   UNL A   1      38.709  23.719  27.256  1.00  0.00    -0.458 OA
BRANCH  22  23
ATOM     23  C   UNL A   1      40.005  24.080  27.324  1.00  0.00     0.338 C 
ATOM     24  O   UNL A   1      40.986  23.354  27.257  1.00  0.00    -0.246 OA
BRANCH  23  25
ATOM     25  C   UNL A   1      40.023  25.519  27.693  1.00  0.00     0.060 A 
ATOM     26  C   UNL A   1      39.644  25.885  28.991  1.00  0.00     0.016 A 
ATOM     27  C   UNL A   1      40.320  26.508  26.739  1.00  0.00     0.016 A 
ATOM     28  C   UNL A   1      39.557  27.234  29.335  1.00  0.00     0.010 A 
ATOM     29  C   UNL A   1      40.242  27.859  27.082  1.00  0.00     0.010 A 
ATOM     30  C   UNL A   1      39.881  28.222  28.390  1.00  0.00    -0.014 A 
BRANCH  30  31
ATOM     31  C   UNL A   1      40.219  29.582  28.889  1.00  0.00     0.031 A 
ATOM     32  C   UNL A   1      38.867  30.357  29.188  1.00  0.00     0.074 A 
ATOM     33  C   UNL A   1      41.555  29.908  28.996  1.00  0.00     0.049 A 
ATOM     34  N   UNL A   1      38.620  31.618  29.381  1.00  0.00    -0.248 NA
ATOM     35  C   UNL A   1      37.577  29.590  29.237  1.00  0.00     0.031 C 
ATOM     36  C   UNL A   1      42.705  29.013  28.688  1.00  0.00     0.029 A 
ATOM     37  N   UNL A   1      42.238  31.046  29.385  1.00  0.00    -0.354 N 
ATOM     38  C   UNL A   1      37.271  31.741  29.831  1.00  0.00     0.074 A 
ATOM     39  C   UNL A   1      36.653  30.481  29.596  1.00  0.00     0.031 C 
ATOM     40  C   UNL A   1      43.896  29.661  28.801  1.00  0.00     0.029 A 
ATOM     41  C   UNL A   1      43.670  31.028  29.229  1.00  0.00     0.049 A 
ATOM     42  H   UNL A   1      41.769  31.830  29.752  1.00  0.00     0.167 HD
ATOM     43  C   UNL A   1      36.782  32.836  30.491  1.00  0.00     0.034 A 
ATOM     44  C   UNL A   1      44.569  32.061  29.410  1.00  0.00     0.034 A 
ATOM     45  C   UNL A   1      37.787  33.835  30.535  1.00  0.00     0.049 A 
ATOM     46  C   UNL A   1      43.730  33.092  30.037  1.00  0.00     0.074 A 
ATOM     47  C   UNL A   1      38.269  34.676  29.570  1.00  0.00     0.029 A 
ATOM     48  N   UNL A   1      38.658  33.804  31.597  1.00  0.00    -0.354 N 
ATOM     49  N   UNL A   1      43.296  33.035  31.258  1.00  0.00    -0.248 NA
ATOM     50  C   UNL A   1      43.263  34.217  29.221  1.00  0.00     0.031 C 
ATOM     51  C   UNL A   1      39.651  34.650  29.826  1.00  0.00     0.029 A 
ATOM     52  C   UNL A   1      39.900  34.073  31.081  1.00  0.00     0.049 A 
ATOM     53  H   UNL A   1      38.436  33.623  32.538  1.00  0.00     0.167 HD
ATOM     54  C   UNL A   1      42.258  33.925  31.247  1.00  0.00     0.074 A 
ATOM     55  C   UNL A   1      42.499  34.818  30.130  1.00  0.00     0.031 C 
ATOM     56  C   UNL A   1      41.061  33.578  31.783  1.00  0.00     0.034 A 
BRANCH  43  57
ATOM     57  C   UNL A   1      35.535  33.127  31.292  1.00  0.00     0.023 A 
ATOM     58  C   UNL A   1      34.745  34.221  30.845  1.00  0.00     0.031 A 
ATOM     59  C   UNL A   1      35.266  32.660  32.583  1.00  0.00     0.131 A 
ATOM     60  C   UNL A   1      33.871  34.902  31.701  1.00  0.00     0.055 A 
ATOM     61  C   UNL A   1      34.332  33.300  33.419  1.00  0.00     0.041 A 
ATOM     62  F   UNL A   1      35.950  31.635  33.112  1.00  0.00    -0.206 F 
ATOM     63  C   UNL A   1      33.662  34.450  32.996  1.00  0.00     0.022 A 
BRANCH  60  64
ATOM     64  S   UNL A   1      33.182  36.488  31.135  1.00  0.00     0.124 S 
ATOM     65  O   UNL A   1      33.854  37.446  32.008  1.00  0.00    -0.237 OA
ATOM     66  O   UNL A   1      33.585  36.513  29.732  1.00  0.00    -0.237 OA
ATOM     67  O   UNL A   1      31.748  36.337  31.366  1.00  0.00    -0.744 OA
ENDBRANCH  60  64
ENDBRANCH  43  57
BRANCH  44  68
ATOM     68  C   UNL A   1      46.026  32.508  29.165  1.00  0.00     0.023 A 
ATOM     69  C   UNL A   1      46.634  32.873  27.949  1.00  0.00     0.031 A 
ATOM     70  C   UNL A   1      46.880  32.696  30.310  1.00  0.00     0.131 A 
ATOM     71  C   UNL A   1      47.938  33.477  27.942  1.00  0.00     0.055 A 
ATOM     72  C   UNL A   1      48.100  33.376  30.307  1.00  0.00     0.041 A 
ATOM     73  F   UNL A   1      46.567  32.225  31.525  1.00  0.00    -0.206 F 
ATOM     74  C   UNL A   1      48.630  33.792  29.115  1.00  0.00     0.022 A 
BRANCH  71  75
ATOM     75  S   UNL A   1      48.796  33.904  26.389  1.00  0.00     0.124 S 
ATOM     76  O   UNL A   1      49.534  32.679  26.104  1.00  0.00    -0.237 OA
ATOM     77  O   UNL A   1      47.693  34.216  25.487  1.00  0.00    -0.237 OA
ATOM     78  O   UNL A   1      49.625  35.051  26.760  1.00  0.00    -0.744 OA
ENDBRANCH  71  75
ENDBRANCH  44  68
BRANCH  56  79
ATOM     79  C   UNL A   1      41.106  32.430  32.797  1.00  0.00     0.023 A 
ATOM     80  C   UNL A   1      40.782  31.121  32.393  1.00  0.00     0.031 A 
ATOM     81  C   UNL A   1      41.358  32.591  34.174  1.00  0.00     0.131 A 
ATOM     82  C   UNL A   1      40.695  30.067  33.327  1.00  0.00     0.055 A 
ATOM     83  C   UNL A   1      41.272  31.547  35.108  1.00  0.00     0.041 A 
ATOM     84  F   UNL A   1      41.701  33.773  34.679  1.00  0.00    -0.206 F 
ATOM     85  C   UNL A   1      40.935  30.274  34.685  1.00  0.00     0.022 A 
BRANCH  82  86
ATOM     86  S   UNL A   1      40.289  28.400  32.744  1.00  0.00     0.124 S 
ATOM     87  O   UNL A   1      38.949  28.571  32.194  1.00  0.00    -0.237 OA
ATOM     88  O   UNL A   1      41.351  28.138  31.778  1.00  0.00    -0.237 OA
ATOM     89  O   UNL A   1      40.357  27.587  33.960  1.00  0.00    -0.744 OA
ENDBRANCH  82  86
ENDBRANCH  56  79
ENDBRANCH  30  31
ENDBRANCH  23  25
ENDBRANCH  22  23
ENDBRANCH  21  22
ENDBRANCH   1  21
TORSDOF 17
ENDMDL
MODEL 3
REMARK VINA RESULT:     -11.1      3.443      5.634
REMARK SMILES C[C@@H]1CCC[C@H](C)N1C(=O)Cn1cccc1C(=O)OCCOC(=O)c1ccc(-c2c3nc(c(-c4cc(S(=O)(=O)[O-])ccc4F)c4ccc([nH]4)c(-c4cc(S(=O)(=O)[O-])ccc4F)c4nc(c(-c5cc(S(=O)(=O)[O-])ccc5F)c5ccc2[nH]5)C=C4)C=C3)cc1
REMARK SMILES IDX 20 1 19 2 17 3 18 4 16 5 12 6 13 7 14 8 15 9 11 10 9 11
REMARK SMILES IDX 10 12 8 13 1 14 2 15 3 16 4 17 6 18 5 19 7 20 21 21 22 22
REMARK SMILES IDX 23 23 24 24 25 25 26 26 87 27 27 28 86 29 28 30 29 31 30 32
REMARK SMILES IDX 80 33 31 34 85 35 79 36 81 37 32 38 84 39 78 40 77 41 33 43
REMARK SMILES IDX 65 44 45 45 64 46 46 47 49 48 63 49 82 50 47 51 48 52 62 54
REMARK SMILES IDX 83 55 50 56 34 57 35 58 43 59 36 60 42 61 44 62 41 63 37 64
REMARK SMILES IDX 38 65 39 66 40 67 66 68 67 69 75 70 68 71 74 72 76 73 73 74
REMARK SMILES IDX 69 75 70 76 71 77 72 78 51 79 52 80 60 81 53 82 59 83 61 84
REMARK SMILES IDX 58 85 54 86 55 87 56 88 57 89
REMARK H PARENT 81 42 49 53
REMARK Flexibility Score: inf
ROOT
ATOM      1  C   UNL A   1      37.133  22.146  25.747  1.00  0.00     0.275 C 
ENDROOT
BRANCH   1   2
ATOM      2  O   UNL A   1      36.888  21.752  24.386  1.00  0.00    -0.457 OA
BRANCH   2   3
ATOM      3  C   UNL A   1      35.916  22.475  23.762  1.00  0.00     0.355 C 
ATOM      4  O   UNL A   1      36.082  23.125  22.737  1.00  0.00    -0.244 OA
BRANCH   3   5
ATOM      5  C   UNL A   1      34.625  22.238  24.375  1.00  0.00     0.128 A 
ATOM      6  N   UNL A   1      33.698  23.146  24.862  1.00  0.00    -0.333 N 
ATOM      7  C   UNL A   1      32.506  22.488  25.098  1.00  0.00     0.087 A 
ATOM      8  C   UNL A   1      32.699  21.144  24.907  1.00  0.00     0.020 A 
ATOM      9  C   UNL A   1      34.029  20.984  24.469  1.00  0.00     0.035 A 
BRANCH   6  10
ATOM     10  C   UNL A   1      33.790  24.600  24.993  1.00  0.00     0.222 C 
BRANCH  10  11
ATOM     11  C   UNL A   1      33.240  25.383  23.827  1.00  0.00     0.242 C 
ATOM     12  O   UNL A   1      33.229  24.853  22.710  1.00  0.00    -0.273 OA
BRANCH  11  13
ATOM     13  N   UNL A   1      32.811  26.695  24.017  1.00  0.00    -0.336 N 
ATOM     14  C   UNL A   1      30.686  27.779  23.230  1.00  0.00     0.031 C 
ATOM     15  C   UNL A   1      31.432  27.115  24.392  1.00  0.00     0.082 C 
ATOM     16  C   UNL A   1      31.434  28.046  25.610  1.00  0.00     0.025 C 
ATOM     17  C   UNL A   1      32.413  29.199  25.420  1.00  0.00     0.004 C 
ATOM     18  C   UNL A   1      33.867  27.718  23.956  1.00  0.00     0.082 C 
ATOM     19  C   UNL A   1      33.794  28.631  25.175  1.00  0.00     0.025 C 
ATOM     20  C   UNL A   1      33.960  28.487  22.647  1.00  0.00     0.031 C 
ENDBRANCH  11  13
ENDBRANCH  10  11
ENDBRANCH   6  10
ENDBRANCH   3   5
ENDBRANCH   2   3
ENDBRANCH   1   2
BRANCH   1  21
ATOM     21  C   UNL A   1      38.577  22.607  26.000  1.00  0.00     0.275 C 
BRANCH  21  22
ATOM     22  O   UNL A   1      38.816  23.743  26.851  1.00  0.00    -0.458 OA
BRANCH  22  23
ATOM     23  C   UNL A   1      40.014  23.998  27.413  1.00  0.00     0.338 C 
ATOM     24  O   UNL A   1      40.867  23.190  27.750  1.00  0.00    -0.246 OA
BRANCH  23  25
ATOM     25  C   UNL A   1      40.031  25.449  27.729  1.00  0.00     0.060 A 
ATOM     26  C   UNL A   1      39.611  25.866  28.998  1.00  0.00     0.016 A 
ATOM     27  C   UNL A   1      40.370  26.401  26.750  1.00  0.00     0.016 A 
ATOM     28  C   UNL A   1      39.523  27.227  29.289  1.00  0.00     0.010 A 
ATOM     29  C   UNL A   1      40.292  27.763  27.040  1.00  0.00     0.010 A 
ATOM     30  C   UNL A   1      39.889  28.178  28.320  1.00  0.00    -0.014 A 
BRANCH  30  31
ATOM     31  C   UNL A   1      40.220  29.553  28.781  1.00  0.00     0.031 A 
ATOM     32  C   UNL A   1      38.868  30.304  29.133  1.00  0.00     0.074 A 
ATOM     33  C   UNL A   1      41.553  29.909  28.817  1.00  0.00     0.049 A 
ATOM     34  N   UNL A   1      38.603  31.563  29.318  1.00  0.00    -0.248 NA
ATOM     35  C   UNL A   1      37.599  29.510  29.256  1.00  0.00     0.031 C 
ATOM     36  C   UNL A   1      42.706  29.033  28.469  1.00  0.00     0.029 A 
ATOM     37  N   UNL A   1      42.229  31.066  29.155  1.00  0.00    -0.354 N 
ATOM     38  C   UNL A   1      37.275  31.665  29.830  1.00  0.00     0.074 A 
ATOM     39  C   UNL A   1      36.674  30.388  29.646  1.00  0.00     0.031 C 
ATOM     40  C   UNL A   1      43.886  29.707  28.513  1.00  0.00     0.029 A 
ATOM     41  C   UNL A   1      43.651  31.076  28.929  1.00  0.00     0.049 A 
ATOM     42  H   UNL A   1      41.761  31.847  29.531  1.00  0.00     0.167 HD
ATOM     43  C   UNL A   1      36.794  32.760  30.496  1.00  0.00     0.034 A 
ATOM     44  C   UNL A   1      44.535  32.131  29.050  1.00  0.00     0.034 A 
ATOM     45  C   UNL A   1      37.778  33.781  30.475  1.00  0.00     0.049 A 
ATOM     46  C   UNL A   1      43.706  33.154  29.701  1.00  0.00     0.074 A 
ATOM     47  C   UNL A   1      38.195  34.615  29.475  1.00  0.00     0.029 A 
ATOM     48  N   UNL A   1      38.700  33.786  31.493  1.00  0.00    -0.354 N 
ATOM     49  N   UNL A   1      43.332  33.109  30.942  1.00  0.00    -0.248 NA
ATOM     50  C   UNL A   1      43.175  34.255  28.891  1.00  0.00     0.031 C 
ATOM     51  C   UNL A   1      39.587  34.622  29.663  1.00  0.00     0.029 A 
ATOM     52  C   UNL A   1      39.909  34.073  30.913  1.00  0.00     0.049 A 
ATOM     53  H   UNL A   1      38.528  33.616  32.447  1.00  0.00     0.167 HD
ATOM     54  C   UNL A   1      42.276  33.977  30.967  1.00  0.00     0.074 A 
ATOM     55  C   UNL A   1      42.442  34.856  29.825  1.00  0.00     0.031 C 
ATOM     56  C   UNL A   1      41.113  33.614  31.566  1.00  0.00     0.034 A 
BRANCH  43  57
ATOM     57  C   UNL A   1      35.581  33.038  31.351  1.00  0.00     0.023 A 
ATOM     58  C   UNL A   1      34.766  34.130  30.945  1.00  0.00     0.031 A 
ATOM     59  C   UNL A   1      35.372  32.562  32.650  1.00  0.00     0.131 A 
ATOM     60  C   UNL A   1      33.925  34.800  31.842  1.00  0.00     0.055 A 
ATOM     61  C   UNL A   1      34.471  33.192  33.529  1.00  0.00     0.041 A 
ATOM     62  F   UNL A   1      36.084  31.539  33.143  1.00  0.00    -0.206 F 
ATOM     63  C   UNL A   1      33.776  34.339  33.143  1.00  0.00     0.022 A 
BRANCH  60  64
ATOM     64  S   UNL A   1      33.203  36.385  31.316  1.00  0.00     0.124 S 
ATOM     65  O   UNL A   1      33.317  36.311  29.863  1.00  0.00    -0.237 OA
ATOM     66  O   UNL A   1      31.849  36.296  31.854  1.00  0.00    -0.237 OA
ATOM     67  O   UNL A   1      34.061  37.378  31.957  1.00  0.00    -0.744 OA
ENDBRANCH  60  64
ENDBRANCH  43  57
BRANCH  44  68
ATOM     68  C   UNL A   1      45.968  32.604  28.728  1.00  0.00     0.023 A 
ATOM     69  C   UNL A   1      46.450  33.180  27.537  1.00  0.00     0.031 A 
ATOM     70  C   UNL A   1      46.947  32.574  29.784  1.00  0.00     0.131 A 
ATOM     71  C   UNL A   1      47.762  33.765  27.492  1.00  0.00     0.055 A 
ATOM     72  C   UNL A   1      48.178  33.234  29.767  1.00  0.00     0.041 A 
ATOM     73  F   UNL A   1      46.755  31.892  30.922  1.00  0.00    -0.206 F 
ATOM     74  C   UNL A   1      48.586  33.857  28.617  1.00  0.00     0.022 A 
BRANCH  71  75
ATOM     75  S   UNL A   1      48.457  34.461  25.955  1.00  0.00     0.124 S 
ATOM     76  O   UNL A   1      47.286  34.508  25.087  1.00  0.00    -0.237 OA
ATOM     77  O   UNL A   1      48.985  35.748  26.394  1.00  0.00    -0.237 OA
ATOM     78  O   UNL A   1      49.475  33.484  25.566  1.00  0.00    -0.744 OA
ENDBRANCH  71  75
ENDBRANCH  44  68
BRANCH  56  79
ATOM     79  C   UNL A   1      41.233  32.485  32.595  1.00  0.00     0.023 A 
ATOM     80  C   UNL A   1      40.824  31.180  32.259  1.00  0.00     0.031 A 
ATOM     81  C   UNL A   1      41.640  32.663  33.933  1.00  0.00     0.131 A 
ATOM     82  C   UNL A   1      40.805  30.148  33.220  1.00  0.00     0.055 A 
ATOM     83  C   UNL A   1      41.623  31.641  34.893  1.00  0.00     0.041 A 
ATOM     84  F   UNL A   1      42.074  33.841  34.369  1.00  0.00    -0.206 F 
ATOM     85  C   UNL A   1      41.201  30.372  34.539  1.00  0.00     0.022 A 
BRANCH  82  86
ATOM     86  S   UNL A   1      40.283  28.485  32.724  1.00  0.00     0.124 S 
ATOM     87  O   UNL A   1      41.267  28.132  31.707  1.00  0.00    -0.237 OA
ATOM     88  O   UNL A   1      40.363  27.744  33.979  1.00  0.00    -0.237 OA
ATOM     89  O   UNL A   1      38.923  28.689  32.222  1.00  0.00    -0.744 OA
ENDBRANCH  82  86
ENDBRANCH  56  79
ENDBRANCH  30  31
ENDBRANCH  23  25
ENDBRANCH  22  23
ENDBRANCH  21  22
ENDBRANCH   1  21
TORSDOF 17
ENDMDL
