MODEL 1
REMARK VINA RESULT:     -11.0      0.000      0.000
REMARK SMILES CC[C@@H](C)C[C@@H](C)NC(=O)NC1(CC(=O)OCCOC(=O)c2ccc(-c3c4nc(c(-c5cc(S(=O)(=O)[O-])ccc5F)c5ccc([nH]5)c(-c5cc(S(=O)(=O)[O-])ccc5F)c5nc(c(-c6cc(S(=O)(=O)[O-])ccc6F)c6ccc3[nH]6)C=C5)C=C4)cc2)CCC1
REMARK SMILES IDX 16 1 14 2 15 3 13 4 12 5 85 6 87 7 86 8 11 9 8 10 9 11 10 13
REMARK SMILES IDX 6 15 7 16 5 17 3 18 4 19 2 20 1 21 17 22 18 23 19 24 20 25
REMARK SMILES IDX 21 26 22 27 23 28 84 29 24 30 83 31 25 32 26 33 27 34 77 35
REMARK SMILES IDX 28 36 82 37 76 38 78 39 29 40 81 41 75 42 74 43 30 45 62 46
REMARK SMILES IDX 42 47 61 48 43 49 46 50 60 51 79 52 44 53 45 54 59 56 80 57
REMARK SMILES IDX 47 58 31 59 32 60 40 61 33 62 39 63 41 64 38 65 34 66 35 67
REMARK SMILES IDX 36 68 37 69 63 70 64 71 72 72 65 73 71 74 73 75 70 76 66 77
REMARK SMILES IDX 67 78 68 79 69 80 48 81 49 82 57 83 50 84 56 85 58 86 55 87
REMARK SMILES IDX 51 88 52 89 53 90 54 91
REMARK H PARENT 8 12 11 14 78 44 46 55
REMARK Flexibility Score: inf
ROOT
ATOM      1  O   UNL A   1      35.362  22.501  26.122  1.00  0.00    -0.462 OA
ENDROOT
BRANCH   1   2
ATOM      2  C   UNL A   1      34.155  23.074  26.342  1.00  0.00     0.308 C 
ATOM      3  O   UNL A   1      33.646  23.212  27.450  1.00  0.00    -0.252 OA
BRANCH   2   4
ATOM      4  C   UNL A   1      33.403  23.402  25.082  1.00  0.00     0.151 C 
BRANCH   4   5
ATOM      5  C   UNL A   1      32.133  22.637  24.717  1.00  0.00     0.052 C 
ATOM      6  C   UNL A   1      32.310  21.248  23.997  1.00  0.00     0.029 C 
ATOM      7  C   UNL A   1      31.450  23.079  23.367  1.00  0.00     0.029 C 
ATOM      8  C   UNL A   1      32.252  21.981  22.653  1.00  0.00     0.005 C 
BRANCH   5   9
ATOM      9  N   UNL A   1      31.164  22.606  25.831  1.00  0.00    -0.332 N 
ATOM     10  N   UNL A   1      30.669  24.825  26.559  1.00  0.00    -0.336 N 
ATOM     11  C   UNL A   1      30.576  23.496  26.647  1.00  0.00     0.315 C 
ATOM     12  H   UNL A   1      30.034  25.275  27.162  1.00  0.00     0.165 HD
ATOM     13  O   UNL A   1      29.842  23.048  27.532  1.00  0.00    -0.249 OA
ATOM     14  H   UNL A   1      30.870  21.687  26.028  1.00  0.00     0.165 HD
BRANCH  10  15
ATOM     15  C   UNL A   1      31.465  25.786  25.804  1.00  0.00     0.081 C 
ATOM     16  C   UNL A   1      31.888  26.914  26.744  1.00  0.00     0.031 C 
BRANCH  15  17
ATOM     17  C   UNL A   1      30.696  26.320  24.576  1.00  0.00     0.028 C 
BRANCH  17  18
ATOM     18  C   UNL A   1      31.513  27.263  23.645  1.00  0.00    -0.013 C 
ATOM     19  C   UNL A   1      30.697  27.541  22.376  1.00  0.00     0.008 C 
BRANCH  18  20
ATOM     20  C   UNL A   1      32.892  26.678  23.278  1.00  0.00    -0.000 C 
ATOM     21  C   UNL A   1      32.980  26.068  21.887  1.00  0.00     0.004 C 
ENDBRANCH  18  20
ENDBRANCH  17  18
ENDBRANCH  15  17
ENDBRANCH  10  15
ENDBRANCH   5   9
ENDBRANCH   4   5
ENDBRANCH   2   4
ENDBRANCH   1   2
BRANCH   1  22
ATOM     22  C   UNL A   1      35.349  21.080  25.881  1.00  0.00     0.274 C 
BRANCH  22  23
ATOM     23  C   UNL A   1      36.502  20.647  24.979  1.00  0.00     0.275 C 
BRANCH  23  24
ATOM     24  O   UNL A   1      37.568  21.609  24.989  1.00  0.00    -0.458 OA
BRANCH  24  25
ATOM     25  C   UNL A   1      38.656  21.240  25.708  1.00  0.00     0.338 C 
ATOM     26  O   UNL A   1      39.146  20.124  25.771  1.00  0.00    -0.246 OA
BRANCH  25  27
ATOM     27  C   UNL A   1      39.204  22.418  26.397  1.00  0.00     0.060 A 
ATOM     28  C   UNL A   1      38.683  23.678  26.106  1.00  0.00     0.016 A 
ATOM     29  C   UNL A   1      40.328  22.287  27.214  1.00  0.00     0.016 A 
ATOM     30  C   UNL A   1      39.348  24.822  26.551  1.00  0.00     0.010 A 
ATOM     31  C   UNL A   1      40.944  23.436  27.722  1.00  0.00     0.010 A 
ATOM     32  C   UNL A   1      40.488  24.718  27.362  1.00  0.00    -0.014 A 
BRANCH  32  33
ATOM     33  C   UNL A   1      41.235  25.935  27.793  1.00  0.00     0.031 A 
ATOM     34  C   UNL A   1      40.543  27.002  28.607  1.00  0.00     0.074 A 
ATOM     35  C   UNL A   1      42.530  26.097  27.456  1.00  0.00     0.049 A 
ATOM     36  N   UNL A   1      40.949  28.210  28.908  1.00  0.00    -0.248 NA
ATOM     37  C   UNL A   1      39.213  26.667  29.134  1.00  0.00     0.031 C 
ATOM     38  C   UNL A   1      43.341  25.128  26.718  1.00  0.00     0.029 A 
ATOM     39  N   UNL A   1      43.391  27.143  27.686  1.00  0.00    -0.354 N 
ATOM     40  C   UNL A   1      39.905  28.800  29.615  1.00  0.00     0.074 A 
ATOM     41  C   UNL A   1      38.843  27.816  29.681  1.00  0.00     0.031 C 
ATOM     42  C   UNL A   1      44.582  25.614  26.573  1.00  0.00     0.029 A 
ATOM     43  C   UNL A   1      44.636  26.961  27.130  1.00  0.00     0.049 A 
ATOM     44  H   UNL A   1      43.141  27.945  28.199  1.00  0.00     0.167 HD
ATOM     45  C   UNL A   1      39.839  30.044  30.156  1.00  0.00     0.034 A 
ATOM     46  C   UNL A   1      45.689  27.798  27.034  1.00  0.00     0.034 A 
ATOM     47  C   UNL A   1      40.923  31.000  30.119  1.00  0.00     0.049 A 
ATOM     48  C   UNL A   1      45.579  29.189  27.595  1.00  0.00     0.074 A 
ATOM     49  C   UNL A   1      40.970  32.275  30.662  1.00  0.00     0.029 A 
ATOM     50  N   UNL A   1      42.155  30.790  29.511  1.00  0.00    -0.354 N 
ATOM     51  N   UNL A   1      44.565  29.756  28.205  1.00  0.00    -0.248 NA
ATOM     52  C   UNL A   1      46.755  30.056  27.445  1.00  0.00     0.031 C 
ATOM     53  C   UNL A   1      42.203  32.852  30.334  1.00  0.00     0.029 A 
ATOM     54  C   UNL A   1      42.955  31.917  29.645  1.00  0.00     0.049 A 
ATOM     55  H   UNL A   1      42.421  29.961  29.051  1.00  0.00     0.167 HD
ATOM     56  C   UNL A   1      44.987  31.044  28.524  1.00  0.00     0.074 A 
ATOM     57  C   UNL A   1      46.353  31.162  28.054  1.00  0.00     0.031 C 
ATOM     58  C   UNL A   1      44.307  32.035  29.153  1.00  0.00     0.034 A 
BRANCH  45  59
ATOM     59  C   UNL A   1      38.528  30.464  30.780  1.00  0.00     0.023 A 
ATOM     60  C   UNL A   1      37.517  31.106  30.043  1.00  0.00     0.031 A 
ATOM     61  C   UNL A   1      38.298  30.235  32.149  1.00  0.00     0.131 A 
ATOM     62  C   UNL A   1      36.356  31.557  30.692  1.00  0.00     0.055 A 
ATOM     63  C   UNL A   1      37.110  30.619  32.773  1.00  0.00     0.041 A 
ATOM     64  F   UNL A   1      39.231  29.641  32.909  1.00  0.00    -0.206 F 
ATOM     65  C   UNL A   1      36.136  31.299  32.047  1.00  0.00     0.022 A 
BRANCH  62  66
ATOM     66  S   UNL A   1      35.194  32.604  29.773  1.00  0.00     0.124 S 
ATOM     67  O   UNL A   1      34.289  33.043  30.831  1.00  0.00    -0.237 OA
ATOM     68  O   UNL A   1      36.068  33.628  29.212  1.00  0.00    -0.237 OA
ATOM     69  O   UNL A   1      34.602  31.688  28.799  1.00  0.00    -0.744 OA
ENDBRANCH  62  66
ENDBRANCH  45  59
BRANCH  46  70
ATOM     70  C   UNL A   1      46.920  27.363  26.318  1.00  0.00     0.023 A 
ATOM     71  C   UNL A   1      47.126  27.689  24.969  1.00  0.00     0.031 A 
ATOM     72  C   UNL A   1      47.900  26.594  26.972  1.00  0.00     0.131 A 
ATOM     73  C   UNL A   1      48.273  27.223  24.307  1.00  0.00     0.055 A 
ATOM     74  C   UNL A   1      49.061  26.174  26.323  1.00  0.00     0.041 A 
ATOM     75  F   UNL A   1      47.749  26.258  28.263  1.00  0.00    -0.206 F 
ATOM     76  C   UNL A   1      49.248  26.481  24.979  1.00  0.00     0.022 A 
BRANCH  73  77
ATOM     77  S   UNL A   1      48.448  27.557  22.533  1.00  0.00     0.124 S 
ATOM     78  O   UNL A   1      48.533  26.209  21.984  1.00  0.00    -0.237 OA
ATOM     79  O   UNL A   1      47.223  28.293  22.239  1.00  0.00    -0.237 OA
ATOM     80  O   UNL A   1      49.677  28.343  22.455  1.00  0.00    -0.744 OA
ENDBRANCH  73  77
ENDBRANCH  46  70
BRANCH  58  81
ATOM     81  C   UNL A   1      45.058  33.320  29.402  1.00  0.00     0.023 A 
ATOM     82  C   UNL A   1      45.107  34.348  28.443  1.00  0.00     0.031 A 
ATOM     83  C   UNL A   1      45.760  33.505  30.607  1.00  0.00     0.131 A 
ATOM     84  C   UNL A   1      45.886  35.490  28.683  1.00  0.00     0.055 A 
ATOM     85  C   UNL A   1      46.492  34.666  30.860  1.00  0.00     0.041 A 
ATOM     86  F   UNL A   1      45.752  32.553  31.555  1.00  0.00    -0.206 F 
ATOM     87  C   UNL A   1      46.568  35.662  29.890  1.00  0.00     0.022 A 
BRANCH  84  88
ATOM     88  S   UNL A   1      46.071  36.716  27.358  1.00  0.00     0.124 S 
ATOM     89  O   UNL A   1      46.386  35.874  26.207  1.00  0.00    -0.237 OA
ATOM     90  O   UNL A   1      44.760  37.357  27.340  1.00  0.00    -0.237 OA
ATOM     91  O   UNL A   1      47.168  37.563  27.823  1.00  0.00    -0.744 OA
ENDBRANCH  84  88
ENDBRANCH  58  81
ENDBRANCH  32  33
ENDBRANCH  25  27
ENDBRANCH  24  25
ENDBRANCH  23  24
ENDBRANCH  22  23
ENDBRANCH   1  22
TORSDOF 20
ENDMDL
MODEL 2
REMARK VINA RESULT:     -10.9      1.900      2.219
REMARK SMILES CC[C@@H](C)C[C@@H](C)NC(=O)NC1(CC(=O)OCCOC(=O)c2ccc(-c3c4nc(c(-c5cc(S(=O)(=O)[O-])ccc5F)c5ccc([nH]5)c(-c5cc(S(=O)(=O)[O-])ccc5F)c5nc(c(-c6cc(S(=O)(=O)[O-])ccc6F)c6ccc3[nH]6)C=C5)C=C4)cc2)CCC1
REMARK SMILES IDX 16 1 14 2 15 3 13 4 12 5 85 6 87 7 86 8 11 9 8 10 9 11 10 13
REMARK SMILES IDX 6 15 7 16 5 17 3 18 4 19 2 20 1 21 17 22 18 23 19 24 20 25
REMARK SMILES IDX 21 26 22 27 23 28 84 29 24 30 83 31 25 32 26 33 27 34 77 35
REMARK SMILES IDX 28 36 82 37 76 38 78 39 29 40 81 41 75 42 74 43 30 45 62 46
REMARK SMILES IDX 42 47 61 48 43 49 46 50 60 51 79 52 44 53 45 54 59 56 80 57
REMARK SMILES IDX 47 58 31 59 32 60 40 61 33 62 39 63 41 64 38 65 34 66 35 67
REMARK SMILES IDX 36 68 37 69 63 70 64 71 72 72 65 73 71 74 73 75 70 76 66 77
REMARK SMILES IDX 67 78 68 79 69 80 48 81 49 82 57 83 50 84 56 85 58 86 55 87
REMARK SMILES IDX 51 88 52 89 53 90 54 91
REMARK H PARENT 8 12 11 14 78 44 46 55
REMARK Flexibility Score: inf
ROOT
ATOM      1  O   UNL A   1      35.251  22.402  26.243  1.00  0.00    -0.462 OA
ENDROOT
BRANCH   1   2
ATOM      2  C   UNL A   1      34.036  22.916  26.549  1.00  0.00     0.308 C 
ATOM      3  O   UNL A   1      33.556  22.931  27.678  1.00  0.00    -0.252 OA
BRANCH   2   4
ATOM      4  C   UNL A   1      33.239  23.340  25.347  1.00  0.00     0.151 C 
BRANCH   4   5
ATOM      5  C   UNL A   1      31.985  22.569  24.938  1.00  0.00     0.052 C 
ATOM      6  C   UNL A   1      32.195  21.196  24.195  1.00  0.00     0.029 C 
ATOM      7  C   UNL A   1      31.329  23.031  23.580  1.00  0.00     0.029 C 
ATOM      8  C   UNL A   1      32.160  21.956  22.864  1.00  0.00     0.005 C 
BRANCH   5   9
ATOM      9  N   UNL A   1      30.992  22.505  26.027  1.00  0.00    -0.332 N 
ATOM     10  N   UNL A   1      30.238  24.700  26.589  1.00  0.00    -0.336 N 
ATOM     11  C   UNL A   1      30.286  23.378  26.766  1.00  0.00     0.315 C 
ATOM     12  H   UNL A   1      29.540  25.116  27.145  1.00  0.00     0.165 HD
ATOM     13  O   UNL A   1      29.577  22.911  27.663  1.00  0.00    -0.249 OA
ATOM     14  H   UNL A   1      30.793  21.575  26.281  1.00  0.00     0.165 HD
BRANCH  10  15
ATOM     15  C   UNL A   1      30.949  25.690  25.788  1.00  0.00     0.081 C 
ATOM     16  C   UNL A   1      31.586  26.712  26.730  1.00  0.00     0.031 C 
BRANCH  15  17
ATOM     17  C   UNL A   1      30.017  26.364  24.757  1.00  0.00     0.028 C 
BRANCH  17  18
ATOM     18  C   UNL A   1      30.696  27.432  23.852  1.00  0.00    -0.013 C 
ATOM     19  C   UNL A   1      29.663  27.972  22.856  1.00  0.00     0.008 C 
BRANCH  18  20
ATOM     20  C   UNL A   1      31.924  26.875  23.103  1.00  0.00    -0.000 C 
ATOM     21  C   UNL A   1      31.620  26.250  21.750  1.00  0.00     0.004 C 
ENDBRANCH  18  20
ENDBRANCH  17  18
ENDBRANCH  15  17
ENDBRANCH  10  15
ENDBRANCH   5   9
ENDBRANCH   4   5
ENDBRANCH   2   4
ENDBRANCH   1   2
BRANCH   1  22
ATOM     22  C   UNL A   1      35.282  20.994  25.942  1.00  0.00     0.274 C 
BRANCH  22  23
ATOM     23  C   UNL A   1      36.377  20.651  24.936  1.00  0.00     0.275 C 
BRANCH  23  24
ATOM     24  O   UNL A   1      37.442  21.615  24.968  1.00  0.00    -0.458 OA
BRANCH  24  25
ATOM     25  C   UNL A   1      38.542  21.217  25.653  1.00  0.00     0.338 C 
ATOM     26  O   UNL A   1      39.018  20.095  25.681  1.00  0.00    -0.246 OA
BRANCH  25  27
ATOM     27  C   UNL A   1      39.123  22.374  26.351  1.00  0.00     0.060 A 
ATOM     28  C   UNL A   1      38.629  23.650  26.078  1.00  0.00     0.016 A 
ATOM     29  C   UNL A   1      40.249  22.208  27.157  1.00  0.00     0.016 A 
ATOM     30  C   UNL A   1      39.324  24.773  26.531  1.00  0.00     0.010 A 
ATOM     31  C   UNL A   1      40.896  23.336  27.673  1.00  0.00     0.010 A 
ATOM     32  C   UNL A   1      40.467  24.633  27.331  1.00  0.00    -0.014 A 
BRANCH  32  33
ATOM     33  C   UNL A   1      41.246  25.827  27.770  1.00  0.00     0.031 A 
ATOM     34  C   UNL A   1      40.590  26.891  28.616  1.00  0.00     0.074 A 
ATOM     35  C   UNL A   1      42.536  25.972  27.411  1.00  0.00     0.049 A 
ATOM     36  N   UNL A   1      41.025  28.086  28.932  1.00  0.00    -0.248 NA
ATOM     37  C   UNL A   1      39.265  26.571  29.163  1.00  0.00     0.031 C 
ATOM     38  C   UNL A   1      43.315  25.001  26.639  1.00  0.00     0.029 A 
ATOM     39  N   UNL A   1      43.422  26.996  27.643  1.00  0.00    -0.354 N 
ATOM     40  C   UNL A   1      40.006  28.682  29.671  1.00  0.00     0.074 A 
ATOM     41  C   UNL A   1      38.928  27.717  29.739  1.00  0.00     0.031 C 
ATOM     42  C   UNL A   1      44.562  25.467  26.478  1.00  0.00     0.029 A 
ATOM     43  C   UNL A   1      44.652  26.802  27.059  1.00  0.00     0.049 A 
ATOM     44  H   UNL A   1      43.197  27.793  28.175  1.00  0.00     0.167 HD
ATOM     45  C   UNL A   1      39.975  29.917  30.235  1.00  0.00     0.034 A 
ATOM     46  C   UNL A   1      45.719  27.620  26.957  1.00  0.00     0.034 A 
ATOM     47  C   UNL A   1      41.076  30.853  30.194  1.00  0.00     0.049 A 
ATOM     48  C   UNL A   1      45.647  29.002  27.546  1.00  0.00     0.074 A 
ATOM     49  C   UNL A   1      41.158  32.116  30.760  1.00  0.00     0.029 A 
ATOM     50  N   UNL A   1      42.291  30.631  29.558  1.00  0.00    -0.354 N 
ATOM     51  N   UNL A   1      44.655  29.577  28.186  1.00  0.00    -0.248 NA
ATOM     52  C   UNL A   1      46.836  29.849  27.390  1.00  0.00     0.031 C 
ATOM     53  C   UNL A   1      42.395  32.676  30.418  1.00  0.00     0.029 A 
ATOM     54  C   UNL A   1      43.116  31.740  29.698  1.00  0.00     0.049 A 
ATOM     55  H   UNL A   1      42.532  29.806  29.079  1.00  0.00     0.167 HD
ATOM     56  C   UNL A   1      45.109  30.850  28.520  1.00  0.00     0.074 A 
ATOM     57  C   UNL A   1      46.467  30.951  28.026  1.00  0.00     0.031 C 
ATOM     58  C   UNL A   1      44.460  31.842  29.181  1.00  0.00     0.034 A 
BRANCH  45  59
ATOM     59  C   UNL A   1      38.684  30.349  30.892  1.00  0.00     0.023 A 
ATOM     60  C   UNL A   1      37.650  30.977  30.176  1.00  0.00     0.031 A 
ATOM     61  C   UNL A   1      38.498  30.147  32.273  1.00  0.00     0.131 A 
ATOM     62  C   UNL A   1      36.510  31.441  30.853  1.00  0.00     0.055 A 
ATOM     63  C   UNL A   1      37.331  30.545  32.927  1.00  0.00     0.041 A 
ATOM     64  F   UNL A   1      39.456  29.568  33.014  1.00  0.00    -0.206 F 
ATOM     65  C   UNL A   1      36.334  31.210  32.219  1.00  0.00     0.022 A 
BRANCH  62  66
ATOM     66  S   UNL A   1      35.319  32.470  29.951  1.00  0.00     0.124 S 
ATOM     67  O   UNL A   1      34.908  31.574  28.874  1.00  0.00    -0.237 OA
ATOM     68  O   UNL A   1      34.312  32.752  30.968  1.00  0.00    -0.237 OA
ATOM     69  O   UNL A   1      36.113  33.621  29.524  1.00  0.00    -0.744 OA
ENDBRANCH  62  66
ENDBRANCH  45  59
BRANCH  46  70
ATOM     70  C   UNL A   1      46.928  27.176  26.209  1.00  0.00     0.023 A 
ATOM     71  C   UNL A   1      47.994  26.543  26.867  1.00  0.00     0.031 A 
ATOM     72  C   UNL A   1      47.041  27.400  24.825  1.00  0.00     0.131 A 
ATOM     73  C   UNL A   1      49.141  26.181  26.144  1.00  0.00     0.055 A 
ATOM     74  C   UNL A   1      48.163  26.995  24.103  1.00  0.00     0.041 A 
ATOM     75  F   UNL A   1      46.046  28.000  24.151  1.00  0.00    -0.206 F 
ATOM     76  C   UNL A   1      49.226  26.389  24.765  1.00  0.00     0.022 A 
BRANCH  73  77
ATOM     77  S   UNL A   1      50.549  25.478  27.044  1.00  0.00     0.124 S 
ATOM     78  O   UNL A   1      51.494  25.219  25.965  1.00  0.00    -0.237 OA
ATOM     79  O   UNL A   1      50.899  26.562  27.956  1.00  0.00    -0.237 OA
ATOM     80  O   UNL A   1      49.987  24.290  27.682  1.00  0.00    -0.744 OA
ENDBRANCH  73  77
ENDBRANCH  46  70
BRANCH  58  81
ATOM     81  C   UNL A   1      45.240  33.108  29.440  1.00  0.00     0.023 A 
ATOM     82  C   UNL A   1      46.020  33.274  30.599  1.00  0.00     0.031 A 
ATOM     83  C   UNL A   1      45.178  34.174  28.525  1.00  0.00     0.131 A 
ATOM     84  C   UNL A   1      46.661  34.499  30.839  1.00  0.00     0.055 A 
ATOM     85  C   UNL A   1      45.860  35.371  28.744  1.00  0.00     0.041 A 
ATOM     86  F   UNL A   1      44.445  34.070  27.404  1.00  0.00    -0.206 F 
ATOM     87  C   UNL A   1      46.597  35.544  29.913  1.00  0.00     0.022 A 
BRANCH  84  88
ATOM     88  S   UNL A   1      47.512  34.745  32.422  1.00  0.00     0.124 S 
ATOM     89  O   UNL A   1      46.568  34.158  33.368  1.00  0.00    -0.237 OA
ATOM     90  O   UNL A   1      48.758  34.012  32.225  1.00  0.00    -0.237 OA
ATOM     91  O   UNL A   1      47.657  36.197  32.514  1.00  0.00    -0.744 OA
ENDBRANCH  84  88
ENDBRANCH  58  81
ENDBRANCH  32  33
ENDBRANCH  25  27
ENDBRANCH  24  25
ENDBRANCH  23  24
ENDBRANCH  22  23
ENDBRANCH   1  22
TORSDOF 20
ENDMDL
MODEL 3
REMARK VINA RESULT:     -10.7      5.252     10.065
REMARK SMILES CC[C@@H](C)C[C@@H](C)NC(=O)NC1(CC(=O)OCCOC(=O)c2ccc(-c3c4nc(c(-c5cc(S(=O)(=O)[O-])ccc5F)c5ccc([nH]5)c(-c5cc(S(=O)(=O)[O-])ccc5F)c5nc(c(-c6cc(S(=O)(=O)[O-])ccc6F)c6ccc3[nH]6)C=C5)C=C4)cc2)CCC1
REMARK SMILES IDX 16 1 14 2 15 3 13 4 12 5 85 6 87 7 86 8 11 9 8 10 9 11 10 13
REMARK SMILES IDX 6 15 7 16 5 17 3 18 4 19 2 20 1 21 17 22 18 23 19 24 20 25
REMARK SMILES IDX 21 26 22 27 23 28 84 29 24 30 83 31 25 32 26 33 27 34 77 35
REMARK SMILES IDX 28 36 82 37 76 38 78 39 29 40 81 41 75 42 74 43 30 45 62 46
REMARK SMILES IDX 42 47 61 48 43 49 46 50 60 51 79 52 44 53 45 54 59 56 80 57
REMARK SMILES IDX 47 58 31 59 32 60 40 61 33 62 39 63 41 64 38 65 34 66 35 67
REMARK SMILES IDX 36 68 37 69 63 70 64 71 72 72 65 73 71 74 73 75 70 76 66 77
REMARK SMILES IDX 67 78 68 79 69 80 48 81 49 82 57 83 50 84 56 85 58 86 55 87
REMARK SMILES IDX 51 88 52 89 53 90 54 91
REMARK H PARENT 8 12 11 14 78 44 46 55
REMARK Flexibility Score: inf
ROOT
ATOM      1  O   UNL A   1      31.960  28.839  25.341  1.00  0.00    -0.462 OA
ENDROOT
BRANCH   1   2
ATOM      2  C   UNL A   1      32.680  28.529  24.237  1.00  0.00     0.308 C 
ATOM      3  O   UNL A   1      33.331  29.340  23.585  1.00  0.00    -0.252 OA
BRANCH   2   4
ATOM      4  C   UNL A   1      32.497  27.111  23.774  1.00  0.00     0.151 C 
BRANCH   4   5
ATOM      5  C   UNL A   1      31.392  26.757  22.781  1.00  0.00     0.052 C 
ATOM      6  C   UNL A   1      30.143  27.715  22.721  1.00  0.00     0.029 C 
ATOM      7  C   UNL A   1      30.354  25.684  23.288  1.00  0.00     0.029 C 
ATOM      8  C   UNL A   1      29.469  26.838  23.781  1.00  0.00     0.005 C 
BRANCH   5   9
ATOM      9  N   UNL A   1      31.931  26.406  21.452  1.00  0.00    -0.332 N 
ATOM     10  N   UNL A   1      32.943  24.245  21.515  1.00  0.00    -0.336 N 
ATOM     11  C   UNL A   1      32.623  25.390  20.909  1.00  0.00     0.315 C 
ATOM     12  H   UNL A   1      33.313  23.589  20.880  1.00  0.00     0.165 HD
ATOM     13  O   UNL A   1      32.953  25.504  19.726  1.00  0.00    -0.249 OA
ATOM     14  H   UNL A   1      31.729  27.102  20.785  1.00  0.00     0.165 HD
BRANCH  10  15
ATOM     15  C   UNL A   1      32.889  23.709  22.870  1.00  0.00     0.081 C 
ATOM     16  C   UNL A   1      34.238  23.954  23.545  1.00  0.00     0.031 C 
BRANCH  15  17
ATOM     17  C   UNL A   1      32.509  22.212  22.876  1.00  0.00     0.028 C 
BRANCH  17  18
ATOM     18  C   UNL A   1      32.676  21.494  24.246  1.00  0.00    -0.013 C 
ATOM     19  C   UNL A   1      32.596  19.978  24.028  1.00  0.00     0.008 C 
BRANCH  18  20
ATOM     20  C   UNL A   1      31.621  21.943  25.279  1.00  0.00    -0.000 C 
ATOM     21  C   UNL A   1      32.170  22.749  26.446  1.00  0.00     0.004 C 
ENDBRANCH  18  20
ENDBRANCH  17  18
ENDBRANCH  15  17
ENDBRANCH  10  15
ENDBRANCH   5   9
ENDBRANCH   4   5
ENDBRANCH   2   4
ENDBRANCH   1   2
BRANCH   1  22
ATOM     22  C   UNL A   1      31.279  30.108  25.312  1.00  0.00     0.274 C 
BRANCH  22  23
ATOM     23  C   UNL A   1      31.685  30.998  26.484  1.00  0.00     0.275 C 
BRANCH  23  24
ATOM     24  O   UNL A   1      33.039  30.745  26.892  1.00  0.00    -0.458 OA
BRANCH  24  25
ATOM     25  C   UNL A   1      33.659  31.798  27.477  1.00  0.00     0.338 C 
ATOM     26  O   UNL A   1      33.186  32.905  27.676  1.00  0.00    -0.246 OA
BRANCH  25  27
ATOM     27  C   UNL A   1      35.015  31.399  27.884  1.00  0.00     0.060 A 
ATOM     28  C   UNL A   1      35.264  30.062  28.195  1.00  0.00     0.016 A 
ATOM     29  C   UNL A   1      35.992  32.370  28.099  1.00  0.00     0.016 A 
ATOM     30  C   UNL A   1      36.461  29.708  28.820  1.00  0.00     0.010 A 
ATOM     31  C   UNL A   1      37.221  31.996  28.653  1.00  0.00     0.010 A 
ATOM     32  C   UNL A   1      37.454  30.669  29.060  1.00  0.00    -0.014 A 
BRANCH  32  33
ATOM     33  C   UNL A   1      38.711  30.308  29.777  1.00  0.00     0.031 A 
ATOM     34  C   UNL A   1      39.693  29.346  29.152  1.00  0.00     0.074 A 
ATOM     35  C   UNL A   1      38.979  30.829  30.991  1.00  0.00     0.049 A 
ATOM     36  N   UNL A   1      40.732  28.756  29.688  1.00  0.00    -0.248 NA
ATOM     37  C   UNL A   1      39.461  28.994  27.745  1.00  0.00     0.031 C 
ATOM     38  C   UNL A   1      38.150  31.808  31.695  1.00  0.00     0.029 A 
ATOM     39  N   UNL A   1      40.026  30.602  31.852  1.00  0.00    -0.354 N 
ATOM     40  C   UNL A   1      41.249  27.920  28.700  1.00  0.00     0.074 A 
ATOM     41  C   UNL A   1      40.394  28.075  27.540  1.00  0.00     0.031 C 
ATOM     42  C   UNL A   1      38.726  32.110  32.867  1.00  0.00     0.029 A 
ATOM     43  C   UNL A   1      39.919  31.289  33.039  1.00  0.00     0.049 A 
ATOM     44  H   UNL A   1      40.780  30.005  31.640  1.00  0.00     0.167 HD
ATOM     45  C   UNL A   1      42.332  27.103  28.758  1.00  0.00     0.034 A 
ATOM     46  C   UNL A   1      40.665  31.233  34.160  1.00  0.00     0.034 A 
ATOM     47  C   UNL A   1      43.200  26.992  29.909  1.00  0.00     0.049 A 
ATOM     48  C   UNL A   1      41.831  30.285  34.223  1.00  0.00     0.074 A 
ATOM     49  C   UNL A   1      44.340  26.217  30.059  1.00  0.00     0.029 A 
ATOM     50  N   UNL A   1      43.033  27.677  31.106  1.00  0.00    -0.354 N 
ATOM     51  N   UNL A   1      42.271  29.454  33.307  1.00  0.00    -0.248 NA
ATOM     52  C   UNL A   1      42.595  30.259  35.477  1.00  0.00     0.031 C 
ATOM     53  C   UNL A   1      44.826  26.390  31.361  1.00  0.00     0.029 A 
ATOM     54  C   UNL A   1      44.033  27.325  32.004  1.00  0.00     0.049 A 
ATOM     55  H   UNL A   1      42.311  28.320  31.290  1.00  0.00     0.167 HD
ATOM     56  C   UNL A   1      43.374  28.818  33.871  1.00  0.00     0.074 A 
ATOM     57  C   UNL A   1      43.540  29.373  35.199  1.00  0.00     0.031 C 
ATOM     58  C   UNL A   1      44.177  27.865  33.335  1.00  0.00     0.034 A 
BRANCH  45  59
ATOM     59  C   UNL A   1      42.601  26.218  27.563  1.00  0.00     0.023 A 
ATOM     60  C   UNL A   1      42.062  24.924  27.449  1.00  0.00     0.031 A 
ATOM     61  C   UNL A   1      43.436  26.675  26.525  1.00  0.00     0.131 A 
ATOM     62  C   UNL A   1      42.418  24.110  26.362  1.00  0.00     0.055 A 
ATOM     63  C   UNL A   1      43.726  25.888  25.410  1.00  0.00     0.041 A 
ATOM     64  F   UNL A   1      43.993  27.895  26.584  1.00  0.00    -0.206 F 
ATOM     65  C   UNL A   1      43.229  24.591  25.331  1.00  0.00     0.022 A 
BRANCH  62  66
ATOM     66  S   UNL A   1      41.916  22.366  26.377  1.00  0.00     0.124 S 
ATOM     67  O   UNL A   1      42.535  21.890  27.611  1.00  0.00    -0.237 OA
ATOM     68  O   UNL A   1      40.460  22.458  26.385  1.00  0.00    -0.237 OA
ATOM     69  O   UNL A   1      42.500  21.830  25.149  1.00  0.00    -0.744 OA
ENDBRANCH  62  66
ENDBRANCH  45  59
BRANCH  46  70
ATOM     70  C   UNL A   1      40.291  32.055  35.344  1.00  0.00     0.023 A 
ATOM     71  C   UNL A   1      39.283  31.638  36.226  1.00  0.00     0.031 A 
ATOM     72  C   UNL A   1      40.926  33.285  35.597  1.00  0.00     0.131 A 
ATOM     73  C   UNL A   1      38.918  32.457  37.305  1.00  0.00     0.055 A 
ATOM     74  C   UNL A   1      40.592  34.074  36.697  1.00  0.00     0.041 A 
ATOM     75  F   UNL A   1      41.898  33.726  34.782  1.00  0.00    -0.206 F 
ATOM     76  C   UNL A   1      39.576  33.664  37.555  1.00  0.00     0.022 A 
BRANCH  73  77
ATOM     77  S   UNL A   1      37.529  31.948  38.353  1.00  0.00     0.124 S 
ATOM     78  O   UNL A   1      36.535  32.970  38.047  1.00  0.00    -0.237 OA
ATOM     79  O   UNL A   1      37.245  30.607  37.851  1.00  0.00    -0.237 OA
ATOM     80  O   UNL A   1      38.084  31.999  39.703  1.00  0.00    -0.744 OA
ENDBRANCH  73  77
ENDBRANCH  46  70
BRANCH  58  81
ATOM     81  C   UNL A   1      45.336  27.399  34.183  1.00  0.00     0.023 A 
ATOM     82  C   UNL A   1      45.233  26.277  35.026  1.00  0.00     0.031 A 
ATOM     83  C   UNL A   1      46.550  28.108  34.169  1.00  0.00     0.131 A 
ATOM     84  C   UNL A   1      46.306  25.930  35.860  1.00  0.00     0.055 A 
ATOM     85  C   UNL A   1      47.633  27.726  34.963  1.00  0.00     0.041 A 
ATOM     86  F   UNL A   1      46.701  29.189  33.387  1.00  0.00    -0.206 F 
ATOM     87  C   UNL A   1      47.510  26.639  35.824  1.00  0.00     0.022 A 
BRANCH  84  88
ATOM     88  S   UNL A   1      46.082  24.589  37.061  1.00  0.00     0.124 S 
ATOM     89  O   UNL A   1      47.008  23.576  36.561  1.00  0.00    -0.237 OA
ATOM     90  O   UNL A   1      46.455  25.229  38.318  1.00  0.00    -0.237 OA
ATOM     91  O   UNL A   1      44.666  24.247  36.936  1.00  0.00    -0.744 OA
ENDBRANCH  84  88
ENDBRANCH  58  81
ENDBRANCH  32  33
ENDBRANCH  25  27
ENDBRANCH  24  25
ENDBRANCH  23  24
ENDBRANCH  22  23
ENDBRANCH   1  22
TORSDOF 20
ENDMDL
