MODEL 1
REMARK VINA RESULT:     -12.2      0.000      0.000
REMARK SMILES Cc1ccc(NC(=O)N2CCCC[C@@H]2C(=O)OCCOC(=O)c2ccc(-c3c4nc(c(-c5cc(S(=O)(=O)[O-])ccc5F)c5ccc([nH]5)c(-c5cc(S(=O)(=O)[O-])ccc5F)c5nc(c(-c6cc(S(=O)(=O)[O-])ccc6F)c6ccc3[nH]6)C=C5)C=C4)cc2)cc1
REMARK SMILES IDX 19 1 18 2 17 3 15 4 16 5 14 6 9 7 10 8 11 9 13 10 12 11 7 12
REMARK SMILES IDX 6 13 8 15 5 16 1 17 2 18 3 19 87 20 4 21 86 22 20 23 21 24
REMARK SMILES IDX 22 25 23 26 24 27 85 28 25 29 84 30 26 31 27 32 28 33 78 34
REMARK SMILES IDX 29 35 83 36 77 37 79 38 30 39 82 40 76 41 75 42 31 44 63 45
REMARK SMILES IDX 43 46 62 47 44 48 47 49 61 50 80 51 45 52 46 53 60 55 81 56
REMARK SMILES IDX 48 57 32 58 33 59 41 60 34 61 40 62 42 63 39 64 35 65 36 66
REMARK SMILES IDX 37 67 38 68 64 69 65 70 73 71 66 72 72 73 74 74 71 75 67 76
REMARK SMILES IDX 68 77 69 78 70 79 49 80 50 81 58 82 51 83 57 84 59 85 56 86
REMARK SMILES IDX 52 87 53 88 54 89 55 90
REMARK H PARENT 6 14 79 43 47 54
REMARK Flexibility Score: inf
ROOT
ATOM      1  C   UNL A   1      34.406  30.209  27.239  1.00  0.00     0.275 C 
ENDROOT
BRANCH   1   2
ATOM      2  C   UNL A   1      33.890  28.752  27.202  1.00  0.00     0.274 C 
BRANCH   2   3
ATOM      3  O   UNL A   1      33.476  28.345  25.890  1.00  0.00    -0.461 OA
BRANCH   3   4
ATOM      4  C   UNL A   1      32.650  27.250  25.797  1.00  0.00     0.329 C 
ATOM      5  O   UNL A   1      32.587  26.375  26.647  1.00  0.00    -0.250 OA
BRANCH   4   6
ATOM      6  C   UNL A   1      32.085  27.173  24.348  1.00  0.00     0.196 C 
ATOM      7  N   UNL A   1      32.447  26.033  23.443  1.00  0.00    -0.311 N 
ATOM      8  C   UNL A   1      33.138  26.230  22.182  1.00  0.00     0.122 C 
ATOM      9  C   UNL A   1      33.803  27.573  22.017  1.00  0.00     0.022 C 
ATOM     10  C   UNL A   1      32.491  28.573  23.829  1.00  0.00     0.037 C 
ATOM     11  C   UNL A   1      32.801  28.657  22.354  1.00  0.00     0.005 C 
BRANCH   7  12
ATOM     12  C   UNL A   1      32.127  24.721  23.651  1.00  0.00     0.322 C 
ATOM     13  N   UNL A   1      33.032  23.803  24.085  1.00  0.00    -0.308 N 
ATOM     14  H   UNL A   1      32.586  22.978  24.384  1.00  0.00     0.171 HD
ATOM     15  O   UNL A   1      30.941  24.382  23.681  1.00  0.00    -0.248 OA
BRANCH  13  16
ATOM     16  C   UNL A   1      34.428  23.707  24.223  1.00  0.00     0.042 A 
ATOM     17  C   UNL A   1      38.270  22.274  25.488  1.00  0.00     0.044 C 
ATOM     18  C   UNL A   1      37.042  22.976  24.979  1.00  0.00    -0.051 A 
ATOM     19  C   UNL A   1      36.579  22.742  23.680  1.00  0.00     0.005 A 
ATOM     20  C   UNL A   1      36.276  23.779  25.825  1.00  0.00     0.005 A 
ATOM     21  C   UNL A   1      35.286  23.130  23.298  1.00  0.00     0.026 A 
ATOM     22  C   UNL A   1      34.967  24.123  25.454  1.00  0.00     0.026 A 
ENDBRANCH  13  16
ENDBRANCH   7  12
ENDBRANCH   4   6
ENDBRANCH   3   4
ENDBRANCH   2   3
ENDBRANCH   1   2
BRANCH   1  23
ATOM     23  O   UNL A   1      35.120  30.640  28.432  1.00  0.00    -0.458 OA
BRANCH  23  24
ATOM     24  C   UNL A   1      36.453  30.925  28.541  1.00  0.00     0.338 C 
ATOM     25  O   UNL A   1      36.838  32.014  28.953  1.00  0.00    -0.246 OA
BRANCH  24  26
ATOM     26  C   UNL A   1      37.381  29.789  28.377  1.00  0.00     0.060 A 
ATOM     27  C   UNL A   1      38.175  29.746  27.226  1.00  0.00     0.016 A 
ATOM     28  C   UNL A   1      37.652  28.956  29.450  1.00  0.00     0.016 A 
ATOM     29  C   UNL A   1      39.367  29.019  27.236  1.00  0.00     0.010 A 
ATOM     30  C   UNL A   1      38.889  28.349  29.508  1.00  0.00     0.010 A 
ATOM     31  C   UNL A   1      39.765  28.381  28.406  1.00  0.00    -0.014 A 
BRANCH  31  32
ATOM     32  C   UNL A   1      40.910  27.474  28.484  1.00  0.00     0.031 A 
ATOM     33  C   UNL A   1      40.850  25.993  28.418  1.00  0.00     0.074 A 
ATOM     34  C   UNL A   1      42.088  28.123  28.627  1.00  0.00     0.049 A 
ATOM     35  N   UNL A   1      41.794  25.216  28.829  1.00  0.00    -0.248 NA
ATOM     36  C   UNL A   1      39.724  25.237  27.893  1.00  0.00     0.031 C 
ATOM     37  C   UNL A   1      43.446  27.620  28.588  1.00  0.00     0.029 A 
ATOM     38  N   UNL A   1      42.244  29.443  29.064  1.00  0.00    -0.354 N 
ATOM     39  C   UNL A   1      41.548  23.939  28.357  1.00  0.00     0.074 A 
ATOM     40  C   UNL A   1      40.197  23.983  27.869  1.00  0.00     0.031 C 
ATOM     41  C   UNL A   1      44.222  28.467  29.294  1.00  0.00     0.029 A 
ATOM     42  C   UNL A   1      43.337  29.440  29.925  1.00  0.00     0.049 A 
ATOM     43  H   UNL A   1      41.691  30.218  28.812  1.00  0.00     0.167 HD
ATOM     44  C   UNL A   1      42.582  23.050  28.313  1.00  0.00     0.034 A 
ATOM     45  C   UNL A   1      43.158  29.633  31.268  1.00  0.00     0.034 A 
ATOM     46  C   UNL A   1      43.735  23.591  29.027  1.00  0.00     0.049 A 
ATOM     47  C   UNL A   1      43.564  28.394  32.069  1.00  0.00     0.074 A 
ATOM     48  C   UNL A   1      44.885  24.254  28.636  1.00  0.00     0.029 A 
ATOM     49  N   UNL A   1      43.615  23.792  30.388  1.00  0.00    -0.354 N 
ATOM     50  N   UNL A   1      43.820  27.227  31.544  1.00  0.00    -0.248 NA
ATOM     51  C   UNL A   1      43.624  28.358  33.531  1.00  0.00     0.031 C 
ATOM     52  C   UNL A   1      45.399  24.937  29.778  1.00  0.00     0.029 A 
ATOM     53  C   UNL A   1      44.585  24.649  30.858  1.00  0.00     0.049 A 
ATOM     54  H   UNL A   1      42.923  23.374  30.951  1.00  0.00     0.167 HD
ATOM     55  C   UNL A   1      44.133  26.326  32.525  1.00  0.00     0.074 A 
ATOM     56  C   UNL A   1      43.938  27.070  33.759  1.00  0.00     0.031 C 
ATOM     57  C   UNL A   1      44.539  25.048  32.255  1.00  0.00     0.034 A 
BRANCH  44  58
ATOM     58  C   UNL A   1      42.680  21.827  27.425  1.00  0.00     0.023 A 
ATOM     59  C   UNL A   1      43.732  21.790  26.481  1.00  0.00     0.031 A 
ATOM     60  C   UNL A   1      41.795  20.736  27.376  1.00  0.00     0.131 A 
ATOM     61  C   UNL A   1      43.825  20.787  25.501  1.00  0.00     0.055 A 
ATOM     62  C   UNL A   1      41.880  19.733  26.390  1.00  0.00     0.041 A 
ATOM     63  F   UNL A   1      40.828  20.566  28.284  1.00  0.00    -0.206 F 
ATOM     64  C   UNL A   1      42.889  19.764  25.435  1.00  0.00     0.022 A 
BRANCH  61  65
ATOM     65  S   UNL A   1      45.169  20.883  24.287  1.00  0.00     0.124 S 
ATOM     66  O   UNL A   1      45.264  19.502  23.820  1.00  0.00    -0.237 OA
ATOM     67  O   UNL A   1      44.655  21.853  23.327  1.00  0.00    -0.237 OA
ATOM     68  O   UNL A   1      46.311  21.343  25.078  1.00  0.00    -0.744 OA
ENDBRANCH  61  65
ENDBRANCH  44  58
BRANCH  45  69
ATOM     69  C   UNL A   1      41.972  30.501  31.609  1.00  0.00     0.023 A 
ATOM     70  C   UNL A   1      40.718  29.909  31.930  1.00  0.00     0.031 A 
ATOM     71  C   UNL A   1      42.175  31.820  32.027  1.00  0.00     0.131 A 
ATOM     72  C   UNL A   1      39.773  30.598  32.722  1.00  0.00     0.055 A 
ATOM     73  C   UNL A   1      41.220  32.483  32.796  1.00  0.00     0.041 A 
ATOM     74  F   UNL A   1      43.353  32.434  31.845  1.00  0.00    -0.206 F 
ATOM     75  C   UNL A   1      40.021  31.891  33.155  1.00  0.00     0.022 A 
BRANCH  72  76
ATOM     76  S   UNL A   1      38.355  29.714  33.446  1.00  0.00     0.124 S 
ATOM     77  O   UNL A   1      37.227  30.367  32.793  1.00  0.00    -0.237 OA
ATOM     78  O   UNL A   1      38.615  28.332  33.059  1.00  0.00    -0.237 OA
ATOM     79  O   UNL A   1      38.487  29.974  34.878  1.00  0.00    -0.744 OA
ENDBRANCH  72  76
ENDBRANCH  45  69
BRANCH  57  80
ATOM     80  C   UNL A   1      44.981  24.062  33.304  1.00  0.00     0.023 A 
ATOM     81  C   UNL A   1      46.299  24.044  33.773  1.00  0.00     0.031 A 
ATOM     82  C   UNL A   1      44.133  23.037  33.788  1.00  0.00     0.131 A 
ATOM     83  C   UNL A   1      46.705  23.109  34.738  1.00  0.00     0.055 A 
ATOM     84  C   UNL A   1      44.569  22.045  34.667  1.00  0.00     0.041 A 
ATOM     85  F   UNL A   1      42.835  22.972  33.458  1.00  0.00    -0.206 F 
ATOM     86  C   UNL A   1      45.861  22.086  35.164  1.00  0.00     0.022 A 
BRANCH  83  87
ATOM     87  S   UNL A   1      48.335  23.325  35.488  1.00  0.00     0.124 S 
ATOM     88  O   UNL A   1      48.115  24.428  36.417  1.00  0.00    -0.237 OA
ATOM     89  O   UNL A   1      48.550  22.016  36.099  1.00  0.00    -0.237 OA
ATOM     90  O   UNL A   1      49.200  23.628  34.350  1.00  0.00    -0.744 OA
ENDBRANCH  83  87
ENDBRANCH  57  80
ENDBRANCH  31  32
ENDBRANCH  24  26
ENDBRANCH  23  24
ENDBRANCH   1  23
TORSDOF 16
ENDMDL
MODEL 2
REMARK VINA RESULT:     -11.9      4.823     10.416
REMARK SMILES Cc1ccc(NC(=O)N2CCCC[C@@H]2C(=O)OCCOC(=O)c2ccc(-c3c4nc(c(-c5cc(S(=O)(=O)[O-])ccc5F)c5ccc([nH]5)c(-c5cc(S(=O)(=O)[O-])ccc5F)c5nc(c(-c6cc(S(=O)(=O)[O-])ccc6F)c6ccc3[nH]6)C=C5)C=C4)cc2)cc1
REMARK SMILES IDX 19 1 18 2 17 3 15 4 16 5 14 6 9 7 10 8 11 9 13 10 12 11 7 12
REMARK SMILES IDX 6 13 8 15 5 16 1 17 2 18 3 19 87 20 4 21 86 22 20 23 21 24
REMARK SMILES IDX 22 25 23 26 24 27 85 28 25 29 84 30 26 31 27 32 28 33 78 34
REMARK SMILES IDX 29 35 83 36 77 37 79 38 30 39 82 40 76 41 75 42 31 44 63 45
REMARK SMILES IDX 43 46 62 47 44 48 47 49 61 50 80 51 45 52 46 53 60 55 81 56
REMARK SMILES IDX 48 57 32 58 33 59 41 60 34 61 40 62 42 63 39 64 35 65 36 66
REMARK SMILES IDX 37 67 38 68 64 69 65 70 73 71 66 72 72 73 74 74 71 75 67 76
REMARK SMILES IDX 68 77 69 78 70 79 49 80 50 81 58 82 51 83 57 84 59 85 56 86
REMARK SMILES IDX 52 87 53 88 54 89 55 90
REMARK H PARENT 6 14 79 43 47 54
REMARK Flexibility Score: inf
ROOT
ATOM      1  C   UNL A   1      39.000  22.220  26.147  1.00  0.00     0.275 C 
ENDROOT
BRANCH   1   2
ATOM      2  C   UNL A   1      37.679  22.874  25.678  1.00  0.00     0.274 C 
BRANCH   2   3
ATOM      3  O   UNL A   1      36.634  21.914  25.467  1.00  0.00    -0.461 OA
BRANCH   3   4
ATOM      4  C   UNL A   1      35.457  22.368  24.918  1.00  0.00     0.329 C 
ATOM      5  O   UNL A   1      35.380  23.360  24.209  1.00  0.00    -0.250 OA
BRANCH   4   6
ATOM      6  C   UNL A   1      34.271  21.617  25.589  1.00  0.00     0.196 C 
ATOM      7  N   UNL A   1      32.881  21.724  25.033  1.00  0.00    -0.311 N 
ATOM      8  C   UNL A   1      31.776  22.265  25.801  1.00  0.00     0.122 C 
ATOM      9  C   UNL A   1      32.168  23.056  27.023  1.00  0.00     0.022 C 
ATOM     10  C   UNL A   1      34.430  22.113  27.046  1.00  0.00     0.037 C 
ATOM     11  C   UNL A   1      33.150  22.240  27.836  1.00  0.00     0.005 C 
BRANCH   7  12
ATOM     12  C   UNL A   1      32.483  21.282  23.803  1.00  0.00     0.322 C 
ATOM     13  N   UNL A   1      32.414  19.961  23.483  1.00  0.00    -0.308 N 
ATOM     14  H   UNL A   1      31.910  19.823  22.650  1.00  0.00     0.171 HD
ATOM     15  O   UNL A   1      31.942  22.067  23.020  1.00  0.00    -0.248 OA
BRANCH  13  16
ATOM     16  C   UNL A   1      32.866  18.740  24.014  1.00  0.00     0.042 A 
ATOM     17  C   UNL A   1      32.809  14.699  25.458  1.00  0.00     0.044 C 
ATOM     18  C   UNL A   1      33.045  16.130  25.059  1.00  0.00    -0.051 A 
ATOM     19  C   UNL A   1      33.574  16.436  23.802  1.00  0.00     0.005 A 
ATOM     20  C   UNL A   1      32.632  17.178  25.882  1.00  0.00     0.005 A 
ATOM     21  C   UNL A   1      33.508  17.743  23.294  1.00  0.00     0.026 A 
ATOM     22  C   UNL A   1      32.524  18.473  25.352  1.00  0.00     0.026 A 
ENDBRANCH  13  16
ENDBRANCH   7  12
ENDBRANCH   4   6
ENDBRANCH   3   4
ENDBRANCH   2   3
ENDBRANCH   1   2
BRANCH   1  23
ATOM     23  O   UNL A   1      39.764  22.912  27.176  1.00  0.00    -0.458 OA
BRANCH  23  24
ATOM     24  C   UNL A   1      40.593  23.986  27.011  1.00  0.00     0.338 C 
ATOM     25  O   UNL A   1      41.626  23.898  26.355  1.00  0.00    -0.246 OA
BRANCH  24  26
ATOM     26  C   UNL A   1      40.064  25.294  27.445  1.00  0.00     0.060 A 
ATOM     27  C   UNL A   1      39.265  25.335  28.593  1.00  0.00     0.016 A 
ATOM     28  C   UNL A   1      40.570  26.462  26.899  1.00  0.00     0.016 A 
ATOM     29  C   UNL A   1      39.150  26.525  29.313  1.00  0.00     0.010 A 
ATOM     30  C   UNL A   1      40.568  27.600  27.678  1.00  0.00     0.010 A 
ATOM     31  C   UNL A   1      39.867  27.644  28.898  1.00  0.00    -0.014 A 
BRANCH  31  32
ATOM     32  C   UNL A   1      39.704  28.973  29.486  1.00  0.00     0.031 A 
ATOM     33  C   UNL A   1      38.794  30.035  28.990  1.00  0.00     0.074 A 
ATOM     34  C   UNL A   1      40.486  29.169  30.570  1.00  0.00     0.049 A 
ATOM     35  N   UNL A   1      38.914  31.283  29.292  1.00  0.00    -0.248 NA
ATOM     36  C   UNL A   1      37.665  29.804  28.102  1.00  0.00     0.031 C 
ATOM     37  C   UNL A   1      40.517  30.265  31.518  1.00  0.00     0.029 A 
ATOM     38  N   UNL A   1      41.619  28.419  30.905  1.00  0.00    -0.354 N 
ATOM     39  C   UNL A   1      37.755  31.939  28.916  1.00  0.00     0.074 A 
ATOM     40  C   UNL A   1      37.054  30.997  28.088  1.00  0.00     0.031 C 
ATOM     41  C   UNL A   1      41.749  30.306  32.064  1.00  0.00     0.029 A 
ATOM     42  C   UNL A   1      42.570  29.331  31.353  1.00  0.00     0.049 A 
ATOM     43  H   UNL A   1      41.722  27.443  30.839  1.00  0.00     0.167 HD
ATOM     44  C   UNL A   1      37.479  33.150  29.481  1.00  0.00     0.034 A 
ATOM     45  C   UNL A   1      43.683  29.593  30.601  1.00  0.00     0.034 A 
ATOM     46  C   UNL A   1      38.640  33.628  30.226  1.00  0.00     0.049 A 
ATOM     47  C   UNL A   1      43.708  31.048  30.126  1.00  0.00     0.074 A 
ATOM     48  C   UNL A   1      39.005  33.599  31.560  1.00  0.00     0.029 A 
ATOM     49  N   UNL A   1      39.787  33.922  29.515  1.00  0.00    -0.354 N 
ATOM     50  N   UNL A   1      42.698  31.870  30.216  1.00  0.00    -0.248 NA
ATOM     51  C   UNL A   1      44.844  31.654  29.434  1.00  0.00     0.031 C 
ATOM     52  C   UNL A   1      40.418  33.787  31.625  1.00  0.00     0.029 A 
ATOM     53  C   UNL A   1      40.890  33.971  30.338  1.00  0.00     0.049 A 
ATOM     54  H   UNL A   1      39.812  34.077  28.543  1.00  0.00     0.167 HD
ATOM     55  C   UNL A   1      43.032  33.087  29.686  1.00  0.00     0.074 A 
ATOM     56  C   UNL A   1      44.370  32.882  29.155  1.00  0.00     0.031 C 
ATOM     57  C   UNL A   1      42.197  34.169  29.734  1.00  0.00     0.034 A 
BRANCH  44  58
ATOM     58  C   UNL A   1      36.114  33.794  29.606  1.00  0.00     0.023 A 
ATOM     59  C   UNL A   1      35.674  34.141  30.905  1.00  0.00     0.031 A 
ATOM     60  C   UNL A   1      35.184  34.029  28.579  1.00  0.00     0.131 A 
ATOM     61  C   UNL A   1      34.368  34.592  31.159  1.00  0.00     0.055 A 
ATOM     62  C   UNL A   1      33.872  34.473  28.830  1.00  0.00     0.041 A 
ATOM     63  F   UNL A   1      35.499  33.871  27.288  1.00  0.00    -0.206 F 
ATOM     64  C   UNL A   1      33.450  34.741  30.127  1.00  0.00     0.022 A 
BRANCH  61  65
ATOM     65  S   UNL A   1      33.884  34.929  32.874  1.00  0.00     0.124 S 
ATOM     66  O   UNL A   1      33.380  33.632  33.315  1.00  0.00    -0.237 OA
ATOM     67  O   UNL A   1      35.140  35.370  33.472  1.00  0.00    -0.237 OA
ATOM     68  O   UNL A   1      32.866  35.971  32.742  1.00  0.00    -0.744 OA
ENDBRANCH  61  65
ENDBRANCH  44  58
BRANCH  45  69
ATOM     69  C   UNL A   1      44.141  28.428  29.759  1.00  0.00     0.023 A 
ATOM     70  C   UNL A   1      44.075  28.499  28.340  1.00  0.00     0.031 A 
ATOM     71  C   UNL A   1      45.004  27.474  30.306  1.00  0.00     0.131 A 
ATOM     72  C   UNL A   1      44.923  27.707  27.534  1.00  0.00     0.055 A 
ATOM     73  C   UNL A   1      45.821  26.694  29.488  1.00  0.00     0.041 A 
ATOM     74  F   UNL A   1      45.196  27.387  31.630  1.00  0.00    -0.206 F 
ATOM     75  C   UNL A   1      45.798  26.798  28.108  1.00  0.00     0.022 A 
BRANCH  72  76
ATOM     76  S   UNL A   1      45.113  28.067  25.759  1.00  0.00     0.124 S 
ATOM     77  O   UNL A   1      43.745  27.929  25.275  1.00  0.00    -0.237 OA
ATOM     78  O   UNL A   1      45.662  29.419  25.770  1.00  0.00    -0.237 OA
ATOM     79  O   UNL A   1      46.047  27.042  25.301  1.00  0.00    -0.744 OA
ENDBRANCH  72  76
ENDBRANCH  45  69
BRANCH  57  80
ATOM     80  C   UNL A   1      42.568  35.544  29.246  1.00  0.00     0.023 A 
ATOM     81  C   UNL A   1      43.334  36.411  30.033  1.00  0.00     0.031 A 
ATOM     82  C   UNL A   1      42.078  36.076  28.029  1.00  0.00     0.131 A 
ATOM     83  C   UNL A   1      43.659  37.698  29.577  1.00  0.00     0.055 A 
ATOM     84  C   UNL A   1      42.315  37.392  27.626  1.00  0.00     0.041 A 
ATOM     85  F   UNL A   1      41.376  35.336  27.159  1.00  0.00    -0.206 F 
ATOM     86  C   UNL A   1      43.127  38.209  28.395  1.00  0.00     0.022 A 
BRANCH  83  87
ATOM     87  S   UNL A   1      44.870  38.648  30.523  1.00  0.00     0.124 S 
ATOM     88  O   UNL A   1      45.249  37.718  31.581  1.00  0.00    -0.237 OA
ATOM     89  O   UNL A   1      45.892  38.907  29.512  1.00  0.00    -0.237 OA
ATOM     90  O   UNL A   1      44.120  39.822  30.962  1.00  0.00    -0.744 OA
ENDBRANCH  83  87
ENDBRANCH  57  80
ENDBRANCH  31  32
ENDBRANCH  24  26
ENDBRANCH  23  24
ENDBRANCH   1  23
TORSDOF 16
ENDMDL
MODEL 3
REMARK VINA RESULT:     -11.8      4.528     10.476
REMARK SMILES Cc1ccc(NC(=O)N2CCCC[C@@H]2C(=O)OCCOC(=O)c2ccc(-c3c4nc(c(-c5cc(S(=O)(=O)[O-])ccc5F)c5ccc([nH]5)c(-c5cc(S(=O)(=O)[O-])ccc5F)c5nc(c(-c6cc(S(=O)(=O)[O-])ccc6F)c6ccc3[nH]6)C=C5)C=C4)cc2)cc1
REMARK SMILES IDX 19 1 18 2 17 3 15 4 16 5 14 6 9 7 10 8 11 9 13 10 12 11 7 12
REMARK SMILES IDX 6 13 8 15 5 16 1 17 2 18 3 19 87 20 4 21 86 22 20 23 21 24
REMARK SMILES IDX 22 25 23 26 24 27 85 28 25 29 84 30 26 31 27 32 28 33 78 34
REMARK SMILES IDX 29 35 83 36 77 37 79 38 30 39 82 40 76 41 75 42 31 44 63 45
REMARK SMILES IDX 43 46 62 47 44 48 47 49 61 50 80 51 45 52 46 53 60 55 81 56
REMARK SMILES IDX 48 57 32 58 33 59 41 60 34 61 40 62 42 63 39 64 35 65 36 66
REMARK SMILES IDX 37 67 38 68 64 69 65 70 73 71 66 72 72 73 74 74 71 75 67 76
REMARK SMILES IDX 68 77 69 78 70 79 49 80 50 81 58 82 51 83 57 84 59 85 56 86
REMARK SMILES IDX 52 87 53 88 54 89 55 90
REMARK H PARENT 6 14 79 43 47 54
REMARK Flexibility Score: inf
ROOT
ATOM      1  C   UNL A   1      37.918  23.366  26.336  1.00  0.00     0.275 C 
ENDROOT
BRANCH   1   2
ATOM      2  C   UNL A   1      37.183  23.625  25.000  1.00  0.00     0.274 C 
BRANCH   2   3
ATOM      3  O   UNL A   1      35.766  23.776  25.171  1.00  0.00    -0.461 OA
BRANCH   3   4
ATOM      4  C   UNL A   1      34.952  23.294  24.172  1.00  0.00     0.329 C 
ATOM      5  O   UNL A   1      35.023  23.657  23.008  1.00  0.00    -0.250 OA
BRANCH   4   6
ATOM      6  C   UNL A   1      33.787  22.492  24.821  1.00  0.00     0.196 C 
ATOM      7  N   UNL A   1      32.611  23.201  25.426  1.00  0.00    -0.311 N 
ATOM      8  C   UNL A   1      32.261  23.072  26.828  1.00  0.00     0.122 C 
ATOM      9  C   UNL A   1      33.346  22.511  27.711  1.00  0.00     0.022 C 
ATOM     10  C   UNL A   1      34.588  21.604  25.803  1.00  0.00     0.037 C 
ATOM     11  C   UNL A   1      33.876  21.239  27.083  1.00  0.00     0.005 C 
BRANCH   7  12
ATOM     12  C   UNL A   1      31.715  23.976  24.744  1.00  0.00     0.322 C 
ATOM     13  N   UNL A   1      31.657  25.327  24.883  1.00  0.00    -0.308 N 
ATOM     14  H   UNL A   1      31.115  25.735  24.170  1.00  0.00     0.171 HD
ATOM     15  O   UNL A   1      31.088  23.491  23.798  1.00  0.00    -0.248 OA
BRANCH  13  16
ATOM     16  C   UNL A   1      32.157  26.303  25.764  1.00  0.00     0.042 A 
ATOM     17  C   UNL A   1      33.437  30.116  27.258  1.00  0.00     0.044 C 
ATOM     18  C   UNL A   1      33.104  28.688  26.925  1.00  0.00    -0.051 A 
ATOM     19  C   UNL A   1      31.882  28.135  27.319  1.00  0.00     0.005 A 
ATOM     20  C   UNL A   1      33.952  27.927  26.119  1.00  0.00     0.005 A 
ATOM     21  C   UNL A   1      31.424  26.933  26.759  1.00  0.00     0.026 A 
ATOM     22  C   UNL A   1      33.468  26.751  25.525  1.00  0.00     0.026 A 
ENDBRANCH  13  16
ENDBRANCH   7  12
ENDBRANCH   4   6
ENDBRANCH   3   4
ENDBRANCH   2   3
ENDBRANCH   1   2
BRANCH   1  23
ATOM     23  O   UNL A   1      39.372  23.450  26.330  1.00  0.00    -0.458 OA
BRANCH  23  24
ATOM     24  C   UNL A   1      40.164  24.143  27.202  1.00  0.00     0.338 C 
ATOM     25  O   UNL A   1      41.315  23.789  27.435  1.00  0.00    -0.246 OA
BRANCH  24  26
ATOM     26  C   UNL A   1      39.655  25.455  27.647  1.00  0.00     0.060 A 
ATOM     27  C   UNL A   1      39.066  25.540  28.914  1.00  0.00     0.016 A 
ATOM     28  C   UNL A   1      40.001  26.604  26.955  1.00  0.00     0.016 A 
ATOM     29  C   UNL A   1      39.020  26.769  29.574  1.00  0.00     0.010 A 
ATOM     30  C   UNL A   1      40.078  27.789  27.656  1.00  0.00     0.010 A 
ATOM     31  C   UNL A   1      39.598  27.885  28.975  1.00  0.00    -0.014 A 
BRANCH  31  32
ATOM     32  C   UNL A   1      39.474  29.242  29.506  1.00  0.00     0.031 A 
ATOM     33  C   UNL A   1      38.550  30.289  29.004  1.00  0.00     0.074 A 
ATOM     34  C   UNL A   1      40.308  29.481  30.542  1.00  0.00     0.049 A 
ATOM     35  N   UNL A   1      38.695  31.549  29.239  1.00  0.00    -0.248 NA
ATOM     36  C   UNL A   1      37.379  30.029  28.181  1.00  0.00     0.031 C 
ATOM     37  C   UNL A   1      40.393  30.620  31.434  1.00  0.00     0.029 A 
ATOM     38  N   UNL A   1      41.449  28.736  30.859  1.00  0.00    -0.354 N 
ATOM     39  C   UNL A   1      37.525  32.198  28.887  1.00  0.00     0.074 A 
ATOM     40  C   UNL A   1      36.778  31.226  28.139  1.00  0.00     0.031 C 
ATOM     41  C   UNL A   1      41.650  30.674  31.918  1.00  0.00     0.029 A 
ATOM     42  C   UNL A   1      42.428  29.658  31.217  1.00  0.00     0.049 A 
ATOM     43  H   UNL A   1      41.541  27.756  30.834  1.00  0.00     0.167 HD
ATOM     44  C   UNL A   1      37.287  33.438  29.406  1.00  0.00     0.034 A 
ATOM     45  C   UNL A   1      43.506  29.872  30.403  1.00  0.00     0.034 A 
ATOM     46  C   UNL A   1      38.485  33.938  30.072  1.00  0.00     0.049 A 
ATOM     47  C   UNL A   1      43.521  31.302  29.858  1.00  0.00     0.074 A 
ATOM     48  C   UNL A   1      38.913  33.968  31.387  1.00  0.00     0.029 A 
ATOM     49  N   UNL A   1      39.599  34.186  29.295  1.00  0.00    -0.354 N 
ATOM     50  N   UNL A   1      42.523  32.139  29.955  1.00  0.00    -0.248 NA
ATOM     51  C   UNL A   1      44.628  31.863  29.085  1.00  0.00     0.031 C 
ATOM     52  C   UNL A   1      40.329  34.144  31.377  1.00  0.00     0.029 A 
ATOM     53  C   UNL A   1      40.741  34.263  30.062  1.00  0.00     0.049 A 
ATOM     54  H   UNL A   1      39.580  34.294  28.316  1.00  0.00     0.167 HD
ATOM     55  C   UNL A   1      42.842  33.325  29.353  1.00  0.00     0.074 A 
ATOM     56  C   UNL A   1      44.151  33.081  28.770  1.00  0.00     0.031 C 
ATOM     57  C   UNL A   1      42.019  34.418  29.388  1.00  0.00     0.034 A 
BRANCH  44  58
ATOM     58  C   UNL A   1      35.935  34.102  29.564  1.00  0.00     0.023 A 
ATOM     59  C   UNL A   1      35.513  34.417  30.877  1.00  0.00     0.031 A 
ATOM     60  C   UNL A   1      34.999  34.384  28.553  1.00  0.00     0.131 A 
ATOM     61  C   UNL A   1      34.217  34.883  31.157  1.00  0.00     0.055 A 
ATOM     62  C   UNL A   1      33.697  34.844  28.831  1.00  0.00     0.041 A 
ATOM     63  F   UNL A   1      35.299  34.260  27.256  1.00  0.00    -0.206 F 
ATOM     64  C   UNL A   1      33.293  35.079  30.139  1.00  0.00     0.022 A 
BRANCH  61  65
ATOM     65  S   UNL A   1      33.756  35.176  32.887  1.00  0.00     0.124 S 
ATOM     66  O   UNL A   1      32.854  36.319  32.777  1.00  0.00    -0.237 OA
ATOM     67  O   UNL A   1      33.145  33.907  33.267  1.00  0.00    -0.237 OA
ATOM     68  O   UNL A   1      35.035  35.464  33.536  1.00  0.00    -0.744 OA
ENDBRANCH  61  65
ENDBRANCH  44  58
BRANCH  45  69
ATOM     69  C   UNL A   1      43.914  28.663  29.597  1.00  0.00     0.023 A 
ATOM     70  C   UNL A   1      43.412  28.478  28.278  1.00  0.00     0.031 A 
ATOM     71  C   UNL A   1      45.074  27.961  29.938  1.00  0.00     0.131 A 
ATOM     72  C   UNL A   1      44.120  27.699  27.336  1.00  0.00     0.055 A 
ATOM     73  C   UNL A   1      45.747  27.186  28.994  1.00  0.00     0.041 A 
ATOM     74  F   UNL A   1      45.667  28.134  31.128  1.00  0.00    -0.206 F 
ATOM     75  C   UNL A   1      45.290  27.047  27.694  1.00  0.00     0.022 A 
BRANCH  72  76
ATOM     76  S   UNL A   1      43.693  27.773  25.567  1.00  0.00     0.124 S 
ATOM     77  O   UNL A   1      42.758  28.891  25.530  1.00  0.00    -0.237 OA
ATOM     78  O   UNL A   1      44.992  27.994  24.940  1.00  0.00    -0.237 OA
ATOM     79  O   UNL A   1      43.112  26.460  25.301  1.00  0.00    -0.744 OA
ENDBRANCH  72  76
ENDBRANCH  45  69
BRANCH  57  80
ATOM     80  C   UNL A   1      42.378  35.764  28.818  1.00  0.00     0.023 A 
ATOM     81  C   UNL A   1      43.108  36.696  29.563  1.00  0.00     0.031 A 
ATOM     82  C   UNL A   1      41.911  36.204  27.556  1.00  0.00     0.131 A 
ATOM     83  C   UNL A   1      43.422  37.955  29.030  1.00  0.00     0.055 A 
ATOM     84  C   UNL A   1      42.135  37.494  27.072  1.00  0.00     0.041 A 
ATOM     85  F   UNL A   1      41.245  35.393  26.721  1.00  0.00    -0.206 F 
ATOM     86  C   UNL A   1      42.912  38.376  27.803  1.00  0.00     0.022 A 
BRANCH  83  87
ATOM     87  S   UNL A   1      44.591  38.990  29.940  1.00  0.00     0.124 S 
ATOM     88  O   UNL A   1      45.162  39.826  28.890  1.00  0.00    -0.237 OA
ATOM     89  O   UNL A   1      43.706  39.672  30.881  1.00  0.00    -0.237 OA
ATOM     90  O   UNL A   1      45.510  38.025  30.540  1.00  0.00    -0.744 OA
ENDBRANCH  83  87
ENDBRANCH  57  80
ENDBRANCH  31  32
ENDBRANCH  24  26
ENDBRANCH  23  24
ENDBRANCH   1  23
TORSDOF 16
ENDMDL
