MODEL 1
REMARK VINA RESULT:     -10.7      0.000      0.000
REMARK SMILES C[C@@H](C(=O)[C@H](C)[C@@H](C)C(=O)OCCOC(=O)c1ccc(-c2c3nc(c(-c4cc(S(=O)(=O)[O-])ccc4F)c4ccc([nH]4)c(-c4cc(S(=O)(=O)[O-])ccc4F)c4nc(c(-c5cc(S(=O)(=O)[O-])ccc5F)c5ccc2[nH]5)C=C4)C=C3)cc1)c1ccccc1
REMARK SMILES IDX 12 1 11 2 9 3 10 4 7 5 8 6 5 7 6 8 3 9 4 10 2 11 1 12 80 13
REMARK SMILES IDX 81 14 85 15 82 16 84 17 83 18 13 19 14 20 15 21 16 22 17 23
REMARK SMILES IDX 18 24 79 25 19 26 78 27 20 28 21 29 22 30 72 31 23 32 77 33
REMARK SMILES IDX 71 34 73 35 24 36 76 37 70 38 69 39 25 41 57 42 37 43 56 44
REMARK SMILES IDX 38 45 41 46 55 47 74 48 39 49 40 50 54 52 75 53 42 54 26 55
REMARK SMILES IDX 27 56 35 57 28 58 34 59 36 60 33 61 29 62 30 63 31 64 32 65
REMARK SMILES IDX 58 66 59 67 67 68 60 69 66 70 68 71 65 72 61 73 62 74 63 75
REMARK SMILES IDX 64 76 43 77 44 78 52 79 45 80 51 81 53 82 50 83 46 84 47 85
REMARK SMILES IDX 48 86 49 87
REMARK H PARENT 73 40 41 51
REMARK Flexibility Score: inf
ROOT
ATOM      1  C   UNL A   1      31.941  29.521  24.910  1.00  0.00     0.274 C 
ENDROOT
BRANCH   1   2
ATOM      2  O   UNL A   1      30.825  28.691  24.525  1.00  0.00    -0.462 OA
BRANCH   2   3
ATOM      3  C   UNL A   1      30.805  28.367  23.211  1.00  0.00     0.309 C 
ATOM      4  O   UNL A   1      30.926  29.191  22.306  1.00  0.00    -0.252 OA
BRANCH   3   5
ATOM      5  C   UNL A   1      30.603  26.885  22.904  1.00  0.00     0.106 C 
ATOM      6  C   UNL A   1      29.856  26.332  24.134  1.00  0.00     0.021 C 
BRANCH   5   7
ATOM      7  C   UNL A   1      31.866  26.057  22.556  1.00  0.00     0.067 C 
ATOM      8  C   UNL A   1      32.196  26.015  21.054  1.00  0.00     0.017 C 
BRANCH   7   9
ATOM      9  C   UNL A   1      33.185  26.411  23.284  1.00  0.00     0.143 C 
ATOM     10  O   UNL A   1      33.912  27.251  22.737  1.00  0.00    -0.299 OA
BRANCH   9  11
ATOM     11  C   UNL A   1      33.549  25.781  24.653  1.00  0.00     0.083 C 
ATOM     12  C   UNL A   1      33.975  26.823  25.693  1.00  0.00     0.021 C 
BRANCH  11  13
ATOM     13  C   UNL A   1      34.545  24.608  24.564  1.00  0.00    -0.038 A 
ATOM     14  C   UNL A   1      35.254  24.212  25.712  1.00  0.00     0.004 A 
ATOM     15  C   UNL A   1      34.849  23.940  23.365  1.00  0.00     0.004 A 
ATOM     16  C   UNL A   1      36.248  23.230  25.661  1.00  0.00     0.000 A 
ATOM     17  C   UNL A   1      35.841  22.953  23.312  1.00  0.00     0.000 A 
ATOM     18  C   UNL A   1      36.549  22.607  24.456  1.00  0.00     0.000 A 
ENDBRANCH  11  13
ENDBRANCH   9  11
ENDBRANCH   7   9
ENDBRANCH   5   7
ENDBRANCH   3   5
ENDBRANCH   2   3
ENDBRANCH   1   2
BRANCH   1  19
ATOM     19  C   UNL A   1      31.544  30.665  25.845  1.00  0.00     0.275 C 
BRANCH  19  20
ATOM     20  O   UNL A   1      32.270  30.618  27.087  1.00  0.00    -0.458 OA
BRANCH  20  21
ATOM     21  C   UNL A   1      33.119  31.655  27.255  1.00  0.00     0.338 C 
ATOM     22  O   UNL A   1      32.863  32.831  27.036  1.00  0.00    -0.246 OA
BRANCH  21  23
ATOM     23  C   UNL A   1      34.441  31.241  27.753  1.00  0.00     0.060 A 
ATOM     24  C   UNL A   1      34.688  29.916  28.113  1.00  0.00     0.016 A 
ATOM     25  C   UNL A   1      35.369  32.237  28.069  1.00  0.00     0.016 A 
ATOM     26  C   UNL A   1      35.818  29.607  28.872  1.00  0.00     0.010 A 
ATOM     27  C   UNL A   1      36.547  31.907  28.744  1.00  0.00     0.010 A 
ATOM     28  C   UNL A   1      36.769  30.595  29.186  1.00  0.00    -0.014 A 
BRANCH  28  29
ATOM     29  C   UNL A   1      37.995  30.239  29.955  1.00  0.00     0.031 A 
ATOM     30  C   UNL A   1      39.046  29.326  29.374  1.00  0.00     0.074 A 
ATOM     31  C   UNL A   1      38.168  30.750  31.190  1.00  0.00     0.049 A 
ATOM     32  N   UNL A   1      40.119  28.836  29.947  1.00  0.00    -0.248 NA
ATOM     33  C   UNL A   1      38.863  28.897  27.980  1.00  0.00     0.031 C 
ATOM     34  C   UNL A   1      37.230  31.644  31.873  1.00  0.00     0.029 A 
ATOM     35  N   UNL A   1      39.194  30.601  32.089  1.00  0.00    -0.354 N 
ATOM     36  C   UNL A   1      40.722  28.016  28.998  1.00  0.00     0.074 A 
ATOM     37  C   UNL A   1      39.887  28.069  27.814  1.00  0.00     0.031 C 
ATOM     38  C   UNL A   1      37.743  31.999  33.059  1.00  0.00     0.029 A 
ATOM     39  C   UNL A   1      39.008  31.303  33.257  1.00  0.00     0.049 A 
ATOM     40  H   UNL A   1      39.988  30.046  31.914  1.00  0.00     0.167 HD
ATOM     41  C   UNL A   1      41.861  27.286  29.106  1.00  0.00     0.034 A 
ATOM     42  C   UNL A   1      39.751  31.362  34.378  1.00  0.00     0.034 A 
ATOM     43  C   UNL A   1      42.702  27.251  30.281  1.00  0.00     0.049 A 
ATOM     44  C   UNL A   1      41.015  30.557  34.466  1.00  0.00     0.074 A 
ATOM     45  C   UNL A   1      43.871  26.536  30.489  1.00  0.00     0.029 A 
ATOM     46  N   UNL A   1      42.471  27.969  31.446  1.00  0.00    -0.354 N 
ATOM     47  N   UNL A   1      41.530  29.737  33.581  1.00  0.00    -0.248 NA
ATOM     48  C   UNL A   1      41.789  30.679  35.706  1.00  0.00     0.031 C 
ATOM     49  C   UNL A   1      44.324  26.791  31.789  1.00  0.00     0.029 A 
ATOM     50  C   UNL A   1      43.469  27.708  32.376  1.00  0.00     0.049 A 
ATOM     51  H   UNL A   1      41.711  28.577  31.593  1.00  0.00     0.167 HD
ATOM     52  C   UNL A   1      42.685  29.232  34.168  1.00  0.00     0.074 A 
ATOM     53  C   UNL A   1      42.809  29.870  35.464  1.00  0.00     0.031 C 
ATOM     54  C   UNL A   1      43.559  28.316  33.681  1.00  0.00     0.034 A 
BRANCH  41  55
ATOM     55  C   UNL A   1      42.242  26.419  27.931  1.00  0.00     0.023 A 
ATOM     56  C   UNL A   1      41.771  25.101  27.800  1.00  0.00     0.031 A 
ATOM     57  C   UNL A   1      43.090  26.922  26.929  1.00  0.00     0.131 A 
ATOM     58  C   UNL A   1      42.190  24.315  26.714  1.00  0.00     0.055 A 
ATOM     59  C   UNL A   1      43.456  26.155  25.821  1.00  0.00     0.041 A 
ATOM     60  F   UNL A   1      43.581  28.168  27.012  1.00  0.00    -0.206 F 
ATOM     61  C   UNL A   1      43.013  24.840  25.714  1.00  0.00     0.022 A 
BRANCH  58  62
ATOM     62  S   UNL A   1      41.726  22.563  26.678  1.00  0.00     0.124 S 
ATOM     63  O   UNL A   1      40.275  22.638  26.830  1.00  0.00    -0.237 OA
ATOM     64  O   UNL A   1      42.209  22.136  25.369  1.00  0.00    -0.237 OA
ATOM     65  O   UNL A   1      42.438  21.995  27.821  1.00  0.00    -0.744 OA
ENDBRANCH  58  62
ENDBRANCH  41  55
BRANCH  42  66
ATOM     66  C   UNL A   1      39.281  32.171  35.534  1.00  0.00     0.023 A 
ATOM     67  C   UNL A   1      38.534  31.590  36.568  1.00  0.00     0.031 A 
ATOM     68  C   UNL A   1      39.575  33.544  35.609  1.00  0.00     0.131 A 
ATOM     69  C   UNL A   1      38.085  32.389  37.631  1.00  0.00     0.055 A 
ATOM     70  C   UNL A   1      39.159  34.325  36.687  1.00  0.00     0.041 A 
ATOM     71  F   UNL A   1      40.296  34.137  34.646  1.00  0.00    -0.206 F 
ATOM     72  C   UNL A   1      38.401  33.748  37.702  1.00  0.00     0.022 A 
BRANCH  69  73
ATOM     73  S   UNL A   1      37.039  31.631  38.905  1.00  0.00     0.124 S 
ATOM     74  O   UNL A   1      37.883  31.739  40.090  1.00  0.00    -0.237 OA
ATOM     75  O   UNL A   1      35.860  32.490  38.877  1.00  0.00    -0.237 OA
ATOM     76  O   UNL A   1      36.830  30.273  38.409  1.00  0.00    -0.744 OA
ENDBRANCH  69  73
ENDBRANCH  42  66
BRANCH  54  77
ATOM     77  C   UNL A   1      44.719  27.962  34.573  1.00  0.00     0.023 A 
ATOM     78  C   UNL A   1      44.551  27.119  35.686  1.00  0.00     0.031 A 
ATOM     79  C   UNL A   1      45.987  28.520  34.345  1.00  0.00     0.131 A 
ATOM     80  C   UNL A   1      45.622  26.900  36.565  1.00  0.00     0.055 A 
ATOM     81  C   UNL A   1      47.062  28.264  35.199  1.00  0.00     0.041 A 
ATOM     82  F   UNL A   1      46.197  29.334  33.300  1.00  0.00    -0.206 F 
ATOM     83  C   UNL A   1      46.879  27.462  36.323  1.00  0.00     0.022 A 
BRANCH  80  84
ATOM     84  S   UNL A   1      45.326  25.954  38.084  1.00  0.00     0.124 S 
ATOM     85  O   UNL A   1      45.144  24.599  37.572  1.00  0.00    -0.237 OA
ATOM     86  O   UNL A   1      46.552  26.190  38.839  1.00  0.00    -0.237 OA
ATOM     87  O   UNL A   1      44.125  26.570  38.643  1.00  0.00    -0.744 OA
ENDBRANCH  80  84
ENDBRANCH  54  77
ENDBRANCH  28  29
ENDBRANCH  21  23
ENDBRANCH  20  21
ENDBRANCH  19  20
ENDBRANCH   1  19
TORSDOF 18
ENDMDL
MODEL 2
REMARK VINA RESULT:     -10.6      5.266     10.413
REMARK SMILES C[C@@H](C(=O)[C@H](C)[C@@H](C)C(=O)OCCOC(=O)c1ccc(-c2c3nc(c(-c4cc(S(=O)(=O)[O-])ccc4F)c4ccc([nH]4)c(-c4cc(S(=O)(=O)[O-])ccc4F)c4nc(c(-c5cc(S(=O)(=O)[O-])ccc5F)c5ccc2[nH]5)C=C4)C=C3)cc1)c1ccccc1
REMARK SMILES IDX 12 1 11 2 9 3 10 4 7 5 8 6 5 7 6 8 3 9 4 10 2 11 1 12 80 13
REMARK SMILES IDX 81 14 85 15 82 16 84 17 83 18 13 19 14 20 15 21 16 22 17 23
REMARK SMILES IDX 18 24 79 25 19 26 78 27 20 28 21 29 22 30 72 31 23 32 77 33
REMARK SMILES IDX 71 34 73 35 24 36 76 37 70 38 69 39 25 41 57 42 37 43 56 44
REMARK SMILES IDX 38 45 41 46 55 47 74 48 39 49 40 50 54 52 75 53 42 54 26 55
REMARK SMILES IDX 27 56 35 57 28 58 34 59 36 60 33 61 29 62 30 63 31 64 32 65
REMARK SMILES IDX 58 66 59 67 67 68 60 69 66 70 68 71 65 72 61 73 62 74 63 75
REMARK SMILES IDX 64 76 43 77 44 78 52 79 45 80 51 81 53 82 50 83 46 84 47 85
REMARK SMILES IDX 48 86 49 87
REMARK H PARENT 73 40 41 51
REMARK Flexibility Score: inf
ROOT
ATOM      1  C   UNL A   1      35.512  20.356  24.962  1.00  0.00     0.274 C 
ENDROOT
BRANCH   1   2
ATOM      2  O   UNL A   1      35.154  21.196  26.080  1.00  0.00    -0.462 OA
BRANCH   2   3
ATOM      3  C   UNL A   1      34.991  22.502  25.760  1.00  0.00     0.309 C 
ATOM      4  O   UNL A   1      35.418  23.428  26.446  1.00  0.00    -0.252 OA
BRANCH   3   5
ATOM      5  C   UNL A   1      34.214  22.769  24.473  1.00  0.00     0.106 C 
ATOM      6  C   UNL A   1      35.080  23.781  23.698  1.00  0.00     0.021 C 
BRANCH   5   7
ATOM      7  C   UNL A   1      32.744  23.237  24.619  1.00  0.00     0.067 C 
ATOM      8  C   UNL A   1      31.767  22.121  25.028  1.00  0.00     0.017 C 
BRANCH   7   9
ATOM      9  C   UNL A   1      32.458  24.435  25.556  1.00  0.00     0.143 C 
ATOM     10  O   UNL A   1      32.082  24.163  26.704  1.00  0.00    -0.299 OA
BRANCH   9  11
ATOM     11  C   UNL A   1      32.679  25.897  25.091  1.00  0.00     0.083 C 
ATOM     12  C   UNL A   1      33.350  26.765  26.161  1.00  0.00     0.021 C 
BRANCH  11  13
ATOM     13  C   UNL A   1      31.425  26.570  24.500  1.00  0.00    -0.038 A 
ATOM     14  C   UNL A   1      30.176  25.936  24.620  1.00  0.00     0.004 A 
ATOM     15  C   UNL A   1      31.463  27.770  23.769  1.00  0.00     0.004 A 
ATOM     16  C   UNL A   1      29.028  26.448  24.006  1.00  0.00     0.000 A 
ATOM     17  C   UNL A   1      30.315  28.288  23.158  1.00  0.00     0.000 A 
ATOM     18  C   UNL A   1      29.101  27.621  23.265  1.00  0.00     0.000 A 
ENDBRANCH  11  13
ENDBRANCH   9  11
ENDBRANCH   7   9
ENDBRANCH   5   7
ENDBRANCH   3   5
ENDBRANCH   2   3
ENDBRANCH   1   2
BRANCH   1  19
ATOM     19  C   UNL A   1      36.982  19.930  24.978  1.00  0.00     0.275 C 
BRANCH  19  20
ATOM     20  O   UNL A   1      37.868  21.065  25.002  1.00  0.00    -0.458 OA
BRANCH  20  21
ATOM     21  C   UNL A   1      38.971  20.870  25.756  1.00  0.00     0.338 C 
ATOM     22  O   UNL A   1      39.534  19.800  25.936  1.00  0.00    -0.246 OA
BRANCH  21  23
ATOM     23  C   UNL A   1      39.474  22.111  26.368  1.00  0.00     0.060 A 
ATOM     24  C   UNL A   1      38.857  23.337  26.117  1.00  0.00     0.016 A 
ATOM     25  C   UNL A   1      40.708  22.070  27.023  1.00  0.00     0.016 A 
ATOM     26  C   UNL A   1      39.522  24.522  26.435  1.00  0.00     0.010 A 
ATOM     27  C   UNL A   1      41.324  23.257  27.429  1.00  0.00     0.010 A 
ATOM     28  C   UNL A   1      40.757  24.498  27.108  1.00  0.00    -0.014 A 
BRANCH  28  29
ATOM     29  C   UNL A   1      41.431  25.773  27.486  1.00  0.00     0.031 A 
ATOM     30  C   UNL A   1      40.733  26.805  28.336  1.00  0.00     0.074 A 
ATOM     31  C   UNL A   1      42.690  26.002  27.061  1.00  0.00     0.049 A 
ATOM     32  N   UNL A   1      41.137  28.007  28.670  1.00  0.00    -0.248 NA
ATOM     33  C   UNL A   1      39.411  26.449  28.869  1.00  0.00     0.031 C 
ATOM     34  C   UNL A   1      43.481  25.090  26.232  1.00  0.00     0.029 A 
ATOM     35  N   UNL A   1      43.531  27.064  27.276  1.00  0.00    -0.354 N 
ATOM     36  C   UNL A   1      40.108  28.565  29.422  1.00  0.00     0.074 A 
ATOM     37  C   UNL A   1      39.056  27.569  29.487  1.00  0.00     0.031 C 
ATOM     38  C   UNL A   1      44.702  25.609  26.046  1.00  0.00     0.029 A 
ATOM     39  C   UNL A   1      44.761  26.921  26.678  1.00  0.00     0.049 A 
ATOM     40  H   UNL A   1      43.279  27.853  27.809  1.00  0.00     0.167 HD
ATOM     41  C   UNL A   1      40.045  29.791  29.999  1.00  0.00     0.034 A 
ATOM     42  C   UNL A   1      45.813  27.759  26.614  1.00  0.00     0.034 A 
ATOM     43  C   UNL A   1      41.104  30.774  29.950  1.00  0.00     0.049 A 
ATOM     44  C   UNL A   1      45.724  29.103  27.274  1.00  0.00     0.074 A 
ATOM     45  C   UNL A   1      41.131  32.047  30.497  1.00  0.00     0.029 A 
ATOM     46  N   UNL A   1      42.330  30.592  29.324  1.00  0.00    -0.354 N 
ATOM     47  N   UNL A   1      44.715  29.635  27.923  1.00  0.00    -0.248 NA
ATOM     48  C   UNL A   1      46.910  29.962  27.184  1.00  0.00     0.031 C 
ATOM     49  C   UNL A   1      42.354  32.647  30.170  1.00  0.00     0.029 A 
ATOM     50  C   UNL A   1      43.114  31.730  29.464  1.00  0.00     0.049 A 
ATOM     51  H   UNL A   1      42.605  29.774  28.849  1.00  0.00     0.167 HD
ATOM     52  C   UNL A   1      45.143  30.902  28.306  1.00  0.00     0.074 A 
ATOM     53  C   UNL A   1      46.512  31.036  27.849  1.00  0.00     0.031 C 
ATOM     54  C   UNL A   1      44.461  31.869  28.967  1.00  0.00     0.034 A 
BRANCH  41  55
ATOM     55  C   UNL A   1      38.761  30.162  30.698  1.00  0.00     0.023 A 
ATOM     56  C   UNL A   1      37.740  30.874  30.045  1.00  0.00     0.031 A 
ATOM     57  C   UNL A   1      38.558  29.798  32.041  1.00  0.00     0.131 A 
ATOM     58  C   UNL A   1      36.582  31.239  30.749  1.00  0.00     0.055 A 
ATOM     59  C   UNL A   1      37.378  30.113  32.719  1.00  0.00     0.041 A 
ATOM     60  F   UNL A   1      39.505  29.131  32.718  1.00  0.00    -0.206 F 
ATOM     61  C   UNL A   1      36.386  30.846  32.076  1.00  0.00     0.022 A 
BRANCH  58  62
ATOM     62  S   UNL A   1      35.376  32.324  29.939  1.00  0.00     0.124 S 
ATOM     63  O   UNL A   1      36.207  33.468  29.573  1.00  0.00    -0.237 OA
ATOM     64  O   UNL A   1      34.903  31.500  28.833  1.00  0.00    -0.237 OA
ATOM     65  O   UNL A   1      34.392  32.586  30.987  1.00  0.00    -0.744 OA
ENDBRANCH  58  62
ENDBRANCH  41  55
BRANCH  42  66
ATOM     66  C   UNL A   1      47.021  27.369  25.840  1.00  0.00     0.023 A 
ATOM     67  C   UNL A   1      47.176  27.745  24.499  1.00  0.00     0.031 A 
ATOM     68  C   UNL A   1      48.038  26.606  26.442  1.00  0.00     0.131 A 
ATOM     69  C   UNL A   1      48.317  27.338  23.791  1.00  0.00     0.055 A 
ATOM     70  C   UNL A   1      49.187  26.236  25.745  1.00  0.00     0.041 A 
ATOM     71  F   UNL A   1      47.935  26.233  27.727  1.00  0.00    -0.206 F 
ATOM     72  C   UNL A   1      49.327  26.596  24.408  1.00  0.00     0.022 A 
BRANCH  69  73
ATOM     73  S   UNL A   1      48.443  27.757  22.031  1.00  0.00     0.124 S 
ATOM     74  O   UNL A   1      49.685  28.520  21.992  1.00  0.00    -0.237 OA
ATOM     75  O   UNL A   1      48.481  26.438  21.408  1.00  0.00    -0.237 OA
ATOM     76  O   UNL A   1      47.228  28.528  21.777  1.00  0.00    -0.744 OA
ENDBRANCH  69  73
ENDBRANCH  42  66
BRANCH  54  77
ATOM     77  C   UNL A   1      45.204  33.152  29.225  1.00  0.00     0.023 A 
ATOM     78  C   UNL A   1      45.206  34.195  28.280  1.00  0.00     0.031 A 
ATOM     79  C   UNL A   1      45.967  33.311  30.393  1.00  0.00     0.131 A 
ATOM     80  C   UNL A   1      46.001  35.330  28.495  1.00  0.00     0.055 A 
ATOM     81  C   UNL A   1      46.723  34.462  30.622  1.00  0.00     0.041 A 
ATOM     82  F   UNL A   1      46.002  32.343  31.322  1.00  0.00    -0.206 F 
ATOM     83  C   UNL A   1      46.754  35.473  29.665  1.00  0.00     0.022 A 
BRANCH  80  84
ATOM     84  S   UNL A   1      46.120  36.574  27.180  1.00  0.00     0.124 S 
ATOM     85  O   UNL A   1      47.234  37.400  27.639  1.00  0.00    -0.237 OA
ATOM     86  O   UNL A   1      46.379  35.755  26.002  1.00  0.00    -0.237 OA
ATOM     87  O   UNL A   1      44.814  37.228  27.207  1.00  0.00    -0.744 OA
ENDBRANCH  80  84
ENDBRANCH  54  77
ENDBRANCH  28  29
ENDBRANCH  21  23
ENDBRANCH  20  21
ENDBRANCH  19  20
ENDBRANCH   1  19
TORSDOF 18
ENDMDL
MODEL 3
REMARK VINA RESULT:     -10.5      1.658      2.181
REMARK SMILES C[C@@H](C(=O)[C@H](C)[C@@H](C)C(=O)OCCOC(=O)c1ccc(-c2c3nc(c(-c4cc(S(=O)(=O)[O-])ccc4F)c4ccc([nH]4)c(-c4cc(S(=O)(=O)[O-])ccc4F)c4nc(c(-c5cc(S(=O)(=O)[O-])ccc5F)c5ccc2[nH]5)C=C4)C=C3)cc1)c1ccccc1
REMARK SMILES IDX 12 1 11 2 9 3 10 4 7 5 8 6 5 7 6 8 3 9 4 10 2 11 1 12 80 13
REMARK SMILES IDX 81 14 85 15 82 16 84 17 83 18 13 19 14 20 15 21 16 22 17 23
REMARK SMILES IDX 18 24 79 25 19 26 78 27 20 28 21 29 22 30 72 31 23 32 77 33
REMARK SMILES IDX 71 34 73 35 24 36 76 37 70 38 69 39 25 41 57 42 37 43 56 44
REMARK SMILES IDX 38 45 41 46 55 47 74 48 39 49 40 50 54 52 75 53 42 54 26 55
REMARK SMILES IDX 27 56 35 57 28 58 34 59 36 60 33 61 29 62 30 63 31 64 32 65
REMARK SMILES IDX 58 66 59 67 67 68 60 69 66 70 68 71 65 72 61 73 62 74 63 75
REMARK SMILES IDX 64 76 43 77 44 78 52 79 45 80 51 81 53 82 50 83 46 84 47 85
REMARK SMILES IDX 48 86 49 87
REMARK H PARENT 73 40 41 51
REMARK Flexibility Score: inf
ROOT
ATOM      1  C   UNL A   1      31.927  28.336  25.554  1.00  0.00     0.274 C 
ENDROOT
BRANCH   1   2
ATOM      2  O   UNL A   1      33.118  27.761  24.977  1.00  0.00    -0.462 OA
BRANCH   2   3
ATOM      3  C   UNL A   1      33.200  26.416  25.105  1.00  0.00     0.309 C 
ATOM      4  O   UNL A   1      34.179  25.835  25.571  1.00  0.00    -0.252 OA
BRANCH   3   5
ATOM      5  C   UNL A   1      31.983  25.636  24.612  1.00  0.00     0.106 C 
ATOM      6  C   UNL A   1      31.901  24.412  25.546  1.00  0.00     0.021 C 
BRANCH   5   7
ATOM      7  C   UNL A   1      31.956  25.240  23.114  1.00  0.00     0.067 C 
ATOM      8  C   UNL A   1      31.416  26.340  22.183  1.00  0.00     0.017 C 
BRANCH   7   9
ATOM      9  C   UNL A   1      33.274  24.736  22.477  1.00  0.00     0.143 C 
ATOM     10  O   UNL A   1      34.028  25.598  22.006  1.00  0.00    -0.299 OA
BRANCH   9  11
ATOM     11  C   UNL A   1      33.648  23.232  22.475  1.00  0.00     0.083 C 
ATOM     12  C   UNL A   1      32.420  22.314  22.464  1.00  0.00     0.021 C 
BRANCH  11  13
ATOM     13  C   UNL A   1      34.662  22.830  23.564  1.00  0.00    -0.038 A 
ATOM     14  C   UNL A   1      35.978  23.322  23.501  1.00  0.00     0.004 A 
ATOM     15  C   UNL A   1      34.368  21.925  24.599  1.00  0.00     0.004 A 
ATOM     16  C   UNL A   1      36.965  22.901  24.398  1.00  0.00     0.000 A 
ATOM     17  C   UNL A   1      35.353  21.505  25.502  1.00  0.00     0.000 A 
ATOM     18  C   UNL A   1      36.653  21.983  25.394  1.00  0.00     0.000 A 
ENDBRANCH  11  13
ENDBRANCH   9  11
ENDBRANCH   7   9
ENDBRANCH   5   7
ENDBRANCH   3   5
ENDBRANCH   2   3
ENDBRANCH   1   2
BRANCH   1  19
ATOM     19  C   UNL A   1      31.998  29.859  25.685  1.00  0.00     0.275 C 
BRANCH  19  20
ATOM     20  O   UNL A   1      32.177  30.271  27.054  1.00  0.00    -0.458 OA
BRANCH  20  21
ATOM     21  C   UNL A   1      33.002  31.330  27.194  1.00  0.00     0.338 C 
ATOM     22  O   UNL A   1      32.708  32.498  26.984  1.00  0.00    -0.246 OA
BRANCH  21  23
ATOM     23  C   UNL A   1      34.350  30.952  27.650  1.00  0.00     0.060 A 
ATOM     24  C   UNL A   1      34.663  29.623  27.937  1.00  0.00     0.016 A 
ATOM     25  C   UNL A   1      35.237  31.972  28.002  1.00  0.00     0.016 A 
ATOM     26  C   UNL A   1      35.819  29.328  28.662  1.00  0.00     0.010 A 
ATOM     27  C   UNL A   1      36.441  31.662  28.640  1.00  0.00     0.010 A 
ATOM     28  C   UNL A   1      36.730  30.341  29.010  1.00  0.00    -0.014 A 
BRANCH  28  29
ATOM     29  C   UNL A   1      37.985  30.004  29.741  1.00  0.00     0.031 A 
ATOM     30  C   UNL A   1      39.020  29.088  29.137  1.00  0.00     0.074 A 
ATOM     31  C   UNL A   1      38.197  30.533  30.962  1.00  0.00     0.049 A 
ATOM     32  N   UNL A   1      40.115  28.612  29.678  1.00  0.00    -0.248 NA
ATOM     33  C   UNL A   1      38.791  28.638  27.756  1.00  0.00     0.031 C 
ATOM     34  C   UNL A   1      37.279  31.432  31.664  1.00  0.00     0.029 A 
ATOM     35  N   UNL A   1      39.256  30.403  31.826  1.00  0.00    -0.354 N 
ATOM     36  C   UNL A   1      40.689  27.782  28.721  1.00  0.00     0.074 A 
ATOM     37  C   UNL A   1      39.813  27.813  27.566  1.00  0.00     0.031 C 
ATOM     38  C   UNL A   1      37.831  31.807  32.826  1.00  0.00     0.029 A 
ATOM     39  C   UNL A   1      39.107  31.121  32.989  1.00  0.00     0.049 A 
ATOM     40  H   UNL A   1      40.047  29.851  31.631  1.00  0.00     0.167 HD
ATOM     41  C   UNL A   1      41.836  27.060  28.799  1.00  0.00     0.034 A 
ATOM     42  C   UNL A   1      39.888  31.201  34.083  1.00  0.00     0.034 A 
ATOM     43  C   UNL A   1      42.718  27.047  29.944  1.00  0.00     0.049 A 
ATOM     44  C   UNL A   1      41.159  30.404  34.138  1.00  0.00     0.074 A 
ATOM     45  C   UNL A   1      43.898  26.341  30.121  1.00  0.00     0.029 A 
ATOM     46  N   UNL A   1      42.524  27.781  31.106  1.00  0.00    -0.354 N 
ATOM     47  N   UNL A   1      41.648  29.574  33.247  1.00  0.00    -0.248 NA
ATOM     48  C   UNL A   1      41.975  30.549  35.348  1.00  0.00     0.031 C 
ATOM     49  C   UNL A   1      44.395  26.618  31.401  1.00  0.00     0.029 A 
ATOM     50  C   UNL A   1      43.555  27.538  32.004  1.00  0.00     0.049 A 
ATOM     51  H   UNL A   1      41.765  28.386  31.270  1.00  0.00     0.167 HD
ATOM     52  C   UNL A   1      42.826  29.084  33.800  1.00  0.00     0.074 A 
ATOM     53  C   UNL A   1      42.991  29.742  35.081  1.00  0.00     0.031 C 
ATOM     54  C   UNL A   1      43.687  28.165  33.297  1.00  0.00     0.034 A 
BRANCH  41  55
ATOM     55  C   UNL A   1      42.180  26.178  27.624  1.00  0.00     0.023 A 
ATOM     56  C   UNL A   1      41.766  24.837  27.558  1.00  0.00     0.031 A 
ATOM     57  C   UNL A   1      42.936  26.690  26.555  1.00  0.00     0.131 A 
ATOM     58  C   UNL A   1      42.150  24.040  26.468  1.00  0.00     0.055 A 
ATOM     59  C   UNL A   1      43.266  25.909  25.445  1.00  0.00     0.041 A 
ATOM     60  F   UNL A   1      43.371  27.960  26.573  1.00  0.00    -0.206 F 
ATOM     61  C   UNL A   1      42.881  24.573  25.401  1.00  0.00     0.022 A 
BRANCH  58  62
ATOM     62  S   UNL A   1      41.770  22.268  26.507  1.00  0.00     0.124 S 
ATOM     63  O   UNL A   1      42.278  21.886  27.823  1.00  0.00    -0.237 OA
ATOM     64  O   UNL A   1      40.320  22.253  26.355  1.00  0.00    -0.237 OA
ATOM     65  O   UNL A   1      42.522  21.730  25.375  1.00  0.00    -0.744 OA
ENDBRANCH  58  62
ENDBRANCH  41  55
BRANCH  42  66
ATOM     66  C   UNL A   1      39.454  32.024  35.242  1.00  0.00     0.023 A 
ATOM     67  C   UNL A   1      39.911  33.339  35.409  1.00  0.00     0.031 A 
ATOM     68  C   UNL A   1      38.575  31.494  36.204  1.00  0.00     0.131 A 
ATOM     69  C   UNL A   1      39.501  34.078  36.529  1.00  0.00     0.055 A 
ATOM     70  C   UNL A   1      38.142  32.246  37.295  1.00  0.00     0.041 A 
ATOM     71  F   UNL A   1      38.106  30.243  36.077  1.00  0.00    -0.206 F 
ATOM     72  C   UNL A   1      38.613  33.544  37.466  1.00  0.00     0.022 A 
BRANCH  69  73
ATOM     73  S   UNL A   1      40.185  35.741  36.769  1.00  0.00     0.124 S 
ATOM     74  O   UNL A   1      41.620  35.480  36.757  1.00  0.00    -0.237 OA
ATOM     75  O   UNL A   1      39.654  36.455  35.612  1.00  0.00    -0.237 OA
ATOM     76  O   UNL A   1      39.635  36.152  38.058  1.00  0.00    -0.744 OA
ENDBRANCH  69  73
ENDBRANCH  42  66
BRANCH  54  77
ATOM     77  C   UNL A   1      44.880  27.831  34.151  1.00  0.00     0.023 A 
ATOM     78  C   UNL A   1      44.833  26.782  35.088  1.00  0.00     0.031 A 
ATOM     79  C   UNL A   1      46.050  28.604  34.075  1.00  0.00     0.131 A 
ATOM     80  C   UNL A   1      45.918  26.569  35.951  1.00  0.00     0.055 A 
ATOM     81  C   UNL A   1      47.144  28.360  34.908  1.00  0.00     0.041 A 
ATOM     82  F   UNL A   1      46.142  29.619  33.202  1.00  0.00    -0.206 F 
ATOM     83  C   UNL A   1      47.076  27.347  35.861  1.00  0.00     0.022 A 
BRANCH  80  84
ATOM     84  S   UNL A   1      45.758  25.327  37.264  1.00  0.00     0.124 S 
ATOM     85  O   UNL A   1      46.336  26.018  38.412  1.00  0.00    -0.237 OA
ATOM     86  O   UNL A   1      44.316  25.110  37.310  1.00  0.00    -0.237 OA
ATOM     87  O   UNL A   1      46.539  24.197  36.765  1.00  0.00    -0.744 OA
ENDBRANCH  80  84
ENDBRANCH  54  77
ENDBRANCH  28  29
ENDBRANCH  21  23
ENDBRANCH  20  21
ENDBRANCH  19  20
ENDBRANCH   1  19
TORSDOF 18
ENDMDL
