MODEL 1
REMARK VINA RESULT:     -12.5      0.000      0.000
REMARK SMILES CC(C)Cc1cc2c(cc1Cl)C=C(C(=O)OCCOC(=O)c1ccc(-c3c4nc(c(-c5cc(S(=O)(=O)[O-])ccc5F)c5ccc([nH]5)c(-c5cc(S(=O)(=O)[O-])ccc5F)c5nc(c(-c6cc(S(=O)(=O)[O-])ccc6F)c6ccc3[nH]6)C=C5)C=C4)cc1)[C@H](C(F)(F)F)O2
REMARK SMILES IDX 18 1 17 2 16 3 14 4 15 5 13 6 5 7 6 8 10 9 7 10 9 11 11 12
REMARK SMILES IDX 8 13 90 14 12 15 85 16 4 17 2 18 1 19 3 20 86 21 87 22 88 23
REMARK SMILES IDX 89 24 19 25 20 26 21 27 22 28 23 29 84 30 24 31 83 32 25 33
REMARK SMILES IDX 26 34 27 35 77 36 28 37 82 38 76 39 78 40 29 41 81 42 75 43
REMARK SMILES IDX 74 44 30 46 62 47 42 48 61 49 43 50 46 51 60 52 79 53 44 54
REMARK SMILES IDX 45 55 59 57 80 58 47 59 31 60 32 61 40 62 33 63 39 64 41 65
REMARK SMILES IDX 38 66 34 67 35 68 36 69 37 70 63 71 64 72 72 73 65 74 71 75
REMARK SMILES IDX 73 76 70 77 66 78 67 79 68 80 69 81 48 82 49 83 57 84 50 85
REMARK SMILES IDX 56 86 58 87 55 88 51 89 52 90 53 91 54 92
REMARK H PARENT 78 45 46 56
REMARK Flexibility Score: inf
ROOT
ATOM      1  C   UNL A   1      36.679  20.304  25.091  1.00  0.00     0.275 C 
ENDROOT
BRANCH   1   2
ATOM      2  C   UNL A   1      35.198  20.688  25.063  1.00  0.00     0.275 C 
BRANCH   2   3
ATOM      3  O   UNL A   1      35.007  22.036  25.545  1.00  0.00    -0.459 OA
BRANCH   3   4
ATOM      4  C   UNL A   1      34.091  22.199  26.522  1.00  0.00     0.338 C 
ATOM      5  O   UNL A   1      33.990  21.504  27.519  1.00  0.00    -0.246 OA
BRANCH   4   6
ATOM      6  C   UNL A   1      33.268  23.406  26.288  1.00  0.00     0.087 C 
ATOM      7  C   UNL A   1      31.798  28.020  24.898  1.00  0.00    -0.025 A 
ATOM      8  C   UNL A   1      31.264  27.035  25.759  1.00  0.00     0.052 A 
ATOM      9  C   UNL A   1      33.038  27.771  24.283  1.00  0.00     0.045 A 
ATOM     10  C   UNL A   1      31.945  25.839  25.992  1.00  0.00     0.128 A 
ATOM     11  C   UNL A   1      33.712  26.575  24.514  1.00  0.00     0.032 A 
ATOM     12  Cl  UNL A   1      33.824  28.934  23.276  1.00  0.00    -0.084 Cl
ATOM     13  C   UNL A   1      33.173  25.620  25.379  1.00  0.00     0.019 A 
ATOM     14  O   UNL A   1      31.403  24.949  26.883  1.00  0.00    -0.475 OA
ATOM     15  C   UNL A   1      33.913  24.417  25.690  1.00  0.00     0.027 C 
ATOM     16  C   UNL A   1      31.854  23.550  26.795  1.00  0.00     0.316 C 
BRANCH   7  17
ATOM     17  C   UNL A   1      31.039  29.314  24.693  1.00  0.00     0.040 C 
BRANCH  17  18
ATOM     18  C   UNL A   1      29.838  29.227  23.728  1.00  0.00    -0.013 C 
ATOM     19  C   UNL A   1      29.276  30.605  23.379  1.00  0.00     0.008 C 
ATOM     20  C   UNL A   1      30.255  28.492  22.452  1.00  0.00     0.008 C 
ENDBRANCH  17  18
ENDBRANCH   7  17
BRANCH  16  21
ATOM     21  C   UNL A   1      30.749  22.739  26.091  1.00  0.00     0.430 C 
ATOM     22  F   UNL A   1      29.590  22.704  26.784  1.00  0.00    -0.167 F 
ATOM     23  F   UNL A   1      30.437  23.325  24.901  1.00  0.00    -0.167 F 
ATOM     24  F   UNL A   1      31.120  21.472  25.824  1.00  0.00    -0.167 F 
ENDBRANCH  16  21
ENDBRANCH   4   6
ENDBRANCH   3   4
ENDBRANCH   2   3
ENDBRANCH   1   2
BRANCH   1  25
ATOM     25  O   UNL A   1      37.492  21.411  25.526  1.00  0.00    -0.458 OA
BRANCH  25  26
ATOM     26  C   UNL A   1      38.743  21.097  25.932  1.00  0.00     0.338 C 
ATOM     27  O   UNL A   1      39.309  20.020  25.814  1.00  0.00    -0.246 OA
BRANCH  26  28
ATOM     28  C   UNL A   1      39.412  22.313  26.416  1.00  0.00     0.060 A 
ATOM     29  C   UNL A   1      40.600  22.282  27.140  1.00  0.00     0.016 A 
ATOM     30  C   UNL A   1      38.854  23.532  26.046  1.00  0.00     0.016 A 
ATOM     31  C   UNL A   1      41.200  23.493  27.519  1.00  0.00     0.010 A 
ATOM     32  C   UNL A   1      39.488  24.730  26.353  1.00  0.00     0.010 A 
ATOM     33  C   UNL A   1      40.656  24.733  27.124  1.00  0.00    -0.014 A 
BRANCH  33  34
ATOM     34  C   UNL A   1      41.274  26.038  27.498  1.00  0.00     0.031 A 
ATOM     35  C   UNL A   1      42.676  26.377  27.046  1.00  0.00     0.074 A 
ATOM     36  C   UNL A   1      40.616  26.887  28.313  1.00  0.00     0.049 A 
ATOM     37  N   UNL A   1      43.409  27.421  27.338  1.00  0.00    -0.248 NA
ATOM     38  C   UNL A   1      43.359  25.396  26.187  1.00  0.00     0.031 C 
ATOM     39  C   UNL A   1      39.292  26.642  28.886  1.00  0.00     0.029 A 
ATOM     40  N   UNL A   1      40.967  28.120  28.809  1.00  0.00    -0.354 N 
ATOM     41  C   UNL A   1      44.642  27.208  26.725  1.00  0.00     0.074 A 
ATOM     42  C   UNL A   1      44.579  25.907  26.102  1.00  0.00     0.031 C 
ATOM     43  C   UNL A   1      38.924  27.706  29.613  1.00  0.00     0.029 A 
ATOM     44  C   UNL A   1      40.001  28.694  29.604  1.00  0.00     0.049 A 
ATOM     45  H   UNL A   1      41.830  28.553  28.613  1.00  0.00     0.167 HD
ATOM     46  C   UNL A   1      45.712  28.036  26.654  1.00  0.00     0.034 A 
ATOM     47  C   UNL A   1      39.978  29.879  30.252  1.00  0.00     0.034 A 
ATOM     48  C   UNL A   1      45.735  29.359  27.223  1.00  0.00     0.049 A 
ATOM     49  C   UNL A   1      41.159  30.810  30.117  1.00  0.00     0.074 A 
ATOM     50  C   UNL A   1      46.733  30.311  27.125  1.00  0.00     0.029 A 
ATOM     51  N   UNL A   1      44.714  29.923  27.975  1.00  0.00    -0.354 N 
ATOM     52  N   UNL A   1      42.274  30.632  29.449  1.00  0.00    -0.248 NA
ATOM     53  C   UNL A   1      41.081  32.104  30.811  1.00  0.00     0.031 C 
ATOM     54  C   UNL A   1      46.341  31.430  27.859  1.00  0.00     0.029 A 
ATOM     55  C   UNL A   1      45.068  31.205  28.359  1.00  0.00     0.049 A 
ATOM     56  H   UNL A   1      43.866  29.478  28.202  1.00  0.00     0.167 HD
ATOM     57  C   UNL A   1      43.016  31.798  29.619  1.00  0.00     0.074 A 
ATOM     58  C   UNL A   1      42.216  32.685  30.437  1.00  0.00     0.031 C 
ATOM     59  C   UNL A   1      44.249  32.100  29.142  1.00  0.00     0.034 A 
BRANCH  46  60
ATOM     60  C   UNL A   1      46.936  27.587  25.888  1.00  0.00     0.023 A 
ATOM     61  C   UNL A   1      47.088  27.926  24.529  1.00  0.00     0.031 A 
ATOM     62  C   UNL A   1      47.875  26.710  26.460  1.00  0.00     0.131 A 
ATOM     63  C   UNL A   1      48.137  27.368  23.784  1.00  0.00     0.055 A 
ATOM     64  C   UNL A   1      48.945  26.196  25.726  1.00  0.00     0.041 A 
ATOM     65  F   UNL A   1      47.770  26.342  27.747  1.00  0.00    -0.206 F 
ATOM     66  C   UNL A   1      49.071  26.515  24.379  1.00  0.00     0.022 A 
BRANCH  63  67
ATOM     67  S   UNL A   1      48.291  27.668  22.001  1.00  0.00     0.124 S 
ATOM     68  O   UNL A   1      49.464  28.537  21.944  1.00  0.00    -0.237 OA
ATOM     69  O   UNL A   1      48.491  26.318  21.482  1.00  0.00    -0.237 OA
ATOM     70  O   UNL A   1      47.029  28.303  21.640  1.00  0.00    -0.744 OA
ENDBRANCH  63  67
ENDBRANCH  46  60
BRANCH  47  71
ATOM     71  C   UNL A   1      38.747  30.273  31.001  1.00  0.00     0.023 A 
ATOM     72  C   UNL A   1      37.674  30.917  30.360  1.00  0.00     0.031 A 
ATOM     73  C   UNL A   1      38.685  30.119  32.398  1.00  0.00     0.131 A 
ATOM     74  C   UNL A   1      36.622  31.445  31.123  1.00  0.00     0.055 A 
ATOM     75  C   UNL A   1      37.602  30.583  33.145  1.00  0.00     0.041 A 
ATOM     76  F   UNL A   1      39.691  29.523  33.057  1.00  0.00    -0.206 F 
ATOM     77  C   UNL A   1      36.571  31.267  32.509  1.00  0.00     0.022 A 
BRANCH  74  78
ATOM     78  S   UNL A   1      35.356  32.501  30.363  1.00  0.00     0.124 S 
ATOM     79  O   UNL A   1      36.102  33.726  30.095  1.00  0.00    -0.237 OA
ATOM     80  O   UNL A   1      34.984  31.720  29.186  1.00  0.00    -0.237 OA
ATOM     81  O   UNL A   1      34.328  32.601  31.393  1.00  0.00    -0.744 OA
ENDBRANCH  74  78
ENDBRANCH  47  71
BRANCH  59  82
ATOM     82  C   UNL A   1      44.848  33.451  29.453  1.00  0.00     0.023 A 
ATOM     83  C   UNL A   1      44.528  34.558  28.641  1.00  0.00     0.031 A 
ATOM     84  C   UNL A   1      45.877  33.592  30.397  1.00  0.00     0.131 A 
ATOM     85  C   UNL A   1      45.276  35.738  28.747  1.00  0.00     0.055 A 
ATOM     86  C   UNL A   1      46.586  34.786  30.533  1.00  0.00     0.041 A 
ATOM     87  F   UNL A   1      46.226  32.561  31.184  1.00  0.00    -0.206 F 
ATOM     88  C   UNL A   1      46.300  35.860  29.692  1.00  0.00     0.022 A 
BRANCH  85  89
ATOM     89  S   UNL A   1      45.020  37.114  27.593  1.00  0.00     0.124 S 
ATOM     90  O   UNL A   1      43.934  36.610  26.755  1.00  0.00    -0.237 OA
ATOM     91  O   UNL A   1      44.659  38.205  28.493  1.00  0.00    -0.237 OA
ATOM     92  O   UNL A   1      46.308  37.253  26.920  1.00  0.00    -0.744 OA
ENDBRANCH  85  89
ENDBRANCH  59  82
ENDBRANCH  33  34
ENDBRANCH  26  28
ENDBRANCH  25  26
ENDBRANCH   1  25
TORSDOF 17
ENDMDL
MODEL 2
REMARK VINA RESULT:     -12.4      0.408      7.478
REMARK SMILES CC(C)Cc1cc2c(cc1Cl)C=C(C(=O)OCCOC(=O)c1ccc(-c3c4nc(c(-c5cc(S(=O)(=O)[O-])ccc5F)c5ccc([nH]5)c(-c5cc(S(=O)(=O)[O-])ccc5F)c5nc(c(-c6cc(S(=O)(=O)[O-])ccc6F)c6ccc3[nH]6)C=C5)C=C4)cc1)[C@H](C(F)(F)F)O2
REMARK SMILES IDX 18 1 17 2 16 3 14 4 15 5 13 6 5 7 6 8 10 9 7 10 9 11 11 12
REMARK SMILES IDX 8 13 90 14 12 15 85 16 4 17 2 18 1 19 3 20 86 21 87 22 88 23
REMARK SMILES IDX 89 24 19 25 20 26 21 27 22 28 23 29 84 30 24 31 83 32 25 33
REMARK SMILES IDX 26 34 27 35 77 36 28 37 82 38 76 39 78 40 29 41 81 42 75 43
REMARK SMILES IDX 74 44 30 46 62 47 42 48 61 49 43 50 46 51 60 52 79 53 44 54
REMARK SMILES IDX 45 55 59 57 80 58 47 59 31 60 32 61 40 62 33 63 39 64 41 65
REMARK SMILES IDX 38 66 34 67 35 68 36 69 37 70 63 71 64 72 72 73 65 74 71 75
REMARK SMILES IDX 73 76 70 77 66 78 67 79 68 80 69 81 48 82 49 83 57 84 50 85
REMARK SMILES IDX 56 86 58 87 55 88 51 89 52 90 53 91 54 92
REMARK H PARENT 78 45 46 56
REMARK Flexibility Score: inf
ROOT
ATOM      1  C   UNL A   1      36.773  20.422  24.993  1.00  0.00     0.275 C 
ENDROOT
BRANCH   1   2
ATOM      2  C   UNL A   1      35.267  20.683  25.066  1.00  0.00     0.275 C 
BRANCH   2   3
ATOM      3  O   UNL A   1      35.000  22.034  25.502  1.00  0.00    -0.459 OA
BRANCH   3   4
ATOM      4  C   UNL A   1      34.057  22.181  26.454  1.00  0.00     0.338 C 
ATOM      5  O   UNL A   1      33.922  21.466  27.433  1.00  0.00    -0.246 OA
BRANCH   4   6
ATOM      6  C   UNL A   1      33.246  23.398  26.222  1.00  0.00     0.087 C 
ATOM      7  C   UNL A   1      31.824  28.025  24.824  1.00  0.00    -0.025 A 
ATOM      8  C   UNL A   1      31.284  27.050  25.693  1.00  0.00     0.052 A 
ATOM      9  C   UNL A   1      33.056  27.758  24.201  1.00  0.00     0.045 A 
ATOM     10  C   UNL A   1      31.952  25.846  25.926  1.00  0.00     0.128 A 
ATOM     11  C   UNL A   1      33.717  26.554  24.432  1.00  0.00     0.032 A 
ATOM     12  Cl  UNL A   1      33.849  28.907  23.184  1.00  0.00    -0.084 Cl
ATOM     13  C   UNL A   1      33.173  25.609  25.305  1.00  0.00     0.019 A 
ATOM     14  O   UNL A   1      31.406  24.966  26.824  1.00  0.00    -0.475 OA
ATOM     15  C   UNL A   1      33.900  24.399  25.615  1.00  0.00     0.027 C 
ATOM     16  C   UNL A   1      31.838  23.562  26.738  1.00  0.00     0.316 C 
BRANCH   7  17
ATOM     17  C   UNL A   1      31.079  29.327  24.620  1.00  0.00     0.040 C 
BRANCH  17  18
ATOM     18  C   UNL A   1      29.900  29.263  23.628  1.00  0.00    -0.013 C 
ATOM     19  C   UNL A   1      29.159  30.596  23.522  1.00  0.00     0.008 C 
ATOM     20  C   UNL A   1      30.411  28.835  22.249  1.00  0.00     0.008 C 
ENDBRANCH  17  18
ENDBRANCH   7  17
BRANCH  16  21
ATOM     21  C   UNL A   1      30.718  22.762  26.046  1.00  0.00     0.430 C 
ATOM     22  F   UNL A   1      31.067  21.488  25.767  1.00  0.00    -0.167 F 
ATOM     23  F   UNL A   1      29.643  22.666  26.878  1.00  0.00    -0.167 F 
ATOM     24  F   UNL A   1      30.289  23.342  24.908  1.00  0.00    -0.167 F 
ENDBRANCH  16  21
ENDBRANCH   4   6
ENDBRANCH   3   4
ENDBRANCH   2   3
ENDBRANCH   1   2
BRANCH   1  25
ATOM     25  O   UNL A   1      37.501  21.362  25.807  1.00  0.00    -0.458 OA
BRANCH  25  26
ATOM     26  C   UNL A   1      38.803  21.068  26.021  1.00  0.00     0.338 C 
ATOM     27  O   UNL A   1      39.371  20.012  25.783  1.00  0.00    -0.246 OA
BRANCH  26  28
ATOM     28  C   UNL A   1      39.506  22.284  26.454  1.00  0.00     0.060 A 
ATOM     29  C   UNL A   1      40.695  22.250  27.176  1.00  0.00     0.016 A 
ATOM     30  C   UNL A   1      38.981  23.502  26.037  1.00  0.00     0.016 A 
ATOM     31  C   UNL A   1      41.330  23.458  27.506  1.00  0.00     0.010 A 
ATOM     32  C   UNL A   1      39.648  24.693  26.295  1.00  0.00     0.010 A 
ATOM     33  C   UNL A   1      40.818  24.695  27.062  1.00  0.00    -0.014 A 
BRANCH  33  34
ATOM     34  C   UNL A   1      41.473  25.997  27.382  1.00  0.00     0.031 A 
ATOM     35  C   UNL A   1      40.745  27.037  28.202  1.00  0.00     0.074 A 
ATOM     36  C   UNL A   1      42.687  26.285  26.872  1.00  0.00     0.049 A 
ATOM     37  N   UNL A   1      41.115  28.253  28.513  1.00  0.00    -0.248 NA
ATOM     38  C   UNL A   1      39.408  26.680  28.704  1.00  0.00     0.031 C 
ATOM     39  C   UNL A   1      43.459  25.402  25.997  1.00  0.00     0.029 A 
ATOM     40  N   UNL A   1      43.482  27.399  27.001  1.00  0.00    -0.354 N 
ATOM     41  C   UNL A   1      40.051  28.811  29.217  1.00  0.00     0.074 A 
ATOM     42  C   UNL A   1      38.996  27.825  29.230  1.00  0.00     0.031 C 
ATOM     43  C   UNL A   1      44.633  25.984  25.710  1.00  0.00     0.029 A 
ATOM     44  C   UNL A   1      44.683  27.304  26.334  1.00  0.00     0.049 A 
ATOM     45  H   UNL A   1      43.218  28.191  27.524  1.00  0.00     0.167 HD
ATOM     46  C   UNL A   1      39.974  30.017  29.830  1.00  0.00     0.034 A 
ATOM     47  C   UNL A   1      45.710  28.175  26.236  1.00  0.00     0.034 A 
ATOM     48  C   UNL A   1      41.060  30.962  29.866  1.00  0.00     0.049 A 
ATOM     49  C   UNL A   1      45.627  29.492  26.969  1.00  0.00     0.074 A 
ATOM     50  C   UNL A   1      41.115  32.170  30.540  1.00  0.00     0.029 A 
ATOM     51  N   UNL A   1      42.279  30.805  29.224  1.00  0.00    -0.354 N 
ATOM     52  N   UNL A   1      44.652  29.958  27.714  1.00  0.00    -0.248 NA
ATOM     53  C   UNL A   1      46.780  30.398  26.863  1.00  0.00     0.031 C 
ATOM     54  C   UNL A   1      42.345  32.765  30.263  1.00  0.00     0.029 A 
ATOM     55  C   UNL A   1      43.087  31.901  29.474  1.00  0.00     0.049 A 
ATOM     56  H   UNL A   1      42.531  30.030  28.671  1.00  0.00     0.167 HD
ATOM     57  C   UNL A   1      45.085  31.195  28.185  1.00  0.00     0.074 A 
ATOM     58  C   UNL A   1      46.417  31.398  27.658  1.00  0.00     0.031 C 
ATOM     59  C   UNL A   1      44.431  32.081  28.978  1.00  0.00     0.034 A 
BRANCH  46  60
ATOM     60  C   UNL A   1      38.708  30.381  30.573  1.00  0.00     0.023 A 
ATOM     61  C   UNL A   1      37.663  31.054  29.908  1.00  0.00     0.031 A 
ATOM     62  C   UNL A   1      38.594  30.191  31.962  1.00  0.00     0.131 A 
ATOM     63  C   UNL A   1      36.568  31.535  30.639  1.00  0.00     0.055 A 
ATOM     64  C   UNL A   1      37.478  30.629  32.676  1.00  0.00     0.041 A 
ATOM     65  F   UNL A   1      39.567  29.568  32.647  1.00  0.00    -0.206 F 
ATOM     66  C   UNL A   1      36.466  31.316  32.016  1.00  0.00     0.022 A 
BRANCH  63  67
ATOM     67  S   UNL A   1      35.268  32.525  29.849  1.00  0.00     0.124 S 
ATOM     68  O   UNL A   1      34.334  32.727  30.954  1.00  0.00    -0.237 OA
ATOM     69  O   UNL A   1      36.004  33.715  29.431  1.00  0.00    -0.237 OA
ATOM     70  O   UNL A   1      34.782  31.671  28.772  1.00  0.00    -0.744 OA
ENDBRANCH  63  67
ENDBRANCH  46  60
BRANCH  47  71
ATOM     71  C   UNL A   1      46.936  27.769  25.483  1.00  0.00     0.023 A 
ATOM     72  C   UNL A   1      47.109  28.108  24.129  1.00  0.00     0.031 A 
ATOM     73  C   UNL A   1      47.891  26.929  26.081  1.00  0.00     0.131 A 
ATOM     74  C   UNL A   1      48.171  27.550  23.402  1.00  0.00     0.055 A 
ATOM     75  C   UNL A   1      48.987  26.434  25.372  1.00  0.00     0.041 A 
ATOM     76  F   UNL A   1      47.762  26.566  27.367  1.00  0.00    -0.206 F 
ATOM     77  C   UNL A   1      49.120  26.730  24.019  1.00  0.00     0.022 A 
BRANCH  74  78
ATOM     78  S   UNL A   1      48.279  27.756  21.602  1.00  0.00     0.124 S 
ATOM     79  O   UNL A   1      48.622  26.409  21.161  1.00  0.00    -0.237 OA
ATOM     80  O   UNL A   1      46.929  28.203  21.271  1.00  0.00    -0.237 OA
ATOM     81  O   UNL A   1      49.324  28.761  21.433  1.00  0.00    -0.744 OA
ENDBRANCH  74  78
ENDBRANCH  47  71
BRANCH  59  82
ATOM     82  C   UNL A   1      45.119  33.365  29.370  1.00  0.00     0.023 A 
ATOM     83  C   UNL A   1      45.054  34.481  28.511  1.00  0.00     0.031 A 
ATOM     84  C   UNL A   1      45.997  33.417  30.465  1.00  0.00     0.131 A 
ATOM     85  C   UNL A   1      45.901  35.575  28.726  1.00  0.00     0.055 A 
ATOM     86  C   UNL A   1      46.803  34.531  30.703  1.00  0.00     0.041 A 
ATOM     87  F   UNL A   1      46.102  32.375  31.304  1.00  0.00    -0.206 F 
ATOM     88  C   UNL A   1      46.772  35.609  29.820  1.00  0.00     0.022 A 
BRANCH  85  89
ATOM     89  S   UNL A   1      45.983  36.943  27.537  1.00  0.00     0.124 S 
ATOM     90  O   UNL A   1      46.813  36.375  26.477  1.00  0.00    -0.237 OA
ATOM     91  O   UNL A   1      44.577  37.135  27.194  1.00  0.00    -0.237 OA
ATOM     92  O   UNL A   1      46.600  38.030  28.292  1.00  0.00    -0.744 OA
ENDBRANCH  85  89
ENDBRANCH  59  82
ENDBRANCH  33  34
ENDBRANCH  26  28
ENDBRANCH  25  26
ENDBRANCH   1  25
TORSDOF 17
ENDMDL
MODEL 3
REMARK VINA RESULT:     -12.3      1.353      1.667
REMARK SMILES CC(C)Cc1cc2c(cc1Cl)C=C(C(=O)OCCOC(=O)c1ccc(-c3c4nc(c(-c5cc(S(=O)(=O)[O-])ccc5F)c5ccc([nH]5)c(-c5cc(S(=O)(=O)[O-])ccc5F)c5nc(c(-c6cc(S(=O)(=O)[O-])ccc6F)c6ccc3[nH]6)C=C5)C=C4)cc1)[C@H](C(F)(F)F)O2
REMARK SMILES IDX 18 1 17 2 16 3 14 4 15 5 13 6 5 7 6 8 10 9 7 10 9 11 11 12
REMARK SMILES IDX 8 13 90 14 12 15 85 16 4 17 2 18 1 19 3 20 86 21 87 22 88 23
REMARK SMILES IDX 89 24 19 25 20 26 21 27 22 28 23 29 84 30 24 31 83 32 25 33
REMARK SMILES IDX 26 34 27 35 77 36 28 37 82 38 76 39 78 40 29 41 81 42 75 43
REMARK SMILES IDX 74 44 30 46 62 47 42 48 61 49 43 50 46 51 60 52 79 53 44 54
REMARK SMILES IDX 45 55 59 57 80 58 47 59 31 60 32 61 40 62 33 63 39 64 41 65
REMARK SMILES IDX 38 66 34 67 35 68 36 69 37 70 63 71 64 72 72 73 65 74 71 75
REMARK SMILES IDX 73 76 70 77 66 78 67 79 68 80 69 81 48 82 49 83 57 84 50 85
REMARK SMILES IDX 56 86 58 87 55 88 51 89 52 90 53 91 54 92
REMARK H PARENT 78 45 46 56
REMARK Flexibility Score: inf
ROOT
ATOM      1  C   UNL A   1      36.783  20.381  24.994  1.00  0.00     0.275 C 
ENDROOT
BRANCH   1   2
ATOM      2  C   UNL A   1      35.282  20.567  25.232  1.00  0.00     0.275 C 
BRANCH   2   3
ATOM      3  O   UNL A   1      34.977  21.944  25.543  1.00  0.00    -0.459 OA
BRANCH   3   4
ATOM      4  C   UNL A   1      34.129  22.154  26.570  1.00  0.00     0.338 C 
ATOM      5  O   UNL A   1      34.094  21.504  27.602  1.00  0.00    -0.246 OA
BRANCH   4   6
ATOM      6  C   UNL A   1      33.294  23.354  26.339  1.00  0.00     0.087 C 
ATOM      7  C   UNL A   1      31.781  27.958  24.964  1.00  0.00    -0.025 A 
ATOM      8  C   UNL A   1      31.254  26.964  25.819  1.00  0.00     0.052 A 
ATOM      9  C   UNL A   1      33.025  27.725  24.352  1.00  0.00     0.045 A 
ATOM     10  C   UNL A   1      31.947  25.774  26.049  1.00  0.00     0.128 A 
ATOM     11  C   UNL A   1      33.711  26.534  24.579  1.00  0.00     0.032 A 
ATOM     12  Cl  UNL A   1      33.803  28.900  23.353  1.00  0.00    -0.084 Cl
ATOM     13  C   UNL A   1      33.180  25.570  25.439  1.00  0.00     0.019 A 
ATOM     14  O   UNL A   1      31.412  24.875  26.934  1.00  0.00    -0.475 OA
ATOM     15  C   UNL A   1      33.931  24.374  25.748  1.00  0.00     0.027 C 
ATOM     16  C   UNL A   1      31.877  23.481  26.842  1.00  0.00     0.316 C 
BRANCH   7  17
ATOM     17  C   UNL A   1      31.009  29.245  24.762  1.00  0.00     0.040 C 
BRANCH  17  18
ATOM     18  C   UNL A   1      30.224  29.341  23.438  1.00  0.00    -0.013 C 
ATOM     19  C   UNL A   1      29.367  28.101  23.181  1.00  0.00     0.008 C 
ATOM     20  C   UNL A   1      29.344  30.594  23.452  1.00  0.00     0.008 C 
ENDBRANCH  17  18
ENDBRANCH   7  17
BRANCH  16  21
ATOM     21  C   UNL A   1      30.783  22.662  26.131  1.00  0.00     0.430 C 
ATOM     22  F   UNL A   1      29.661  22.518  26.869  1.00  0.00    -0.167 F 
ATOM     23  F   UNL A   1      30.387  23.310  25.000  1.00  0.00    -0.167 F 
ATOM     24  F   UNL A   1      31.205  21.437  25.761  1.00  0.00    -0.167 F 
ENDBRANCH  16  21
ENDBRANCH   4   6
ENDBRANCH   3   4
ENDBRANCH   2   3
ENDBRANCH   1   2
BRANCH   1  25
ATOM     25  O   UNL A   1      37.535  21.472  25.560  1.00  0.00    -0.458 OA
BRANCH  25  26
ATOM     26  C   UNL A   1      38.768  21.159  26.019  1.00  0.00     0.338 C 
ATOM     27  O   UNL A   1      39.327  20.074  25.953  1.00  0.00    -0.246 OA
BRANCH  26  28
ATOM     28  C   UNL A   1      39.431  22.383  26.490  1.00  0.00     0.060 A 
ATOM     29  C   UNL A   1      40.603  22.363  27.241  1.00  0.00     0.016 A 
ATOM     30  C   UNL A   1      38.888  23.596  26.080  1.00  0.00     0.016 A 
ATOM     31  C   UNL A   1      41.201  23.580  27.606  1.00  0.00     0.010 A 
ATOM     32  C   UNL A   1      39.521  24.797  26.374  1.00  0.00     0.010 A 
ATOM     33  C   UNL A   1      40.671  24.812  27.170  1.00  0.00    -0.014 A 
BRANCH  33  34
ATOM     34  C   UNL A   1      41.287  26.123  27.528  1.00  0.00     0.031 A 
ATOM     35  C   UNL A   1      42.692  26.455  27.081  1.00  0.00     0.074 A 
ATOM     36  C   UNL A   1      40.623  26.986  28.325  1.00  0.00     0.049 A 
ATOM     37  N   UNL A   1      43.424  27.503  27.362  1.00  0.00    -0.248 NA
ATOM     38  C   UNL A   1      43.380  25.460  26.242  1.00  0.00     0.031 C 
ATOM     39  C   UNL A   1      39.296  26.749  28.893  1.00  0.00     0.029 A 
ATOM     40  N   UNL A   1      40.971  28.226  28.805  1.00  0.00    -0.354 N 
ATOM     41  C   UNL A   1      44.660  27.280  26.761  1.00  0.00     0.074 A 
ATOM     42  C   UNL A   1      44.602  25.969  26.158  1.00  0.00     0.031 C 
ATOM     43  C   UNL A   1      38.922  27.825  29.601  1.00  0.00     0.029 A 
ATOM     44  C   UNL A   1      40.000  28.812  29.584  1.00  0.00     0.049 A 
ATOM     45  H   UNL A   1      41.835  28.656  28.608  1.00  0.00     0.167 HD
ATOM     46  C   UNL A   1      45.731  28.107  26.684  1.00  0.00     0.034 A 
ATOM     47  C   UNL A   1      39.973  30.007  30.212  1.00  0.00     0.034 A 
ATOM     48  C   UNL A   1      45.750  29.438  27.233  1.00  0.00     0.049 A 
ATOM     49  C   UNL A   1      41.155  30.936  30.072  1.00  0.00     0.074 A 
ATOM     50  C   UNL A   1      46.750  30.389  27.127  1.00  0.00     0.029 A 
ATOM     51  N   UNL A   1      44.725  30.015  27.968  1.00  0.00    -0.354 N 
ATOM     52  N   UNL A   1      42.275  30.747  29.414  1.00  0.00    -0.248 NA
ATOM     53  C   UNL A   1      41.072  32.241  30.744  1.00  0.00     0.031 C 
ATOM     54  C   UNL A   1      46.353  31.519  27.841  1.00  0.00     0.029 A 
ATOM     55  C   UNL A   1      45.076  31.303  28.335  1.00  0.00     0.049 A 
ATOM     56  H   UNL A   1      43.875  29.573  28.197  1.00  0.00     0.167 HD
ATOM     57  C   UNL A   1      43.015  31.916  29.571  1.00  0.00     0.074 A 
ATOM     58  C   UNL A   1      42.210  32.815  30.369  1.00  0.00     0.031 C 
ATOM     59  C   UNL A   1      44.253  32.210  29.098  1.00  0.00     0.034 A 
BRANCH  46  60
ATOM     60  C   UNL A   1      46.960  27.645  25.935  1.00  0.00     0.023 A 
ATOM     61  C   UNL A   1      47.133  27.982  24.577  1.00  0.00     0.031 A 
ATOM     62  C   UNL A   1      47.884  26.760  26.519  1.00  0.00     0.131 A 
ATOM     63  C   UNL A   1      48.186  27.414  23.846  1.00  0.00     0.055 A 
ATOM     64  C   UNL A   1      48.959  26.235  25.799  1.00  0.00     0.041 A 
ATOM     65  F   UNL A   1      47.759  26.394  27.805  1.00  0.00    -0.206 F 
ATOM     66  C   UNL A   1      49.104  26.552  24.453  1.00  0.00     0.022 A 
BRANCH  63  67
ATOM     67  S   UNL A   1      48.365  27.710  22.065  1.00  0.00     0.124 S 
ATOM     68  O   UNL A   1      48.619  26.363  21.562  1.00  0.00    -0.237 OA
ATOM     69  O   UNL A   1      47.063  28.270  21.717  1.00  0.00    -0.237 OA
ATOM     70  O   UNL A   1      49.493  28.631  21.973  1.00  0.00    -0.744 OA
ENDBRANCH  63  67
ENDBRANCH  46  60
BRANCH  47  71
ATOM     71  C   UNL A   1      38.737  30.413  30.947  1.00  0.00     0.023 A 
ATOM     72  C   UNL A   1      37.651  31.009  30.280  1.00  0.00     0.031 A 
ATOM     73  C   UNL A   1      38.680  30.322  32.349  1.00  0.00     0.131 A 
ATOM     74  C   UNL A   1      36.591  31.553  31.021  1.00  0.00     0.055 A 
ATOM     75  C   UNL A   1      37.590  30.800  33.078  1.00  0.00     0.041 A 
ATOM     76  F   UNL A   1      39.698  29.774  33.031  1.00  0.00    -0.206 F 
ATOM     77  C   UNL A   1      36.547  31.437  32.414  1.00  0.00     0.022 A 
BRANCH  74  78
ATOM     78  S   UNL A   1      35.306  32.551  30.218  1.00  0.00     0.124 S 
ATOM     79  O   UNL A   1      34.354  32.755  31.305  1.00  0.00    -0.237 OA
ATOM     80  O   UNL A   1      36.060  33.734  29.810  1.00  0.00    -0.237 OA
ATOM     81  O   UNL A   1      34.844  31.702  29.125  1.00  0.00    -0.744 OA
ENDBRANCH  74  78
ENDBRANCH  47  71
BRANCH  59  82
ATOM     82  C   UNL A   1      44.850  33.565  29.392  1.00  0.00     0.023 A 
ATOM     83  C   UNL A   1      45.527  33.779  30.610  1.00  0.00     0.031 A 
ATOM     84  C   UNL A   1      44.571  34.676  28.580  1.00  0.00     0.131 A 
ATOM     85  C   UNL A   1      45.842  35.083  31.011  1.00  0.00     0.055 A 
ATOM     86  C   UNL A   1      44.932  35.969  28.961  1.00  0.00     0.041 A 
ATOM     87  F   UNL A   1      43.918  34.523  27.417  1.00  0.00    -0.206 F 
ATOM     88  C   UNL A   1      45.553  36.179  30.191  1.00  0.00     0.022 A 
BRANCH  85  89
ATOM     89  S   UNL A   1      46.539  35.415  32.653  1.00  0.00     0.124 S 
ATOM     90  O   UNL A   1      45.394  35.988  33.358  1.00  0.00    -0.237 OA
ATOM     91  O   UNL A   1      46.937  34.081  33.091  1.00  0.00    -0.237 OA
ATOM     92  O   UNL A   1      47.633  36.344  32.390  1.00  0.00    -0.744 OA
ENDBRANCH  85  89
ENDBRANCH  59  82
ENDBRANCH  33  34
ENDBRANCH  26  28
ENDBRANCH  25  26
ENDBRANCH   1  25
TORSDOF 17
ENDMDL
