MODEL 1
REMARK VINA RESULT:     -11.1      0.000      0.000
REMARK SMILES CC(C)c1nc(C(=O)OCCOC(=O)c2ccc(-c3c4nc(c(-c5cc(S(=O)(=O)[O-])ccc5F)c5ccc([nH]5)c(-c5cc(S(=O)(=O)[O-])ccc5F)c5nc(c(-c6cc(S(=O)(=O)[O-])ccc6F)c6ccc3[nH]6)C=C5)C=C4)cc2)nn1-c1ccccc1F
REMARK SMILES IDX 11 1 10 2 9 3 7 4 8 5 6 6 4 7 5 8 79 9 78 10 2 11 1 12 3 13
REMARK SMILES IDX 80 14 81 15 85 16 82 17 84 18 86 19 83 20 12 21 13 22 14 23
REMARK SMILES IDX 15 24 16 25 77 26 17 27 76 28 18 29 19 30 20 31 70 32 21 33
REMARK SMILES IDX 75 34 69 35 71 36 22 37 74 38 68 39 67 40 23 42 55 43 35 44
REMARK SMILES IDX 54 45 36 46 39 47 53 48 72 49 37 50 38 51 52 53 73 54 40 55
REMARK SMILES IDX 24 56 25 57 33 58 26 59 32 60 34 61 31 62 27 63 28 64 29 65
REMARK SMILES IDX 30 66 56 67 57 68 65 69 58 70 64 71 66 72 63 73 59 74 60 75
REMARK SMILES IDX 61 76 62 77 41 78 42 79 50 80 43 81 49 82 51 83 48 84 44 85
REMARK SMILES IDX 45 86 46 87 47 88
REMARK H PARENT 71 41 39 52
REMARK Flexibility Score: inf
ROOT
ATOM      1  C   UNL A   1      35.118  34.178  28.512  1.00  0.00     0.275 C 
ENDROOT
BRANCH   1   2
ATOM      2  C   UNL A   1      34.087  34.081  29.627  1.00  0.00     0.275 C 
BRANCH   2   3
ATOM      3  O   UNL A   1      34.411  34.960  30.712  1.00  0.00    -0.456 OA
BRANCH   3   4
ATOM      4  C   UNL A   1      34.073  34.549  31.978  1.00  0.00     0.378 C 
ATOM      5  O   UNL A   1      32.947  34.673  32.461  1.00  0.00    -0.242 OA
BRANCH   4   6
ATOM      6  C   UNL A   1      35.215  33.933  32.676  1.00  0.00     0.260 A 
ATOM      7  C   UNL A   1      36.813  32.593  33.172  1.00  0.00     0.136 A 
ATOM      8  N   UNL A   1      35.831  32.758  32.297  1.00  0.00    -0.205 NA
ATOM      9  N   UNL A   1      36.805  33.680  34.038  1.00  0.00    -0.214 N 
ATOM     10  N   UNL A   1      35.714  34.443  33.811  1.00  0.00    -0.138 NA
BRANCH   7  11
ATOM     11  C   UNL A   1      37.566  31.293  33.313  1.00  0.00     0.051 C 
ATOM     12  C   UNL A   1      36.976  30.118  32.546  1.00  0.00     0.016 C 
ATOM     13  C   UNL A   1      39.066  31.439  33.059  1.00  0.00     0.016 C 
ENDBRANCH   7  11
BRANCH   9  14
ATOM     14  C   UNL A   1      37.555  33.946  35.194  1.00  0.00     0.102 A 
ATOM     15  C   UNL A   1      37.050  33.513  36.430  1.00  0.00     0.031 A 
ATOM     16  C   UNL A   1      38.734  34.674  35.142  1.00  0.00     0.148 A 
ATOM     17  C   UNL A   1      37.779  33.739  37.594  1.00  0.00     0.002 A 
ATOM     18  C   UNL A   1      39.458  34.912  36.308  1.00  0.00     0.041 A 
ATOM     19  F   UNL A   1      39.147  35.245  34.005  1.00  0.00    -0.205 F 
ATOM     20  C   UNL A   1      38.990  34.430  37.532  1.00  0.00     0.003 A 
ENDBRANCH   9  14
ENDBRANCH   4   6
ENDBRANCH   3   4
ENDBRANCH   2   3
ENDBRANCH   1   2
BRANCH   1  21
ATOM     21  O   UNL A   1      36.204  33.283  28.743  1.00  0.00    -0.458 OA
BRANCH  21  22
ATOM     22  C   UNL A   1      36.040  32.034  28.247  1.00  0.00     0.338 C 
ATOM     23  O   UNL A   1      35.139  31.649  27.524  1.00  0.00    -0.246 OA
BRANCH  22  24
ATOM     24  C   UNL A   1      37.009  31.143  28.899  1.00  0.00     0.060 A 
ATOM     25  C   UNL A   1      38.201  31.705  29.361  1.00  0.00     0.016 A 
ATOM     26  C   UNL A   1      36.836  29.752  28.817  1.00  0.00     0.016 A 
ATOM     27  C   UNL A   1      39.276  30.870  29.592  1.00  0.00     0.010 A 
ATOM     28  C   UNL A   1      37.911  28.923  29.034  1.00  0.00     0.010 A 
ATOM     29  C   UNL A   1      39.138  29.495  29.353  1.00  0.00    -0.014 A 
BRANCH  29  30
ATOM     30  C   UNL A   1      40.279  28.634  29.587  1.00  0.00     0.031 A 
ATOM     31  C   UNL A   1      40.592  28.487  31.027  1.00  0.00     0.074 A 
ATOM     32  C   UNL A   1      40.910  27.948  28.615  1.00  0.00     0.049 A 
ATOM     33  N   UNL A   1      41.607  28.970  31.658  1.00  0.00    -0.248 NA
ATOM     34  C   UNL A   1      39.560  27.912  31.904  1.00  0.00     0.031 C 
ATOM     35  C   UNL A   1      40.538  27.799  27.207  1.00  0.00     0.029 A 
ATOM     36  N   UNL A   1      42.005  27.149  28.721  1.00  0.00    -0.354 N 
ATOM     37  C   UNL A   1      41.464  28.557  32.977  1.00  0.00     0.074 A 
ATOM     38  C   UNL A   1      40.106  28.101  33.105  1.00  0.00     0.031 C 
ATOM     39  C   UNL A   1      41.258  26.791  26.656  1.00  0.00     0.029 A 
ATOM     40  C   UNL A   1      42.234  26.321  27.627  1.00  0.00     0.049 A 
ATOM     41  H   UNL A   1      42.591  27.155  29.512  1.00  0.00     0.167 HD
ATOM     42  C   UNL A   1      42.551  28.402  33.779  1.00  0.00     0.034 A 
ATOM     43  C   UNL A   1      43.127  25.294  27.555  1.00  0.00     0.034 A 
ATOM     44  C   UNL A   1      43.695  29.103  33.237  1.00  0.00     0.049 A 
ATOM     45  C   UNL A   1      44.157  25.563  28.595  1.00  0.00     0.074 A 
ATOM     46  C   UNL A   1      43.951  30.425  32.924  1.00  0.00     0.029 A 
ATOM     47  N   UNL A   1      44.637  28.372  32.548  1.00  0.00    -0.354 N 
ATOM     48  N   UNL A   1      44.963  26.590  28.551  1.00  0.00    -0.248 NA
ATOM     49  C   UNL A   1      43.945  25.000  29.922  1.00  0.00     0.031 C 
ATOM     50  C   UNL A   1      44.669  30.377  31.693  1.00  0.00     0.029 A 
ATOM     51  C   UNL A   1      44.893  29.036  31.373  1.00  0.00     0.049 A 
ATOM     52  H   UNL A   1      45.052  27.529  32.844  1.00  0.00     0.167 HD
ATOM     53  C   UNL A   1      45.011  27.066  29.853  1.00  0.00     0.074 A 
ATOM     54  C   UNL A   1      44.429  25.999  30.667  1.00  0.00     0.031 C 
ATOM     55  C   UNL A   1      45.251  28.384  30.125  1.00  0.00     0.034 A 
BRANCH  42  56
ATOM     56  C   UNL A   1      42.689  27.321  34.825  1.00  0.00     0.023 A 
ATOM     57  C   UNL A   1      43.453  26.190  34.477  1.00  0.00     0.031 A 
ATOM     58  C   UNL A   1      41.896  27.192  35.989  1.00  0.00     0.131 A 
ATOM     59  C   UNL A   1      43.322  24.985  35.188  1.00  0.00     0.055 A 
ATOM     60  C   UNL A   1      41.823  26.011  36.731  1.00  0.00     0.041 A 
ATOM     61  F   UNL A   1      41.076  28.155  36.422  1.00  0.00    -0.206 F 
ATOM     62  C   UNL A   1      42.510  24.888  36.313  1.00  0.00     0.022 A 
BRANCH  59  63
ATOM     63  S   UNL A   1      44.089  23.498  34.498  1.00  0.00     0.124 S 
ATOM     64  O   UNL A   1      42.959  22.874  33.818  1.00  0.00    -0.237 OA
ATOM     65  O   UNL A   1      45.124  24.065  33.640  1.00  0.00    -0.237 OA
ATOM     66  O   UNL A   1      44.576  22.790  35.680  1.00  0.00    -0.744 OA
ENDBRANCH  59  63
ENDBRANCH  42  56
BRANCH  43  67
ATOM     67  C   UNL A   1      42.903  23.948  26.942  1.00  0.00     0.023 A 
ATOM     68  C   UNL A   1      43.889  23.252  26.203  1.00  0.00     0.031 A 
ATOM     69  C   UNL A   1      41.751  23.210  27.301  1.00  0.00     0.131 A 
ATOM     70  C   UNL A   1      43.695  21.890  25.855  1.00  0.00     0.055 A 
ATOM     71  C   UNL A   1      41.568  21.868  26.959  1.00  0.00     0.041 A 
ATOM     72  F   UNL A   1      40.794  23.747  28.072  1.00  0.00    -0.206 F 
ATOM     73  C   UNL A   1      42.544  21.199  26.241  1.00  0.00     0.022 A 
BRANCH  70  74
ATOM     74  S   UNL A   1      44.979  20.959  24.949  1.00  0.00     0.124 S 
ATOM     75  O   UNL A   1      44.689  21.302  23.561  1.00  0.00    -0.237 OA
ATOM     76  O   UNL A   1      46.213  21.499  25.508  1.00  0.00    -0.237 OA
ATOM     77  O   UNL A   1      44.707  19.565  25.304  1.00  0.00    -0.744 OA
ENDBRANCH  70  74
ENDBRANCH  43  67
BRANCH  55  78
ATOM     78  C   UNL A   1      45.751  29.286  29.014  1.00  0.00     0.023 A 
ATOM     79  C   UNL A   1      44.973  30.241  28.318  1.00  0.00     0.031 A 
ATOM     80  C   UNL A   1      47.137  29.269  28.771  1.00  0.00     0.131 A 
ATOM     81  C   UNL A   1      45.599  31.136  27.422  1.00  0.00     0.055 A 
ATOM     82  C   UNL A   1      47.753  30.170  27.906  1.00  0.00     0.041 A 
ATOM     83  F   UNL A   1      47.930  28.399  29.418  1.00  0.00    -0.206 F 
ATOM     84  C   UNL A   1      46.984  31.108  27.227  1.00  0.00     0.022 A 
BRANCH  81  85
ATOM     85  S   UNL A   1      44.626  32.363  26.486  1.00  0.00     0.124 S 
ATOM     86  O   UNL A   1      44.112  33.250  27.523  1.00  0.00    -0.237 OA
ATOM     87  O   UNL A   1      45.619  32.938  25.583  1.00  0.00    -0.237 OA
ATOM     88  O   UNL A   1      43.603  31.552  25.821  1.00  0.00    -0.744 OA
ENDBRANCH  81  85
ENDBRANCH  55  78
ENDBRANCH  29  30
ENDBRANCH  22  24
ENDBRANCH  21  22
ENDBRANCH   1  21
TORSDOF 16
ENDMDL
MODEL 2
REMARK VINA RESULT:     -10.9      3.153     11.451
REMARK SMILES CC(C)c1nc(C(=O)OCCOC(=O)c2ccc(-c3c4nc(c(-c5cc(S(=O)(=O)[O-])ccc5F)c5ccc([nH]5)c(-c5cc(S(=O)(=O)[O-])ccc5F)c5nc(c(-c6cc(S(=O)(=O)[O-])ccc6F)c6ccc3[nH]6)C=C5)C=C4)cc2)nn1-c1ccccc1F
REMARK SMILES IDX 11 1 10 2 9 3 7 4 8 5 6 6 4 7 5 8 79 9 78 10 2 11 1 12 3 13
REMARK SMILES IDX 80 14 81 15 85 16 82 17 84 18 86 19 83 20 12 21 13 22 14 23
REMARK SMILES IDX 15 24 16 25 77 26 17 27 76 28 18 29 19 30 20 31 70 32 21 33
REMARK SMILES IDX 75 34 69 35 71 36 22 37 74 38 68 39 67 40 23 42 55 43 35 44
REMARK SMILES IDX 54 45 36 46 39 47 53 48 72 49 37 50 38 51 52 53 73 54 40 55
REMARK SMILES IDX 24 56 25 57 33 58 26 59 32 60 34 61 31 62 27 63 28 64 29 65
REMARK SMILES IDX 30 66 56 67 57 68 65 69 58 70 64 71 66 72 63 73 59 74 60 75
REMARK SMILES IDX 61 76 62 77 41 78 42 79 50 80 43 81 49 82 51 83 48 84 44 85
REMARK SMILES IDX 45 86 46 87 47 88
REMARK H PARENT 71 41 39 52
REMARK Flexibility Score: inf
ROOT
ATOM      1  C   UNL A   1      41.885  20.724  26.324  1.00  0.00     0.275 C 
ENDROOT
BRANCH   1   2
ATOM      2  C   UNL A   1      43.255  20.160  25.975  1.00  0.00     0.275 C 
BRANCH   2   3
ATOM      3  O   UNL A   1      43.946  21.009  25.051  1.00  0.00    -0.456 OA
BRANCH   3   4
ATOM      4  C   UNL A   1      45.213  21.413  25.394  1.00  0.00     0.378 C 
ATOM      5  O   UNL A   1      46.215  20.709  25.266  1.00  0.00    -0.242 OA
BRANCH   4   6
ATOM      6  C   UNL A   1      45.224  22.791  25.918  1.00  0.00     0.260 A 
ATOM      7  C   UNL A   1      44.784  24.872  26.174  1.00  0.00     0.136 A 
ATOM      8  N   UNL A   1      44.505  23.842  25.387  1.00  0.00    -0.205 NA
ATOM      9  N   UNL A   1      45.627  24.427  27.185  1.00  0.00    -0.214 N 
ATOM     10  N   UNL A   1      46.014  23.157  26.938  1.00  0.00    -0.138 NA
BRANCH   7  11
ATOM     11  C   UNL A   1      44.443  26.294  25.802  1.00  0.00     0.051 C 
ATOM     12  C   UNL A   1      45.548  27.056  25.082  1.00  0.00     0.016 C 
ATOM     13  C   UNL A   1      43.104  26.420  25.077  1.00  0.00     0.016 C 
ENDBRANCH   7  11
BRANCH   9  14
ATOM     14  C   UNL A   1      46.296  25.123  28.204  1.00  0.00     0.102 A 
ATOM     15  C   UNL A   1      45.647  25.283  29.438  1.00  0.00     0.031 A 
ATOM     16  C   UNL A   1      47.538  25.703  27.993  1.00  0.00     0.148 A 
ATOM     17  C   UNL A   1      46.289  25.948  30.478  1.00  0.00     0.002 A 
ATOM     18  C   UNL A   1      48.177  26.379  29.028  1.00  0.00     0.041 A 
ATOM     19  F   UNL A   1      48.100  25.714  26.778  1.00  0.00    -0.205 F 
ATOM     20  C   UNL A   1      47.560  26.488  30.277  1.00  0.00     0.003 A 
ENDBRANCH   9  14
ENDBRANCH   4   6
ENDBRANCH   3   4
ENDBRANCH   2   3
ENDBRANCH   1   2
BRANCH   1  21
ATOM     21  O   UNL A   1      41.992  22.061  26.805  1.00  0.00    -0.458 OA
BRANCH  21  22
ATOM     22  C   UNL A   1      40.820  22.652  27.139  1.00  0.00     0.338 C 
ATOM     23  O   UNL A   1      39.713  22.145  27.105  1.00  0.00    -0.246 OA
BRANCH  22  24
ATOM     24  C   UNL A   1      41.062  24.085  27.345  1.00  0.00     0.060 A 
ATOM     25  C   UNL A   1      42.038  24.453  28.274  1.00  0.00     0.016 A 
ATOM     26  C   UNL A   1      40.162  25.023  26.813  1.00  0.00     0.016 A 
ATOM     27  C   UNL A   1      42.007  25.735  28.787  1.00  0.00     0.010 A 
ATOM     28  C   UNL A   1      40.125  26.295  27.335  1.00  0.00     0.010 A 
ATOM     29  C   UNL A   1      41.003  26.617  28.365  1.00  0.00    -0.014 A 
BRANCH  29  30
ATOM     30  C   UNL A   1      40.977  27.954  28.922  1.00  0.00     0.031 A 
ATOM     31  C   UNL A   1      42.056  28.813  28.384  1.00  0.00     0.074 A 
ATOM     32  C   UNL A   1      40.009  28.402  29.745  1.00  0.00     0.049 A 
ATOM     33  N   UNL A   1      43.099  29.239  29.010  1.00  0.00    -0.248 NA
ATOM     34  C   UNL A   1      42.083  29.062  26.934  1.00  0.00     0.031 C 
ATOM     35  C   UNL A   1      38.760  27.746  30.136  1.00  0.00     0.029 A 
ATOM     36  N   UNL A   1      39.912  29.616  30.349  1.00  0.00    -0.354 N 
ATOM     37  C   UNL A   1      43.802  30.010  28.092  1.00  0.00     0.074 A 
ATOM     38  C   UNL A   1      43.250  29.695  26.802  1.00  0.00     0.031 C 
ATOM     39  C   UNL A   1      37.941  28.654  30.721  1.00  0.00     0.029 A 
ATOM     40  C   UNL A   1      38.657  29.911  30.872  1.00  0.00     0.049 A 
ATOM     41  H   UNL A   1      40.671  30.239  30.412  1.00  0.00     0.167 HD
ATOM     42  C   UNL A   1      44.611  31.021  28.508  1.00  0.00     0.034 A 
ATOM     43  C   UNL A   1      38.233  31.118  31.343  1.00  0.00     0.034 A 
ATOM     44  C   UNL A   1      44.941  30.873  29.909  1.00  0.00     0.049 A 
ATOM     45  C   UNL A   1      39.459  31.877  31.707  1.00  0.00     0.074 A 
ATOM     46  C   UNL A   1      45.571  29.889  30.648  1.00  0.00     0.029 A 
ATOM     47  N   UNL A   1      44.246  31.633  30.823  1.00  0.00    -0.354 N 
ATOM     48  N   UNL A   1      40.265  31.512  32.668  1.00  0.00    -0.248 NA
ATOM     49  C   UNL A   1      40.059  32.729  30.689  1.00  0.00     0.031 C 
ATOM     50  C   UNL A   1      44.816  29.799  31.855  1.00  0.00     0.029 A 
ATOM     51  C   UNL A   1      43.832  30.791  31.827  1.00  0.00     0.049 A 
ATOM     52  H   UNL A   1      44.076  32.601  30.768  1.00  0.00     0.167 HD
ATOM     53  C   UNL A   1      41.542  31.710  32.162  1.00  0.00     0.074 A 
ATOM     54  C   UNL A   1      41.352  32.536  30.970  1.00  0.00     0.031 C 
ATOM     55  C   UNL A   1      42.604  30.959  32.583  1.00  0.00     0.034 A 
BRANCH  42  56
ATOM     56  C   UNL A   1      44.785  32.329  27.772  1.00  0.00     0.023 A 
ATOM     57  C   UNL A   1      44.121  33.452  28.301  1.00  0.00     0.031 A 
ATOM     58  C   UNL A   1      45.294  32.477  26.461  1.00  0.00     0.131 A 
ATOM     59  C   UNL A   1      43.886  34.589  27.510  1.00  0.00     0.055 A 
ATOM     60  C   UNL A   1      45.116  33.637  25.703  1.00  0.00     0.041 A 
ATOM     61  F   UNL A   1      45.903  31.488  25.799  1.00  0.00    -0.206 F 
ATOM     62  C   UNL A   1      44.378  34.689  26.213  1.00  0.00     0.022 A 
BRANCH  59  63
ATOM     63  S   UNL A   1      42.761  35.856  28.147  1.00  0.00     0.124 S 
ATOM     64  O   UNL A   1      42.601  35.435  29.535  1.00  0.00    -0.237 OA
ATOM     65  O   UNL A   1      43.528  37.077  27.928  1.00  0.00    -0.237 OA
ATOM     66  O   UNL A   1      41.574  35.705  27.308  1.00  0.00    -0.744 OA
ENDBRANCH  59  63
ENDBRANCH  42  56
BRANCH  43  67
ATOM     67  C   UNL A   1      36.903  31.760  31.105  1.00  0.00     0.023 A 
ATOM     68  C   UNL A   1      36.118  32.335  32.131  1.00  0.00     0.031 A 
ATOM     69  C   UNL A   1      36.497  32.033  29.777  1.00  0.00     0.131 A 
ATOM     70  C   UNL A   1      34.988  33.132  31.809  1.00  0.00     0.055 A 
ATOM     71  C   UNL A   1      35.387  32.821  29.467  1.00  0.00     0.041 A 
ATOM     72  F   UNL A   1      37.218  31.608  28.729  1.00  0.00    -0.206 F 
ATOM     73  C   UNL A   1      34.632  33.383  30.482  1.00  0.00     0.022 A 
BRANCH  70  74
ATOM     74  S   UNL A   1      33.994  33.926  33.119  1.00  0.00     0.124 S 
ATOM     75  O   UNL A   1      34.971  34.102  34.187  1.00  0.00    -0.237 OA
ATOM     76  O   UNL A   1      33.521  35.140  32.464  1.00  0.00    -0.237 OA
ATOM     77  O   UNL A   1      32.949  32.940  33.402  1.00  0.00    -0.744 OA
ENDBRANCH  70  74
ENDBRANCH  43  67
BRANCH  55  78
ATOM     78  C   UNL A   1      42.448  30.092  33.817  1.00  0.00     0.023 A 
ATOM     79  C   UNL A   1      42.441  28.677  33.832  1.00  0.00     0.031 A 
ATOM     80  C   UNL A   1      42.470  30.759  35.056  1.00  0.00     0.131 A 
ATOM     81  C   UNL A   1      42.460  27.990  35.066  1.00  0.00     0.055 A 
ATOM     82  C   UNL A   1      42.515  30.076  36.269  1.00  0.00     0.041 A 
ATOM     83  F   UNL A   1      42.500  32.101  35.104  1.00  0.00    -0.206 F 
ATOM     84  C   UNL A   1      42.510  28.687  36.278  1.00  0.00     0.022 A 
BRANCH  81  85
ATOM     85  S   UNL A   1      42.423  26.166  35.126  1.00  0.00     0.124 S 
ATOM     86  O   UNL A   1      43.136  25.853  36.358  1.00  0.00    -0.237 OA
ATOM     87  O   UNL A   1      40.992  25.875  35.120  1.00  0.00    -0.237 OA
ATOM     88  O   UNL A   1      43.124  25.770  33.902  1.00  0.00    -0.744 OA
ENDBRANCH  81  85
ENDBRANCH  55  78
ENDBRANCH  29  30
ENDBRANCH  22  24
ENDBRANCH  21  22
ENDBRANCH   1  21
TORSDOF 16
ENDMDL
MODEL 3
REMARK VINA RESULT:     -10.9      4.027      9.289
REMARK SMILES CC(C)c1nc(C(=O)OCCOC(=O)c2ccc(-c3c4nc(c(-c5cc(S(=O)(=O)[O-])ccc5F)c5ccc([nH]5)c(-c5cc(S(=O)(=O)[O-])ccc5F)c5nc(c(-c6cc(S(=O)(=O)[O-])ccc6F)c6ccc3[nH]6)C=C5)C=C4)cc2)nn1-c1ccccc1F
REMARK SMILES IDX 11 1 10 2 9 3 7 4 8 5 6 6 4 7 5 8 79 9 78 10 2 11 1 12 3 13
REMARK SMILES IDX 80 14 81 15 85 16 82 17 84 18 86 19 83 20 12 21 13 22 14 23
REMARK SMILES IDX 15 24 16 25 77 26 17 27 76 28 18 29 19 30 20 31 70 32 21 33
REMARK SMILES IDX 75 34 69 35 71 36 22 37 74 38 68 39 67 40 23 42 55 43 35 44
REMARK SMILES IDX 54 45 36 46 39 47 53 48 72 49 37 50 38 51 52 53 73 54 40 55
REMARK SMILES IDX 24 56 25 57 33 58 26 59 32 60 34 61 31 62 27 63 28 64 29 65
REMARK SMILES IDX 30 66 56 67 57 68 65 69 58 70 64 71 66 72 63 73 59 74 60 75
REMARK SMILES IDX 61 76 62 77 41 78 42 79 50 80 43 81 49 82 51 83 48 84 44 85
REMARK SMILES IDX 45 86 46 87 47 88
REMARK H PARENT 71 41 39 52
REMARK Flexibility Score: inf
ROOT
ATOM      1  C   UNL A   1      35.352  31.530  29.001  1.00  0.00     0.275 C 
ENDROOT
BRANCH   1   2
ATOM      2  C   UNL A   1      34.227  31.842  28.025  1.00  0.00     0.275 C 
BRANCH   2   3
ATOM      3  O   UNL A   1      33.643  30.643  27.504  1.00  0.00    -0.456 OA
BRANCH   3   4
ATOM      4  C   UNL A   1      32.445  30.762  26.843  1.00  0.00     0.378 C 
ATOM      5  O   UNL A   1      31.765  31.788  26.836  1.00  0.00    -0.242 OA
BRANCH   4   6
ATOM      6  C   UNL A   1      32.084  29.519  26.137  1.00  0.00     0.260 A 
ATOM      7  C   UNL A   1      31.334  28.168  24.653  1.00  0.00     0.136 A 
ATOM      8  N   UNL A   1      31.424  29.462  24.927  1.00  0.00    -0.205 NA
ATOM      9  N   UNL A   1      31.969  27.466  25.670  1.00  0.00    -0.214 N 
ATOM     10  N   UNL A   1      32.312  28.308  26.668  1.00  0.00    -0.138 NA
BRANCH   7  11
ATOM     11  C   UNL A   1      30.434  27.629  23.567  1.00  0.00     0.051 C 
ATOM     12  C   UNL A   1      29.369  28.597  23.072  1.00  0.00     0.016 C 
ATOM     13  C   UNL A   1      31.205  26.994  22.411  1.00  0.00     0.016 C 
ENDBRANCH   7  11
BRANCH   9  14
ATOM     14  C   UNL A   1      32.069  26.088  25.919  1.00  0.00     0.102 A 
ATOM     15  C   UNL A   1      33.325  25.478  25.794  1.00  0.00     0.031 A 
ATOM     16  C   UNL A   1      30.951  25.323  26.217  1.00  0.00     0.148 A 
ATOM     17  C   UNL A   1      33.465  24.118  26.056  1.00  0.00     0.002 A 
ATOM     18  C   UNL A   1      31.087  23.960  26.468  1.00  0.00     0.041 A 
ATOM     19  F   UNL A   1      29.721  25.846  26.174  1.00  0.00    -0.205 F 
ATOM     20  C   UNL A   1      32.347  23.359  26.404  1.00  0.00     0.003 A 
ENDBRANCH   9  14
ENDBRANCH   4   6
ENDBRANCH   3   4
ENDBRANCH   2   3
ENDBRANCH   1   2
BRANCH   1  21
ATOM     21  O   UNL A   1      36.033  30.334  28.628  1.00  0.00    -0.458 OA
BRANCH  21  22
ATOM     22  C   UNL A   1      36.554  29.621  29.655  1.00  0.00     0.338 C 
ATOM     23  O   UNL A   1      36.226  29.683  30.826  1.00  0.00    -0.246 OA
BRANCH  22  24
ATOM     24  C   UNL A   1      37.741  28.905  29.170  1.00  0.00     0.060 A 
ATOM     25  C   UNL A   1      38.327  27.965  30.020  1.00  0.00     0.016 A 
ATOM     26  C   UNL A   1      38.389  29.348  28.005  1.00  0.00     0.016 A 
ATOM     27  C   UNL A   1      39.634  27.589  29.783  1.00  0.00     0.010 A 
ATOM     28  C   UNL A   1      39.695  28.983  27.779  1.00  0.00     0.010 A 
ATOM     29  C   UNL A   1      40.326  28.162  28.707  1.00  0.00    -0.014 A 
BRANCH  29  30
ATOM     30  C   UNL A   1      41.701  27.767  28.479  1.00  0.00     0.031 A 
ATOM     31  C   UNL A   1      41.809  26.492  27.734  1.00  0.00     0.074 A 
ATOM     32  C   UNL A   1      42.762  28.531  28.802  1.00  0.00     0.049 A 
ATOM     33  N   UNL A   1      42.205  25.352  28.190  1.00  0.00    -0.248 NA
ATOM     34  C   UNL A   1      41.221  26.426  26.387  1.00  0.00     0.031 C 
ATOM     35  C   UNL A   1      42.784  29.910  29.294  1.00  0.00     0.029 A 
ATOM     36  N   UNL A   1      44.084  28.240  28.668  1.00  0.00    -0.354 N 
ATOM     37  C   UNL A   1      42.139  24.473  27.117  1.00  0.00     0.074 A 
ATOM     38  C   UNL A   1      41.342  25.126  26.114  1.00  0.00     0.031 C 
ATOM     39  C   UNL A   1      44.044  30.401  29.198  1.00  0.00     0.029 A 
ATOM     40  C   UNL A   1      44.938  29.333  28.776  1.00  0.00     0.049 A 
ATOM     41  H   UNL A   1      44.411  27.326  28.506  1.00  0.00     0.167 HD
ATOM     42  C   UNL A   1      42.953  23.384  27.059  1.00  0.00     0.034 A 
ATOM     43  C   UNL A   1      46.269  29.359  28.486  1.00  0.00     0.034 A 
ATOM     44  C   UNL A   1      43.498  23.079  28.364  1.00  0.00     0.049 A 
ATOM     45  C   UNL A   1      46.742  27.951  28.574  1.00  0.00     0.074 A 
ATOM     46  C   UNL A   1      42.940  22.760  29.588  1.00  0.00     0.029 A 
ATOM     47  N   UNL A   1      44.784  23.488  28.641  1.00  0.00    -0.354 N 
ATOM     48  N   UNL A   1      46.749  27.270  29.689  1.00  0.00    -0.248 NA
ATOM     49  C   UNL A   1      46.714  27.146  27.360  1.00  0.00     0.031 C 
ATOM     50  C   UNL A   1      43.720  23.476  30.543  1.00  0.00     0.029 A 
ATOM     51  C   UNL A   1      44.762  24.112  29.865  1.00  0.00     0.049 A 
ATOM     52  H   UNL A   1      45.574  23.357  28.068  1.00  0.00     0.167 HD
ATOM     53  C   UNL A   1      46.292  26.006  29.343  1.00  0.00     0.074 A 
ATOM     54  C   UNL A   1      46.364  25.967  27.882  1.00  0.00     0.031 C 
ATOM     55  C   UNL A   1      45.633  25.213  30.239  1.00  0.00     0.034 A 
BRANCH  42  56
ATOM     56  C   UNL A   1      43.555  22.840  25.786  1.00  0.00     0.023 A 
ATOM     57  C   UNL A   1      43.637  21.439  25.666  1.00  0.00     0.031 A 
ATOM     58  C   UNL A   1      44.307  23.581  24.844  1.00  0.00     0.131 A 
ATOM     59  C   UNL A   1      44.512  20.844  24.742  1.00  0.00     0.055 A 
ATOM     60  C   UNL A   1      45.124  22.982  23.883  1.00  0.00     0.041 A 
ATOM     61  F   UNL A   1      44.376  24.916  24.856  1.00  0.00    -0.206 F 
ATOM     62  C   UNL A   1      45.258  21.607  23.850  1.00  0.00     0.022 A 
BRANCH  59  63
ATOM     63  S   UNL A   1      44.797  19.061  24.862  1.00  0.00     0.124 S 
ATOM     64  O   UNL A   1      46.001  19.010  25.685  1.00  0.00    -0.237 OA
ATOM     65  O   UNL A   1      43.564  18.601  25.492  1.00  0.00    -0.237 OA
ATOM     66  O   UNL A   1      44.976  18.654  23.469  1.00  0.00    -0.744 OA
ENDBRANCH  59  63
ENDBRANCH  42  56
BRANCH  43  67
ATOM     67  C   UNL A   1      47.012  30.436  27.762  1.00  0.00     0.023 A 
ATOM     68  C   UNL A   1      46.380  31.534  27.132  1.00  0.00     0.031 A 
ATOM     69  C   UNL A   1      48.418  30.517  27.900  1.00  0.00     0.131 A 
ATOM     70  C   UNL A   1      47.147  32.636  26.673  1.00  0.00     0.055 A 
ATOM     71  C   UNL A   1      49.166  31.607  27.450  1.00  0.00     0.041 A 
ATOM     72  F   UNL A   1      49.107  29.572  28.557  1.00  0.00    -0.206 F 
ATOM     73  C   UNL A   1      48.533  32.676  26.841  1.00  0.00     0.022 A 
BRANCH  70  74
ATOM     74  S   UNL A   1      46.343  34.085  25.906  1.00  0.00     0.124 S 
ATOM     75  O   UNL A   1      45.871  34.830  27.067  1.00  0.00    -0.237 OA
ATOM     76  O   UNL A   1      47.434  34.687  25.147  1.00  0.00    -0.237 OA
ATOM     77  O   UNL A   1      45.283  33.496  25.086  1.00  0.00    -0.744 OA
ENDBRANCH  70  74
ENDBRANCH  43  67
BRANCH  55  78
ATOM     78  C   UNL A   1      45.645  25.593  31.707  1.00  0.00     0.023 A 
ATOM     79  C   UNL A   1      46.694  25.322  32.617  1.00  0.00     0.031 A 
ATOM     80  C   UNL A   1      44.592  26.415  32.148  1.00  0.00     0.131 A 
ATOM     81  C   UNL A   1      46.656  25.878  33.915  1.00  0.00     0.055 A 
ATOM     82  C   UNL A   1      44.573  26.982  33.420  1.00  0.00     0.041 A 
ATOM     83  F   UNL A   1      43.579  26.724  31.321  1.00  0.00    -0.206 F 
ATOM     84  C   UNL A   1      45.606  26.715  34.309  1.00  0.00     0.022 A 
BRANCH  81  85
ATOM     85  S   UNL A   1      47.977  25.529  35.126  1.00  0.00     0.124 S 
ATOM     86  O   UNL A   1      48.581  24.302  34.623  1.00  0.00    -0.237 OA
ATOM     87  O   UNL A   1      48.804  26.730  35.051  1.00  0.00    -0.237 OA
ATOM     88  O   UNL A   1      47.249  25.375  36.388  1.00  0.00    -0.744 OA
ENDBRANCH  81  85
ENDBRANCH  55  78
ENDBRANCH  29  30
ENDBRANCH  22  24
ENDBRANCH  21  22
ENDBRANCH   1  21
TORSDOF 16
ENDMDL
