MODEL 1
REMARK VINA RESULT:     -11.4      0.000      0.000
REMARK SMILES Cc1ccccc1N[C@H](C(=O)OCCOC(=O)c1ccc(-c2c3nc(c(-c4cc(S(=O)(=O)[O-])ccc4F)c4ccc([nH]4)c(-c4cc(S(=O)(=O)[O-])ccc4F)c4nc(c(-c5cc(S(=O)(=O)[O-])ccc5F)c5ccc2[nH]5)C=C4)C=C3)cc1)c1ccccc1
REMARK SMILES IDX 14 1 13 2 12 3 10 4 11 5 9 6 8 7 7 9 1 10 2 11 3 12 4 13
REMARK SMILES IDX 6 14 5 15 81 16 82 17 86 18 83 19 85 20 84 21 15 22 16 23
REMARK SMILES IDX 17 24 18 25 19 26 80 27 20 28 79 29 21 30 22 31 23 32 73 33
REMARK SMILES IDX 24 34 78 35 72 36 74 37 25 38 77 39 71 40 70 41 26 43 58 44
REMARK SMILES IDX 38 45 57 46 39 47 42 48 56 49 75 50 40 51 41 52 55 54 76 55
REMARK SMILES IDX 43 56 27 57 28 58 36 59 29 60 35 61 37 62 34 63 30 64 31 65
REMARK SMILES IDX 32 66 33 67 59 68 60 69 68 70 61 71 67 72 69 73 66 74 62 75
REMARK SMILES IDX 63 76 64 77 65 78 44 79 45 80 53 81 46 82 52 83 54 84 51 85
REMARK SMILES IDX 47 86 48 87 49 88 50 89
REMARK H PARENT 8 8 74 42 42 53
REMARK Flexibility Score: inf
ROOT
ATOM      1  C   UNL A   1      44.666  19.445  24.605  1.00  0.00     0.275 C 
ENDROOT
BRANCH   1   2
ATOM      2  C   UNL A   1      43.506  19.068  25.560  1.00  0.00     0.274 C 
BRANCH   2   3
ATOM      3  O   UNL A   1      42.731  20.129  26.163  1.00  0.00    -0.460 OA
BRANCH   3   4
ATOM      4  C   UNL A   1      41.379  20.169  26.167  1.00  0.00     0.333 C 
ATOM      5  O   UNL A   1      40.679  19.196  25.902  1.00  0.00    -0.249 OA
BRANCH   4   6
ATOM      6  C   UNL A   1      40.818  21.638  26.411  1.00  0.00     0.221 C 
BRANCH   6   7
ATOM      7  N   UNL A   1      39.332  21.479  26.456  1.00  0.00    -0.368 N 
ATOM      8  H   UNL A   1      39.055  20.774  27.085  1.00  0.00     0.161 HD
BRANCH   7   9
ATOM      9  C   UNL A   1      38.261  22.069  25.844  1.00  0.00     0.038 A 
ATOM     10  C   UNL A   1      37.555  19.873  24.723  1.00  0.00     0.046 C 
ATOM     11  C   UNL A   1      37.282  21.269  25.220  1.00  0.00    -0.028 A 
ATOM     12  C   UNL A   1      35.989  21.783  25.021  1.00  0.00     0.005 A 
ATOM     13  C   UNL A   1      35.708  23.117  25.297  1.00  0.00     0.000 A 
ATOM     14  C   UNL A   1      38.024  23.442  25.898  1.00  0.00     0.026 A 
ATOM     15  C   UNL A   1      36.748  23.965  25.658  1.00  0.00     0.002 A 
ENDBRANCH   7   9
ENDBRANCH   6   7
BRANCH   6  16
ATOM     16  C   UNL A   1      41.639  22.461  27.431  1.00  0.00    -0.015 A 
ATOM     17  C   UNL A   1      42.515  21.940  28.387  1.00  0.00     0.006 A 
ATOM     18  C   UNL A   1      41.383  23.847  27.579  1.00  0.00     0.006 A 
ATOM     19  C   UNL A   1      43.108  22.717  29.394  1.00  0.00     0.000 A 
ATOM     20  C   UNL A   1      42.018  24.651  28.535  1.00  0.00     0.000 A 
ATOM     21  C   UNL A   1      42.892  24.083  29.441  1.00  0.00     0.000 A 
ENDBRANCH   6  16
ENDBRANCH   4   6
ENDBRANCH   3   4
ENDBRANCH   2   3
ENDBRANCH   1   2
BRANCH   1  22
ATOM     22  O   UNL A   1      45.333  20.696  24.886  1.00  0.00    -0.458 OA
BRANCH  22  23
ATOM     23  C   UNL A   1      44.941  21.817  24.224  1.00  0.00     0.338 C 
ATOM     24  O   UNL A   1      44.446  21.852  23.096  1.00  0.00    -0.246 OA
BRANCH  23  25
ATOM     25  C   UNL A   1      44.904  22.947  25.182  1.00  0.00     0.060 A 
ATOM     26  C   UNL A   1      45.410  22.895  26.494  1.00  0.00     0.016 A 
ATOM     27  C   UNL A   1      44.614  24.177  24.614  1.00  0.00     0.016 A 
ATOM     28  C   UNL A   1      45.573  24.092  27.216  1.00  0.00     0.010 A 
ATOM     29  C   UNL A   1      45.159  25.298  25.152  1.00  0.00     0.010 A 
ATOM     30  C   UNL A   1      45.439  25.294  26.521  1.00  0.00    -0.014 A 
BRANCH  30  31
ATOM     31  C   UNL A   1      45.168  26.631  27.034  1.00  0.00     0.031 A 
ATOM     32  C   UNL A   1      43.828  27.227  27.005  1.00  0.00     0.074 A 
ATOM     33  C   UNL A   1      46.067  26.900  28.019  1.00  0.00     0.049 A 
ATOM     34  N   UNL A   1      43.445  28.060  27.899  1.00  0.00    -0.248 NA
ATOM     35  C   UNL A   1      42.795  26.942  26.018  1.00  0.00     0.031 C 
ATOM     36  C   UNL A   1      45.958  27.612  29.281  1.00  0.00     0.029 A 
ATOM     37  N   UNL A   1      47.393  26.458  28.032  1.00  0.00    -0.354 N 
ATOM     38  C   UNL A   1      42.115  28.337  27.721  1.00  0.00     0.074 A 
ATOM     39  C   UNL A   1      41.748  27.615  26.529  1.00  0.00     0.031 C 
ATOM     40  C   UNL A   1      47.206  27.863  29.735  1.00  0.00     0.029 A 
ATOM     41  C   UNL A   1      48.136  27.433  28.700  1.00  0.00     0.049 A 
ATOM     42  H   UNL A   1      47.737  25.620  27.645  1.00  0.00     0.167 HD
ATOM     43  C   UNL A   1      41.531  29.133  28.662  1.00  0.00     0.034 A 
ATOM     44  C   UNL A   1      48.866  28.228  27.856  1.00  0.00     0.034 A 
ATOM     45  C   UNL A   1      42.581  29.890  29.354  1.00  0.00     0.049 A 
ATOM     46  C   UNL A   1      48.180  29.583  27.670  1.00  0.00     0.074 A 
ATOM     47  C   UNL A   1      43.294  29.791  30.533  1.00  0.00     0.029 A 
ATOM     48  N   UNL A   1      43.296  30.763  28.558  1.00  0.00    -0.354 N 
ATOM     49  N   UNL A   1      47.034  29.920  28.207  1.00  0.00    -0.248 NA
ATOM     50  C   UNL A   1      48.724  30.656  26.849  1.00  0.00     0.031 C 
ATOM     51  C   UNL A   1      44.542  30.487  30.331  1.00  0.00     0.029 A 
ATOM     52  C   UNL A   1      44.549  31.039  29.057  1.00  0.00     0.049 A 
ATOM     53  H   UNL A   1      42.947  31.147  27.722  1.00  0.00     0.167 HD
ATOM     54  C   UNL A   1      46.654  31.165  27.805  1.00  0.00     0.074 A 
ATOM     55  C   UNL A   1      47.752  31.582  26.938  1.00  0.00     0.031 C 
ATOM     56  C   UNL A   1      45.479  31.763  28.189  1.00  0.00     0.034 A 
BRANCH  43  57
ATOM     57  C   UNL A   1      40.074  29.261  29.006  1.00  0.00     0.023 A 
ATOM     58  C   UNL A   1      39.707  29.157  30.365  1.00  0.00     0.031 A 
ATOM     59  C   UNL A   1      39.005  29.325  28.095  1.00  0.00     0.131 A 
ATOM     60  C   UNL A   1      38.362  29.056  30.761  1.00  0.00     0.055 A 
ATOM     61  C   UNL A   1      37.661  29.217  28.487  1.00  0.00     0.041 A 
ATOM     62  F   UNL A   1      39.202  29.486  26.784  1.00  0.00    -0.206 F 
ATOM     63  C   UNL A   1      37.333  29.064  29.825  1.00  0.00     0.022 A 
BRANCH  60  64
ATOM     64  S   UNL A   1      37.987  28.875  32.524  1.00  0.00     0.124 S 
ATOM     65  O   UNL A   1      39.032  29.681  33.147  1.00  0.00    -0.237 OA
ATOM     66  O   UNL A   1      36.630  29.403  32.602  1.00  0.00    -0.237 OA
ATOM     67  O   UNL A   1      38.103  27.435  32.749  1.00  0.00    -0.744 OA
ENDBRANCH  60  64
ENDBRANCH  43  57
BRANCH  44  68
ATOM     68  C   UNL A   1      49.521  27.355  26.785  1.00  0.00     0.023 A 
ATOM     69  C   UNL A   1      48.830  27.255  25.543  1.00  0.00     0.031 A 
ATOM     70  C   UNL A   1      50.902  27.095  26.757  1.00  0.00     0.131 A 
ATOM     71  C   UNL A   1      49.534  27.104  24.333  1.00  0.00     0.055 A 
ATOM     72  C   UNL A   1      51.582  26.838  25.550  1.00  0.00     0.041 A 
ATOM     73  F   UNL A   1      51.646  27.220  27.865  1.00  0.00    -0.206 F 
ATOM     74  C   UNL A   1      50.909  26.887  24.328  1.00  0.00     0.022 A 
BRANCH  71  75
ATOM     75  S   UNL A   1      48.680  27.524  22.776  1.00  0.00     0.124 S 
ATOM     76  O   UNL A   1      49.626  28.435  22.142  1.00  0.00    -0.237 OA
ATOM     77  O   UNL A   1      48.530  26.214  22.145  1.00  0.00    -0.237 OA
ATOM     78  O   UNL A   1      47.427  28.129  23.221  1.00  0.00    -0.744 OA
ENDBRANCH  71  75
ENDBRANCH  44  68
BRANCH  56  79
ATOM     79  C   UNL A   1      45.119  33.143  27.700  1.00  0.00     0.023 A 
ATOM     80  C   UNL A   1      45.440  34.258  28.479  1.00  0.00     0.031 A 
ATOM     81  C   UNL A   1      44.439  33.403  26.487  1.00  0.00     0.131 A 
ATOM     82  C   UNL A   1      45.237  35.550  27.984  1.00  0.00     0.055 A 
ATOM     83  C   UNL A   1      44.091  34.690  26.076  1.00  0.00     0.041 A 
ATOM     84  F   UNL A   1      44.143  32.436  25.609  1.00  0.00    -0.206 F 
ATOM     85  C   UNL A   1      44.522  35.781  26.811  1.00  0.00     0.022 A 
BRANCH  82  86
ATOM     86  S   UNL A   1      46.095  36.904  28.813  1.00  0.00     0.124 S 
ATOM     87  O   UNL A   1      45.046  37.907  28.964  1.00  0.00    -0.237 OA
ATOM     88  O   UNL A   1      46.529  36.252  30.047  1.00  0.00    -0.237 OA
ATOM     89  O   UNL A   1      47.165  37.251  27.882  1.00  0.00    -0.744 OA
ENDBRANCH  82  86
ENDBRANCH  56  79
ENDBRANCH  30  31
ENDBRANCH  23  25
ENDBRANCH  22  23
ENDBRANCH   1  22
TORSDOF 17
ENDMDL
MODEL 2
REMARK VINA RESULT:     -11.2      4.951     11.099
REMARK SMILES Cc1ccccc1N[C@H](C(=O)OCCOC(=O)c1ccc(-c2c3nc(c(-c4cc(S(=O)(=O)[O-])ccc4F)c4ccc([nH]4)c(-c4cc(S(=O)(=O)[O-])ccc4F)c4nc(c(-c5cc(S(=O)(=O)[O-])ccc5F)c5ccc2[nH]5)C=C4)C=C3)cc1)c1ccccc1
REMARK SMILES IDX 14 1 13 2 12 3 10 4 11 5 9 6 8 7 7 9 1 10 2 11 3 12 4 13
REMARK SMILES IDX 6 14 5 15 81 16 82 17 86 18 83 19 85 20 84 21 15 22 16 23
REMARK SMILES IDX 17 24 18 25 19 26 80 27 20 28 79 29 21 30 22 31 23 32 73 33
REMARK SMILES IDX 24 34 78 35 72 36 74 37 25 38 77 39 71 40 70 41 26 43 58 44
REMARK SMILES IDX 38 45 57 46 39 47 42 48 56 49 75 50 40 51 41 52 55 54 76 55
REMARK SMILES IDX 43 56 27 57 28 58 36 59 29 60 35 61 37 62 34 63 30 64 31 65
REMARK SMILES IDX 32 66 33 67 59 68 60 69 68 70 61 71 67 72 69 73 66 74 62 75
REMARK SMILES IDX 63 76 64 77 65 78 44 79 45 80 53 81 46 82 52 83 54 84 51 85
REMARK SMILES IDX 47 86 48 87 49 88 50 89
REMARK H PARENT 8 8 74 42 42 53
REMARK Flexibility Score: inf
ROOT
ATOM      1  C   UNL A   1      32.733  30.447  27.221  1.00  0.00     0.275 C 
ENDROOT
BRANCH   1   2
ATOM      2  C   UNL A   1      31.880  29.408  26.450  1.00  0.00     0.274 C 
BRANCH   2   3
ATOM      3  O   UNL A   1      31.700  29.578  25.027  1.00  0.00    -0.460 OA
BRANCH   3   4
ATOM      4  C   UNL A   1      32.495  29.010  24.091  1.00  0.00     0.333 C 
ATOM      5  O   UNL A   1      33.695  29.250  23.997  1.00  0.00    -0.249 OA
BRANCH   4   6
ATOM      6  C   UNL A   1      31.673  28.123  23.056  1.00  0.00     0.221 C 
BRANCH   6   7
ATOM      7  N   UNL A   1      31.878  26.713  23.511  1.00  0.00    -0.368 N 
ATOM      8  H   UNL A   1      31.413  26.067  22.931  1.00  0.00     0.161 HD
BRANCH   7   9
ATOM      9  C   UNL A   1      32.549  26.097  24.529  1.00  0.00     0.038 A 
ATOM     10  C   UNL A   1      30.459  26.030  26.014  1.00  0.00     0.046 C 
ATOM     11  C   UNL A   1      31.833  25.555  25.616  1.00  0.00    -0.028 A 
ATOM     12  C   UNL A   1      32.414  24.538  26.393  1.00  0.00     0.005 A 
ATOM     13  C   UNL A   1      33.739  24.167  26.196  1.00  0.00     0.000 A 
ATOM     14  C   UNL A   1      33.926  25.874  24.499  1.00  0.00     0.026 A 
ATOM     15  C   UNL A   1      34.517  24.892  25.302  1.00  0.00     0.002 A 
ENDBRANCH   7   9
ENDBRANCH   6   7
BRANCH   6  16
ATOM     16  C   UNL A   1      30.301  28.723  22.668  1.00  0.00    -0.015 A 
ATOM     17  C   UNL A   1      30.099  29.904  21.949  1.00  0.00     0.006 A 
ATOM     18  C   UNL A   1      29.116  28.171  23.215  1.00  0.00     0.006 A 
ATOM     19  C   UNL A   1      28.835  30.488  21.765  1.00  0.00     0.000 A 
ATOM     20  C   UNL A   1      27.840  28.703  22.985  1.00  0.00     0.000 A 
ATOM     21  C   UNL A   1      27.700  29.862  22.247  1.00  0.00     0.000 A 
ENDBRANCH   6  16
ENDBRANCH   4   6
ENDBRANCH   3   4
ENDBRANCH   2   3
ENDBRANCH   1   2
BRANCH   1  22
ATOM     22  O   UNL A   1      34.125  30.108  27.406  1.00  0.00    -0.458 OA
BRANCH  22  23
ATOM     23  C   UNL A   1      35.003  31.087  27.751  1.00  0.00     0.338 C 
ATOM     24  O   UNL A   1      34.775  32.298  27.737  1.00  0.00    -0.246 OA
BRANCH  23  25
ATOM     25  C   UNL A   1      36.158  30.468  28.445  1.00  0.00     0.060 A 
ATOM     26  C   UNL A   1      36.090  29.847  29.705  1.00  0.00     0.016 A 
ATOM     27  C   UNL A   1      37.269  30.259  27.643  1.00  0.00     0.016 A 
ATOM     28  C   UNL A   1      37.170  29.057  30.142  1.00  0.00     0.010 A 
ATOM     29  C   UNL A   1      38.074  29.196  27.895  1.00  0.00     0.010 A 
ATOM     30  C   UNL A   1      38.162  28.743  29.215  1.00  0.00    -0.014 A 
BRANCH  30  31
ATOM     31  C   UNL A   1      39.534  28.305  29.443  1.00  0.00     0.031 A 
ATOM     32  C   UNL A   1      40.045  27.028  28.937  1.00  0.00     0.074 A 
ATOM     33  C   UNL A   1      40.318  29.410  29.567  1.00  0.00     0.049 A 
ATOM     34  N   UNL A   1      41.275  26.879  28.610  1.00  0.00    -0.248 NA
ATOM     35  C   UNL A   1      39.254  25.823  28.722  1.00  0.00     0.031 C 
ATOM     36  C   UNL A   1      41.673  29.707  29.133  1.00  0.00     0.029 A 
ATOM     37  N   UNL A   1      39.917  30.613  30.154  1.00  0.00    -0.354 N 
ATOM     38  C   UNL A   1      41.445  25.649  28.030  1.00  0.00     0.074 A 
ATOM     39  C   UNL A   1      40.151  25.020  28.122  1.00  0.00     0.031 C 
ATOM     40  C   UNL A   1      42.089  30.820  29.774  1.00  0.00     0.029 A 
ATOM     41  C   UNL A   1      41.054  31.178  30.734  1.00  0.00     0.049 A 
ATOM     42  H   UNL A   1      39.007  30.990  30.158  1.00  0.00     0.167 HD
ATOM     43  C   UNL A   1      42.685  25.381  27.532  1.00  0.00     0.034 A 
ATOM     44  C   UNL A   1      41.096  31.030  32.096  1.00  0.00     0.034 A 
ATOM     45  C   UNL A   1      43.653  26.277  28.175  1.00  0.00     0.049 A 
ATOM     46  C   UNL A   1      42.059  29.907  32.483  1.00  0.00     0.074 A 
ATOM     47  C   UNL A   1      44.287  27.468  27.878  1.00  0.00     0.029 A 
ATOM     48  N   UNL A   1      43.787  26.114  29.539  1.00  0.00    -0.354 N 
ATOM     49  N   UNL A   1      42.720  29.162  31.632  1.00  0.00    -0.248 NA
ATOM     50  C   UNL A   1      42.341  29.526  33.860  1.00  0.00     0.031 C 
ATOM     51  C   UNL A   1      44.632  28.087  29.135  1.00  0.00     0.029 A 
ATOM     52  C   UNL A   1      44.251  27.246  30.171  1.00  0.00     0.049 A 
ATOM     53  H   UNL A   1      43.572  25.277  30.011  1.00  0.00     0.167 HD
ATOM     54  C   UNL A   1      43.446  28.208  32.278  1.00  0.00     0.074 A 
ATOM     55  C   UNL A   1      43.163  28.475  33.686  1.00  0.00     0.031 C 
ATOM     56  C   UNL A   1      44.213  27.268  31.635  1.00  0.00     0.034 A 
BRANCH  43  57
ATOM     57  C   UNL A   1      43.078  24.371  26.491  1.00  0.00     0.023 A 
ATOM     58  C   UNL A   1      42.638  23.042  26.663  1.00  0.00     0.031 A 
ATOM     59  C   UNL A   1      43.975  24.577  25.427  1.00  0.00     0.131 A 
ATOM     60  C   UNL A   1      43.123  21.993  25.863  1.00  0.00     0.055 A 
ATOM     61  C   UNL A   1      44.468  23.531  24.631  1.00  0.00     0.041 A 
ATOM     62  F   UNL A   1      44.428  25.793  25.109  1.00  0.00    -0.206 F 
ATOM     63  C   UNL A   1      44.056  22.226  24.858  1.00  0.00     0.022 A 
BRANCH  60  64
ATOM     64  S   UNL A   1      42.539  20.310  26.190  1.00  0.00     0.124 S 
ATOM     65  O   UNL A   1      42.432  20.295  27.644  1.00  0.00    -0.237 OA
ATOM     66  O   UNL A   1      41.284  20.274  25.448  1.00  0.00    -0.237 OA
ATOM     67  O   UNL A   1      43.604  19.470  25.642  1.00  0.00    -0.744 OA
ENDBRANCH  60  64
ENDBRANCH  43  57
BRANCH  44  68
ATOM     68  C   UNL A   1      39.710  31.316  32.674  1.00  0.00     0.023 A 
ATOM     69  C   UNL A   1      39.168  32.606  32.408  1.00  0.00     0.031 A 
ATOM     70  C   UNL A   1      38.787  30.298  32.973  1.00  0.00     0.131 A 
ATOM     71  C   UNL A   1      37.780  32.792  32.255  1.00  0.00     0.055 A 
ATOM     72  C   UNL A   1      37.397  30.521  32.922  1.00  0.00     0.041 A 
ATOM     73  F   UNL A   1      39.198  29.039  33.181  1.00  0.00    -0.206 F 
ATOM     74  C   UNL A   1      36.887  31.757  32.519  1.00  0.00     0.022 A 
BRANCH  71  75
ATOM     75  S   UNL A   1      37.196  34.293  31.398  1.00  0.00     0.124 S 
ATOM     76  O   UNL A   1      36.284  33.742  30.401  1.00  0.00    -0.237 OA
ATOM     77  O   UNL A   1      36.578  35.047  32.486  1.00  0.00    -0.237 OA
ATOM     78  O   UNL A   1      38.421  34.887  30.868  1.00  0.00    -0.744 OA
ENDBRANCH  71  75
ENDBRANCH  44  68
BRANCH  56  79
ATOM     79  C   UNL A   1      44.988  26.237  32.415  1.00  0.00     0.023 A 
ATOM     80  C   UNL A   1      44.319  25.405  33.317  1.00  0.00     0.031 A 
ATOM     81  C   UNL A   1      46.387  26.055  32.318  1.00  0.00     0.131 A 
ATOM     82  C   UNL A   1      44.994  24.356  33.948  1.00  0.00     0.055 A 
ATOM     83  C   UNL A   1      47.082  25.113  33.076  1.00  0.00     0.041 A 
ATOM     84  F   UNL A   1      47.139  26.728  31.436  1.00  0.00    -0.206 F 
ATOM     85  C   UNL A   1      46.379  24.228  33.876  1.00  0.00     0.022 A 
BRANCH  82  86
ATOM     86  S   UNL A   1      43.993  23.059  34.705  1.00  0.00     0.124 S 
ATOM     87  O   UNL A   1      44.998  22.123  35.199  1.00  0.00    -0.237 OA
ATOM     88  O   UNL A   1      43.275  23.814  35.730  1.00  0.00    -0.237 OA
ATOM     89  O   UNL A   1      43.173  22.572  33.600  1.00  0.00    -0.744 OA
ENDBRANCH  82  86
ENDBRANCH  56  79
ENDBRANCH  30  31
ENDBRANCH  23  25
ENDBRANCH  22  23
ENDBRANCH   1  22
TORSDOF 17
ENDMDL
MODEL 3
REMARK VINA RESULT:     -11.0      3.866      6.406
REMARK SMILES Cc1ccccc1N[C@H](C(=O)OCCOC(=O)c1ccc(-c2c3nc(c(-c4cc(S(=O)(=O)[O-])ccc4F)c4ccc([nH]4)c(-c4cc(S(=O)(=O)[O-])ccc4F)c4nc(c(-c5cc(S(=O)(=O)[O-])ccc5F)c5ccc2[nH]5)C=C4)C=C3)cc1)c1ccccc1
REMARK SMILES IDX 14 1 13 2 12 3 10 4 11 5 9 6 8 7 7 9 1 10 2 11 3 12 4 13
REMARK SMILES IDX 6 14 5 15 81 16 82 17 86 18 83 19 85 20 84 21 15 22 16 23
REMARK SMILES IDX 17 24 18 25 19 26 80 27 20 28 79 29 21 30 22 31 23 32 73 33
REMARK SMILES IDX 24 34 78 35 72 36 74 37 25 38 77 39 71 40 70 41 26 43 58 44
REMARK SMILES IDX 38 45 57 46 39 47 42 48 56 49 75 50 40 51 41 52 55 54 76 55
REMARK SMILES IDX 43 56 27 57 28 58 36 59 29 60 35 61 37 62 34 63 30 64 31 65
REMARK SMILES IDX 32 66 33 67 59 68 60 69 68 70 61 71 67 72 69 73 66 74 62 75
REMARK SMILES IDX 63 76 64 77 65 78 44 79 45 80 53 81 46 82 52 83 54 84 51 85
REMARK SMILES IDX 47 86 48 87 49 88 50 89
REMARK H PARENT 8 8 74 42 42 53
REMARK Flexibility Score: inf
ROOT
ATOM      1  C   UNL A   1      37.449  21.890  25.560  1.00  0.00     0.275 C 
ENDROOT
BRANCH   1   2
ATOM      2  C   UNL A   1      35.940  22.069  25.255  1.00  0.00     0.274 C 
BRANCH   2   3
ATOM      3  O   UNL A   1      35.039  20.980  25.554  1.00  0.00    -0.460 OA
BRANCH   3   4
ATOM      4  C   UNL A   1      33.976  21.084  26.385  1.00  0.00     0.333 C 
ATOM      5  O   UNL A   1      34.077  21.414  27.564  1.00  0.00    -0.249 OA
BRANCH   4   6
ATOM      6  C   UNL A   1      32.624  20.596  25.703  1.00  0.00     0.221 C 
BRANCH   6   7
ATOM      7  N   UNL A   1      31.978  21.845  25.193  1.00  0.00    -0.368 N 
ATOM      8  H   UNL A   1      31.034  21.909  25.462  1.00  0.00     0.161 HD
BRANCH   7   9
ATOM      9  C   UNL A   1      32.372  22.920  24.445  1.00  0.00     0.038 A 
ATOM     10  C   UNL A   1      32.171  24.519  26.440  1.00  0.00     0.046 C 
ATOM     11  C   UNL A   1      32.697  24.135  25.081  1.00  0.00    -0.028 A 
ATOM     12  C   UNL A   1      33.532  25.058  24.428  1.00  0.00     0.005 A 
ATOM     13  C   UNL A   1      33.918  24.853  23.109  1.00  0.00     0.000 A 
ATOM     14  C   UNL A   1      32.579  22.845  23.068  1.00  0.00     0.026 A 
ATOM     15  C   UNL A   1      33.374  23.786  22.404  1.00  0.00     0.002 A 
ENDBRANCH   7   9
ENDBRANCH   6   7
BRANCH   6  16
ATOM     16  C   UNL A   1      32.770  19.293  24.883  1.00  0.00    -0.015 A 
ATOM     17  C   UNL A   1      33.343  18.101  25.336  1.00  0.00     0.006 A 
ATOM     18  C   UNL A   1      32.485  19.304  23.495  1.00  0.00     0.006 A 
ATOM     19  C   UNL A   1      33.598  17.002  24.501  1.00  0.00     0.000 A 
ATOM     20  C   UNL A   1      32.671  18.193  22.661  1.00  0.00     0.000 A 
ATOM     21  C   UNL A   1      33.221  17.034  23.170  1.00  0.00     0.000 A 
ENDBRANCH   6  16
ENDBRANCH   4   6
ENDBRANCH   3   4
ENDBRANCH   2   3
ENDBRANCH   1   2
BRANCH   1  22
ATOM     22  O   UNL A   1      38.129  23.052  26.084  1.00  0.00    -0.458 OA
BRANCH  22  23
ATOM     23  C   UNL A   1      39.436  22.945  26.444  1.00  0.00     0.338 C 
ATOM     24  O   UNL A   1      40.157  21.963  26.262  1.00  0.00    -0.246 OA
BRANCH  23  25
ATOM     25  C   UNL A   1      39.943  24.293  26.798  1.00  0.00     0.060 A 
ATOM     26  C   UNL A   1      40.570  25.170  25.893  1.00  0.00     0.016 A 
ATOM     27  C   UNL A   1      39.492  24.779  28.014  1.00  0.00     0.016 A 
ATOM     28  C   UNL A   1      40.760  26.515  26.260  1.00  0.00     0.010 A 
ATOM     29  C   UNL A   1      39.311  26.117  28.164  1.00  0.00     0.010 A 
ATOM     30  C   UNL A   1      40.120  26.972  27.411  1.00  0.00    -0.014 A 
BRANCH  30  31
ATOM     31  C   UNL A   1      40.420  28.138  28.234  1.00  0.00     0.031 A 
ATOM     32  C   UNL A   1      39.437  29.196  28.485  1.00  0.00     0.074 A 
ATOM     33  C   UNL A   1      41.362  27.782  29.149  1.00  0.00     0.049 A 
ATOM     34  N   UNL A   1      39.434  29.864  29.577  1.00  0.00    -0.248 NA
ATOM     35  C   UNL A   1      38.365  29.590  27.579  1.00  0.00     0.031 C 
ATOM     36  C   UNL A   1      41.565  28.145  30.541  1.00  0.00     0.029 A 
ATOM     37  N   UNL A   1      42.395  26.869  28.918  1.00  0.00    -0.354 N 
ATOM     38  C   UNL A   1      38.328  30.673  29.613  1.00  0.00     0.074 A 
ATOM     39  C   UNL A   1      37.686  30.470  28.338  1.00  0.00     0.031 C 
ATOM     40  C   UNL A   1      42.812  27.768  30.899  1.00  0.00     0.029 A 
ATOM     41  C   UNL A   1      43.477  27.279  29.699  1.00  0.00     0.049 A 
ATOM     42  H   UNL A   1      42.366  26.087  28.319  1.00  0.00     0.167 HD
ATOM     43  C   UNL A   1      38.128  31.374  30.764  1.00  0.00     0.034 A 
ATOM     44  C   UNL A   1      44.457  27.908  28.977  1.00  0.00     0.034 A 
ATOM     45  C   UNL A   1      39.402  31.465  31.487  1.00  0.00     0.049 A 
ATOM     46  C   UNL A   1      44.376  29.423  29.171  1.00  0.00     0.074 A 
ATOM     47  C   UNL A   1      40.027  30.808  32.529  1.00  0.00     0.029 A 
ATOM     48  N   UNL A   1      40.400  32.157  30.830  1.00  0.00    -0.354 N 
ATOM     49  N   UNL A   1      43.472  30.037  29.893  1.00  0.00    -0.248 NA
ATOM     50  C   UNL A   1      45.300  30.365  28.554  1.00  0.00     0.031 C 
ATOM     51  C   UNL A   1      41.447  30.989  32.351  1.00  0.00     0.029 A 
ATOM     52  C   UNL A   1      41.663  31.789  31.237  1.00  0.00     0.049 A 
ATOM     53  H   UNL A   1      40.228  32.841  30.143  1.00  0.00     0.167 HD
ATOM     54  C   UNL A   1      43.624  31.389  29.820  1.00  0.00     0.074 A 
ATOM     55  C   UNL A   1      44.788  31.544  28.952  1.00  0.00     0.031 C 
ATOM     56  C   UNL A   1      42.797  32.283  30.454  1.00  0.00     0.034 A 
BRANCH  43  57
ATOM     57  C   UNL A   1      36.852  31.972  31.287  1.00  0.00     0.023 A 
ATOM     58  C   UNL A   1      36.101  32.787  30.414  1.00  0.00     0.031 A 
ATOM     59  C   UNL A   1      36.396  31.929  32.616  1.00  0.00     0.131 A 
ATOM     60  C   UNL A   1      35.013  33.552  30.870  1.00  0.00     0.055 A 
ATOM     61  C   UNL A   1      35.315  32.698  33.077  1.00  0.00     0.041 A 
ATOM     62  F   UNL A   1      36.972  31.154  33.538  1.00  0.00    -0.206 F 
ATOM     63  C   UNL A   1      34.627  33.530  32.206  1.00  0.00     0.022 A 
BRANCH  60  64
ATOM     64  S   UNL A   1      34.138  34.609  29.688  1.00  0.00     0.124 S 
ATOM     65  O   UNL A   1      35.202  34.992  28.767  1.00  0.00    -0.237 OA
ATOM     66  O   UNL A   1      33.123  33.702  29.162  1.00  0.00    -0.237 OA
ATOM     67  O   UNL A   1      33.623  35.695  30.520  1.00  0.00    -0.744 OA
ENDBRANCH  60  64
ENDBRANCH  43  57
BRANCH  44  68
ATOM     68  C   UNL A   1      44.689  27.142  27.674  1.00  0.00     0.023 A 
ATOM     69  C   UNL A   1      45.083  25.779  27.804  1.00  0.00     0.031 A 
ATOM     70  C   UNL A   1      44.080  27.505  26.461  1.00  0.00     0.131 A 
ATOM     71  C   UNL A   1      44.695  24.819  26.850  1.00  0.00     0.055 A 
ATOM     72  C   UNL A   1      43.791  26.552  25.463  1.00  0.00     0.041 A 
ATOM     73  F   UNL A   1      43.624  28.751  26.268  1.00  0.00    -0.206 F 
ATOM     74  C   UNL A   1      44.057  25.198  25.673  1.00  0.00     0.022 A 
BRANCH  71  75
ATOM     75  S   UNL A   1      44.744  23.057  27.324  1.00  0.00     0.124 S 
ATOM     76  O   UNL A   1      43.463  22.569  26.826  1.00  0.00    -0.237 OA
ATOM     77  O   UNL A   1      45.931  22.582  26.616  1.00  0.00    -0.237 OA
ATOM     78  O   UNL A   1      44.880  23.095  28.778  1.00  0.00    -0.744 OA
ENDBRANCH  71  75
ENDBRANCH  44  68
BRANCH  56  79
ATOM     79  C   UNL A   1      43.022  33.768  30.326  1.00  0.00     0.023 A 
ATOM     80  C   UNL A   1      42.826  34.393  29.091  1.00  0.00     0.031 A 
ATOM     81  C   UNL A   1      43.451  34.601  31.386  1.00  0.00     0.131 A 
ATOM     82  C   UNL A   1      42.898  35.785  28.982  1.00  0.00     0.055 A 
ATOM     83  C   UNL A   1      43.681  35.968  31.229  1.00  0.00     0.041 A 
ATOM     84  F   UNL A   1      43.599  34.149  32.638  1.00  0.00    -0.206 F 
ATOM     85  C   UNL A   1      43.370  36.578  30.026  1.00  0.00     0.022 A 
BRANCH  82  86
ATOM     86  S   UNL A   1      42.178  36.543  27.511  1.00  0.00     0.124 S 
ATOM     87  O   UNL A   1      41.963  37.924  27.931  1.00  0.00    -0.237 OA
ATOM     88  O   UNL A   1      43.246  36.339  26.534  1.00  0.00    -0.237 OA
ATOM     89  O   UNL A   1      40.966  35.762  27.282  1.00  0.00    -0.744 OA
ENDBRANCH  82  86
ENDBRANCH  56  79
ENDBRANCH  30  31
ENDBRANCH  23  25
ENDBRANCH  22  23
ENDBRANCH   1  22
TORSDOF 17
ENDMDL
