MODEL 1
REMARK VINA RESULT:     -12.5      0.000      0.000
REMARK SMILES O=C(OCCOC(=O)c1ccc(-c2c3nc(c(-c4cc(S(=O)(=O)[O-])ccc4F)c4ccc([nH]4)c(-c4cc(S(=O)(=O)[O-])ccc4F)c4nc(c(-c5cc(S(=O)(=O)[O-])ccc5F)c5ccc2[nH]5)C=C4)C=C3)cc1)C1=Cc2cc(S(F)(F)(F)(F)F)cc(Br)c2O[C@@H]1C(F)(F)F
REMARK SMILES IDX 5 1 4 2 3 3 2 4 1 5 72 6 73 7 88 8 74 9 87 10 75 11 86 12
REMARK SMILES IDX 76 13 84 14 83 15 85 16 89 17 90 18 91 19 92 20 77 21 78 22
REMARK SMILES IDX 79 23 80 24 81 25 82 26 6 27 7 28 8 29 9 30 10 31 71 32
REMARK SMILES IDX 11 33 70 34 12 35 13 36 14 37 64 38 15 39 69 40 63 41 65 42
REMARK SMILES IDX 16 43 68 44 62 45 61 46 17 48 49 49 29 50 48 51 30 52 33 53
REMARK SMILES IDX 47 54 66 55 31 56 32 57 46 59 67 60 34 61 18 62 19 63 27 64
REMARK SMILES IDX 20 65 26 66 28 67 25 68 21 69 22 70 23 71 24 72 50 73 51 74
REMARK SMILES IDX 59 75 52 76 58 77 60 78 57 79 53 80 54 81 55 82 56 83 35 84
REMARK SMILES IDX 36 85 44 86 37 87 43 88 45 89 42 90 38 91 39 92 40 93 41 94
REMARK H PARENT 65 47 33 58
REMARK Flexibility Score: inf
ROOT
ATOM      1  C   UNL A   1      32.682  28.814  24.767  1.00  0.00     0.275 C 
ENDROOT
BRANCH   1   2
ATOM      2  C   UNL A   1      33.343  28.300  23.498  1.00  0.00     0.275 C 
BRANCH   2   3
ATOM      3  O   UNL A   1      33.651  26.922  23.650  1.00  0.00    -0.459 OA
BRANCH   3   4
ATOM      4  C   UNL A   1      33.007  25.956  22.834  1.00  0.00     0.338 C 
ATOM      5  O   UNL A   1      33.655  25.367  21.913  1.00  0.00    -0.246 OA
BRANCH   4   6
ATOM      6  C   UNL A   1      31.541  25.626  23.062  1.00  0.00     0.087 C 
ATOM      7  C   UNL A   1      31.190  24.437  23.624  1.00  0.00     0.027 C 
ATOM      8  C   UNL A   1      30.466  26.624  22.661  1.00  0.00     0.316 C 
ATOM      9  C   UNL A   1      32.264  23.439  24.024  1.00  0.00     0.020 A 
ATOM     10  O   UNL A   1      33.622  25.139  24.980  1.00  0.00    -0.474 OA
ATOM     11  C   UNL A   1      32.060  22.146  23.573  1.00  0.00     0.036 A 
ATOM     12  C   UNL A   1      33.373  23.775  24.674  1.00  0.00     0.142 A 
ATOM     13  C   UNL A   1      32.963  21.201  24.114  1.00  0.00     0.109 A 
ATOM     14  C   UNL A   1      34.279  22.815  25.053  1.00  0.00     0.062 A 
ATOM     15  C   UNL A   1      34.110  21.507  24.693  1.00  0.00     0.044 A 
ATOM     16  Br  UNL A   1      35.836  23.327  26.127  1.00  0.00    -0.047 Br
BRANCH   8  17
ATOM     17  C   UNL A   1      29.660  27.021  23.888  1.00  0.00     0.430 C 
ATOM     18  F   UNL A   1      28.490  26.390  23.873  1.00  0.00    -0.167 F 
ATOM     19  F   UNL A   1      30.332  26.687  24.986  1.00  0.00    -0.167 F 
ATOM     20  F   UNL A   1      29.455  28.335  23.875  1.00  0.00    -0.167 F 
ENDBRANCH   8  17
BRANCH  13  21
ATOM     21  S   UNL A   1      32.515  19.450  24.004  1.00  0.00     0.310 S 
ATOM     22  F   UNL A   1      34.039  19.018  23.914  1.00  0.00    -0.094 F 
ATOM     23  F   UNL A   1      32.524  19.561  22.434  1.00  0.00    -0.094 F 
ATOM     24  F   UNL A   1      32.147  17.942  23.924  1.00  0.00    -0.094 F 
ATOM     25  F   UNL A   1      32.650  19.325  25.574  1.00  0.00    -0.094 F 
ATOM     26  F   UNL A   1      33.000  20.953  24.098  1.00  0.00    -0.094 F 
ENDBRANCH  13  21
ENDBRANCH   4   6
ENDBRANCH   3   4
ENDBRANCH   2   3
ENDBRANCH   1   2
BRANCH   1  27
ATOM     27  O   UNL A   1      33.240  30.073  25.114  1.00  0.00    -0.458 OA
BRANCH  27  28
ATOM     28  C   UNL A   1      33.101  30.571  26.437  1.00  0.00     0.338 C 
ATOM     29  O   UNL A   1      31.997  31.075  26.813  1.00  0.00    -0.246 OA
BRANCH  28  30
ATOM     30  C   UNL A   1      34.273  30.499  27.402  1.00  0.00     0.060 A 
ATOM     31  C   UNL A   1      34.992  31.662  27.626  1.00  0.00     0.016 A 
ATOM     32  C   UNL A   1      34.688  29.330  27.878  1.00  0.00     0.016 A 
ATOM     33  C   UNL A   1      36.298  31.441  28.122  1.00  0.00     0.010 A 
ATOM     34  C   UNL A   1      35.921  29.215  28.473  1.00  0.00     0.010 A 
ATOM     35  C   UNL A   1      36.710  30.314  28.674  1.00  0.00    -0.014 A 
BRANCH  35  36
ATOM     36  C   UNL A   1      37.992  30.240  29.487  1.00  0.00     0.031 A 
ATOM     37  C   UNL A   1      38.098  30.818  30.753  1.00  0.00     0.074 A 
ATOM     38  C   UNL A   1      38.974  29.451  28.912  1.00  0.00     0.049 A 
ATOM     39  N   UNL A   1      39.102  30.696  31.622  1.00  0.00    -0.248 NA
ATOM     40  C   UNL A   1      37.071  31.683  31.351  1.00  0.00     0.031 C 
ATOM     41  C   UNL A   1      38.871  28.857  27.639  1.00  0.00     0.029 A 
ATOM     42  N   UNL A   1      40.196  29.101  29.443  1.00  0.00    -0.354 N 
ATOM     43  C   UNL A   1      38.833  31.380  32.736  1.00  0.00     0.074 A 
ATOM     44  C   UNL A   1      37.526  32.030  32.576  1.00  0.00     0.031 C 
ATOM     45  C   UNL A   1      40.020  28.170  27.400  1.00  0.00     0.029 A 
ATOM     46  C   UNL A   1      40.858  28.322  28.520  1.00  0.00     0.049 A 
ATOM     47  H   UNL A   1      40.537  29.364  30.328  1.00  0.00     0.167 HD
ATOM     48  C   UNL A   1      39.627  31.486  33.879  1.00  0.00     0.034 A 
ATOM     49  C   UNL A   1      42.123  27.766  28.632  1.00  0.00     0.034 A 
ATOM     50  C   UNL A   1      40.873  30.894  34.008  1.00  0.00     0.049 A 
ATOM     51  C   UNL A   1      42.942  27.920  29.754  1.00  0.00     0.074 A 
ATOM     52  C   UNL A   1      41.682  30.984  35.156  1.00  0.00     0.029 A 
ATOM     53  N   UNL A   1      41.546  30.134  33.076  1.00  0.00    -0.354 N 
ATOM     54  N   UNL A   1      42.656  28.571  30.882  1.00  0.00    -0.248 NA
ATOM     55  C   UNL A   1      44.296  27.363  29.868  1.00  0.00     0.031 C 
ATOM     56  C   UNL A   1      42.831  30.296  34.918  1.00  0.00     0.029 A 
ATOM     57  C   UNL A   1      42.759  29.766  33.616  1.00  0.00     0.049 A 
ATOM     58  H   UNL A   1      41.217  29.896  32.179  1.00  0.00     0.167 HD
ATOM     59  C   UNL A   1      43.680  28.483  31.734  1.00  0.00     0.074 A 
ATOM     60  C   UNL A   1      44.752  27.711  31.092  1.00  0.00     0.031 C 
ATOM     61  C   UNL A   1      43.760  29.012  33.023  1.00  0.00     0.034 A 
BRANCH  48  62
ATOM     62  C   UNL A   1      39.093  32.294  35.050  1.00  0.00     0.023 A 
ATOM     63  C   UNL A   1      39.465  33.627  35.102  1.00  0.00     0.031 A 
ATOM     64  C   UNL A   1      38.254  31.778  35.941  1.00  0.00     0.131 A 
ATOM     65  C   UNL A   1      39.119  34.272  36.313  1.00  0.00     0.055 A 
ATOM     66  C   UNL A   1      37.849  32.513  37.029  1.00  0.00     0.041 A 
ATOM     67  F   UNL A   1      37.799  30.539  35.777  1.00  0.00    -0.206 F 
ATOM     68  C   UNL A   1      38.227  33.820  37.175  1.00  0.00     0.022 A 
BRANCH  65  69
ATOM     69  S   UNL A   1      39.957  35.828  36.707  1.00  0.00     0.124 S 
ATOM     70  O   UNL A   1      39.878  36.769  35.502  1.00  0.00    -0.237 OA
ATOM     71  O   UNL A   1      39.279  36.483  37.912  1.00  0.00    -0.237 OA
ATOM     72  O   UNL A   1      41.597  35.514  37.077  1.00  0.00    -0.744 OA
ENDBRANCH  65  69
ENDBRANCH  48  62
BRANCH  49  73
ATOM     73  C   UNL A   1      42.650  26.944  27.467  1.00  0.00     0.023 A 
ATOM     74  C   UNL A   1      42.419  25.580  27.383  1.00  0.00     0.031 A 
ATOM     75  C   UNL A   1      43.407  27.571  26.574  1.00  0.00     0.131 A 
ATOM     76  C   UNL A   1      43.273  24.909  26.477  1.00  0.00     0.055 A 
ATOM     77  C   UNL A   1      44.109  26.859  25.630  1.00  0.00     0.041 A 
ATOM     78  F   UNL A   1      43.487  28.898  26.593  1.00  0.00    -0.206 F 
ATOM     79  C   UNL A   1      43.973  25.502  25.528  1.00  0.00     0.022 A 
BRANCH  76  80
ATOM     80  S   UNL A   1      43.416  23.111  26.631  1.00  0.00     0.124 S 
ATOM     81  O   UNL A   1      42.848  22.666  27.980  1.00  0.00    -0.237 OA
ATOM     82  O   UNL A   1      42.632  22.439  25.501  1.00  0.00    -0.237 OA
ATOM     83  O   UNL A   1      45.063  22.660  26.529  1.00  0.00    -0.744 OA
ENDBRANCH  76  80
ENDBRANCH  49  73
BRANCH  61  84
ATOM     84  C   UNL A   1      45.023  28.746  33.827  1.00  0.00     0.023 A 
ATOM     85  C   UNL A   1      44.975  27.694  34.727  1.00  0.00     0.031 A 
ATOM     86  C   UNL A   1      46.078  29.548  33.760  1.00  0.00     0.131 A 
ATOM     87  C   UNL A   1      45.979  27.746  35.723  1.00  0.00     0.055 A 
ATOM     88  C   UNL A   1      47.089  29.453  34.687  1.00  0.00     0.041 A 
ATOM     89  F   UNL A   1      46.159  30.452  32.787  1.00  0.00    -0.206 F 
ATOM     90  C   UNL A   1      47.077  28.476  35.642  1.00  0.00     0.022 A 
BRANCH  87  91
ATOM     91  S   UNL A   1      45.741  26.745  37.212  1.00  0.00     0.124 S 
ATOM     92  O   UNL A   1      45.303  25.334  36.813  1.00  0.00    -0.237 OA
ATOM     93  O   UNL A   1      47.058  26.669  37.989  1.00  0.00    -0.237 OA
ATOM     94  O   UNL A   1      44.539  27.460  38.194  1.00  0.00    -0.744 OA
ENDBRANCH  87  91
ENDBRANCH  61  84
ENDBRANCH  35  36
ENDBRANCH  28  30
ENDBRANCH  27  28
ENDBRANCH   1  27
TORSDOF 16
ENDMDL
MODEL 2
REMARK VINA RESULT:     -12.4      4.066      7.006
REMARK SMILES O=C(OCCOC(=O)c1ccc(-c2c3nc(c(-c4cc(S(=O)(=O)[O-])ccc4F)c4ccc([nH]4)c(-c4cc(S(=O)(=O)[O-])ccc4F)c4nc(c(-c5cc(S(=O)(=O)[O-])ccc5F)c5ccc2[nH]5)C=C4)C=C3)cc1)C1=Cc2cc(S(F)(F)(F)(F)F)cc(Br)c2O[C@@H]1C(F)(F)F
REMARK SMILES IDX 5 1 4 2 3 3 2 4 1 5 72 6 73 7 88 8 74 9 87 10 75 11 86 12
REMARK SMILES IDX 76 13 84 14 83 15 85 16 89 17 90 18 91 19 92 20 77 21 78 22
REMARK SMILES IDX 79 23 80 24 81 25 82 26 6 27 7 28 8 29 9 30 10 31 71 32
REMARK SMILES IDX 11 33 70 34 12 35 13 36 14 37 64 38 15 39 69 40 63 41 65 42
REMARK SMILES IDX 16 43 68 44 62 45 61 46 17 48 49 49 29 50 48 51 30 52 33 53
REMARK SMILES IDX 47 54 66 55 31 56 32 57 46 59 67 60 34 61 18 62 19 63 27 64
REMARK SMILES IDX 20 65 26 66 28 67 25 68 21 69 22 70 23 71 24 72 50 73 51 74
REMARK SMILES IDX 59 75 52 76 58 77 60 78 57 79 53 80 54 81 55 82 56 83 35 84
REMARK SMILES IDX 36 85 44 86 37 87 43 88 45 89 42 90 38 91 39 92 40 93 41 94
REMARK H PARENT 65 47 33 58
REMARK Flexibility Score: inf
ROOT
ATOM      1  C   UNL A   1      37.303  21.755  25.745  1.00  0.00     0.275 C 
ENDROOT
BRANCH   1   2
ATOM      2  C   UNL A   1      36.688  23.124  25.988  1.00  0.00     0.275 C 
BRANCH   2   3
ATOM      3  O   UNL A   1      36.274  23.684  24.750  1.00  0.00    -0.459 OA
BRANCH   3   4
ATOM      4  C   UNL A   1      35.328  23.000  23.942  1.00  0.00     0.338 C 
ATOM      5  O   UNL A   1      35.496  22.936  22.684  1.00  0.00    -0.246 OA
BRANCH   4   6
ATOM      6  C   UNL A   1      34.115  22.345  24.582  1.00  0.00     0.087 C 
ATOM      7  C   UNL A   1      33.088  23.113  25.036  1.00  0.00     0.027 C 
ATOM      8  C   UNL A   1      34.050  20.832  24.715  1.00  0.00     0.316 C 
ATOM      9  C   UNL A   1      33.153  24.626  24.904  1.00  0.00     0.020 A 
ATOM     10  O   UNL A   1      33.976  24.492  22.679  1.00  0.00    -0.474 OA
ATOM     11  C   UNL A   1      32.872  25.328  26.064  1.00  0.00     0.036 A 
ATOM     12  C   UNL A   1      33.542  25.250  23.798  1.00  0.00     0.142 A 
ATOM     13  C   UNL A   1      32.751  26.725  25.873  1.00  0.00     0.109 A 
ATOM     14  C   UNL A   1      33.527  26.622  23.727  1.00  0.00     0.062 A 
ATOM     15  C   UNL A   1      33.202  27.379  24.818  1.00  0.00     0.044 A 
ATOM     16  Br  UNL A   1      33.979  27.506  22.038  1.00  0.00    -0.047 Br
BRANCH   8  17
ATOM     17  C   UNL A   1      32.839  20.309  23.960  1.00  0.00     0.430 C 
ATOM     18  F   UNL A   1      31.776  20.327  24.759  1.00  0.00    -0.167 F 
ATOM     19  F   UNL A   1      32.610  21.079  22.900  1.00  0.00    -0.167 F 
ATOM     20  F   UNL A   1      33.072  19.061  23.560  1.00  0.00    -0.167 F 
ENDBRANCH   8  17
BRANCH  13  21
ATOM     21  S   UNL A   1      31.919  27.682  27.165  1.00  0.00     0.310 S 
ATOM     22  F   UNL A   1      31.674  28.896  26.173  1.00  0.00    -0.094 F 
ATOM     23  F   UNL A   1      33.295  28.350  27.536  1.00  0.00    -0.094 F 
ATOM     24  F   UNL A   1      31.190  28.510  28.260  1.00  0.00    -0.094 F 
ATOM     25  F   UNL A   1      30.527  27.106  26.685  1.00  0.00    -0.094 F 
ATOM     26  F   UNL A   1      32.628  26.919  25.975  1.00  0.00    -0.094 F 
ENDBRANCH  13  21
ENDBRANCH   4   6
ENDBRANCH   3   4
ENDBRANCH   2   3
ENDBRANCH   1   2
BRANCH   1  27
ATOM     27  O   UNL A   1      38.687  21.902  25.464  1.00  0.00    -0.458 OA
BRANCH  27  28
ATOM     28  C   UNL A   1      39.608  22.116  26.525  1.00  0.00     0.338 C 
ATOM     29  O   UNL A   1      40.004  21.135  27.228  1.00  0.00    -0.246 OA
BRANCH  28  30
ATOM     30  C   UNL A   1      40.119  23.517  26.816  1.00  0.00     0.060 A 
ATOM     31  C   UNL A   1      40.649  23.758  28.073  1.00  0.00     0.016 A 
ATOM     32  C   UNL A   1      39.910  24.507  25.955  1.00  0.00     0.016 A 
ATOM     33  C   UNL A   1      40.657  25.124  28.439  1.00  0.00     0.010 A 
ATOM     34  C   UNL A   1      40.068  25.815  26.342  1.00  0.00     0.010 A 
ATOM     35  C   UNL A   1      40.533  26.128  27.590  1.00  0.00    -0.014 A 
BRANCH  35  36
ATOM     36  C   UNL A   1      40.885  27.555  27.978  1.00  0.00     0.031 A 
ATOM     37  C   UNL A   1      39.926  28.446  28.462  1.00  0.00     0.074 A 
ATOM     38  C   UNL A   1      42.241  27.831  27.925  1.00  0.00     0.049 A 
ATOM     39  N   UNL A   1      40.129  29.661  28.974  1.00  0.00    -0.248 NA
ATOM     40  C   UNL A   1      38.483  28.169  28.487  1.00  0.00     0.031 C 
ATOM     41  C   UNL A   1      43.216  26.934  27.447  1.00  0.00     0.029 A 
ATOM     42  N   UNL A   1      42.885  28.986  28.313  1.00  0.00    -0.354 N 
ATOM     43  C   UNL A   1      38.967  30.203  29.347  1.00  0.00     0.074 A 
ATOM     44  C   UNL A   1      37.891  29.254  29.034  1.00  0.00     0.031 C 
ATOM     45  C   UNL A   1      44.428  27.544  27.533  1.00  0.00     0.029 A 
ATOM     46  C   UNL A   1      44.231  28.831  28.067  1.00  0.00     0.049 A 
ATOM     47  H   UNL A   1      42.456  29.784  28.697  1.00  0.00     0.167 HD
ATOM     48  C   UNL A   1      38.765  31.452  29.938  1.00  0.00     0.034 A 
ATOM     49  C   UNL A   1      45.245  29.749  28.289  1.00  0.00     0.034 A 
ATOM     50  C   UNL A   1      39.784  32.353  30.200  1.00  0.00     0.049 A 
ATOM     51  C   UNL A   1      45.034  31.022  28.827  1.00  0.00     0.074 A 
ATOM     52  C   UNL A   1      39.598  33.611  30.803  1.00  0.00     0.029 A 
ATOM     53  N   UNL A   1      41.128  32.207  29.932  1.00  0.00    -0.354 N 
ATOM     54  N   UNL A   1      43.879  31.547  29.236  1.00  0.00    -0.248 NA
ATOM     55  C   UNL A   1      46.097  32.014  29.036  1.00  0.00     0.031 C 
ATOM     56  C   UNL A   1      40.811  34.221  30.889  1.00  0.00     0.029 A 
ATOM     57  C   UNL A   1      41.774  33.354  30.340  1.00  0.00     0.049 A 
ATOM     58  H   UNL A   1      41.553  31.420  29.520  1.00  0.00     0.167 HD
ATOM     59  C   UNL A   1      44.078  32.779  29.710  1.00  0.00     0.074 A 
ATOM     60  C   UNL A   1      45.506  33.100  29.582  1.00  0.00     0.031 C 
ATOM     61  C   UNL A   1      43.126  33.647  30.248  1.00  0.00     0.034 A 
BRANCH  48  62
ATOM     62  C   UNL A   1      37.347  31.844  30.317  1.00  0.00     0.023 A 
ATOM     63  C   UNL A   1      36.509  32.213  29.277  1.00  0.00     0.031 A 
ATOM     64  C   UNL A   1      36.901  31.768  31.566  1.00  0.00     0.131 A 
ATOM     65  C   UNL A   1      35.278  32.767  29.702  1.00  0.00     0.055 A 
ATOM     66  C   UNL A   1      35.637  32.201  31.886  1.00  0.00     0.041 A 
ATOM     67  F   UNL A   1      37.686  31.267  32.515  1.00  0.00    -0.206 F 
ATOM     68  C   UNL A   1      34.776  32.635  30.916  1.00  0.00     0.022 A 
BRANCH  65  69
ATOM     69  S   UNL A   1      34.324  33.722  28.495  1.00  0.00     0.124 S 
ATOM     70  O   UNL A   1      35.270  34.295  27.436  1.00  0.00    -0.237 OA
ATOM     71  O   UNL A   1      33.295  32.811  27.822  1.00  0.00    -0.237 OA
ATOM     72  O   UNL A   1      33.518  35.002  29.291  1.00  0.00    -0.744 OA
ENDBRANCH  65  69
ENDBRANCH  48  62
BRANCH  49  73
ATOM     73  C   UNL A   1      46.666  29.350  27.926  1.00  0.00     0.023 A 
ATOM     74  C   UNL A   1      47.059  29.201  26.606  1.00  0.00     0.031 A 
ATOM     75  C   UNL A   1      47.494  29.076  28.927  1.00  0.00     0.131 A 
ATOM     76  C   UNL A   1      48.261  28.473  26.445  1.00  0.00     0.055 A 
ATOM     77  C   UNL A   1      48.713  28.487  28.685  1.00  0.00     0.041 A 
ATOM     78  F   UNL A   1      47.142  29.371  30.175  1.00  0.00    -0.206 F 
ATOM     79  C   UNL A   1      49.140  28.256  27.407  1.00  0.00     0.022 A 
BRANCH  76  80
ATOM     80  S   UNL A   1      48.620  27.793  24.807  1.00  0.00     0.124 S 
ATOM     81  O   UNL A   1      48.570  26.265  24.866  1.00  0.00    -0.237 OA
ATOM     82  O   UNL A   1      47.579  28.298  23.806  1.00  0.00    -0.237 OA
ATOM     83  O   UNL A   1      50.178  28.293  24.310  1.00  0.00    -0.744 OA
ENDBRANCH  76  80
ENDBRANCH  49  73
BRANCH  61  84
ATOM     84  C   UNL A   1      43.601  34.996  30.764  1.00  0.00     0.023 A 
ATOM     85  C   UNL A   1      43.771  35.111  32.134  1.00  0.00     0.031 A 
ATOM     86  C   UNL A   1      43.732  36.046  29.963  1.00  0.00     0.131 A 
ATOM     87  C   UNL A   1      43.795  36.447  32.598  1.00  0.00     0.055 A 
ATOM     88  C   UNL A   1      43.889  37.308  30.483  1.00  0.00     0.041 A 
ATOM     89  F   UNL A   1      43.712  35.875  28.643  1.00  0.00    -0.206 F 
ATOM     90  C   UNL A   1      44.004  37.503  31.831  1.00  0.00     0.022 A 
BRANCH  87  91
ATOM     91  S   UNL A   1      43.518  36.732  34.364  1.00  0.00     0.124 S 
ATOM     92  O   UNL A   1      42.812  35.517  34.972  1.00  0.00    -0.237 OA
ATOM     93  O   UNL A   1      44.864  36.941  35.063  1.00  0.00    -0.237 OA
ATOM     94  O   UNL A   1      42.544  38.121  34.572  1.00  0.00    -0.744 OA
ENDBRANCH  87  91
ENDBRANCH  61  84
ENDBRANCH  35  36
ENDBRANCH  28  30
ENDBRANCH  27  28
ENDBRANCH   1  27
TORSDOF 16
ENDMDL
MODEL 3
REMARK VINA RESULT:     -12.4      4.779      9.796
REMARK SMILES O=C(OCCOC(=O)c1ccc(-c2c3nc(c(-c4cc(S(=O)(=O)[O-])ccc4F)c4ccc([nH]4)c(-c4cc(S(=O)(=O)[O-])ccc4F)c4nc(c(-c5cc(S(=O)(=O)[O-])ccc5F)c5ccc2[nH]5)C=C4)C=C3)cc1)C1=Cc2cc(S(F)(F)(F)(F)F)cc(Br)c2O[C@@H]1C(F)(F)F
REMARK SMILES IDX 5 1 4 2 3 3 2 4 1 5 72 6 73 7 88 8 74 9 87 10 75 11 86 12
REMARK SMILES IDX 76 13 84 14 83 15 85 16 89 17 90 18 91 19 92 20 77 21 78 22
REMARK SMILES IDX 79 23 80 24 81 25 82 26 6 27 7 28 8 29 9 30 10 31 71 32
REMARK SMILES IDX 11 33 70 34 12 35 13 36 14 37 64 38 15 39 69 40 63 41 65 42
REMARK SMILES IDX 16 43 68 44 62 45 61 46 17 48 49 49 29 50 48 51 30 52 33 53
REMARK SMILES IDX 47 54 66 55 31 56 32 57 46 59 67 60 34 61 18 62 19 63 27 64
REMARK SMILES IDX 20 65 26 66 28 67 25 68 21 69 22 70 23 71 24 72 50 73 51 74
REMARK SMILES IDX 59 75 52 76 58 77 60 78 57 79 53 80 54 81 55 82 56 83 35 84
REMARK SMILES IDX 36 85 44 86 37 87 43 88 45 89 42 90 38 91 39 92 40 93 41 94
REMARK H PARENT 65 47 33 58
REMARK Flexibility Score: inf
ROOT
ATOM      1  C   UNL A   1      35.610  22.622  25.871  1.00  0.00     0.275 C 
ENDROOT
BRANCH   1   2
ATOM      2  C   UNL A   1      34.453  22.509  26.851  1.00  0.00     0.275 C 
BRANCH   2   3
ATOM      3  O   UNL A   1      33.662  23.687  26.787  1.00  0.00    -0.459 OA
BRANCH   3   4
ATOM      4  C   UNL A   1      32.288  23.600  26.442  1.00  0.00     0.338 C 
ATOM      5  O   UNL A   1      31.403  24.047  27.238  1.00  0.00    -0.246 OA
BRANCH   4   6
ATOM      6  C   UNL A   1      31.874  22.973  25.121  1.00  0.00     0.087 C 
ATOM      7  C   UNL A   1      31.475  23.763  24.088  1.00  0.00     0.027 C 
ATOM      8  C   UNL A   1      31.906  21.462  24.955  1.00  0.00     0.316 C 
ATOM      9  C   UNL A   1      31.443  25.273  24.255  1.00  0.00     0.020 A 
ATOM     10  O   UNL A   1      33.551  25.294  25.352  1.00  0.00    -0.474 OA
ATOM     11  C   UNL A   1      30.261  25.881  23.864  1.00  0.00     0.036 A 
ATOM     12  C   UNL A   1      32.423  25.971  24.819  1.00  0.00     0.142 A 
ATOM     13  C   UNL A   1      30.321  27.295  23.848  1.00  0.00     0.109 A 
ATOM     14  C   UNL A   1      32.353  27.341  24.890  1.00  0.00     0.062 A 
ATOM     15  C   UNL A   1      31.239  28.012  24.468  1.00  0.00     0.044 A 
ATOM     16  Br  UNL A   1      33.874  28.348  25.608  1.00  0.00    -0.047 Br
BRANCH   8  17
ATOM     17  C   UNL A   1      32.855  21.097  23.825  1.00  0.00     0.430 C 
ATOM     18  F   UNL A   1      32.153  20.765  22.745  1.00  0.00    -0.167 F 
ATOM     19  F   UNL A   1      33.634  22.138  23.546  1.00  0.00    -0.167 F 
ATOM     20  F   UNL A   1      33.609  20.066  24.197  1.00  0.00    -0.167 F 
ENDBRANCH   8  17
BRANCH  13  21
ATOM     21  S   UNL A   1      29.052  28.180  22.909  1.00  0.00     0.310 S 
ATOM     22  F   UNL A   1      29.150  29.436  23.873  1.00  0.00    -0.094 F 
ATOM     23  F   UNL A   1      27.954  27.605  23.881  1.00  0.00    -0.094 F 
ATOM     24  F   UNL A   1      27.973  28.959  22.106  1.00  0.00    -0.094 F 
ATOM     25  F   UNL A   1      30.181  28.857  22.034  1.00  0.00    -0.094 F 
ATOM     26  F   UNL A   1      30.169  27.485  23.786  1.00  0.00    -0.094 F 
ENDBRANCH  13  21
ENDBRANCH   4   6
ENDBRANCH   3   4
ENDBRANCH   2   3
ENDBRANCH   1   2
BRANCH   1  27
ATOM     27  O   UNL A   1      36.351  21.411  25.873  1.00  0.00    -0.458 OA
BRANCH  27  28
ATOM     28  C   UNL A   1      37.761  21.441  25.702  1.00  0.00     0.338 C 
ATOM     29  O   UNL A   1      38.344  20.507  25.067  1.00  0.00    -0.246 OA
BRANCH  28  30
ATOM     30  C   UNL A   1      38.571  22.591  26.277  1.00  0.00     0.060 A 
ATOM     31  C   UNL A   1      38.164  23.879  25.970  1.00  0.00     0.016 A 
ATOM     32  C   UNL A   1      39.717  22.363  26.909  1.00  0.00     0.016 A 
ATOM     33  C   UNL A   1      39.182  24.851  26.114  1.00  0.00     0.010 A 
ATOM     34  C   UNL A   1      40.605  23.386  27.137  1.00  0.00     0.010 A 
ATOM     35  C   UNL A   1      40.293  24.675  26.806  1.00  0.00    -0.014 A 
BRANCH  35  36
ATOM     36  C   UNL A   1      41.180  25.842  27.210  1.00  0.00     0.031 A 
ATOM     37  C   UNL A   1      42.479  25.985  26.722  1.00  0.00     0.074 A 
ATOM     38  C   UNL A   1      40.536  26.790  27.987  1.00  0.00     0.049 A 
ATOM     39  N   UNL A   1      43.296  27.028  26.876  1.00  0.00    -0.248 NA
ATOM     40  C   UNL A   1      43.176  24.966  25.924  1.00  0.00     0.031 C 
ATOM     41  C   UNL A   1      39.222  26.658  28.476  1.00  0.00     0.029 A 
ATOM     42  N   UNL A   1      41.027  28.002  28.423  1.00  0.00    -0.354 N 
ATOM     43  C   UNL A   1      44.453  26.804  26.247  1.00  0.00     0.074 A 
ATOM     44  C   UNL A   1      44.394  25.472  25.631  1.00  0.00     0.031 C 
ATOM     45  C   UNL A   1      38.929  27.767  29.206  1.00  0.00     0.029 A 
ATOM     46  C   UNL A   1      40.055  28.611  29.184  1.00  0.00     0.049 A 
ATOM     47  H   UNL A   1      41.919  28.367  28.224  1.00  0.00     0.167 HD
ATOM     48  C   UNL A   1      45.552  27.660  26.164  1.00  0.00     0.034 A 
ATOM     49  C   UNL A   1      40.128  29.834  29.832  1.00  0.00     0.034 A 
ATOM     50  C   UNL A   1      45.609  28.902  26.775  1.00  0.00     0.049 A 
ATOM     51  C   UNL A   1      41.251  30.666  29.795  1.00  0.00     0.074 A 
ATOM     52  C   UNL A   1      46.706  29.780  26.693  1.00  0.00     0.029 A 
ATOM     53  N   UNL A   1      44.645  29.502  27.557  1.00  0.00    -0.354 N 
ATOM     54  N   UNL A   1      42.391  30.458  29.135  1.00  0.00    -0.248 NA
ATOM     55  C   UNL A   1      41.351  31.948  30.505  1.00  0.00     0.031 C 
ATOM     56  C   UNL A   1      46.413  30.890  27.422  1.00  0.00     0.029 A 
ATOM     57  C   UNL A   1      45.129  30.722  27.973  1.00  0.00     0.049 A 
ATOM     58  H   UNL A   1      43.764  29.122  27.779  1.00  0.00     0.167 HD
ATOM     59  C   UNL A   1      43.224  31.484  29.325  1.00  0.00     0.074 A 
ATOM     60  C   UNL A   1      42.570  32.454  30.214  1.00  0.00     0.031 C 
ATOM     61  C   UNL A   1      44.501  31.653  28.788  1.00  0.00     0.034 A 
BRANCH  48  62
ATOM     62  C   UNL A   1      46.755  27.204  25.354  1.00  0.00     0.023 A 
ATOM     63  C   UNL A   1      47.016  27.905  24.188  1.00  0.00     0.031 A 
ATOM     64  C   UNL A   1      47.562  26.235  25.770  1.00  0.00     0.131 A 
ATOM     65  C   UNL A   1      48.007  27.311  23.372  1.00  0.00     0.055 A 
ATOM     66  C   UNL A   1      48.596  25.797  24.978  1.00  0.00     0.041 A 
ATOM     67  F   UNL A   1      47.369  25.686  26.966  1.00  0.00    -0.206 F 
ATOM     68  C   UNL A   1      48.875  26.405  23.785  1.00  0.00     0.022 A 
BRANCH  65  69
ATOM     69  S   UNL A   1      48.094  27.830  21.640  1.00  0.00     0.124 S 
ATOM     70  O   UNL A   1      48.280  26.600  20.747  1.00  0.00    -0.237 OA
ATOM     71  O   UNL A   1      46.799  28.548  21.256  1.00  0.00    -0.237 OA
ATOM     72  O   UNL A   1      49.418  28.891  21.429  1.00  0.00    -0.744 OA
ENDBRANCH  65  69
ENDBRANCH  48  62
BRANCH  49  73
ATOM     73  C   UNL A   1      38.919  30.298  30.627  1.00  0.00     0.023 A 
ATOM     74  C   UNL A   1      37.920  31.060  30.044  1.00  0.00     0.031 A 
ATOM     75  C   UNL A   1      38.897  30.008  31.923  1.00  0.00     0.131 A 
ATOM     76  C   UNL A   1      37.085  31.720  30.976  1.00  0.00     0.055 A 
ATOM     77  C   UNL A   1      37.966  30.586  32.753  1.00  0.00     0.041 A 
ATOM     78  F   UNL A   1      39.784  29.152  32.423  1.00  0.00    -0.206 F 
ATOM     79  C   UNL A   1      36.986  31.397  32.252  1.00  0.00     0.022 A 
BRANCH  76  80
ATOM     80  S   UNL A   1      36.083  33.102  30.377  1.00  0.00     0.124 S 
ATOM     81  O   UNL A   1      36.819  33.812  29.239  1.00  0.00    -0.237 OA
ATOM     82  O   UNL A   1      34.741  32.574  29.863  1.00  0.00    -0.237 OA
ATOM     83  O   UNL A   1      35.809  34.205  31.655  1.00  0.00    -0.744 OA
ENDBRANCH  76  80
ENDBRANCH  49  73
BRANCH  61  84
ATOM     84  C   UNL A   1      45.251  32.934  29.117  1.00  0.00     0.023 A 
ATOM     85  C   UNL A   1      45.053  34.006  28.261  1.00  0.00     0.031 A 
ATOM     86  C   UNL A   1      46.141  32.992  30.100  1.00  0.00     0.131 A 
ATOM     87  C   UNL A   1      46.055  35.000  28.347  1.00  0.00     0.055 A 
ATOM     88  C   UNL A   1      47.000  34.060  30.203  1.00  0.00     0.041 A 
ATOM     89  F   UNL A   1      46.201  32.009  30.994  1.00  0.00    -0.206 F 
ATOM     90  C   UNL A   1      46.900  35.127  29.354  1.00  0.00     0.022 A 
BRANCH  87  91
ATOM     91  S   UNL A   1      46.191  36.179  26.980  1.00  0.00     0.124 S 
ATOM     92  O   UNL A   1      44.898  36.991  26.877  1.00  0.00    -0.237 OA
ATOM     93  O   UNL A   1      47.367  37.124  27.239  1.00  0.00    -0.237 OA
ATOM     94  O   UNL A   1      46.450  35.331  25.519  1.00  0.00    -0.744 OA
ENDBRANCH  87  91
ENDBRANCH  61  84
ENDBRANCH  35  36
ENDBRANCH  28  30
ENDBRANCH  27  28
ENDBRANCH   1  27
TORSDOF 16
ENDMDL
