MODEL 1
REMARK VINA RESULT:     -10.9      0.000      0.000
REMARK SMILES O=C(OCCOC(=O)c1cc(-c2cccc(Cl)c2)oc1C(F)(F)F)c1ccc(-c2c3nc(c(-c4cc(S(=O)(=O)[O-])ccc4F)c4ccc([nH]4)c(-c4cc(S(=O)(=O)[O-])ccc4F)c4nc(c(-c5cc(S(=O)(=O)[O-])ccc5F)c5ccc2[nH]5)C=C4)C=C3)cc1
REMARK SMILES IDX 4 1 3 2 2 3 1 4 25 5 26 6 87 7 27 8 86 9 28 10 29 11 30 12
REMARK SMILES IDX 80 13 31 14 85 15 79 16 81 17 32 18 84 19 78 20 77 21 33 23
REMARK SMILES IDX 65 24 45 25 64 26 46 27 49 28 63 29 82 30 47 31 48 32 62 34
REMARK SMILES IDX 83 35 50 36 34 37 35 38 43 39 36 40 42 41 44 42 41 43 37 44
REMARK SMILES IDX 38 45 39 46 40 47 66 48 67 49 75 50 68 51 74 52 76 53 73 54
REMARK SMILES IDX 69 55 70 56 71 57 72 58 51 59 52 60 60 61 53 62 59 63 61 64
REMARK SMILES IDX 58 65 54 66 55 67 56 68 57 69 5 70 6 71 7 72 8 73 9 74 10 75
REMARK SMILES IDX 20 76 11 77 19 78 21 79 22 80 23 81 24 82 12 83 13 84 18 85
REMARK SMILES IDX 14 86 16 87 15 88 17 89
REMARK H PARENT 81 22 49 33
REMARK Flexibility Score: inf
ROOT
ATOM      1  C   UNL A   1      33.494  33.840  28.147  1.00  0.00     0.275 C 
ENDROOT
BRANCH   1   2
ATOM      2  O   UNL A   1      34.497  32.905  27.713  1.00  0.00    -0.458 OA
BRANCH   2   3
ATOM      3  C   UNL A   1      34.525  31.553  27.759  1.00  0.00     0.338 C 
ATOM      4  O   UNL A   1      33.488  30.932  27.537  1.00  0.00    -0.246 OA
BRANCH   3   5
ATOM      5  C   UNL A   1      35.722  30.775  28.208  1.00  0.00     0.060 A 
ATOM      6  C   UNL A   1      35.710  29.724  29.123  1.00  0.00     0.016 A 
ATOM      7  C   UNL A   1      36.960  31.157  27.662  1.00  0.00     0.016 A 
ATOM      8  C   UNL A   1      36.876  29.023  29.431  1.00  0.00     0.010 A 
ATOM      9  C   UNL A   1      38.132  30.444  27.948  1.00  0.00     0.010 A 
ATOM     10  C   UNL A   1      38.096  29.378  28.855  1.00  0.00    -0.014 A 
BRANCH  10  11
ATOM     11  C   UNL A   1      39.334  28.776  29.409  1.00  0.00     0.031 A 
ATOM     12  C   UNL A   1      39.834  29.307  30.724  1.00  0.00     0.074 A 
ATOM     13  C   UNL A   1      39.902  27.700  28.829  1.00  0.00     0.049 A 
ATOM     14  N   UNL A   1      40.821  28.884  31.466  1.00  0.00    -0.248 NA
ATOM     15  C   UNL A   1      39.103  30.452  31.293  1.00  0.00     0.031 C 
ATOM     16  C   UNL A   1      39.416  27.043  27.615  1.00  0.00     0.029 A 
ATOM     17  N   UNL A   1      40.997  26.954  29.181  1.00  0.00    -0.354 N 
ATOM     18  C   UNL A   1      40.803  29.686  32.602  1.00  0.00     0.074 A 
ATOM     19  C   UNL A   1      39.774  30.679  32.409  1.00  0.00     0.031 C 
ATOM     20  C   UNL A   1      40.222  26.013  27.307  1.00  0.00     0.029 A 
ATOM     21  C   UNL A   1      41.283  25.930  28.302  1.00  0.00     0.049 A 
ATOM     22  H   UNL A   1      41.532  27.132  29.988  1.00  0.00     0.167 HD
ATOM     23  C   UNL A   1      41.548  29.570  33.727  1.00  0.00     0.034 A 
ATOM     24  C   UNL A   1      42.292  25.033  28.306  1.00  0.00     0.034 A 
ATOM     25  C   UNL A   1      42.586  28.584  33.876  1.00  0.00     0.049 A 
ATOM     26  C   UNL A   1      43.252  25.078  29.467  1.00  0.00     0.074 A 
ATOM     27  C   UNL A   1      43.423  28.365  34.952  1.00  0.00     0.029 A 
ATOM     28  N   UNL A   1      42.942  27.663  32.895  1.00  0.00    -0.354 N 
ATOM     29  N   UNL A   1      43.212  25.832  30.543  1.00  0.00    -0.248 NA
ATOM     30  C   UNL A   1      44.377  24.138  29.427  1.00  0.00     0.031 C 
ATOM     31  C   UNL A   1      44.337  27.369  34.592  1.00  0.00     0.029 A 
ATOM     32  C   UNL A   1      44.015  26.901  33.325  1.00  0.00     0.049 A 
ATOM     33  H   UNL A   1      42.497  27.568  32.023  1.00  0.00     0.167 HD
ATOM     34  C   UNL A   1      44.269  25.409  31.342  1.00  0.00     0.074 A 
ATOM     35  C   UNL A   1      44.932  24.344  30.611  1.00  0.00     0.031 C 
ATOM     36  C   UNL A   1      44.643  25.838  32.575  1.00  0.00     0.034 A 
BRANCH  23  37
ATOM     37  C   UNL A   1      41.282  30.571  34.827  1.00  0.00     0.023 A 
ATOM     38  C   UNL A   1      40.068  30.580  35.540  1.00  0.00     0.031 A 
ATOM     39  C   UNL A   1      42.208  31.592  35.095  1.00  0.00     0.131 A 
ATOM     40  C   UNL A   1      39.771  31.643  36.407  1.00  0.00     0.055 A 
ATOM     41  C   UNL A   1      41.944  32.599  36.027  1.00  0.00     0.041 A 
ATOM     42  F   UNL A   1      43.371  31.654  34.427  1.00  0.00    -0.206 F 
ATOM     43  C   UNL A   1      40.712  32.640  36.673  1.00  0.00     0.022 A 
BRANCH  40  44
ATOM     44  S   UNL A   1      38.074  31.806  37.031  1.00  0.00     0.124 S 
ATOM     45  O   UNL A   1      38.232  32.843  38.048  1.00  0.00    -0.237 OA
ATOM     46  O   UNL A   1      37.332  32.192  35.837  1.00  0.00    -0.237 OA
ATOM     47  O   UNL A   1      37.771  30.474  37.552  1.00  0.00    -0.744 OA
ENDBRANCH  40  44
ENDBRANCH  23  37
BRANCH  24  48
ATOM     48  C   UNL A   1      42.489  24.065  27.181  1.00  0.00     0.023 A 
ATOM     49  C   UNL A   1      41.963  22.763  27.192  1.00  0.00     0.031 A 
ATOM     50  C   UNL A   1      43.312  24.414  26.097  1.00  0.00     0.131 A 
ATOM     51  C   UNL A   1      42.299  21.862  26.162  1.00  0.00     0.055 A 
ATOM     52  C   UNL A   1      43.606  23.537  25.053  1.00  0.00     0.041 A 
ATOM     53  F   UNL A   1      43.860  25.630  26.050  1.00  0.00    -0.206 F 
ATOM     54  C   UNL A   1      43.108  22.244  25.089  1.00  0.00     0.022 A 
BRANCH  51  55
ATOM     55  S   UNL A   1      41.735  20.141  26.282  1.00  0.00     0.124 S 
ATOM     56  O   UNL A   1      42.149  19.785  27.633  1.00  0.00    -0.237 OA
ATOM     57  O   UNL A   1      40.299  20.281  26.062  1.00  0.00    -0.237 OA
ATOM     58  O   UNL A   1      42.463  19.470  25.207  1.00  0.00    -0.744 OA
ENDBRANCH  51  55
ENDBRANCH  24  48
BRANCH  36  59
ATOM     59  C   UNL A   1      45.759  25.075  33.244  1.00  0.00     0.023 A 
ATOM     60  C   UNL A   1      45.524  23.910  33.990  1.00  0.00     0.031 A 
ATOM     61  C   UNL A   1      47.081  25.549  33.146  1.00  0.00     0.131 A 
ATOM     62  C   UNL A   1      46.585  23.298  34.672  1.00  0.00     0.055 A 
ATOM     63  C   UNL A   1      48.143  24.889  33.760  1.00  0.00     0.041 A 
ATOM     64  F   UNL A   1      47.359  26.663  32.450  1.00  0.00    -0.206 F 
ATOM     65  C   UNL A   1      47.896  23.765  34.543  1.00  0.00     0.022 A 
BRANCH  62  66
ATOM     66  S   UNL A   1      46.207  21.961  35.837  1.00  0.00     0.124 S 
ATOM     67  O   UNL A   1      45.302  22.622  36.771  1.00  0.00    -0.237 OA
ATOM     68  O   UNL A   1      45.604  20.954  34.970  1.00  0.00    -0.237 OA
ATOM     69  O   UNL A   1      47.515  21.605  36.385  1.00  0.00    -0.744 OA
ENDBRANCH  62  66
ENDBRANCH  36  59
ENDBRANCH  10  11
ENDBRANCH   3   5
ENDBRANCH   2   3
ENDBRANCH   1   2
BRANCH   1  70
ATOM     70  C   UNL A   1      33.964  34.849  29.199  1.00  0.00     0.275 C 
BRANCH  70  71
ATOM     71  O   UNL A   1      33.766  34.433  30.559  1.00  0.00    -0.458 OA
BRANCH  71  72
ATOM     72  C   UNL A   1      34.537  33.392  30.992  1.00  0.00     0.342 C 
ATOM     73  O   UNL A   1      34.136  32.246  31.144  1.00  0.00    -0.246 OA
BRANCH  72  74
ATOM     74  C   UNL A   1      35.909  33.788  31.240  1.00  0.00     0.111 A 
ATOM     75  C   UNL A   1      37.026  33.733  30.351  1.00  0.00     0.067 A 
ATOM     76  C   UNL A   1      36.405  34.303  32.431  1.00  0.00     0.223 A 
ATOM     77  C   UNL A   1      38.123  34.168  31.060  1.00  0.00     0.135 A 
ATOM     78  O   UNL A   1      37.751  34.510  32.320  1.00  0.00    -0.451 OA
BRANCH  76  79
ATOM     79  C   UNL A   1      35.828  34.606  33.765  1.00  0.00     0.450 C 
ATOM     80  F   UNL A   1      35.037  35.714  33.728  1.00  0.00    -0.163 F 
ATOM     81  F   UNL A   1      35.045  33.592  34.216  1.00  0.00    -0.163 F 
ATOM     82  F   UNL A   1      36.761  34.838  34.716  1.00  0.00    -0.163 F 
ENDBRANCH  76  79
BRANCH  77  83
ATOM     83  C   UNL A   1      39.526  34.382  30.766  1.00  0.00     0.019 A 
ATOM     84  C   UNL A   1      39.923  34.763  29.479  1.00  0.00     0.012 A 
ATOM     85  C   UNL A   1      40.491  34.246  31.773  1.00  0.00     0.032 A 
ATOM     86  C   UNL A   1      41.263  35.046  29.211  1.00  0.00     0.002 A 
ATOM     87  C   UNL A   1      41.831  34.500  31.492  1.00  0.00     0.041 A 
ATOM     88  C   UNL A   1      42.216  34.927  30.223  1.00  0.00     0.020 A 
ATOM     89  Cl  UNL A   1      43.020  34.281  32.715  1.00  0.00    -0.084 Cl
ENDBRANCH  77  83
ENDBRANCH  72  74
ENDBRANCH  71  72
ENDBRANCH  70  71
ENDBRANCH   1  70
TORSDOF 16
ENDMDL
MODEL 2
REMARK VINA RESULT:     -10.8      4.638     12.467
REMARK SMILES O=C(OCCOC(=O)c1cc(-c2cccc(Cl)c2)oc1C(F)(F)F)c1ccc(-c2c3nc(c(-c4cc(S(=O)(=O)[O-])ccc4F)c4ccc([nH]4)c(-c4cc(S(=O)(=O)[O-])ccc4F)c4nc(c(-c5cc(S(=O)(=O)[O-])ccc5F)c5ccc2[nH]5)C=C4)C=C3)cc1
REMARK SMILES IDX 4 1 3 2 2 3 1 4 25 5 26 6 87 7 27 8 86 9 28 10 29 11 30 12
REMARK SMILES IDX 80 13 31 14 85 15 79 16 81 17 32 18 84 19 78 20 77 21 33 23
REMARK SMILES IDX 65 24 45 25 64 26 46 27 49 28 63 29 82 30 47 31 48 32 62 34
REMARK SMILES IDX 83 35 50 36 34 37 35 38 43 39 36 40 42 41 44 42 41 43 37 44
REMARK SMILES IDX 38 45 39 46 40 47 66 48 67 49 75 50 68 51 74 52 76 53 73 54
REMARK SMILES IDX 69 55 70 56 71 57 72 58 51 59 52 60 60 61 53 62 59 63 61 64
REMARK SMILES IDX 58 65 54 66 55 67 56 68 57 69 5 70 6 71 7 72 8 73 9 74 10 75
REMARK SMILES IDX 20 76 11 77 19 78 21 79 22 80 23 81 24 82 12 83 13 84 18 85
REMARK SMILES IDX 14 86 16 87 15 88 17 89
REMARK H PARENT 81 22 49 33
REMARK Flexibility Score: inf
ROOT
ATOM      1  C   UNL A   1      40.813  20.470  26.467  1.00  0.00     0.275 C 
ENDROOT
BRANCH   1   2
ATOM      2  O   UNL A   1      39.986  21.464  27.098  1.00  0.00    -0.458 OA
BRANCH   2   3
ATOM      3  C   UNL A   1      39.306  22.511  26.575  1.00  0.00     0.338 C 
ATOM      4  O   UNL A   1      38.499  22.300  25.673  1.00  0.00    -0.246 OA
BRANCH   3   5
ATOM      5  C   UNL A   1      39.590  23.933  26.941  1.00  0.00     0.060 A 
ATOM      6  C   UNL A   1      40.117  24.901  26.087  1.00  0.00     0.016 A 
ATOM      7  C   UNL A   1      39.310  24.310  28.267  1.00  0.00     0.016 A 
ATOM      8  C   UNL A   1      40.290  26.219  26.510  1.00  0.00     0.010 A 
ATOM      9  C   UNL A   1      39.458  25.636  28.693  1.00  0.00     0.010 A 
ATOM     10  C   UNL A   1      39.970  26.598  27.814  1.00  0.00    -0.014 A 
BRANCH  10  11
ATOM     11  C   UNL A   1      40.413  27.934  28.284  1.00  0.00     0.031 A 
ATOM     12  C   UNL A   1      41.871  28.272  28.136  1.00  0.00     0.074 A 
ATOM     13  C   UNL A   1      39.520  28.859  28.689  1.00  0.00     0.049 A 
ATOM     14  N   UNL A   1      42.487  29.400  28.367  1.00  0.00    -0.248 NA
ATOM     15  C   UNL A   1      42.748  27.201  27.631  1.00  0.00     0.031 C 
ATOM     16  C   UNL A   1      38.072  28.658  28.753  1.00  0.00     0.029 A 
ATOM     17  N   UNL A   1      39.684  30.153  29.110  1.00  0.00    -0.354 N 
ATOM     18  C   UNL A   1      43.811  29.183  28.000  1.00  0.00     0.074 A 
ATOM     19  C   UNL A   1      43.929  27.793  27.625  1.00  0.00     0.031 C 
ATOM     20  C   UNL A   1      37.483  29.775  29.213  1.00  0.00     0.029 A 
ATOM     21  C   UNL A   1      38.509  30.776  29.475  1.00  0.00     0.049 A 
ATOM     22  H   UNL A   1      40.561  30.599  29.148  1.00  0.00     0.167 HD
ATOM     23  C   UNL A   1      44.825  30.078  27.936  1.00  0.00     0.034 A 
ATOM     24  C   UNL A   1      38.295  32.015  29.967  1.00  0.00     0.034 A 
ATOM     25  C   UNL A   1      44.679  31.450  28.343  1.00  0.00     0.049 A 
ATOM     26  C   UNL A   1      39.491  32.922  30.102  1.00  0.00     0.074 A 
ATOM     27  C   UNL A   1      45.624  32.458  28.343  1.00  0.00     0.029 A 
ATOM     28  N   UNL A   1      43.506  32.000  28.851  1.00  0.00    -0.354 N 
ATOM     29  N   UNL A   1      40.736  32.707  29.736  1.00  0.00    -0.248 NA
ATOM     30  C   UNL A   1      39.253  34.241  30.694  1.00  0.00     0.031 C 
ATOM     31  C   UNL A   1      45.046  33.591  28.926  1.00  0.00     0.029 A 
ATOM     32  C   UNL A   1      43.714  33.321  29.206  1.00  0.00     0.049 A 
ATOM     33  H   UNL A   1      42.652  31.519  28.944  1.00  0.00     0.167 HD
ATOM     34  C   UNL A   1      41.415  33.893  29.990  1.00  0.00     0.074 A 
ATOM     35  C   UNL A   1      40.440  34.809  30.554  1.00  0.00     0.031 C 
ATOM     36  C   UNL A   1      42.715  34.210  29.755  1.00  0.00     0.034 A 
BRANCH  23  37
ATOM     37  C   UNL A   1      46.162  29.560  27.460  1.00  0.00     0.023 A 
ATOM     38  C   UNL A   1      46.370  29.167  26.124  1.00  0.00     0.031 A 
ATOM     39  C   UNL A   1      47.209  29.358  28.373  1.00  0.00     0.131 A 
ATOM     40  C   UNL A   1      47.552  28.502  25.764  1.00  0.00     0.055 A 
ATOM     41  C   UNL A   1      48.420  28.777  27.988  1.00  0.00     0.041 A 
ATOM     42  F   UNL A   1      47.062  29.685  29.667  1.00  0.00    -0.206 F 
ATOM     43  C   UNL A   1      48.589  28.326  26.682  1.00  0.00     0.022 A 
BRANCH  40  44
ATOM     44  S   UNL A   1      47.636  27.705  24.135  1.00  0.00     0.124 S 
ATOM     45  O   UNL A   1      47.093  26.380  24.426  1.00  0.00    -0.237 OA
ATOM     46  O   UNL A   1      46.798  28.570  23.314  1.00  0.00    -0.237 OA
ATOM     47  O   UNL A   1      49.062  27.728  23.814  1.00  0.00    -0.744 OA
ENDBRANCH  40  44
ENDBRANCH  23  37
BRANCH  24  48
ATOM     48  C   UNL A   1      36.937  32.462  30.413  1.00  0.00     0.023 A 
ATOM     49  C   UNL A   1      36.010  33.068  29.551  1.00  0.00     0.031 A 
ATOM     50  C   UNL A   1      36.583  32.367  31.769  1.00  0.00     0.131 A 
ATOM     51  C   UNL A   1      34.804  33.583  30.067  1.00  0.00     0.055 A 
ATOM     52  C   UNL A   1      35.369  32.834  32.273  1.00  0.00     0.041 A 
ATOM     53  F   UNL A   1      37.438  31.823  32.638  1.00  0.00    -0.206 F 
ATOM     54  C   UNL A   1      34.474  33.461  31.419  1.00  0.00     0.022 A 
BRANCH  51  55
ATOM     55  S   UNL A   1      33.696  34.503  28.961  1.00  0.00     0.124 S 
ATOM     56  O   UNL A   1      32.676  34.976  29.887  1.00  0.00    -0.237 OA
ATOM     57  O   UNL A   1      34.594  35.516  28.415  1.00  0.00    -0.237 OA
ATOM     58  O   UNL A   1      33.253  33.489  28.006  1.00  0.00    -0.744 OA
ENDBRANCH  51  55
ENDBRANCH  24  48
BRANCH  36  59
ATOM     59  C   UNL A   1      43.118  35.639  30.016  1.00  0.00     0.023 A 
ATOM     60  C   UNL A   1      42.945  36.650  29.058  1.00  0.00     0.031 A 
ATOM     61  C   UNL A   1      43.711  35.981  31.246  1.00  0.00     0.131 A 
ATOM     62  C   UNL A   1      43.430  37.940  29.316  1.00  0.00     0.055 A 
ATOM     63  C   UNL A   1      44.115  37.284  31.527  1.00  0.00     0.041 A 
ATOM     64  F   UNL A   1      43.905  35.051  32.194  1.00  0.00    -0.206 F 
ATOM     65  C   UNL A   1      43.992  38.270  30.552  1.00  0.00     0.022 A 
BRANCH  62  66
ATOM     66  S   UNL A   1      43.434  39.148  27.964  1.00  0.00     0.124 S 
ATOM     67  O   UNL A   1      44.445  40.099  28.413  1.00  0.00    -0.237 OA
ATOM     68  O   UNL A   1      43.798  38.328  26.813  1.00  0.00    -0.237 OA
ATOM     69  O   UNL A   1      42.063  39.657  27.956  1.00  0.00    -0.744 OA
ENDBRANCH  62  66
ENDBRANCH  36  59
ENDBRANCH  10  11
ENDBRANCH   3   5
ENDBRANCH   2   3
ENDBRANCH   1   2
BRANCH   1  70
ATOM     70  C   UNL A   1      42.209  20.312  27.074  1.00  0.00     0.275 C 
BRANCH  70  71
ATOM     71  O   UNL A   1      43.288  20.669  26.196  1.00  0.00    -0.458 OA
BRANCH  71  72
ATOM     72  C   UNL A   1      43.304  21.960  25.751  1.00  0.00     0.342 C 
ATOM     73  O   UNL A   1      42.460  22.452  25.014  1.00  0.00    -0.246 OA
BRANCH  72  74
ATOM     74  C   UNL A   1      44.435  22.706  26.266  1.00  0.00     0.111 A 
ATOM     75  C   UNL A   1      44.565  23.372  27.524  1.00  0.00     0.067 A 
ATOM     76  C   UNL A   1      45.636  22.924  25.603  1.00  0.00     0.223 A 
ATOM     77  C   UNL A   1      45.799  23.981  27.528  1.00  0.00     0.135 A 
ATOM     78  O   UNL A   1      46.448  23.716  26.365  1.00  0.00    -0.451 OA
BRANCH  76  79
ATOM     79  C   UNL A   1      46.184  22.553  24.273  1.00  0.00     0.450 C 
ATOM     80  F   UNL A   1      45.223  22.588  23.309  1.00  0.00    -0.163 F 
ATOM     81  F   UNL A   1      47.158  23.411  23.874  1.00  0.00    -0.163 F 
ATOM     82  F   UNL A   1      46.714  21.309  24.237  1.00  0.00    -0.163 F 
ENDBRANCH  76  79
BRANCH  77  83
ATOM     83  C   UNL A   1      46.557  24.775  28.474  1.00  0.00     0.019 A 
ATOM     84  C   UNL A   1      45.905  25.413  29.536  1.00  0.00     0.012 A 
ATOM     85  C   UNL A   1      47.950  24.880  28.358  1.00  0.00     0.032 A 
ATOM     86  C   UNL A   1      46.640  26.113  30.493  1.00  0.00     0.002 A 
ATOM     87  C   UNL A   1      48.675  25.606  29.300  1.00  0.00     0.041 A 
ATOM     88  C   UNL A   1      48.028  26.199  30.382  1.00  0.00     0.020 A 
ATOM     89  Cl  UNL A   1      50.377  25.777  29.125  1.00  0.00    -0.084 Cl
ENDBRANCH  77  83
ENDBRANCH  72  74
ENDBRANCH  71  72
ENDBRANCH  70  71
ENDBRANCH   1  70
TORSDOF 16
ENDMDL
MODEL 3
REMARK VINA RESULT:     -10.4      4.007     11.175
REMARK SMILES O=C(OCCOC(=O)c1cc(-c2cccc(Cl)c2)oc1C(F)(F)F)c1ccc(-c2c3nc(c(-c4cc(S(=O)(=O)[O-])ccc4F)c4ccc([nH]4)c(-c4cc(S(=O)(=O)[O-])ccc4F)c4nc(c(-c5cc(S(=O)(=O)[O-])ccc5F)c5ccc2[nH]5)C=C4)C=C3)cc1
REMARK SMILES IDX 4 1 3 2 2 3 1 4 25 5 26 6 87 7 27 8 86 9 28 10 29 11 30 12
REMARK SMILES IDX 80 13 31 14 85 15 79 16 81 17 32 18 84 19 78 20 77 21 33 23
REMARK SMILES IDX 65 24 45 25 64 26 46 27 49 28 63 29 82 30 47 31 48 32 62 34
REMARK SMILES IDX 83 35 50 36 34 37 35 38 43 39 36 40 42 41 44 42 41 43 37 44
REMARK SMILES IDX 38 45 39 46 40 47 66 48 67 49 75 50 68 51 74 52 76 53 73 54
REMARK SMILES IDX 69 55 70 56 71 57 72 58 51 59 52 60 60 61 53 62 59 63 61 64
REMARK SMILES IDX 58 65 54 66 55 67 56 68 57 69 5 70 6 71 7 72 8 73 9 74 10 75
REMARK SMILES IDX 20 76 11 77 19 78 21 79 22 80 23 81 24 82 12 83 13 84 18 85
REMARK SMILES IDX 14 86 16 87 15 88 17 89
REMARK H PARENT 81 22 49 33
REMARK Flexibility Score: inf
ROOT
ATOM      1  C   UNL A   1      43.775  22.227  25.172  1.00  0.00     0.275 C 
ENDROOT
BRANCH   1   2
ATOM      2  O   UNL A   1      43.473  23.582  24.792  1.00  0.00    -0.458 OA
BRANCH   2   3
ATOM      3  C   UNL A   1      44.052  24.751  25.151  1.00  0.00     0.338 C 
ATOM      4  O   UNL A   1      45.157  25.029  24.692  1.00  0.00    -0.246 OA
BRANCH   3   5
ATOM      5  C   UNL A   1      43.479  25.661  26.192  1.00  0.00     0.060 A 
ATOM      6  C   UNL A   1      43.578  27.051  26.198  1.00  0.00     0.016 A 
ATOM      7  C   UNL A   1      42.798  25.047  27.258  1.00  0.00     0.016 A 
ATOM      8  C   UNL A   1      42.957  27.814  27.186  1.00  0.00     0.010 A 
ATOM      9  C   UNL A   1      42.150  25.806  28.241  1.00  0.00     0.010 A 
ATOM     10  C   UNL A   1      42.245  27.202  28.218  1.00  0.00    -0.014 A 
BRANCH  10  11
ATOM     11  C   UNL A   1      41.830  28.037  29.373  1.00  0.00     0.031 A 
ATOM     12  C   UNL A   1      40.551  28.818  29.240  1.00  0.00     0.074 A 
ATOM     13  C   UNL A   1      42.496  27.982  30.544  1.00  0.00     0.049 A 
ATOM     14  N   UNL A   1      39.920  29.530  30.133  1.00  0.00    -0.248 NA
ATOM     15  C   UNL A   1      39.878  28.761  27.931  1.00  0.00     0.031 C 
ATOM     16  C   UNL A   1      43.679  27.161  30.801  1.00  0.00     0.029 A 
ATOM     17  N   UNL A   1      42.273  28.609  31.742  1.00  0.00    -0.354 N 
ATOM     18  C   UNL A   1      38.761  29.974  29.504  1.00  0.00     0.074 A 
ATOM     19  C   UNL A   1      38.824  29.533  28.131  1.00  0.00     0.031 C 
ATOM     20  C   UNL A   1      44.096  27.355  32.064  1.00  0.00     0.029 A 
ATOM     21  C   UNL A   1      43.209  28.312  32.712  1.00  0.00     0.049 A 
ATOM     22  H   UNL A   1      41.514  29.217  31.898  1.00  0.00     0.167 HD
ATOM     23  C   UNL A   1      37.716  30.647  30.041  1.00  0.00     0.034 A 
ATOM     24  C   UNL A   1      43.329  28.768  33.977  1.00  0.00     0.034 A 
ATOM     25  C   UNL A   1      37.698  31.096  31.409  1.00  0.00     0.049 A 
ATOM     26  C   UNL A   1      42.263  29.709  34.477  1.00  0.00     0.074 A 
ATOM     27  C   UNL A   1      36.714  31.797  32.076  1.00  0.00     0.029 A 
ATOM     28  N   UNL A   1      38.738  30.903  32.313  1.00  0.00    -0.354 N 
ATOM     29  N   UNL A   1      41.164  30.107  33.875  1.00  0.00    -0.248 NA
ATOM     30  C   UNL A   1      42.440  30.243  35.831  1.00  0.00     0.031 C 
ATOM     31  C   UNL A   1      37.192  32.099  33.357  1.00  0.00     0.029 A 
ATOM     32  C   UNL A   1      38.437  31.507  33.521  1.00  0.00     0.049 A 
ATOM     33  H   UNL A   1      39.567  30.408  32.123  1.00  0.00     0.167 HD
ATOM     34  C   UNL A   1      40.483  30.884  34.805  1.00  0.00     0.074 A 
ATOM     35  C   UNL A   1      41.308  30.907  36.000  1.00  0.00     0.031 C 
ATOM     36  C   UNL A   1      39.277  31.500  34.697  1.00  0.00     0.034 A 
BRANCH  23  37
ATOM     37  C   UNL A   1      36.564  30.966  29.117  1.00  0.00     0.023 A 
ATOM     38  C   UNL A   1      36.127  32.288  28.910  1.00  0.00     0.031 A 
ATOM     39  C   UNL A   1      35.829  29.930  28.519  1.00  0.00     0.131 A 
ATOM     40  C   UNL A   1      34.934  32.531  28.213  1.00  0.00     0.055 A 
ATOM     41  C   UNL A   1      34.691  30.185  27.749  1.00  0.00     0.041 A 
ATOM     42  F   UNL A   1      36.179  28.647  28.703  1.00  0.00    -0.206 F 
ATOM     43  C   UNL A   1      34.225  31.490  27.611  1.00  0.00     0.022 A 
BRANCH  40  44
ATOM     44  S   UNL A   1      34.222  34.201  28.269  1.00  0.00     0.124 S 
ATOM     45  O   UNL A   1      32.803  33.924  28.056  1.00  0.00    -0.237 OA
ATOM     46  O   UNL A   1      34.589  34.658  29.603  1.00  0.00    -0.237 OA
ATOM     47  O   UNL A   1      34.885  34.894  27.166  1.00  0.00    -0.744 OA
ENDBRANCH  40  44
ENDBRANCH  23  37
BRANCH  24  48
ATOM     48  C   UNL A   1      44.499  28.403  34.837  1.00  0.00     0.023 A 
ATOM     49  C   UNL A   1      44.409  27.495  35.904  1.00  0.00     0.031 A 
ATOM     50  C   UNL A   1      45.730  29.053  34.652  1.00  0.00     0.131 A 
ATOM     51  C   UNL A   1      45.516  27.299  36.754  1.00  0.00     0.055 A 
ATOM     52  C   UNL A   1      46.841  28.824  35.464  1.00  0.00     0.041 A 
ATOM     53  F   UNL A   1      45.864  29.946  33.669  1.00  0.00    -0.206 F 
ATOM     54  C   UNL A   1      46.733  27.949  36.535  1.00  0.00     0.022 A 
BRANCH  51  55
ATOM     55  S   UNL A   1      45.324  26.241  38.217  1.00  0.00     0.124 S 
ATOM     56  O   UNL A   1      43.915  26.431  38.539  1.00  0.00    -0.237 OA
ATOM     57  O   UNL A   1      45.695  24.933  37.690  1.00  0.00    -0.237 OA
ATOM     58  O   UNL A   1      46.267  26.814  39.175  1.00  0.00    -0.744 OA
ENDBRANCH  51  55
ENDBRANCH  24  48
BRANCH  36  59
ATOM     59  C   UNL A   1      38.742  32.158  35.944  1.00  0.00     0.023 A 
ATOM     60  C   UNL A   1      38.140  31.423  36.976  1.00  0.00     0.031 A 
ATOM     61  C   UNL A   1      38.821  33.558  36.079  1.00  0.00     0.131 A 
ATOM     62  C   UNL A   1      37.570  32.097  38.065  1.00  0.00     0.055 A 
ATOM     63  C   UNL A   1      38.326  34.213  37.204  1.00  0.00     0.041 A 
ATOM     64  F   UNL A   1      39.382  34.308  35.117  1.00  0.00    -0.206 F 
ATOM     65  C   UNL A   1      37.680  33.485  38.198  1.00  0.00     0.022 A 
BRANCH  62  66
ATOM     66  S   UNL A   1      36.569  31.148  39.242  1.00  0.00     0.124 S 
ATOM     67  O   UNL A   1      36.362  29.897  38.521  1.00  0.00    -0.237 OA
ATOM     68  O   UNL A   1      37.444  31.075  40.407  1.00  0.00    -0.237 OA
ATOM     69  O   UNL A   1      35.373  31.971  39.415  1.00  0.00    -0.744 OA
ENDBRANCH  62  66
ENDBRANCH  36  59
ENDBRANCH  10  11
ENDBRANCH   3   5
ENDBRANCH   2   3
ENDBRANCH   1   2
BRANCH   1  70
ATOM     70  C   UNL A   1      42.696  21.537  26.011  1.00  0.00     0.275 C 
BRANCH  70  71
ATOM     71  O   UNL A   1      41.348  21.847  25.626  1.00  0.00    -0.458 OA
BRANCH  71  72
ATOM     72  C   UNL A   1      40.359  21.315  26.405  1.00  0.00     0.342 C 
ATOM     73  O   UNL A   1      40.547  20.549  27.341  1.00  0.00    -0.246 OA
BRANCH  72  74
ATOM     74  C   UNL A   1      39.041  21.775  26.011  1.00  0.00     0.111 A 
ATOM     75  C   UNL A   1      38.005  21.047  25.350  1.00  0.00     0.067 A 
ATOM     76  C   UNL A   1      38.534  23.053  26.206  1.00  0.00     0.223 A 
ATOM     77  C   UNL A   1      36.966  21.926  25.146  1.00  0.00     0.135 A 
ATOM     78  O   UNL A   1      37.285  23.142  25.659  1.00  0.00    -0.451 OA
BRANCH  76  79
ATOM     79  C   UNL A   1      39.055  24.312  26.797  1.00  0.00     0.450 C 
ATOM     80  F   UNL A   1      39.666  24.086  27.993  1.00  0.00    -0.163 F 
ATOM     81  F   UNL A   1      39.983  24.896  25.996  1.00  0.00    -0.163 F 
ATOM     82  F   UNL A   1      38.095  25.236  27.030  1.00  0.00    -0.163 F 
ENDBRANCH  76  79
BRANCH  77  83
ATOM     83  C   UNL A   1      35.639  21.843  24.571  1.00  0.00     0.019 A 
ATOM     84  C   UNL A   1      34.795  20.776  24.904  1.00  0.00     0.012 A 
ATOM     85  C   UNL A   1      35.174  22.845  23.709  1.00  0.00     0.032 A 
ATOM     86  C   UNL A   1      33.490  20.732  24.415  1.00  0.00     0.002 A 
ATOM     87  C   UNL A   1      33.879  22.780  23.199  1.00  0.00     0.041 A 
ATOM     88  C   UNL A   1      33.027  21.743  23.572  1.00  0.00     0.020 A 
ATOM     89  Cl  UNL A   1      33.330  23.983  22.099  1.00  0.00    -0.084 Cl
ENDBRANCH  77  83
ENDBRANCH  72  74
ENDBRANCH  71  72
ENDBRANCH  70  71
ENDBRANCH   1  70
TORSDOF 16
ENDMDL
