MODEL 1
REMARK VINA RESULT:      -9.7      0.000      0.000
REMARK SMILES CCc1cc(OC(F)(F)F)cc2c1O[C@@H](C(F)(F)F)C(C(=O)OCCOC(=O)c1ccc(-c3c4nc(c(-c5cc(S(=O)(=O)[O-])ccc5F)c5ccc([nH]5)c(-c5cc(S(=O)(=O)[O-])ccc5F)c5nc(c(-c6cc(S(=O)(=O)[O-])ccc6F)c6ccc3[nH]6)C=C5)C=C4)cc1)=C2
REMARK SMILES IDX 25 1 24 2 23 3 21 4 22 5 20 6 3 7 4 8 13 9 5 10 12 11 14 12
REMARK SMILES IDX 11 13 92 14 15 15 2 16 1 17 6 18 7 19 8 20 9 21 10 22 16 23
REMARK SMILES IDX 17 24 18 25 19 26 26 27 27 28 28 29 29 30 30 31 91 32 31 33
REMARK SMILES IDX 90 34 32 35 33 36 34 37 84 38 35 39 89 40 83 41 85 42 36 43
REMARK SMILES IDX 88 44 82 45 81 46 37 48 69 49 49 50 68 51 50 52 53 53 67 54
REMARK SMILES IDX 86 55 51 56 52 57 66 59 87 60 54 61 38 62 39 63 47 64 40 65
REMARK SMILES IDX 46 66 48 67 45 68 41 69 42 70 43 71 44 72 70 73 71 74 79 75
REMARK SMILES IDX 72 76 78 77 80 78 77 79 73 80 74 81 75 82 76 83 55 84 56 85
REMARK SMILES IDX 64 86 57 87 63 88 65 89 62 90 58 91 59 92 60 93 61 94
REMARK H PARENT 85 47 53 58
REMARK Flexibility Score: inf
ROOT
ATOM      1  C   UNL A   1      33.882  33.980  27.830  1.00  0.00     0.275 C 
ENDROOT
BRANCH   1   2
ATOM      2  C   UNL A   1      33.433  34.300  29.259  1.00  0.00     0.275 C 
BRANCH   2   3
ATOM      3  O   UNL A   1      34.553  34.592  30.119  1.00  0.00    -0.459 OA
BRANCH   3   4
ATOM      4  C   UNL A   1      34.872  33.633  31.025  1.00  0.00     0.338 C 
ATOM      5  O   UNL A   1      34.184  32.664  31.294  1.00  0.00    -0.246 OA
BRANCH   4   6
ATOM      6  C   UNL A   1      36.192  33.880  31.647  1.00  0.00     0.087 C 
ATOM      7  C   UNL A   1      39.783  34.677  33.624  1.00  0.00    -0.002 A 
ATOM      8  C   UNL A   1      40.992  34.628  32.914  1.00  0.00     0.054 A 
ATOM      9  C   UNL A   1      38.583  34.529  32.917  1.00  0.00     0.131 A 
ATOM     10  C   UNL A   1      40.995  34.439  31.528  1.00  0.00     0.130 A 
ATOM     11  C   UNL A   1      38.572  34.249  31.547  1.00  0.00     0.021 A 
ATOM     12  O   UNL A   1      37.419  34.755  33.597  1.00  0.00    -0.475 OA
ATOM     13  C   UNL A   1      39.786  34.211  30.857  1.00  0.00     0.058 A 
ATOM     14  C   UNL A   1      37.288  34.028  30.877  1.00  0.00     0.027 C 
ATOM     15  C   UNL A   1      36.286  33.959  33.161  1.00  0.00     0.316 C 
BRANCH   7  16
ATOM     16  C   UNL A   1      39.789  34.848  35.126  1.00  0.00     0.036 C 
ATOM     17  C   UNL A   1      40.498  36.127  35.561  1.00  0.00     0.009 C 
ENDBRANCH   7  16
BRANCH  10  18
ATOM     18  O   UNL A   1      42.107  34.439  30.729  1.00  0.00    -0.406 OA
BRANCH  18  19
ATOM     19  C   UNL A   1      42.709  33.181  30.461  1.00  0.00     0.573 C 
ATOM     20  F   UNL A   1      43.269  32.649  31.570  1.00  0.00    -0.132 F 
ATOM     21  F   UNL A   1      41.814  32.315  29.944  1.00  0.00    -0.132 F 
ATOM     22  F   UNL A   1      43.692  33.360  29.549  1.00  0.00    -0.132 F 
ENDBRANCH  18  19
ENDBRANCH  10  18
BRANCH  15  23
ATOM     23  C   UNL A   1      35.063  34.447  33.960  1.00  0.00     0.430 C 
ATOM     24  F   UNL A   1      34.556  35.594  33.457  1.00  0.00    -0.167 F 
ATOM     25  F   UNL A   1      34.060  33.533  33.884  1.00  0.00    -0.167 F 
ATOM     26  F   UNL A   1      35.337  34.623  35.270  1.00  0.00    -0.167 F 
ENDBRANCH  15  23
ENDBRANCH   4   6
ENDBRANCH   3   4
ENDBRANCH   2   3
ENDBRANCH   1   2
BRANCH   1  27
ATOM     27  O   UNL A   1      35.038  33.123  27.819  1.00  0.00    -0.458 OA
BRANCH  27  28
ATOM     28  C   UNL A   1      34.766  31.799  27.923  1.00  0.00     0.338 C 
ATOM     29  O   UNL A   1      33.786  31.223  27.478  1.00  0.00    -0.246 OA
BRANCH  28  30
ATOM     30  C   UNL A   1      35.925  31.089  28.501  1.00  0.00     0.060 A 
ATOM     31  C   UNL A   1      37.192  31.600  28.204  1.00  0.00     0.016 A 
ATOM     32  C   UNL A   1      35.799  29.954  29.305  1.00  0.00     0.016 A 
ATOM     33  C   UNL A   1      38.333  31.036  28.769  1.00  0.00     0.010 A 
ATOM     34  C   UNL A   1      36.950  29.349  29.827  1.00  0.00     0.010 A 
ATOM     35  C   UNL A   1      38.221  29.895  29.574  1.00  0.00    -0.014 A 
BRANCH  35  36
ATOM     36  C   UNL A   1      39.448  29.215  30.052  1.00  0.00     0.031 A 
ATOM     37  C   UNL A   1      40.148  29.746  31.268  1.00  0.00     0.074 A 
ATOM     38  C   UNL A   1      39.913  28.118  29.427  1.00  0.00     0.049 A 
ATOM     39  N   UNL A   1      41.261  29.347  31.827  1.00  0.00    -0.248 NA
ATOM     40  C   UNL A   1      39.498  30.874  31.952  1.00  0.00     0.031 C 
ATOM     41  C   UNL A   1      39.266  27.456  28.294  1.00  0.00     0.029 A 
ATOM     42  N   UNL A   1      41.042  27.369  29.654  1.00  0.00    -0.354 N 
ATOM     43  C   UNL A   1      41.442  30.165  32.935  1.00  0.00     0.074 A 
ATOM     44  C   UNL A   1      40.334  31.098  32.954  1.00  0.00     0.031 C 
ATOM     45  C   UNL A   1      40.025  26.414  27.910  1.00  0.00     0.029 A 
ATOM     46  C   UNL A   1      41.228  26.360  28.739  1.00  0.00     0.049 A 
ATOM     47  H   UNL A   1      41.658  27.539  30.403  1.00  0.00     0.167 HD
ATOM     48  C   UNL A   1      42.442  30.143  33.850  1.00  0.00     0.034 A 
ATOM     49  C   UNL A   1      42.270  25.517  28.569  1.00  0.00     0.034 A 
ATOM     50  C   UNL A   1      43.567  29.242  33.787  1.00  0.00     0.049 A 
ATOM     51  C   UNL A   1      43.450  25.613  29.510  1.00  0.00     0.074 A 
ATOM     52  C   UNL A   1      44.651  29.156  34.643  1.00  0.00     0.029 A 
ATOM     53  N   UNL A   1      43.766  28.286  32.798  1.00  0.00    -0.354 N 
ATOM     54  N   UNL A   1      43.620  26.402  30.547  1.00  0.00    -0.248 NA
ATOM     55  C   UNL A   1      44.579  24.706  29.258  1.00  0.00     0.031 C 
ATOM     56  C   UNL A   1      45.541  28.205  34.129  1.00  0.00     0.029 A 
ATOM     57  C   UNL A   1      44.973  27.635  33.000  1.00  0.00     0.049 A 
ATOM     58  H   UNL A   1      43.141  28.098  32.062  1.00  0.00     0.167 HD
ATOM     59  C   UNL A   1      44.858  26.058  31.088  1.00  0.00     0.074 A 
ATOM     60  C   UNL A   1      45.388  24.990  30.267  1.00  0.00     0.031 C 
ATOM     61  C   UNL A   1      45.495  26.574  32.171  1.00  0.00     0.034 A 
BRANCH  48  62
ATOM     62  C   UNL A   1      42.393  31.179  34.944  1.00  0.00     0.023 A 
ATOM     63  C   UNL A   1      43.083  32.399  34.837  1.00  0.00     0.031 A 
ATOM     64  C   UNL A   1      41.685  30.923  36.130  1.00  0.00     0.131 A 
ATOM     65  C   UNL A   1      43.109  33.285  35.925  1.00  0.00     0.055 A 
ATOM     66  C   UNL A   1      41.650  31.842  37.179  1.00  0.00     0.041 A 
ATOM     67  F   UNL A   1      41.030  29.762  36.299  1.00  0.00    -0.206 F 
ATOM     68  C   UNL A   1      42.378  33.025  37.087  1.00  0.00     0.022 A 
BRANCH  65  69
ATOM     69  S   UNL A   1      44.232  34.708  35.860  1.00  0.00     0.124 S 
ATOM     70  O   UNL A   1      43.768  35.504  36.993  1.00  0.00    -0.237 OA
ATOM     71  O   UNL A   1      45.541  34.084  36.012  1.00  0.00    -0.237 OA
ATOM     72  O   UNL A   1      43.967  35.293  34.547  1.00  0.00    -0.744 OA
ENDBRANCH  65  69
ENDBRANCH  48  62
BRANCH  49  73
ATOM     73  C   UNL A   1      42.293  24.558  27.426  1.00  0.00     0.023 A 
ATOM     74  C   UNL A   1      41.579  23.349  27.471  1.00  0.00     0.031 A 
ATOM     75  C   UNL A   1      43.101  24.801  26.300  1.00  0.00     0.131 A 
ATOM     76  C   UNL A   1      41.726  22.410  26.437  1.00  0.00     0.055 A 
ATOM     77  C   UNL A   1      43.199  23.891  25.247  1.00  0.00     0.041 A 
ATOM     78  F   UNL A   1      43.816  25.934  26.210  1.00  0.00    -0.206 F 
ATOM     79  C   UNL A   1      42.519  22.678  25.320  1.00  0.00     0.022 A 
BRANCH  76  80
ATOM     80  S   UNL A   1      40.946  20.782  26.622  1.00  0.00     0.124 S 
ATOM     81  O   UNL A   1      39.655  20.996  25.977  1.00  0.00    -0.237 OA
ATOM     82  O   UNL A   1      41.881  19.914  25.914  1.00  0.00    -0.237 OA
ATOM     83  O   UNL A   1      40.896  20.591  28.070  1.00  0.00    -0.744 OA
ENDBRANCH  76  80
ENDBRANCH  49  73
BRANCH  61  84
ATOM     84  C   UNL A   1      46.811  25.947  32.567  1.00  0.00     0.023 A 
ATOM     85  C   UNL A   1      48.030  26.343  31.991  1.00  0.00     0.031 A 
ATOM     86  C   UNL A   1      46.841  24.945  33.555  1.00  0.00     0.131 A 
ATOM     87  C   UNL A   1      49.224  25.713  32.379  1.00  0.00     0.055 A 
ATOM     88  C   UNL A   1      48.036  24.360  33.975  1.00  0.00     0.041 A 
ATOM     89  F   UNL A   1      45.706  24.527  34.137  1.00  0.00    -0.206 F 
ATOM     90  C   UNL A   1      49.236  24.737  33.380  1.00  0.00     0.022 A 
BRANCH  87  91
ATOM     91  S   UNL A   1      50.760  26.135  31.511  1.00  0.00     0.124 S 
ATOM     92  O   UNL A   1      51.264  27.248  32.309  1.00  0.00    -0.237 OA
ATOM     93  O   UNL A   1      51.521  24.893  31.598  1.00  0.00    -0.237 OA
ATOM     94  O   UNL A   1      50.309  26.491  30.167  1.00  0.00    -0.744 OA
ENDBRANCH  87  91
ENDBRANCH  61  84
ENDBRANCH  35  36
ENDBRANCH  28  30
ENDBRANCH  27  28
ENDBRANCH   1  27
TORSDOF 18
ENDMDL
MODEL 2
REMARK VINA RESULT:      -9.6      3.552     11.386
REMARK SMILES CCc1cc(OC(F)(F)F)cc2c1O[C@@H](C(F)(F)F)C(C(=O)OCCOC(=O)c1ccc(-c3c4nc(c(-c5cc(S(=O)(=O)[O-])ccc5F)c5ccc([nH]5)c(-c5cc(S(=O)(=O)[O-])ccc5F)c5nc(c(-c6cc(S(=O)(=O)[O-])ccc6F)c6ccc3[nH]6)C=C5)C=C4)cc1)=C2
REMARK SMILES IDX 25 1 24 2 23 3 21 4 22 5 20 6 3 7 4 8 13 9 5 10 12 11 14 12
REMARK SMILES IDX 11 13 92 14 15 15 2 16 1 17 6 18 7 19 8 20 9 21 10 22 16 23
REMARK SMILES IDX 17 24 18 25 19 26 26 27 27 28 28 29 29 30 30 31 91 32 31 33
REMARK SMILES IDX 90 34 32 35 33 36 34 37 84 38 35 39 89 40 83 41 85 42 36 43
REMARK SMILES IDX 88 44 82 45 81 46 37 48 69 49 49 50 68 51 50 52 53 53 67 54
REMARK SMILES IDX 86 55 51 56 52 57 66 59 87 60 54 61 38 62 39 63 47 64 40 65
REMARK SMILES IDX 46 66 48 67 45 68 41 69 42 70 43 71 44 72 70 73 71 74 79 75
REMARK SMILES IDX 72 76 78 77 80 78 77 79 73 80 74 81 75 82 76 83 55 84 56 85
REMARK SMILES IDX 64 86 57 87 63 88 65 89 62 90 58 91 59 92 60 93 61 94
REMARK H PARENT 85 47 53 58
REMARK Flexibility Score: inf
ROOT
ATOM      1  C   UNL A   1      40.764  20.118  26.767  1.00  0.00     0.275 C 
ENDROOT
BRANCH   1   2
ATOM      2  C   UNL A   1      42.008  20.008  25.881  1.00  0.00     0.275 C 
BRANCH   2   3
ATOM      3  O   UNL A   1      43.095  20.810  26.386  1.00  0.00    -0.459 OA
BRANCH   3   4
ATOM      4  C   UNL A   1      43.312  21.987  25.745  1.00  0.00     0.338 C 
ATOM      5  O   UNL A   1      42.757  22.341  24.719  1.00  0.00    -0.246 OA
BRANCH   4   6
ATOM      6  C   UNL A   1      44.298  22.829  26.458  1.00  0.00     0.087 C 
ATOM      7  C   UNL A   1      47.267  25.133  28.279  1.00  0.00    -0.002 A 
ATOM      8  C   UNL A   1      47.053  25.650  29.566  1.00  0.00     0.054 A 
ATOM      9  C   UNL A   1      46.312  24.262  27.739  1.00  0.00     0.131 A 
ATOM     10  C   UNL A   1      45.911  25.299  30.292  1.00  0.00     0.130 A 
ATOM     11  C   UNL A   1      45.122  23.973  28.413  1.00  0.00     0.021 A 
ATOM     12  O   UNL A   1      46.625  23.635  26.564  1.00  0.00    -0.475 OA
ATOM     13  C   UNL A   1      44.931  24.493  29.696  1.00  0.00     0.058 A 
ATOM     14  C   UNL A   1      44.127  23.117  27.763  1.00  0.00     0.027 C 
ATOM     15  C   UNL A   1      45.496  23.363  25.693  1.00  0.00     0.316 C 
BRANCH   7  16
ATOM     16  C   UNL A   1      48.488  25.543  27.488  1.00  0.00     0.036 C 
ATOM     17  C   UNL A   1      49.770  24.927  28.039  1.00  0.00     0.009 C 
ENDBRANCH   7  16
BRANCH  10  18
ATOM     18  O   UNL A   1      45.632  25.691  31.573  1.00  0.00    -0.406 OA
BRANCH  18  19
ATOM     19  C   UNL A   1      44.950  26.926  31.737  1.00  0.00     0.573 C 
ATOM     20  F   UNL A   1      45.660  27.960  31.237  1.00  0.00    -0.132 F 
ATOM     21  F   UNL A   1      43.733  26.888  31.155  1.00  0.00    -0.132 F 
ATOM     22  F   UNL A   1      44.774  27.148  33.060  1.00  0.00    -0.132 F 
ENDBRANCH  18  19
ENDBRANCH  10  18
BRANCH  15  23
ATOM     23  C   UNL A   1      46.039  22.555  24.498  1.00  0.00     0.430 C 
ATOM     24  F   UNL A   1      45.206  22.605  23.435  1.00  0.00    -0.167 F 
ATOM     25  F   UNL A   1      47.216  23.085  24.072  1.00  0.00    -0.167 F 
ATOM     26  F   UNL A   1      46.278  21.264  24.812  1.00  0.00    -0.167 F 
ENDBRANCH  15  23
ENDBRANCH   4   6
ENDBRANCH   3   4
ENDBRANCH   2   3
ENDBRANCH   1   2
BRANCH   1  27
ATOM     27  O   UNL A   1      40.646  21.426  27.353  1.00  0.00    -0.458 OA
BRANCH  27  28
ATOM     28  C   UNL A   1      39.829  22.278  26.684  1.00  0.00     0.338 C 
ATOM     29  O   UNL A   1      38.845  21.975  26.031  1.00  0.00    -0.246 OA
BRANCH  28  30
ATOM     30  C   UNL A   1      40.185  23.676  27.005  1.00  0.00     0.060 A 
ATOM     31  C   UNL A   1      40.654  23.928  28.298  1.00  0.00     0.016 A 
ATOM     32  C   UNL A   1      40.066  24.721  26.087  1.00  0.00     0.016 A 
ATOM     33  C   UNL A   1      41.082  25.203  28.659  1.00  0.00     0.010 A 
ATOM     34  C   UNL A   1      40.441  26.017  26.467  1.00  0.00     0.010 A 
ATOM     35  C   UNL A   1      40.964  26.261  27.749  1.00  0.00    -0.014 A 
BRANCH  35  36
ATOM     36  C   UNL A   1      41.284  27.641  28.188  1.00  0.00     0.031 A 
ATOM     37  C   UNL A   1      42.714  28.095  28.176  1.00  0.00     0.074 A 
ATOM     38  C   UNL A   1      40.307  28.487  28.560  1.00  0.00     0.049 A 
ATOM     39  N   UNL A   1      43.228  29.232  28.568  1.00  0.00    -0.248 NA
ATOM     40  C   UNL A   1      43.695  27.140  27.639  1.00  0.00     0.031 C 
ATOM     41  C   UNL A   1      38.875  28.189  28.524  1.00  0.00     0.029 A 
ATOM     42  N   UNL A   1      40.372  29.769  29.048  1.00  0.00    -0.354 N 
ATOM     43  C   UNL A   1      44.592  29.137  28.316  1.00  0.00     0.074 A 
ATOM     44  C   UNL A   1      44.825  27.821  27.758  1.00  0.00     0.031 C 
ATOM     45  C   UNL A   1      38.199  29.253  28.996  1.00  0.00     0.029 A 
ATOM     46  C   UNL A   1      39.148  30.286  29.407  1.00  0.00     0.049 A 
ATOM     47  H   UNL A   1      41.215  30.271  29.132  1.00  0.00     0.167 HD
ATOM     48  C   UNL A   1      45.559  30.061  28.534  1.00  0.00     0.034 A 
ATOM     49  C   UNL A   1      38.838  31.443  30.030  1.00  0.00     0.034 A 
ATOM     50  C   UNL A   1      45.318  31.347  29.141  1.00  0.00     0.049 A 
ATOM     51  C   UNL A   1      39.953  32.394  30.405  1.00  0.00     0.074 A 
ATOM     52  C   UNL A   1      46.230  32.345  29.436  1.00  0.00     0.029 A 
ATOM     53  N   UNL A   1      44.077  31.806  29.567  1.00  0.00    -0.354 N 
ATOM     54  N   UNL A   1      41.243  32.289  30.177  1.00  0.00    -0.248 NA
ATOM     55  C   UNL A   1      39.571  33.619  31.122  1.00  0.00     0.031 C 
ATOM     56  C   UNL A   1      45.555  33.370  30.111  1.00  0.00     0.029 A 
ATOM     57  C   UNL A   1      44.207  33.052  30.159  1.00  0.00     0.049 A 
ATOM     58  H   UNL A   1      43.229  31.316  29.463  1.00  0.00     0.167 HD
ATOM     59  C   UNL A   1      41.816  33.450  30.692  1.00  0.00     0.074 A 
ATOM     60  C   UNL A   1      40.734  34.243  31.236  1.00  0.00     0.031 C 
ATOM     61  C   UNL A   1      43.120  33.832  30.705  1.00  0.00     0.034 A 
BRANCH  48  62
ATOM     62  C   UNL A   1      46.972  29.668  28.184  1.00  0.00     0.023 A 
ATOM     63  C   UNL A   1      47.858  29.159  29.150  1.00  0.00     0.031 A 
ATOM     64  C   UNL A   1      47.454  29.851  26.877  1.00  0.00     0.131 A 
ATOM     65  C   UNL A   1      49.198  28.918  28.812  1.00  0.00     0.055 A 
ATOM     66  C   UNL A   1      48.768  29.536  26.527  1.00  0.00     0.041 A 
ATOM     67  F   UNL A   1      46.661  30.359  25.920  1.00  0.00    -0.206 F 
ATOM     68  C   UNL A   1      49.653  29.081  27.500  1.00  0.00     0.022 A 
BRANCH  65  69
ATOM     69  S   UNL A   1      50.373  28.535  30.138  1.00  0.00     0.124 S 
ATOM     70  O   UNL A   1      51.377  27.748  29.426  1.00  0.00    -0.237 OA
ATOM     71  O   UNL A   1      50.796  29.860  30.578  1.00  0.00    -0.237 OA
ATOM     72  O   UNL A   1      49.571  27.783  31.101  1.00  0.00    -0.744 OA
ENDBRANCH  65  69
ENDBRANCH  48  62
BRANCH  49  73
ATOM     73  C   UNL A   1      37.428  31.746  30.412  1.00  0.00     0.023 A 
ATOM     74  C   UNL A   1      36.561  32.419  29.535  1.00  0.00     0.031 A 
ATOM     75  C   UNL A   1      36.950  31.439  31.699  1.00  0.00     0.131 A 
ATOM     76  C   UNL A   1      35.283  32.805  29.973  1.00  0.00     0.055 A 
ATOM     77  C   UNL A   1      35.660  31.773  32.110  1.00  0.00     0.041 A 
ATOM     78  F   UNL A   1      37.741  30.809  32.584  1.00  0.00    -0.206 F 
ATOM     79  C   UNL A   1      34.822  32.475  31.249  1.00  0.00     0.022 A 
BRANCH  76  80
ATOM     80  S   UNL A   1      34.266  33.842  28.884  1.00  0.00     0.124 S 
ATOM     81  O   UNL A   1      35.257  34.768  28.347  1.00  0.00    -0.237 OA
ATOM     82  O   UNL A   1      33.727  32.862  27.947  1.00  0.00    -0.237 OA
ATOM     83  O   UNL A   1      33.288  34.434  29.795  1.00  0.00    -0.744 OA
ENDBRANCH  76  80
ENDBRANCH  49  73
BRANCH  61  84
ATOM     84  C   UNL A   1      43.440  35.193  31.274  1.00  0.00     0.023 A 
ATOM     85  C   UNL A   1      43.608  36.324  30.457  1.00  0.00     0.031 A 
ATOM     86  C   UNL A   1      43.562  35.360  32.666  1.00  0.00     0.131 A 
ATOM     87  C   UNL A   1      43.927  37.564  31.035  1.00  0.00     0.055 A 
ATOM     88  C   UNL A   1      43.824  36.605  33.239  1.00  0.00     0.041 A 
ATOM     89  F   UNL A   1      43.413  34.314  33.494  1.00  0.00    -0.206 F 
ATOM     90  C   UNL A   1      44.017  37.714  32.422  1.00  0.00     0.022 A 
BRANCH  87  91
ATOM     91  S   UNL A   1      44.288  38.971  29.948  1.00  0.00     0.124 S 
ATOM     92  O   UNL A   1      42.953  39.378  29.522  1.00  0.00    -0.237 OA
ATOM     93  O   UNL A   1      44.978  39.891  30.846  1.00  0.00    -0.237 OA
ATOM     94  O   UNL A   1      45.122  38.390  28.898  1.00  0.00    -0.744 OA
ENDBRANCH  87  91
ENDBRANCH  61  84
ENDBRANCH  35  36
ENDBRANCH  28  30
ENDBRANCH  27  28
ENDBRANCH   1  27
TORSDOF 18
ENDMDL
MODEL 3
REMARK VINA RESULT:      -9.5      5.452     10.188
REMARK SMILES CCc1cc(OC(F)(F)F)cc2c1O[C@@H](C(F)(F)F)C(C(=O)OCCOC(=O)c1ccc(-c3c4nc(c(-c5cc(S(=O)(=O)[O-])ccc5F)c5ccc([nH]5)c(-c5cc(S(=O)(=O)[O-])ccc5F)c5nc(c(-c6cc(S(=O)(=O)[O-])ccc6F)c6ccc3[nH]6)C=C5)C=C4)cc1)=C2
REMARK SMILES IDX 25 1 24 2 23 3 21 4 22 5 20 6 3 7 4 8 13 9 5 10 12 11 14 12
REMARK SMILES IDX 11 13 92 14 15 15 2 16 1 17 6 18 7 19 8 20 9 21 10 22 16 23
REMARK SMILES IDX 17 24 18 25 19 26 26 27 27 28 28 29 29 30 30 31 91 32 31 33
REMARK SMILES IDX 90 34 32 35 33 36 34 37 84 38 35 39 89 40 83 41 85 42 36 43
REMARK SMILES IDX 88 44 82 45 81 46 37 48 69 49 49 50 68 51 50 52 53 53 67 54
REMARK SMILES IDX 86 55 51 56 52 57 66 59 87 60 54 61 38 62 39 63 47 64 40 65
REMARK SMILES IDX 46 66 48 67 45 68 41 69 42 70 43 71 44 72 70 73 71 74 79 75
REMARK SMILES IDX 72 76 78 77 80 78 77 79 73 80 74 81 75 82 76 83 55 84 56 85
REMARK SMILES IDX 64 86 57 87 63 88 65 89 62 90 58 91 59 92 60 93 61 94
REMARK H PARENT 85 47 53 58
REMARK Flexibility Score: inf
ROOT
ATOM      1  C   UNL A   1      37.326  20.425  24.938  1.00  0.00     0.275 C 
ENDROOT
BRANCH   1   2
ATOM      2  C   UNL A   1      35.878  20.816  24.629  1.00  0.00     0.275 C 
BRANCH   2   3
ATOM      3  O   UNL A   1      35.574  22.147  25.096  1.00  0.00    -0.459 OA
BRANCH   3   4
ATOM      4  C   UNL A   1      35.325  23.071  24.133  1.00  0.00     0.338 C 
ATOM      5  O   UNL A   1      35.914  23.153  23.069  1.00  0.00    -0.246 OA
BRANCH   4   6
ATOM      6  C   UNL A   1      34.215  23.973  24.510  1.00  0.00     0.087 C 
ATOM      7  C   UNL A   1      30.926  26.395  25.382  1.00  0.00    -0.002 A 
ATOM      8  C   UNL A   1      31.094  27.529  26.191  1.00  0.00     0.054 A 
ATOM      9  C   UNL A   1      32.062  25.668  25.001  1.00  0.00     0.131 A 
ATOM     10  C   UNL A   1      32.370  27.924  26.604  1.00  0.00     0.130 A 
ATOM     11  C   UNL A   1      33.334  25.997  25.479  1.00  0.00     0.021 A 
ATOM     12  O   UNL A   1      31.894  24.677  24.074  1.00  0.00    -0.475 OA
ATOM     13  C   UNL A   1      33.480  27.134  26.278  1.00  0.00     0.058 A 
ATOM     14  C   UNL A   1      34.472  25.153  25.108  1.00  0.00     0.027 C 
ATOM     15  C   UNL A   1      32.788  23.543  24.216  1.00  0.00     0.316 C 
BRANCH   7  16
ATOM     16  C   UNL A   1      29.541  25.954  24.967  1.00  0.00     0.036 C 
ATOM     17  C   UNL A   1      28.970  26.816  23.844  1.00  0.00     0.009 C 
ENDBRANCH   7  16
BRANCH  10  18
ATOM     18  O   UNL A   1      32.656  29.044  27.338  1.00  0.00    -0.406 OA
BRANCH  18  19
ATOM     19  C   UNL A   1      33.125  30.179  26.626  1.00  0.00     0.573 C 
ATOM     20  F   UNL A   1      32.699  30.178  25.344  1.00  0.00    -0.132 F 
ATOM     21  F   UNL A   1      32.743  31.323  27.229  1.00  0.00    -0.132 F 
ATOM     22  F   UNL A   1      34.479  30.148  26.609  1.00  0.00    -0.132 F 
ENDBRANCH  18  19
ENDBRANCH  10  18
BRANCH  15  23
ATOM     23  C   UNL A   1      32.521  22.611  23.019  1.00  0.00     0.430 C 
ATOM     24  F   UNL A   1      33.179  23.014  21.909  1.00  0.00    -0.167 F 
ATOM     25  F   UNL A   1      32.982  21.361  23.288  1.00  0.00    -0.167 F 
ATOM     26  F   UNL A   1      31.207  22.495  22.736  1.00  0.00    -0.167 F 
ENDBRANCH  15  23
ENDBRANCH   4   6
ENDBRANCH   3   4
ENDBRANCH   2   3
ENDBRANCH   1   2
BRANCH   1  27
ATOM     27  O   UNL A   1      37.899  21.272  25.950  1.00  0.00    -0.458 OA
BRANCH  27  28
ATOM     28  C   UNL A   1      39.191  20.998  26.258  1.00  0.00     0.338 C 
ATOM     29  O   UNL A   1      39.774  19.945  26.063  1.00  0.00    -0.246 OA
BRANCH  28  30
ATOM     30  C   UNL A   1      39.876  22.229  26.703  1.00  0.00     0.060 A 
ATOM     31  C   UNL A   1      39.419  23.437  26.166  1.00  0.00     0.016 A 
ATOM     32  C   UNL A   1      40.937  22.224  27.612  1.00  0.00     0.016 A 
ATOM     33  C   UNL A   1      39.959  24.648  26.590  1.00  0.00     0.010 A 
ATOM     34  C   UNL A   1      41.521  23.438  27.995  1.00  0.00     0.010 A 
ATOM     35  C   UNL A   1      41.026  24.657  27.498  1.00  0.00    -0.014 A 
BRANCH  35  36
ATOM     36  C   UNL A   1      41.691  25.939  27.832  1.00  0.00     0.031 A 
ATOM     37  C   UNL A   1      40.926  26.977  28.598  1.00  0.00     0.074 A 
ATOM     38  C   UNL A   1      42.972  26.159  27.483  1.00  0.00     0.049 A 
ATOM     39  N   UNL A   1      41.286  28.185  28.948  1.00  0.00    -0.248 NA
ATOM     40  C   UNL A   1      39.576  26.597  29.039  1.00  0.00     0.031 C 
ATOM     41  C   UNL A   1      43.843  25.190  26.819  1.00  0.00     0.029 A 
ATOM     42  N   UNL A   1      43.761  27.273  27.635  1.00  0.00    -0.354 N 
ATOM     43  C   UNL A   1      40.213  28.708  29.660  1.00  0.00     0.074 A 
ATOM     44  C   UNL A   1      39.182  27.692  29.671  1.00  0.00     0.031 C 
ATOM     45  C   UNL A   1      45.040  25.764  26.599  1.00  0.00     0.029 A 
ATOM     46  C   UNL A   1      45.006  27.149  27.065  1.00  0.00     0.049 A 
ATOM     47  H   UNL A   1      43.463  28.084  28.109  1.00  0.00     0.167 HD
ATOM     48  C   UNL A   1      40.099  29.924  30.247  1.00  0.00     0.034 A 
ATOM     49  C   UNL A   1      45.988  28.062  26.905  1.00  0.00     0.034 A 
ATOM     50  C   UNL A   1      41.116  30.945  30.181  1.00  0.00     0.049 A 
ATOM     51  C   UNL A   1      45.777  29.464  27.432  1.00  0.00     0.074 A 
ATOM     52  C   UNL A   1      41.089  32.223  30.712  1.00  0.00     0.029 A 
ATOM     53  N   UNL A   1      42.334  30.814  29.524  1.00  0.00    -0.354 N 
ATOM     54  N   UNL A   1      44.751  29.955  28.091  1.00  0.00    -0.248 NA
ATOM     55  C   UNL A   1      46.855  30.435  27.194  1.00  0.00     0.031 C 
ATOM     56  C   UNL A   1      42.254  32.889  30.310  1.00  0.00     0.029 A 
ATOM     57  C   UNL A   1      43.047  32.001  29.602  1.00  0.00     0.049 A 
ATOM     58  H   UNL A   1      42.644  29.998  29.070  1.00  0.00     0.167 HD
ATOM     59  C   UNL A   1      45.080  31.280  28.374  1.00  0.00     0.074 A 
ATOM     60  C   UNL A   1      46.398  31.509  27.821  1.00  0.00     0.031 C 
ATOM     61  C   UNL A   1      44.360  32.220  29.041  1.00  0.00     0.034 A 
BRANCH  48  62
ATOM     62  C   UNL A   1      38.794  30.232  30.937  1.00  0.00     0.023 A 
ATOM     63  C   UNL A   1      37.785  30.981  30.307  1.00  0.00     0.031 A 
ATOM     64  C   UNL A   1      38.577  29.811  32.260  1.00  0.00     0.131 A 
ATOM     65  C   UNL A   1      36.635  31.347  31.025  1.00  0.00     0.055 A 
ATOM     66  C   UNL A   1      37.398  30.112  32.942  1.00  0.00     0.041 A 
ATOM     67  F   UNL A   1      39.518  29.116  32.920  1.00  0.00    -0.206 F 
ATOM     68  C   UNL A   1      36.425  30.897  32.331  1.00  0.00     0.022 A 
BRANCH  65  69
ATOM     69  S   UNL A   1      35.492  32.542  30.282  1.00  0.00     0.124 S 
ATOM     70  O   UNL A   1      35.219  31.925  28.986  1.00  0.00    -0.237 OA
ATOM     71  O   UNL A   1      34.384  32.551  31.230  1.00  0.00    -0.237 OA
ATOM     72  O   UNL A   1      36.275  33.775  30.224  1.00  0.00    -0.744 OA
ENDBRANCH  65  69
ENDBRANCH  48  62
BRANCH  49  73
ATOM     73  C   UNL A   1      47.230  27.719  26.153  1.00  0.00     0.023 A 
ATOM     74  C   UNL A   1      47.332  27.939  24.769  1.00  0.00     0.031 A 
ATOM     75  C   UNL A   1      48.309  27.085  26.797  1.00  0.00     0.131 A 
ATOM     76  C   UNL A   1      48.462  27.486  24.069  1.00  0.00     0.055 A 
ATOM     77  C   UNL A   1      49.455  26.689  26.107  1.00  0.00     0.041 A 
ATOM     78  F   UNL A   1      48.261  26.837  28.116  1.00  0.00    -0.206 F 
ATOM     79  C   UNL A   1      49.529  26.875  24.730  1.00  0.00     0.022 A 
BRANCH  76  80
ATOM     80  S   UNL A   1      48.473  27.610  22.258  1.00  0.00     0.124 S 
ATOM     81  O   UNL A   1      49.621  28.481  22.028  1.00  0.00    -0.237 OA
ATOM     82  O   UNL A   1      48.633  26.217  21.858  1.00  0.00    -0.237 OA
ATOM     83  O   UNL A   1      47.171  28.200  21.950  1.00  0.00    -0.744 OA
ENDBRANCH  76  80
ENDBRANCH  49  73
BRANCH  61  84
ATOM     84  C   UNL A   1      45.009  33.565  29.260  1.00  0.00     0.023 A 
ATOM     85  C   UNL A   1      44.962  34.584  28.293  1.00  0.00     0.031 A 
ATOM     86  C   UNL A   1      45.672  33.834  30.472  1.00  0.00     0.131 A 
ATOM     87  C   UNL A   1      45.601  35.811  28.538  1.00  0.00     0.055 A 
ATOM     88  C   UNL A   1      46.258  35.074  30.732  1.00  0.00     0.041 A 
ATOM     89  F   UNL A   1      45.749  32.898  31.431  1.00  0.00    -0.206 F 
ATOM     90  C   UNL A   1      46.232  36.068  29.758  1.00  0.00     0.022 A 
BRANCH  87  91
ATOM     91  S   UNL A   1      45.656  37.050  27.214  1.00  0.00     0.124 S 
ATOM     92  O   UNL A   1      44.252  37.428  27.091  1.00  0.00    -0.237 OA
ATOM     93  O   UNL A   1      46.543  38.065  27.772  1.00  0.00    -0.237 OA
ATOM     94  O   UNL A   1      46.201  36.313  26.075  1.00  0.00    -0.744 OA
ENDBRANCH  87  91
ENDBRANCH  61  84
ENDBRANCH  35  36
ENDBRANCH  28  30
ENDBRANCH  27  28
ENDBRANCH   1  27
TORSDOF 18
ENDMDL
