MODEL 1
REMARK VINA RESULT:     -11.3      0.000      0.000
REMARK SMILES COc1ccc(NC(C)(C)C2=N[C@@H](C(=O)OCCOC(=O)c3ccc(-c4c5nc(c(-c6cc(S(=O)(=O)[O-])ccc6F)c6ccc([nH]6)c(-c6cc(S(=O)(=O)[O-])ccc6F)c6nc(c(-c7cc(S(=O)(=O)[O-])ccc7F)c7ccc4[nH]7)C=C6)C=C5)cc3)CS2)cc1
REMARK SMILES IDX 17 1 16 2 14 3 15 4 13 5 11 6 12 7 86 8 85 9 8 10 9 11 10 12
REMARK SMILES IDX 7 13 6 15 3 16 4 17 88 18 5 19 87 20 2 21 1 22 18 23 19 24
REMARK SMILES IDX 20 25 21 26 22 27 23 28 84 29 24 30 83 31 25 32 26 33 27 34
REMARK SMILES IDX 77 35 28 36 82 37 76 38 78 39 29 40 81 41 75 42 74 43 30 45
REMARK SMILES IDX 62 46 42 47 61 48 43 49 46 50 60 51 79 52 44 53 45 54 59 56
REMARK SMILES IDX 80 57 47 58 31 59 32 60 40 61 33 62 39 63 41 64 38 65 34 66
REMARK SMILES IDX 35 67 36 68 37 69 63 70 64 71 72 72 65 73 71 74 73 75 70 76
REMARK SMILES IDX 66 77 67 78 68 79 69 80 48 81 49 82 57 83 50 84 56 85 58 86
REMARK SMILES IDX 55 87 51 88 52 89 53 90 54 91
REMARK H PARENT 7 14 78 44 46 55
REMARK Flexibility Score: inf
ROOT
ATOM      1  C   UNL A   1      35.771  20.423  25.090  1.00  0.00     0.274 C 
ENDROOT
BRANCH   1   2
ATOM      2  O   UNL A   1      35.481  21.388  26.117  1.00  0.00    -0.460 OA
BRANCH   2   3
ATOM      3  C   UNL A   1      34.169  21.521  26.453  1.00  0.00     0.331 C 
ATOM      4  O   UNL A   1      33.751  21.452  27.604  1.00  0.00    -0.250 OA
BRANCH   3   5
ATOM      5  C   UNL A   1      33.283  21.882  25.260  1.00  0.00     0.226 C 
ATOM      6  C   UNL A   1      32.563  24.028  24.874  1.00  0.00     0.094 C 
ATOM      7  N   UNL A   1      33.602  23.261  24.824  1.00  0.00    -0.264 NA
ATOM      8  S   UNL A   1      31.095  23.329  25.529  1.00  0.00    -0.106 SA
ATOM      9  C   UNL A   1      31.783  21.670  25.377  1.00  0.00     0.115 C 
BRANCH   6  10
ATOM     10  C   UNL A   1      32.588  25.484  24.365  1.00  0.00     0.080 C 
ATOM     11  C   UNL A   1      32.350  25.521  22.846  1.00  0.00     0.042 C 
ATOM     12  C   UNL A   1      33.983  26.090  24.633  1.00  0.00     0.042 C 
BRANCH  10  13
ATOM     13  N   UNL A   1      31.599  26.373  25.012  1.00  0.00    -0.374 N 
ATOM     14  H   UNL A   1      31.621  26.363  25.997  1.00  0.00     0.161 HD
BRANCH  13  15
ATOM     15  C   UNL A   1      30.650  27.213  24.468  1.00  0.00     0.035 A 
ATOM     16  C   UNL A   1      28.697  28.692  23.044  1.00  0.00     0.119 A 
ATOM     17  C   UNL A   1      29.910  29.273  23.381  1.00  0.00     0.048 A 
ATOM     18  C   UNL A   1      28.426  27.388  23.438  1.00  0.00     0.048 A 
ATOM     19  C   UNL A   1      30.861  28.547  24.111  1.00  0.00     0.029 A 
ATOM     20  C   UNL A   1      29.397  26.663  24.142  1.00  0.00     0.029 A 
BRANCH  16  21
ATOM     21  O   UNL A   1      27.860  29.399  22.229  1.00  0.00    -0.497 OA
ATOM     22  C   UNL A   1      28.552  30.368  21.447  1.00  0.00     0.278 C 
ENDBRANCH  16  21
ENDBRANCH  13  15
ENDBRANCH  10  13
ENDBRANCH   6  10
ENDBRANCH   3   5
ENDBRANCH   2   3
ENDBRANCH   1   2
BRANCH   1  23
ATOM     23  C   UNL A   1      37.286  20.255  24.925  1.00  0.00     0.275 C 
BRANCH  23  24
ATOM     24  O   UNL A   1      38.024  21.419  25.352  1.00  0.00    -0.458 OA
BRANCH  24  25
ATOM     25  C   UNL A   1      39.139  21.167  26.077  1.00  0.00     0.338 C 
ATOM     26  O   UNL A   1      39.705  20.089  26.198  1.00  0.00    -0.246 OA
BRANCH  25  27
ATOM     27  C   UNL A   1      39.679  22.411  26.643  1.00  0.00     0.060 A 
ATOM     28  C   UNL A   1      39.211  23.626  26.140  1.00  0.00     0.016 A 
ATOM     29  C   UNL A   1      40.720  22.387  27.573  1.00  0.00     0.016 A 
ATOM     30  C   UNL A   1      39.809  24.821  26.523  1.00  0.00     0.010 A 
ATOM     31  C   UNL A   1      41.297  23.594  27.987  1.00  0.00     0.010 A 
ATOM     32  C   UNL A   1      40.858  24.817  27.450  1.00  0.00    -0.014 A 
BRANCH  32  33
ATOM     33  C   UNL A   1      41.500  26.100  27.834  1.00  0.00     0.031 A 
ATOM     34  C   UNL A   1      40.723  27.132  28.600  1.00  0.00     0.074 A 
ATOM     35  C   UNL A   1      42.790  26.319  27.513  1.00  0.00     0.049 A 
ATOM     36  N   UNL A   1      41.068  28.349  28.933  1.00  0.00    -0.248 NA
ATOM     37  C   UNL A   1      39.375  26.744  29.042  1.00  0.00     0.031 C 
ATOM     38  C   UNL A   1      43.658  25.367  26.815  1.00  0.00     0.029 A 
ATOM     39  N   UNL A   1      43.596  27.407  27.729  1.00  0.00    -0.354 N 
ATOM     40  C   UNL A   1      39.971  28.887  29.598  1.00  0.00     0.074 A 
ATOM     41  C   UNL A   1      38.945  27.864  29.605  1.00  0.00     0.031 C 
ATOM     42  C   UNL A   1      44.876  25.912  26.667  1.00  0.00     0.029 A 
ATOM     43  C   UNL A   1      44.857  27.270  27.199  1.00  0.00     0.049 A 
ATOM     44  H   UNL A   1      43.300  28.209  28.216  1.00  0.00     0.167 HD
ATOM     45  C   UNL A   1      39.837  30.120  30.147  1.00  0.00     0.034 A 
ATOM     46  C   UNL A   1      45.872  28.152  27.114  1.00  0.00     0.034 A 
ATOM     47  C   UNL A   1      40.881  31.118  30.142  1.00  0.00     0.049 A 
ATOM     48  C   UNL A   1      45.682  29.532  27.686  1.00  0.00     0.074 A 
ATOM     49  C   UNL A   1      40.859  32.393  30.682  1.00  0.00     0.029 A 
ATOM     50  N   UNL A   1      42.135  30.956  29.564  1.00  0.00    -0.354 N 
ATOM     51  N   UNL A   1      44.628  30.041  28.281  1.00  0.00    -0.248 NA
ATOM     52  C   UNL A   1      46.817  30.457  27.572  1.00  0.00     0.031 C 
ATOM     53  C   UNL A   1      42.074  33.020  30.381  1.00  0.00     0.029 A 
ATOM     54  C   UNL A   1      42.882  32.115  29.711  1.00  0.00     0.049 A 
ATOM     55  H   UNL A   1      42.447  30.137  29.117  1.00  0.00     0.167 HD
ATOM     56  C   UNL A   1      44.978  31.342  28.625  1.00  0.00     0.074 A 
ATOM     57  C   UNL A   1      46.347  31.533  28.187  1.00  0.00     0.031 C 
ATOM     58  C   UNL A   1      44.238  32.294  29.249  1.00  0.00     0.034 A 
BRANCH  45  59
ATOM     59  C   UNL A   1      38.493  30.476  30.735  1.00  0.00     0.023 A 
ATOM     60  C   UNL A   1      37.490  31.109  29.981  1.00  0.00     0.031 A 
ATOM     61  C   UNL A   1      38.224  30.198  32.087  1.00  0.00     0.131 A 
ATOM     62  C   UNL A   1      36.292  31.500  30.600  1.00  0.00     0.055 A 
ATOM     63  C   UNL A   1      37.003  30.524  32.679  1.00  0.00     0.041 A 
ATOM     64  F   UNL A   1      39.152  29.613  32.862  1.00  0.00    -0.206 F 
ATOM     65  C   UNL A   1      36.032  31.191  31.938  1.00  0.00     0.022 A 
BRANCH  62  66
ATOM     66  S   UNL A   1      35.125  32.529  29.667  1.00  0.00     0.124 S 
ATOM     67  O   UNL A   1      34.484  31.539  28.805  1.00  0.00    -0.237 OA
ATOM     68  O   UNL A   1      34.292  33.096  30.721  1.00  0.00    -0.237 OA
ATOM     69  O   UNL A   1      35.988  33.483  28.972  1.00  0.00    -0.744 OA
ENDBRANCH  62  66
ENDBRANCH  45  59
BRANCH  46  70
ATOM     70  C   UNL A   1      47.128  27.781  26.406  1.00  0.00     0.023 A 
ATOM     71  C   UNL A   1      47.249  27.915  25.014  1.00  0.00     0.031 A 
ATOM     72  C   UNL A   1      48.225  27.263  27.118  1.00  0.00     0.131 A 
ATOM     73  C   UNL A   1      48.429  27.506  24.375  1.00  0.00     0.055 A 
ATOM     74  C   UNL A   1      49.414  26.903  26.484  1.00  0.00     0.041 A 
ATOM     75  F   UNL A   1      48.161  27.117  28.452  1.00  0.00    -0.206 F 
ATOM     76  C   UNL A   1      49.517  27.013  25.102  1.00  0.00     0.022 A 
BRANCH  73  77
ATOM     77  S   UNL A   1      48.503  27.564  22.563  1.00  0.00     0.124 S 
ATOM     78  O   UNL A   1      49.749  28.287  22.338  1.00  0.00    -0.237 OA
ATOM     79  O   UNL A   1      48.510  26.148  22.213  1.00  0.00    -0.237 OA
ATOM     80  O   UNL A   1      47.286  28.288  22.197  1.00  0.00    -0.744 OA
ENDBRANCH  73  77
ENDBRANCH  46  70
BRANCH  58  81
ATOM     81  C   UNL A   1      44.918  33.612  29.518  1.00  0.00     0.023 A 
ATOM     82  C   UNL A   1      44.920  34.648  28.567  1.00  0.00     0.031 A 
ATOM     83  C   UNL A   1      45.587  33.826  30.734  1.00  0.00     0.131 A 
ATOM     84  C   UNL A   1      45.623  35.833  28.828  1.00  0.00     0.055 A 
ATOM     85  C   UNL A   1      46.242  35.027  31.011  1.00  0.00     0.041 A 
ATOM     86  F   UNL A   1      45.617  32.868  31.675  1.00  0.00    -0.206 F 
ATOM     87  C   UNL A   1      46.272  36.035  30.050  1.00  0.00     0.022 A 
BRANCH  84  88
ATOM     88  S   UNL A   1      45.750  37.080  27.518  1.00  0.00     0.124 S 
ATOM     89  O   UNL A   1      46.618  36.417  26.551  1.00  0.00    -0.237 OA
ATOM     90  O   UNL A   1      44.358  37.251  27.113  1.00  0.00    -0.237 OA
ATOM     91  O   UNL A   1      46.343  38.232  28.195  1.00  0.00    -0.744 OA
ENDBRANCH  84  88
ENDBRANCH  58  81
ENDBRANCH  32  33
ENDBRANCH  25  27
ENDBRANCH  24  25
ENDBRANCH  23  24
ENDBRANCH   1  23
TORSDOF 18
ENDMDL
MODEL 2
REMARK VINA RESULT:     -11.3      1.634      2.412
REMARK SMILES COc1ccc(NC(C)(C)C2=N[C@@H](C(=O)OCCOC(=O)c3ccc(-c4c5nc(c(-c6cc(S(=O)(=O)[O-])ccc6F)c6ccc([nH]6)c(-c6cc(S(=O)(=O)[O-])ccc6F)c6nc(c(-c7cc(S(=O)(=O)[O-])ccc7F)c7ccc4[nH]7)C=C6)C=C5)cc3)CS2)cc1
REMARK SMILES IDX 17 1 16 2 14 3 15 4 13 5 11 6 12 7 86 8 85 9 8 10 9 11 10 12
REMARK SMILES IDX 7 13 6 15 3 16 4 17 88 18 5 19 87 20 2 21 1 22 18 23 19 24
REMARK SMILES IDX 20 25 21 26 22 27 23 28 84 29 24 30 83 31 25 32 26 33 27 34
REMARK SMILES IDX 77 35 28 36 82 37 76 38 78 39 29 40 81 41 75 42 74 43 30 45
REMARK SMILES IDX 62 46 42 47 61 48 43 49 46 50 60 51 79 52 44 53 45 54 59 56
REMARK SMILES IDX 80 57 47 58 31 59 32 60 40 61 33 62 39 63 41 64 38 65 34 66
REMARK SMILES IDX 35 67 36 68 37 69 63 70 64 71 72 72 65 73 71 74 73 75 70 76
REMARK SMILES IDX 66 77 67 78 68 79 69 80 48 81 49 82 57 83 50 84 56 85 58 86
REMARK SMILES IDX 55 87 51 88 52 89 53 90 54 91
REMARK H PARENT 7 14 78 44 46 55
REMARK Flexibility Score: inf
ROOT
ATOM      1  C   UNL A   1      35.989  22.410  23.845  1.00  0.00     0.274 C 
ENDROOT
BRANCH   1   2
ATOM      2  O   UNL A   1      34.835  23.211  24.156  1.00  0.00    -0.460 OA
BRANCH   2   3
ATOM      3  C   UNL A   1      33.850  23.223  23.218  1.00  0.00     0.331 C 
ATOM      4  O   UNL A   1      34.059  23.339  22.014  1.00  0.00    -0.250 OA
BRANCH   3   5
ATOM      5  C   UNL A   1      32.464  22.962  23.806  1.00  0.00     0.226 C 
ATOM      6  C   UNL A   1      31.447  24.436  25.245  1.00  0.00     0.094 C 
ATOM      7  N   UNL A   1      31.776  24.258  24.008  1.00  0.00    -0.264 NA
ATOM      8  S   UNL A   1      31.968  23.209  26.383  1.00  0.00    -0.106 SA
ATOM      9  C   UNL A   1      32.348  22.077  25.034  1.00  0.00     0.115 C 
BRANCH   6  10
ATOM     10  C   UNL A   1      30.617  25.650  25.712  1.00  0.00     0.080 C 
ATOM     11  C   UNL A   1      29.230  25.192  26.195  1.00  0.00     0.042 C 
ATOM     12  C   UNL A   1      30.404  26.606  24.519  1.00  0.00     0.042 C 
BRANCH  10  13
ATOM     13  N   UNL A   1      31.248  26.439  26.792  1.00  0.00    -0.374 N 
ATOM     14  H   UNL A   1      31.091  26.091  27.699  1.00  0.00     0.161 HD
BRANCH  13  15
ATOM     15  C   UNL A   1      32.021  27.581  26.740  1.00  0.00     0.035 A 
ATOM     16  C   UNL A   1      33.842  29.746  26.895  1.00  0.00     0.119 A 
ATOM     17  C   UNL A   1      32.512  29.920  27.249  1.00  0.00     0.048 A 
ATOM     18  C   UNL A   1      34.273  28.511  26.428  1.00  0.00     0.048 A 
ATOM     19  C   UNL A   1      31.609  28.853  27.143  1.00  0.00     0.029 A 
ATOM     20  C   UNL A   1      33.366  27.445  26.355  1.00  0.00     0.029 A 
BRANCH  16  21
ATOM     21  O   UNL A   1      34.702  30.780  27.133  1.00  0.00    -0.497 OA
ATOM     22  C   UNL A   1      35.957  30.338  27.642  1.00  0.00     0.278 C 
ENDBRANCH  16  21
ENDBRANCH  13  15
ENDBRANCH  10  13
ENDBRANCH   6  10
ENDBRANCH   3   5
ENDBRANCH   2   3
ENDBRANCH   1   2
BRANCH   1  23
ATOM     23  C   UNL A   1      36.141  21.271  24.861  1.00  0.00     0.275 C 
BRANCH  23  24
ATOM     24  O   UNL A   1      36.926  21.652  26.009  1.00  0.00    -0.458 OA
BRANCH  24  25
ATOM     25  C   UNL A   1      38.261  21.476  25.885  1.00  0.00     0.338 C 
ATOM     26  O   UNL A   1      38.829  20.544  25.331  1.00  0.00    -0.246 OA
BRANCH  25  27
ATOM     27  C   UNL A   1      38.988  22.636  26.423  1.00  0.00     0.060 A 
ATOM     28  C   UNL A   1      38.500  23.913  26.138  1.00  0.00     0.016 A 
ATOM     29  C   UNL A   1      40.200  22.477  27.098  1.00  0.00     0.016 A 
ATOM     30  C   UNL A   1      39.241  25.038  26.480  1.00  0.00     0.010 A 
ATOM     31  C   UNL A   1      40.927  23.613  27.476  1.00  0.00     0.010 A 
ATOM     32  C   UNL A   1      40.462  24.900  27.153  1.00  0.00    -0.014 A 
BRANCH  32  33
ATOM     33  C   UNL A   1      41.251  26.111  27.493  1.00  0.00     0.031 A 
ATOM     34  C   UNL A   1      40.654  27.177  28.368  1.00  0.00     0.074 A 
ATOM     35  C   UNL A   1      42.511  26.233  27.035  1.00  0.00     0.049 A 
ATOM     36  N   UNL A   1      41.138  28.349  28.690  1.00  0.00    -0.248 NA
ATOM     37  C   UNL A   1      39.335  26.888  28.948  1.00  0.00     0.031 C 
ATOM     38  C   UNL A   1      43.211  25.237  26.219  1.00  0.00     0.029 A 
ATOM     39  N   UNL A   1      43.427  27.243  27.185  1.00  0.00    -0.354 N 
ATOM     40  C   UNL A   1      40.171  28.953  29.487  1.00  0.00     0.074 A 
ATOM     41  C   UNL A   1      39.068  28.020  29.585  1.00  0.00     0.031 C 
ATOM     42  C   UNL A   1      44.448  25.684  25.949  1.00  0.00     0.029 A 
ATOM     43  C   UNL A   1      44.606  27.020  26.513  1.00  0.00     0.049 A 
ATOM     44  H   UNL A   1      43.257  28.049  27.723  1.00  0.00     0.167 HD
ATOM     45  C   UNL A   1      40.206  30.173  30.078  1.00  0.00     0.034 A 
ATOM     46  C   UNL A   1      45.677  27.817  26.337  1.00  0.00     0.034 A 
ATOM     47  C   UNL A   1      41.325  31.081  29.981  1.00  0.00     0.049 A 
ATOM     48  C   UNL A   1      45.672  29.187  26.961  1.00  0.00     0.074 A 
ATOM     49  C   UNL A   1      41.473  32.333  30.552  1.00  0.00     0.029 A 
ATOM     50  N   UNL A   1      42.489  30.835  29.262  1.00  0.00    -0.354 N 
ATOM     51  N   UNL A   1      44.737  29.761  27.683  1.00  0.00    -0.248 NA
ATOM     52  C   UNL A   1      46.862  30.018  26.743  1.00  0.00     0.031 C 
ATOM     53  C   UNL A   1      42.697  32.867  30.131  1.00  0.00     0.029 A 
ATOM     54  C   UNL A   1      43.345  31.922  29.352  1.00  0.00     0.049 A 
ATOM     55  H   UNL A   1      42.678  30.008  28.761  1.00  0.00     0.167 HD
ATOM     56  C   UNL A   1      45.234  31.016  28.018  1.00  0.00     0.074 A 
ATOM     57  C   UNL A   1      46.558  31.107  27.434  1.00  0.00     0.031 C 
ATOM     58  C   UNL A   1      44.652  32.004  28.745  1.00  0.00     0.034 A 
BRANCH  45  59
ATOM     59  C   UNL A   1      38.971  30.619  30.823  1.00  0.00     0.023 A 
ATOM     60  C   UNL A   1      38.010  31.463  30.241  1.00  0.00     0.031 A 
ATOM     61  C   UNL A   1      38.768  30.210  32.154  1.00  0.00     0.131 A 
ATOM     62  C   UNL A   1      36.925  31.921  31.006  1.00  0.00     0.055 A 
ATOM     63  C   UNL A   1      37.651  30.610  32.887  1.00  0.00     0.041 A 
ATOM     64  F   UNL A   1      39.664  29.421  32.769  1.00  0.00    -0.206 F 
ATOM     65  C   UNL A   1      36.727  31.482  32.318  1.00  0.00     0.022 A 
BRANCH  62  66
ATOM     66  S   UNL A   1      35.843  33.198  30.307  1.00  0.00     0.124 S 
ATOM     67  O   UNL A   1      34.592  32.462  30.138  1.00  0.00    -0.237 OA
ATOM     68  O   UNL A   1      35.848  34.220  31.346  1.00  0.00    -0.237 OA
ATOM     69  O   UNL A   1      36.511  33.570  29.061  1.00  0.00    -0.744 OA
ENDBRANCH  62  66
ENDBRANCH  45  59
BRANCH  46  70
ATOM     70  C   UNL A   1      46.811  27.367  25.482  1.00  0.00     0.023 A 
ATOM     71  C   UNL A   1      46.954  27.818  24.161  1.00  0.00     0.031 A 
ATOM     72  C   UNL A   1      47.761  26.455  25.977  1.00  0.00     0.131 A 
ATOM     73  C   UNL A   1      48.006  27.333  23.369  1.00  0.00     0.055 A 
ATOM     74  C   UNL A   1      48.832  26.012  25.201  1.00  0.00     0.041 A 
ATOM     75  F   UNL A   1      47.670  25.994  27.235  1.00  0.00    -0.206 F 
ATOM     76  C   UNL A   1      48.953  26.443  23.884  1.00  0.00     0.022 A 
BRANCH  73  77
ATOM     77  S   UNL A   1      48.084  27.830  21.626  1.00  0.00     0.124 S 
ATOM     78  O   UNL A   1      49.227  28.735  21.625  1.00  0.00    -0.237 OA
ATOM     79  O   UNL A   1      48.277  26.551  20.953  1.00  0.00    -0.237 OA
ATOM     80  O   UNL A   1      46.786  28.463  21.395  1.00  0.00    -0.744 OA
ENDBRANCH  73  77
ENDBRANCH  46  70
BRANCH  58  81
ATOM     81  C   UNL A   1      45.469  33.251  28.969  1.00  0.00     0.023 A 
ATOM     82  C   UNL A   1      45.416  34.336  28.076  1.00  0.00     0.031 A 
ATOM     83  C   UNL A   1      46.324  33.345  30.079  1.00  0.00     0.131 A 
ATOM     84  C   UNL A   1      46.244  35.450  28.282  1.00  0.00     0.055 A 
ATOM     85  C   UNL A   1      47.108  34.477  30.309  1.00  0.00     0.041 A 
ATOM     86  F   UNL A   1      46.414  32.336  30.960  1.00  0.00    -0.206 F 
ATOM     87  C   UNL A   1      47.079  35.533  29.401  1.00  0.00     0.022 A 
BRANCH  84  88
ATOM     88  S   UNL A   1      46.278  36.757  27.026  1.00  0.00     0.124 S 
ATOM     89  O   UNL A   1      44.978  37.392  27.213  1.00  0.00    -0.237 OA
ATOM     90  O   UNL A   1      47.437  37.547  27.428  1.00  0.00    -0.237 OA
ATOM     91  O   UNL A   1      46.435  36.024  25.772  1.00  0.00    -0.744 OA
ENDBRANCH  84  88
ENDBRANCH  58  81
ENDBRANCH  32  33
ENDBRANCH  25  27
ENDBRANCH  24  25
ENDBRANCH  23  24
ENDBRANCH   1  23
TORSDOF 18
ENDMDL
MODEL 3
REMARK VINA RESULT:     -11.0      1.097      7.610
REMARK SMILES COc1ccc(NC(C)(C)C2=N[C@@H](C(=O)OCCOC(=O)c3ccc(-c4c5nc(c(-c6cc(S(=O)(=O)[O-])ccc6F)c6ccc([nH]6)c(-c6cc(S(=O)(=O)[O-])ccc6F)c6nc(c(-c7cc(S(=O)(=O)[O-])ccc7F)c7ccc4[nH]7)C=C6)C=C5)cc3)CS2)cc1
REMARK SMILES IDX 17 1 16 2 14 3 15 4 13 5 11 6 12 7 86 8 85 9 8 10 9 11 10 12
REMARK SMILES IDX 7 13 6 15 3 16 4 17 88 18 5 19 87 20 2 21 1 22 18 23 19 24
REMARK SMILES IDX 20 25 21 26 22 27 23 28 84 29 24 30 83 31 25 32 26 33 27 34
REMARK SMILES IDX 77 35 28 36 82 37 76 38 78 39 29 40 81 41 75 42 74 43 30 45
REMARK SMILES IDX 62 46 42 47 61 48 43 49 46 50 60 51 79 52 44 53 45 54 59 56
REMARK SMILES IDX 80 57 47 58 31 59 32 60 40 61 33 62 39 63 41 64 38 65 34 66
REMARK SMILES IDX 35 67 36 68 37 69 63 70 64 71 72 72 65 73 71 74 73 75 70 76
REMARK SMILES IDX 66 77 67 78 68 79 69 80 48 81 49 82 57 83 50 84 56 85 58 86
REMARK SMILES IDX 55 87 51 88 52 89 53 90 54 91
REMARK H PARENT 7 14 78 44 46 55
REMARK Flexibility Score: inf
ROOT
ATOM      1  C   UNL A   1      35.370  20.348  25.025  1.00  0.00     0.274 C 
ENDROOT
BRANCH   1   2
ATOM      2  O   UNL A   1      34.893  21.259  26.030  1.00  0.00    -0.460 OA
BRANCH   2   3
ATOM      3  C   UNL A   1      33.916  22.120  25.636  1.00  0.00     0.331 C 
ATOM      4  O   UNL A   1      32.771  21.772  25.363  1.00  0.00    -0.250 OA
BRANCH   3   5
ATOM      5  C   UNL A   1      34.358  23.583  25.679  1.00  0.00     0.226 C 
ATOM      6  C   UNL A   1      32.928  25.310  25.180  1.00  0.00     0.094 C 
ATOM      7  N   UNL A   1      33.205  24.422  26.078  1.00  0.00    -0.264 NA
ATOM      8  S   UNL A   1      33.863  25.253  23.699  1.00  0.00    -0.106 SA
ATOM      9  C   UNL A   1      35.073  24.163  24.471  1.00  0.00     0.115 C 
BRANCH   6  10
ATOM     10  C   UNL A   1      31.846  26.388  25.394  1.00  0.00     0.080 C 
ATOM     11  C   UNL A   1      32.224  27.294  26.578  1.00  0.00     0.042 C 
ATOM     12  C   UNL A   1      30.508  25.701  25.741  1.00  0.00     0.042 C 
BRANCH  10  13
ATOM     13  N   UNL A   1      31.599  27.245  24.214  1.00  0.00    -0.374 N 
ATOM     14  H   UNL A   1      32.263  27.151  23.493  1.00  0.00     0.161 HD
BRANCH  13  15
ATOM     15  C   UNL A   1      30.594  28.154  23.953  1.00  0.00     0.035 A 
ATOM     16  C   UNL A   1      28.571  29.915  23.041  1.00  0.00     0.119 A 
ATOM     17  C   UNL A   1      29.691  30.409  23.692  1.00  0.00     0.048 A 
ATOM     18  C   UNL A   1      28.425  28.545  22.868  1.00  0.00     0.048 A 
ATOM     19  C   UNL A   1      30.675  29.531  24.167  1.00  0.00     0.029 A 
ATOM     20  C   UNL A   1      29.431  27.680  23.321  1.00  0.00     0.029 A 
BRANCH  16  21
ATOM     21  O   UNL A   1      27.707  30.818  22.492  1.00  0.00    -0.497 OA
ATOM     22  C   UNL A   1      28.374  31.804  21.710  1.00  0.00     0.278 C 
ENDBRANCH  16  21
ENDBRANCH  13  15
ENDBRANCH  10  13
ENDBRANCH   6  10
ENDBRANCH   3   5
ENDBRANCH   2   3
ENDBRANCH   1   2
BRANCH   1  23
ATOM     23  C   UNL A   1      36.886  20.492  24.846  1.00  0.00     0.275 C 
BRANCH  23  24
ATOM     24  O   UNL A   1      37.463  21.454  25.753  1.00  0.00    -0.458 OA
BRANCH  24  25
ATOM     25  C   UNL A   1      38.775  21.278  26.030  1.00  0.00     0.338 C 
ATOM     26  O   UNL A   1      39.436  20.267  25.832  1.00  0.00    -0.246 OA
BRANCH  25  27
ATOM     27  C   UNL A   1      39.373  22.528  26.522  1.00  0.00     0.060 A 
ATOM     28  C   UNL A   1      38.771  23.735  26.162  1.00  0.00     0.016 A 
ATOM     29  C   UNL A   1      40.577  22.522  27.228  1.00  0.00     0.016 A 
ATOM     30  C   UNL A   1      39.391  24.943  26.461  1.00  0.00     0.010 A 
ATOM     31  C   UNL A   1      41.181  23.741  27.562  1.00  0.00     0.010 A 
ATOM     32  C   UNL A   1      40.602  24.958  27.164  1.00  0.00    -0.014 A 
BRANCH  32  33
ATOM     33  C   UNL A   1      41.261  26.256  27.457  1.00  0.00     0.031 A 
ATOM     34  C   UNL A   1      42.624  26.552  26.898  1.00  0.00     0.074 A 
ATOM     35  C   UNL A   1      40.619  27.173  28.205  1.00  0.00     0.049 A 
ATOM     36  N   UNL A   1      43.407  27.574  27.124  1.00  0.00    -0.248 NA
ATOM     37  C   UNL A   1      43.181  25.560  25.966  1.00  0.00     0.031 C 
ATOM     38  C   UNL A   1      39.272  27.015  28.760  1.00  0.00     0.029 A 
ATOM     39  N   UNL A   1      41.009  28.418  28.630  1.00  0.00    -0.354 N 
ATOM     40  C   UNL A   1      44.564  27.338  26.388  1.00  0.00     0.074 A 
ATOM     41  C   UNL A   1      44.381  26.066  25.722  1.00  0.00     0.031 C 
ATOM     42  C   UNL A   1      38.948  28.123  29.444  1.00  0.00     0.029 A 
ATOM     43  C   UNL A   1      40.083  29.039  29.434  1.00  0.00     0.049 A 
ATOM     44  H   UNL A   1      41.870  28.826  28.384  1.00  0.00     0.167 HD
ATOM     45  C   UNL A   1      45.672  28.113  26.284  1.00  0.00     0.034 A 
ATOM     46  C   UNL A   1      40.154  30.198  30.117  1.00  0.00     0.034 A 
ATOM     47  C   UNL A   1      45.825  29.388  26.946  1.00  0.00     0.049 A 
ATOM     48  C   UNL A   1      41.414  31.017  30.027  1.00  0.00     0.074 A 
ATOM     49  C   UNL A   1      46.897  30.263  26.897  1.00  0.00     0.029 A 
ATOM     50  N   UNL A   1      44.878  29.970  27.780  1.00  0.00    -0.354 N 
ATOM     51  N   UNL A   1      42.514  30.766  29.355  1.00  0.00    -0.248 NA
ATOM     52  C   UNL A   1      41.443  32.272  30.787  1.00  0.00     0.031 C 
ATOM     53  C   UNL A   1      46.623  31.342  27.746  1.00  0.00     0.029 A 
ATOM     54  C   UNL A   1      45.353  31.177  28.274  1.00  0.00     0.049 A 
ATOM     55  H   UNL A   1      43.997  29.583  27.990  1.00  0.00     0.167 HD
ATOM     56  C   UNL A   1      43.362  31.841  29.603  1.00  0.00     0.074 A 
ATOM     57  C   UNL A   1      42.637  32.750  30.469  1.00  0.00     0.031 C 
ATOM     58  C   UNL A   1      44.624  32.059  29.154  1.00  0.00     0.034 A 
BRANCH  45  59
ATOM     59  C   UNL A   1      46.827  27.569  25.480  1.00  0.00     0.023 A 
ATOM     60  C   UNL A   1      47.077  27.977  24.158  1.00  0.00     0.031 A 
ATOM     61  C   UNL A   1      47.679  26.601  26.042  1.00  0.00     0.131 A 
ATOM     62  C   UNL A   1      48.110  27.374  23.423  1.00  0.00     0.055 A 
ATOM     63  C   UNL A   1      48.749  26.057  25.330  1.00  0.00     0.041 A 
ATOM     64  F   UNL A   1      47.476  26.156  27.293  1.00  0.00    -0.206 F 
ATOM     65  C   UNL A   1      48.962  26.434  24.007  1.00  0.00     0.022 A 
BRANCH  62  66
ATOM     66  S   UNL A   1      48.249  27.743  21.652  1.00  0.00     0.124 S 
ATOM     67  O   UNL A   1      46.936  28.315  21.367  1.00  0.00    -0.237 OA
ATOM     68  O   UNL A   1      49.374  28.669  21.610  1.00  0.00    -0.237 OA
ATOM     69  O   UNL A   1      48.495  26.434  21.048  1.00  0.00    -0.744 OA
ENDBRANCH  62  66
ENDBRANCH  45  59
BRANCH  46  70
ATOM     70  C   UNL A   1      39.027  30.617  30.997  1.00  0.00     0.023 A 
ATOM     71  C   UNL A   1      38.041  31.507  30.545  1.00  0.00     0.031 A 
ATOM     72  C   UNL A   1      38.937  30.143  32.319  1.00  0.00     0.131 A 
ATOM     73  C   UNL A   1      37.023  31.920  31.419  1.00  0.00     0.055 A 
ATOM     74  C   UNL A   1      37.897  30.520  33.168  1.00  0.00     0.041 A 
ATOM     75  F   UNL A   1      39.855  29.289  32.798  1.00  0.00    -0.206 F 
ATOM     76  C   UNL A   1      36.937  31.422  32.722  1.00  0.00     0.022 A 
BRANCH  73  77
ATOM     77  S   UNL A   1      35.843  33.174  30.848  1.00  0.00     0.124 S 
ATOM     78  O   UNL A   1      34.691  32.357  30.487  1.00  0.00    -0.237 OA
ATOM     79  O   UNL A   1      35.690  34.010  32.034  1.00  0.00    -0.237 OA
ATOM     80  O   UNL A   1      36.535  33.807  29.727  1.00  0.00    -0.744 OA
ENDBRANCH  73  77
ENDBRANCH  46  70
BRANCH  58  81
ATOM     81  C   UNL A   1      45.278  33.352  29.572  1.00  0.00     0.023 A 
ATOM     82  C   UNL A   1      45.171  34.517  28.793  1.00  0.00     0.031 A 
ATOM     83  C   UNL A   1      46.032  33.411  30.756  1.00  0.00     0.131 A 
ATOM     84  C   UNL A   1      45.852  35.680  29.181  1.00  0.00     0.055 A 
ATOM     85  C   UNL A   1      46.665  34.585  31.165  1.00  0.00     0.041 A 
ATOM     86  F   UNL A   1      46.167  32.325  31.535  1.00  0.00    -0.206 F 
ATOM     87  C   UNL A   1      46.587  35.726  30.370  1.00  0.00     0.022 A 
BRANCH  84  88
ATOM     88  S   UNL A   1      45.835  37.114  28.070  1.00  0.00     0.124 S 
ATOM     89  O   UNL A   1      45.079  36.606  26.930  1.00  0.00    -0.237 OA
ATOM     90  O   UNL A   1      45.166  38.128  28.878  1.00  0.00    -0.237 OA
ATOM     91  O   UNL A   1      47.252  37.365  27.812  1.00  0.00    -0.744 OA
ENDBRANCH  84  88
ENDBRANCH  58  81
ENDBRANCH  32  33
ENDBRANCH  25  27
ENDBRANCH  24  25
ENDBRANCH  23  24
ENDBRANCH   1  23
TORSDOF 18
ENDMDL
