MODEL 1
REMARK VINA RESULT:     -11.6      0.000      0.000
REMARK SMILES CC[C@@H]1CC(=O)N(Cc2ccc(/C=C/C(=O)OCCOC(=O)c3ccc(-c4c5nc(c(-c6cc(S(=O)(=O)[O-])ccc6F)c6ccc([nH]6)c(-c6cc(S(=O)(=O)[O-])ccc6F)c6nc(c(-c7cc(S(=O)(=O)[O-])ccc7F)c7ccc4[nH]7)C=C6)C=C5)cc3)cc2F)C1
REMARK SMILES IDX 18 1 17 2 15 3 16 4 14 5 13 6 12 7 9 8 10 9 87 10 11 11
REMARK SMILES IDX 86 12 88 13 8 14 7 15 3 16 4 17 89 18 5 19 6 20 2 21 1 22
REMARK SMILES IDX 19 23 20 24 21 25 22 26 23 27 24 28 85 29 25 30 84 31 26 32
REMARK SMILES IDX 27 33 28 34 78 35 29 36 83 37 77 38 79 39 30 40 82 41 76 42
REMARK SMILES IDX 75 43 31 45 63 46 43 47 62 48 44 49 47 50 61 51 80 52 45 53
REMARK SMILES IDX 46 54 60 56 81 57 48 58 32 59 33 60 41 61 34 62 40 63 42 64
REMARK SMILES IDX 39 65 35 66 36 67 37 68 38 69 64 70 65 71 73 72 66 73 72 74
REMARK SMILES IDX 74 75 71 76 67 77 68 78 69 79 70 80 49 81 50 82 58 83 51 84
REMARK SMILES IDX 57 85 59 86 56 87 52 88 53 89 54 90 55 91
REMARK H PARENT 79 44 47 55
REMARK Flexibility Score: inf
ROOT
ATOM      1  C   UNL A   1      42.572  20.577  26.133  1.00  0.00     0.275 C 
ENDROOT
BRANCH   1   2
ATOM      2  O   UNL A   1      41.208  20.900  25.809  1.00  0.00    -0.459 OA
BRANCH   2   3
ATOM      3  C   UNL A   1      40.428  21.270  26.852  1.00  0.00     0.330 C 
ATOM      4  O   UNL A   1      40.742  21.238  28.033  1.00  0.00    -0.247 OA
BRANCH   3   5
ATOM      5  C   UNL A   1      39.106  21.768  26.426  1.00  0.00     0.094 C 
ATOM      6  C   UNL A   1      38.411  21.315  25.371  1.00  0.00     0.016 C 
BRANCH   6   7
ATOM      7  C   UNL A   1      37.114  21.875  24.958  1.00  0.00    -0.022 A 
ATOM      8  C   UNL A   1      34.604  22.980  24.256  1.00  0.00     0.007 A 
ATOM      9  C   UNL A   1      35.668  23.006  23.349  1.00  0.00     0.009 A 
ATOM     10  C   UNL A   1      34.802  22.344  25.485  1.00  0.00     0.128 A 
ATOM     11  C   UNL A   1      36.905  22.442  23.692  1.00  0.00     0.008 A 
ATOM     12  C   UNL A   1      36.036  21.805  25.843  1.00  0.00     0.047 A 
ATOM     13  F   UNL A   1      33.797  22.267  26.370  1.00  0.00    -0.207 F 
BRANCH   8  14
ATOM     14  C   UNL A   1      33.297  23.657  23.936  1.00  0.00     0.158 C 
BRANCH  14  15
ATOM     15  N   UNL A   1      33.464  25.032  23.489  1.00  0.00    -0.338 N 
ATOM     16  C   UNL A   1      33.378  27.360  23.629  1.00  0.00     0.017 C 
ATOM     17  C   UNL A   1      33.623  26.954  22.168  1.00  0.00     0.105 C 
ATOM     18  C   UNL A   1      33.806  26.107  24.383  1.00  0.00     0.124 C 
ATOM     19  C   UNL A   1      33.351  25.465  22.179  1.00  0.00     0.223 C 
ATOM     20  O   UNL A   1      33.105  24.786  21.196  1.00  0.00    -0.275 OA
BRANCH  16  21
ATOM     21  C   UNL A   1      31.904  27.762  23.841  1.00  0.00     0.002 C 
ATOM     22  C   UNL A   1      31.368  27.495  25.241  1.00  0.00     0.004 C 
ENDBRANCH  16  21
ENDBRANCH  14  15
ENDBRANCH   8  14
ENDBRANCH   6   7
ENDBRANCH   3   5
ENDBRANCH   2   3
ENDBRANCH   1   2
BRANCH   1  23
ATOM     23  C   UNL A   1      43.547  21.518  25.421  1.00  0.00     0.275 C 
BRANCH  23  24
ATOM     24  O   UNL A   1      42.895  22.706  24.931  1.00  0.00    -0.458 OA
BRANCH  24  25
ATOM     25  C   UNL A   1      43.639  23.837  24.998  1.00  0.00     0.338 C 
ATOM     26  O   UNL A   1      44.580  24.136  24.281  1.00  0.00    -0.246 OA
BRANCH  25  27
ATOM     27  C   UNL A   1      43.082  24.747  26.015  1.00  0.00     0.060 A 
ATOM     28  C   UNL A   1      43.616  26.036  26.110  1.00  0.00     0.016 A 
ATOM     29  C   UNL A   1      42.099  24.320  26.911  1.00  0.00     0.016 A 
ATOM     30  C   UNL A   1      43.174  26.902  27.109  1.00  0.00     0.010 A 
ATOM     31  C   UNL A   1      41.660  25.191  27.916  1.00  0.00     0.010 A 
ATOM     32  C   UNL A   1      42.201  26.483  28.028  1.00  0.00    -0.014 A 
BRANCH  32  33
ATOM     33  C   UNL A   1      41.794  27.379  29.139  1.00  0.00     0.031 A 
ATOM     34  C   UNL A   1      42.556  27.361  30.434  1.00  0.00     0.074 A 
ATOM     35  C   UNL A   1      40.762  28.228  28.974  1.00  0.00     0.049 A 
ATOM     36  N   UNL A   1      42.319  28.013  31.542  1.00  0.00    -0.248 NA
ATOM     37  C   UNL A   1      43.744  26.494  30.487  1.00  0.00     0.031 C 
ATOM     38  C   UNL A   1      39.981  28.377  27.745  1.00  0.00     0.029 A 
ATOM     39  N   UNL A   1      40.197  29.130  29.840  1.00  0.00    -0.354 N 
ATOM     40  C   UNL A   1      43.320  27.634  32.428  1.00  0.00     0.074 A 
ATOM     41  C   UNL A   1      44.156  26.676  31.734  1.00  0.00     0.031 C 
ATOM     42  C   UNL A   1      39.046  29.322  27.934  1.00  0.00     0.029 A 
ATOM     43  C   UNL A   1      39.128  29.811  29.309  1.00  0.00     0.049 A 
ATOM     44  H   UNL A   1      40.526  29.276  30.757  1.00  0.00     0.167 HD
ATOM     45  C   UNL A   1      43.526  28.052  33.701  1.00  0.00     0.034 A 
ATOM     46  C   UNL A   1      38.292  30.707  29.871  1.00  0.00     0.034 A 
ATOM     47  C   UNL A   1      42.689  29.009  34.382  1.00  0.00     0.049 A 
ATOM     48  C   UNL A   1      38.487  31.088  31.314  1.00  0.00     0.074 A 
ATOM     49  C   UNL A   1      42.816  29.499  35.671  1.00  0.00     0.029 A 
ATOM     50  N   UNL A   1      41.569  29.620  33.835  1.00  0.00    -0.354 N 
ATOM     51  N   UNL A   1      39.407  30.684  32.157  1.00  0.00    -0.248 NA
ATOM     52  C   UNL A   1      37.522  32.038  31.887  1.00  0.00     0.031 C 
ATOM     53  C   UNL A   1      41.741  30.359  35.921  1.00  0.00     0.029 A 
ATOM     54  C   UNL A   1      40.981  30.457  34.768  1.00  0.00     0.049 A 
ATOM     55  H   UNL A   1      41.242  29.478  32.917  1.00  0.00     0.167 HD
ATOM     56  C   UNL A   1      39.142  31.339  33.354  1.00  0.00     0.074 A 
ATOM     57  C   UNL A   1      37.978  32.170  33.126  1.00  0.00     0.031 C 
ATOM     58  C   UNL A   1      39.806  31.262  34.535  1.00  0.00     0.034 A 
BRANCH  45  59
ATOM     59  C   UNL A   1      44.675  27.442  34.458  1.00  0.00     0.023 A 
ATOM     60  C   UNL A   1      44.562  26.194  35.093  1.00  0.00     0.031 A 
ATOM     61  C   UNL A   1      45.908  28.116  34.530  1.00  0.00     0.131 A 
ATOM     62  C   UNL A   1      45.654  25.675  35.807  1.00  0.00     0.055 A 
ATOM     63  C   UNL A   1      47.008  27.566  35.191  1.00  0.00     0.041 A 
ATOM     64  F   UNL A   1      46.062  29.318  33.956  1.00  0.00    -0.206 F 
ATOM     65  C   UNL A   1      46.882  26.342  35.840  1.00  0.00     0.022 A 
BRANCH  62  66
ATOM     66  S   UNL A   1      45.428  24.147  36.758  1.00  0.00     0.124 S 
ATOM     67  O   UNL A   1      44.415  23.455  35.966  1.00  0.00    -0.237 OA
ATOM     68  O   UNL A   1      46.764  23.561  36.740  1.00  0.00    -0.237 OA
ATOM     69  O   UNL A   1      44.973  24.620  38.064  1.00  0.00    -0.744 OA
ENDBRANCH  62  66
ENDBRANCH  45  59
BRANCH  46  70
ATOM     70  C   UNL A   1      37.161  31.266  29.080  1.00  0.00     0.023 A 
ATOM     71  C   UNL A   1      36.115  30.446  28.630  1.00  0.00     0.031 A 
ATOM     72  C   UNL A   1      37.118  32.635  28.761  1.00  0.00     0.131 A 
ATOM     73  C   UNL A   1      35.075  31.002  27.868  1.00  0.00     0.055 A 
ATOM     74  C   UNL A   1      36.063  33.189  28.035  1.00  0.00     0.041 A 
ATOM     75  F   UNL A   1      38.096  33.458  29.172  1.00  0.00    -0.206 F 
ATOM     76  C   UNL A   1      35.035  32.369  27.581  1.00  0.00     0.022 A 
BRANCH  73  77
ATOM     77  S   UNL A   1      33.775  29.907  27.234  1.00  0.00     0.124 S 
ATOM     78  O   UNL A   1      32.611  30.787  27.259  1.00  0.00    -0.237 OA
ATOM     79  O   UNL A   1      34.286  29.556  25.914  1.00  0.00    -0.237 OA
ATOM     80  O   UNL A   1      33.752  28.812  28.200  1.00  0.00    -0.744 OA
ENDBRANCH  73  77
ENDBRANCH  46  70
BRANCH  58  81
ATOM     81  C   UNL A   1      39.304  32.117  35.668  1.00  0.00     0.023 A 
ATOM     82  C   UNL A   1      39.776  33.425  35.867  1.00  0.00     0.031 A 
ATOM     83  C   UNL A   1      38.312  31.628  36.536  1.00  0.00     0.131 A 
ATOM     84  C   UNL A   1      39.274  34.193  36.929  1.00  0.00     0.055 A 
ATOM     85  C   UNL A   1      37.784  32.411  37.563  1.00  0.00     0.041 A 
ATOM     86  F   UNL A   1      37.827  30.384  36.385  1.00  0.00    -0.206 F 
ATOM     87  C   UNL A   1      38.269  33.699  37.767  1.00  0.00     0.022 A 
BRANCH  84  88
ATOM     88  S   UNL A   1      39.969  35.842  37.222  1.00  0.00     0.124 S 
ATOM     89  O   UNL A   1      41.381  35.540  37.437  1.00  0.00    -0.237 OA
ATOM     90  O   UNL A   1      39.650  36.547  35.985  1.00  0.00    -0.237 OA
ATOM     91  O   UNL A   1      39.249  36.313  38.404  1.00  0.00    -0.744 OA
ENDBRANCH  84  88
ENDBRANCH  58  81
ENDBRANCH  32  33
ENDBRANCH  25  27
ENDBRANCH  24  25
ENDBRANCH  23  24
ENDBRANCH   1  23
TORSDOF 18
ENDMDL
MODEL 2
REMARK VINA RESULT:     -11.4      4.691      9.027
REMARK SMILES CC[C@@H]1CC(=O)N(Cc2ccc(/C=C/C(=O)OCCOC(=O)c3ccc(-c4c5nc(c(-c6cc(S(=O)(=O)[O-])ccc6F)c6ccc([nH]6)c(-c6cc(S(=O)(=O)[O-])ccc6F)c6nc(c(-c7cc(S(=O)(=O)[O-])ccc7F)c7ccc4[nH]7)C=C6)C=C5)cc3)cc2F)C1
REMARK SMILES IDX 18 1 17 2 15 3 16 4 14 5 13 6 12 7 9 8 10 9 87 10 11 11
REMARK SMILES IDX 86 12 88 13 8 14 7 15 3 16 4 17 89 18 5 19 6 20 2 21 1 22
REMARK SMILES IDX 19 23 20 24 21 25 22 26 23 27 24 28 85 29 25 30 84 31 26 32
REMARK SMILES IDX 27 33 28 34 78 35 29 36 83 37 77 38 79 39 30 40 82 41 76 42
REMARK SMILES IDX 75 43 31 45 63 46 43 47 62 48 44 49 47 50 61 51 80 52 45 53
REMARK SMILES IDX 46 54 60 56 81 57 48 58 32 59 33 60 41 61 34 62 40 63 42 64
REMARK SMILES IDX 39 65 35 66 36 67 37 68 38 69 64 70 65 71 73 72 66 73 72 74
REMARK SMILES IDX 74 75 71 76 67 77 68 78 69 79 70 80 49 81 50 82 58 83 51 84
REMARK SMILES IDX 57 85 59 86 56 87 52 88 53 89 54 90 55 91
REMARK H PARENT 79 44 47 55
REMARK Flexibility Score: inf
ROOT
ATOM      1  C   UNL A   1      35.112  20.509  25.151  1.00  0.00     0.275 C 
ENDROOT
BRANCH   1   2
ATOM      2  O   UNL A   1      34.356  19.384  24.670  1.00  0.00    -0.459 OA
BRANCH   2   3
ATOM      3  C   UNL A   1      33.021  19.580  24.555  1.00  0.00     0.330 C 
ATOM      4  O   UNL A   1      32.157  18.718  24.627  1.00  0.00    -0.247 OA
BRANCH   3   5
ATOM      5  C   UNL A   1      32.670  20.999  24.350  1.00  0.00     0.094 C 
ATOM      6  C   UNL A   1      32.296  21.543  23.182  1.00  0.00     0.016 C 
BRANCH   6   7
ATOM      7  C   UNL A   1      31.998  22.975  23.017  1.00  0.00    -0.022 A 
ATOM      8  C   UNL A   1      31.469  25.727  22.613  1.00  0.00     0.007 A 
ATOM      9  C   UNL A   1      30.562  24.926  23.315  1.00  0.00     0.009 A 
ATOM     10  C   UNL A   1      32.659  25.142  22.173  1.00  0.00     0.128 A 
ATOM     11  C   UNL A   1      30.835  23.568  23.530  1.00  0.00     0.008 A 
ATOM     12  C   UNL A   1      32.925  23.786  22.359  1.00  0.00     0.047 A 
ATOM     13  F   UNL A   1      33.572  25.882  21.524  1.00  0.00    -0.207 F 
BRANCH   8  14
ATOM     14  C   UNL A   1      31.151  27.166  22.300  1.00  0.00     0.158 C 
BRANCH  14  15
ATOM     15  N   UNL A   1      31.464  28.068  23.399  1.00  0.00    -0.338 N 
ATOM     16  C   UNL A   1      32.415  28.736  25.422  1.00  0.00     0.017 C 
ATOM     17  C   UNL A   1      31.363  29.771  24.997  1.00  0.00     0.105 C 
ATOM     18  C   UNL A   1      32.718  28.031  24.106  1.00  0.00     0.124 C 
ATOM     19  C   UNL A   1      30.634  29.069  23.870  1.00  0.00     0.223 C 
ATOM     20  O   UNL A   1      29.527  29.368  23.453  1.00  0.00    -0.275 OA
BRANCH  16  21
ATOM     21  C   UNL A   1      31.859  27.816  26.528  1.00  0.00     0.002 C 
ATOM     22  C   UNL A   1      31.470  28.534  27.814  1.00  0.00     0.004 C 
ENDBRANCH  16  21
ENDBRANCH  14  15
ENDBRANCH   8  14
ENDBRANCH   6   7
ENDBRANCH   3   5
ENDBRANCH   2   3
ENDBRANCH   1   2
BRANCH   1  23
ATOM     23  C   UNL A   1      36.616  20.274  24.990  1.00  0.00     0.275 C 
BRANCH  23  24
ATOM     24  O   UNL A   1      37.394  21.393  25.457  1.00  0.00    -0.458 OA
BRANCH  24  25
ATOM     25  C   UNL A   1      38.654  21.089  25.854  1.00  0.00     0.338 C 
ATOM     26  O   UNL A   1      39.223  20.018  25.723  1.00  0.00    -0.246 OA
BRANCH  25  27
ATOM     27  C   UNL A   1      39.317  22.293  26.389  1.00  0.00     0.060 A 
ATOM     28  C   UNL A   1      38.805  23.543  26.028  1.00  0.00     0.016 A 
ATOM     29  C   UNL A   1      40.469  22.199  27.173  1.00  0.00     0.016 A 
ATOM     30  C   UNL A   1      39.448  24.707  26.446  1.00  0.00     0.010 A 
ATOM     31  C   UNL A   1      41.115  23.370  27.588  1.00  0.00     0.010 A 
ATOM     32  C   UNL A   1      40.616  24.630  27.219  1.00  0.00    -0.014 A 
BRANCH  32  33
ATOM     33  C   UNL A   1      41.342  25.870  27.592  1.00  0.00     0.031 A 
ATOM     34  C   UNL A   1      40.638  26.942  28.376  1.00  0.00     0.074 A 
ATOM     35  C   UNL A   1      42.637  26.019  27.255  1.00  0.00     0.049 A 
ATOM     36  N   UNL A   1      41.073  28.121  28.739  1.00  0.00    -0.248 NA
ATOM     37  C   UNL A   1      39.264  26.646  28.809  1.00  0.00     0.031 C 
ATOM     38  C   UNL A   1      43.442  25.024  26.544  1.00  0.00     0.029 A 
ATOM     39  N   UNL A   1      43.504  27.060  27.471  1.00  0.00    -0.354 N 
ATOM     40  C   UNL A   1      40.028  28.713  29.437  1.00  0.00     0.074 A 
ATOM     41  C   UNL A   1      38.928  27.770  29.427  1.00  0.00     0.031 C 
ATOM     42  C   UNL A   1      44.689  25.501  26.392  1.00  0.00     0.029 A 
ATOM     43  C   UNL A   1      44.759  26.850  26.950  1.00  0.00     0.049 A 
ATOM     44  H   UNL A   1      43.252  27.880  27.953  1.00  0.00     0.167 HD
ATOM     45  C   UNL A   1      39.992  29.928  30.036  1.00  0.00     0.034 A 
ATOM     46  C   UNL A   1      45.836  27.660  26.903  1.00  0.00     0.034 A 
ATOM     47  C   UNL A   1      41.093  30.859  30.042  1.00  0.00     0.049 A 
ATOM     48  C   UNL A   1      45.742  29.041  27.497  1.00  0.00     0.074 A 
ATOM     49  C   UNL A   1      41.156  32.113  30.623  1.00  0.00     0.029 A 
ATOM     50  N   UNL A   1      42.323  30.640  29.437  1.00  0.00    -0.354 N 
ATOM     51  N   UNL A   1      44.730  29.608  28.110  1.00  0.00    -0.248 NA
ATOM     52  C   UNL A   1      46.933  29.895  27.382  1.00  0.00     0.031 C 
ATOM     53  C   UNL A   1      42.401  32.675  30.320  1.00  0.00     0.029 A 
ATOM     54  C   UNL A   1      43.140  31.746  29.606  1.00  0.00     0.049 A 
ATOM     55  H   UNL A   1      42.578  29.818  28.958  1.00  0.00     0.167 HD
ATOM     56  C   UNL A   1      45.165  30.880  28.465  1.00  0.00     0.074 A 
ATOM     57  C   UNL A   1      46.533  30.997  28.004  1.00  0.00     0.031 C 
ATOM     58  C   UNL A   1      44.493  31.860  29.120  1.00  0.00     0.034 A 
BRANCH  45  59
ATOM     59  C   UNL A   1      38.703  30.343  30.696  1.00  0.00     0.023 A 
ATOM     60  C   UNL A   1      37.771  31.168  30.043  1.00  0.00     0.031 A 
ATOM     61  C   UNL A   1      38.398  29.891  31.991  1.00  0.00     0.131 A 
ATOM     62  C   UNL A   1      36.595  31.548  30.706  1.00  0.00     0.055 A 
ATOM     63  C   UNL A   1      37.198  30.223  32.622  1.00  0.00     0.041 A 
ATOM     64  F   UNL A   1      39.262  29.115  32.664  1.00  0.00    -0.206 F 
ATOM     65  C   UNL A   1      36.291  31.062  31.982  1.00  0.00     0.022 A 
BRANCH  62  66
ATOM     66  S   UNL A   1      35.492  32.748  29.910  1.00  0.00     0.124 S 
ATOM     67  O   UNL A   1      36.387  33.371  28.939  1.00  0.00    -0.237 OA
ATOM     68  O   UNL A   1      34.442  31.899  29.358  1.00  0.00    -0.237 OA
ATOM     69  O   UNL A   1      35.076  33.615  31.011  1.00  0.00    -0.744 OA
ENDBRANCH  62  66
ENDBRANCH  45  59
BRANCH  46  70
ATOM     70  C   UNL A   1      47.079  27.204  26.223  1.00  0.00     0.023 A 
ATOM     71  C   UNL A   1      48.083  26.522  26.928  1.00  0.00     0.031 A 
ATOM     72  C   UNL A   1      47.278  27.450  24.854  1.00  0.00     0.131 A 
ATOM     73  C   UNL A   1      49.253  26.124  26.262  1.00  0.00     0.055 A 
ATOM     74  C   UNL A   1      48.426  27.019  24.187  1.00  0.00     0.041 A 
ATOM     75  F   UNL A   1      46.344  28.097  24.138  1.00  0.00    -0.206 F 
ATOM     76  C   UNL A   1      49.423  26.356  24.893  1.00  0.00     0.022 A 
BRANCH  73  77
ATOM     77  S   UNL A   1      50.567  25.312  27.212  1.00  0.00     0.124 S 
ATOM     78  O   UNL A   1      51.461  24.860  26.151  1.00  0.00    -0.237 OA
ATOM     79  O   UNL A   1      51.061  26.403  28.046  1.00  0.00    -0.237 OA
ATOM     80  O   UNL A   1      49.863  24.254  27.931  1.00  0.00    -0.744 OA
ENDBRANCH  73  77
ENDBRANCH  46  70
BRANCH  58  81
ATOM     81  C   UNL A   1      45.235  33.141  29.397  1.00  0.00     0.023 A 
ATOM     82  C   UNL A   1      45.071  34.275  28.585  1.00  0.00     0.031 A 
ATOM     83  C   UNL A   1      46.088  33.236  30.510  1.00  0.00     0.131 A 
ATOM     84  C   UNL A   1      45.772  35.453  28.884  1.00  0.00     0.055 A 
ATOM     85  C   UNL A   1      46.750  34.422  30.828  1.00  0.00     0.041 A 
ATOM     86  F   UNL A   1      46.276  32.179  31.318  1.00  0.00    -0.206 F 
ATOM     87  C   UNL A   1      46.598  35.538  30.010  1.00  0.00     0.022 A 
BRANCH  84  88
ATOM     88  S   UNL A   1      45.617  36.872  27.767  1.00  0.00     0.124 S 
ATOM     89  O   UNL A   1      45.079  37.898  28.655  1.00  0.00    -0.237 OA
ATOM     90  O   UNL A   1      46.990  37.075  27.316  1.00  0.00    -0.237 OA
ATOM     91  O   UNL A   1      44.694  36.398  26.737  1.00  0.00    -0.744 OA
ENDBRANCH  84  88
ENDBRANCH  58  81
ENDBRANCH  32  33
ENDBRANCH  25  27
ENDBRANCH  24  25
ENDBRANCH  23  24
ENDBRANCH   1  23
TORSDOF 18
ENDMDL
MODEL 3
REMARK VINA RESULT:     -11.1      4.676      8.651
REMARK SMILES CC[C@@H]1CC(=O)N(Cc2ccc(/C=C/C(=O)OCCOC(=O)c3ccc(-c4c5nc(c(-c6cc(S(=O)(=O)[O-])ccc6F)c6ccc([nH]6)c(-c6cc(S(=O)(=O)[O-])ccc6F)c6nc(c(-c7cc(S(=O)(=O)[O-])ccc7F)c7ccc4[nH]7)C=C6)C=C5)cc3)cc2F)C1
REMARK SMILES IDX 18 1 17 2 15 3 16 4 14 5 13 6 12 7 9 8 10 9 87 10 11 11
REMARK SMILES IDX 86 12 88 13 8 14 7 15 3 16 4 17 89 18 5 19 6 20 2 21 1 22
REMARK SMILES IDX 19 23 20 24 21 25 22 26 23 27 24 28 85 29 25 30 84 31 26 32
REMARK SMILES IDX 27 33 28 34 78 35 29 36 83 37 77 38 79 39 30 40 82 41 76 42
REMARK SMILES IDX 75 43 31 45 63 46 43 47 62 48 44 49 47 50 61 51 80 52 45 53
REMARK SMILES IDX 46 54 60 56 81 57 48 58 32 59 33 60 41 61 34 62 40 63 42 64
REMARK SMILES IDX 39 65 35 66 36 67 37 68 38 69 64 70 65 71 73 72 66 73 72 74
REMARK SMILES IDX 74 75 71 76 67 77 68 78 69 79 70 80 49 81 50 82 58 83 51 84
REMARK SMILES IDX 57 85 59 86 56 87 52 88 53 89 54 90 55 91
REMARK H PARENT 79 44 47 55
REMARK Flexibility Score: inf
ROOT
ATOM      1  C   UNL A   1      35.489  20.785  25.373  1.00  0.00     0.275 C 
ENDROOT
BRANCH   1   2
ATOM      2  O   UNL A   1      34.702  19.676  24.905  1.00  0.00    -0.459 OA
BRANCH   2   3
ATOM      3  C   UNL A   1      33.361  19.867  24.901  1.00  0.00     0.330 C 
ATOM      4  O   UNL A   1      32.512  19.024  25.153  1.00  0.00    -0.247 OA
BRANCH   3   5
ATOM      5  C   UNL A   1      32.986  21.257  24.575  1.00  0.00     0.094 C 
ATOM      6  C   UNL A   1      32.499  21.671  23.395  1.00  0.00     0.016 C 
BRANCH   6   7
ATOM      7  C   UNL A   1      32.181  23.078  23.102  1.00  0.00    -0.022 A 
ATOM      8  C   UNL A   1      31.593  25.768  22.445  1.00  0.00     0.007 A 
ATOM      9  C   UNL A   1      30.856  25.102  23.429  1.00  0.00     0.009 A 
ATOM     10  C   UNL A   1      32.656  25.088  21.845  1.00  0.00     0.128 A 
ATOM     11  C   UNL A   1      31.161  23.776  23.766  1.00  0.00     0.008 A 
ATOM     12  C   UNL A   1      32.947  23.760  22.155  1.00  0.00     0.047 A 
ATOM     13  F   UNL A   1      33.409  25.701  20.920  1.00  0.00    -0.207 F 
BRANCH   8  14
ATOM     14  C   UNL A   1      31.223  27.163  22.012  1.00  0.00     0.158 C 
BRANCH  14  15
ATOM     15  N   UNL A   1      31.381  28.147  23.073  1.00  0.00    -0.338 N 
ATOM     16  C   UNL A   1      32.333  29.131  24.963  1.00  0.00     0.017 C 
ATOM     17  C   UNL A   1      30.966  29.778  24.696  1.00  0.00     0.105 C 
ATOM     18  C   UNL A   1      32.665  28.519  23.608  1.00  0.00     0.124 C 
ATOM     19  C   UNL A   1      30.350  28.855  23.665  1.00  0.00     0.223 C 
ATOM     20  O   UNL A   1      29.161  28.785  23.402  1.00  0.00    -0.275 OA
BRANCH  16  21
ATOM     21  C   UNL A   1      32.238  28.115  26.119  1.00  0.00     0.002 C 
ATOM     22  C   UNL A   1      33.537  27.383  26.430  1.00  0.00     0.004 C 
ENDBRANCH  16  21
ENDBRANCH  14  15
ENDBRANCH   8  14
ENDBRANCH   6   7
ENDBRANCH   3   5
ENDBRANCH   2   3
ENDBRANCH   1   2
BRANCH   1  23
ATOM     23  C   UNL A   1      36.961  20.621  24.987  1.00  0.00     0.275 C 
BRANCH  23  24
ATOM     24  O   UNL A   1      37.752  21.763  25.366  1.00  0.00    -0.458 OA
BRANCH  24  25
ATOM     25  C   UNL A   1      38.906  21.470  26.016  1.00  0.00     0.338 C 
ATOM     26  O   UNL A   1      39.450  20.380  26.084  1.00  0.00    -0.246 OA
BRANCH  25  27
ATOM     27  C   UNL A   1      39.504  22.703  26.561  1.00  0.00     0.060 A 
ATOM     28  C   UNL A   1      39.044  23.930  26.074  1.00  0.00     0.016 A 
ATOM     29  C   UNL A   1      40.552  22.655  27.484  1.00  0.00     0.016 A 
ATOM     30  C   UNL A   1      39.635  25.117  26.503  1.00  0.00     0.010 A 
ATOM     31  C   UNL A   1      41.147  23.848  27.910  1.00  0.00     0.010 A 
ATOM     32  C   UNL A   1      40.700  25.085  27.415  1.00  0.00    -0.014 A 
BRANCH  32  33
ATOM     33  C   UNL A   1      41.380  26.346  27.806  1.00  0.00     0.031 A 
ATOM     34  C   UNL A   1      40.636  27.383  28.600  1.00  0.00     0.074 A 
ATOM     35  C   UNL A   1      42.670  26.545  27.476  1.00  0.00     0.049 A 
ATOM     36  N   UNL A   1      41.026  28.571  28.979  1.00  0.00    -0.248 NA
ATOM     37  C   UNL A   1      39.272  27.032  29.024  1.00  0.00     0.031 C 
ATOM     38  C   UNL A   1      43.513  25.589  26.756  1.00  0.00     0.029 A 
ATOM     39  N   UNL A   1      43.499  27.614  27.708  1.00  0.00    -0.354 N 
ATOM     40  C   UNL A   1      39.958  29.117  29.680  1.00  0.00     0.074 A 
ATOM     41  C   UNL A   1      38.893  28.136  29.655  1.00  0.00     0.031 C 
ATOM     42  C   UNL A   1      44.742  26.112  26.615  1.00  0.00     0.029 A 
ATOM     43  C   UNL A   1      44.762  27.455  27.189  1.00  0.00     0.049 A 
ATOM     44  H   UNL A   1      43.216  28.419  28.199  1.00  0.00     0.167 HD
ATOM     45  C   UNL A   1      39.877  30.323  30.294  1.00  0.00     0.034 A 
ATOM     46  C   UNL A   1      45.809  28.304  27.156  1.00  0.00     0.034 A 
ATOM     47  C   UNL A   1      40.945  31.292  30.315  1.00  0.00     0.049 A 
ATOM     48  C   UNL A   1      45.664  29.673  27.766  1.00  0.00     0.074 A 
ATOM     49  C   UNL A   1      40.961  32.541  30.912  1.00  0.00     0.029 A 
ATOM     50  N   UNL A   1      42.184  31.125  29.713  1.00  0.00    -0.354 N 
ATOM     51  N   UNL A   1      44.631  30.196  28.382  1.00  0.00    -0.248 NA
ATOM     52  C   UNL A   1      46.824  30.572  27.666  1.00  0.00     0.031 C 
ATOM     53  C   UNL A   1      42.185  33.151  30.621  1.00  0.00     0.029 A 
ATOM     54  C   UNL A   1      42.959  32.258  29.898  1.00  0.00     0.049 A 
ATOM     55  H   UNL A   1      42.469  30.319  29.225  1.00  0.00     0.167 HD
ATOM     56  C   UNL A   1      45.018  31.479  28.755  1.00  0.00     0.074 A 
ATOM     57  C   UNL A   1      46.383  31.650  28.300  1.00  0.00     0.031 C 
ATOM     58  C   UNL A   1      44.310  32.426  29.419  1.00  0.00     0.034 A 
BRANCH  45  59
ATOM     59  C   UNL A   1      38.572  30.683  30.953  1.00  0.00     0.023 A 
ATOM     60  C   UNL A   1      37.554  31.358  30.258  1.00  0.00     0.031 A 
ATOM     61  C   UNL A   1      38.340  30.330  32.294  1.00  0.00     0.131 A 
ATOM     62  C   UNL A   1      36.364  31.694  30.921  1.00  0.00     0.055 A 
ATOM     63  C   UNL A   1      37.130  30.613  32.930  1.00  0.00     0.041 A 
ATOM     64  F   UNL A   1      39.286  29.700  33.008  1.00  0.00    -0.206 F 
ATOM     65  C   UNL A   1      36.136  31.306  32.244  1.00  0.00     0.022 A 
BRANCH  62  66
ATOM     66  S   UNL A   1      35.139  32.712  30.053  1.00  0.00     0.124 S 
ATOM     67  O   UNL A   1      34.637  31.777  29.050  1.00  0.00    -0.237 OA
ATOM     68  O   UNL A   1      34.207  33.066  31.119  1.00  0.00    -0.237 OA
ATOM     69  O   UNL A   1      35.929  33.822  29.523  1.00  0.00    -0.744 OA
ENDBRANCH  62  66
ENDBRANCH  45  59
BRANCH  46  70
ATOM     70  C   UNL A   1      47.071  27.901  26.476  1.00  0.00     0.023 A 
ATOM     71  C   UNL A   1      47.199  27.976  25.080  1.00  0.00     0.031 A 
ATOM     72  C   UNL A   1      48.167  27.430  27.220  1.00  0.00     0.131 A 
ATOM     73  C   UNL A   1      48.394  27.568  24.469  1.00  0.00     0.055 A 
ATOM     74  C   UNL A   1      49.367  27.062  26.611  1.00  0.00     0.041 A 
ATOM     75  F   UNL A   1      48.091  27.344  28.558  1.00  0.00    -0.206 F 
ATOM     76  C   UNL A   1      49.483  27.126  25.226  1.00  0.00     0.022 A 
BRANCH  73  77
ATOM     77  S   UNL A   1      48.507  27.604  22.659  1.00  0.00     0.124 S 
ATOM     78  O   UNL A   1      48.510  26.181  22.336  1.00  0.00    -0.237 OA
ATOM     79  O   UNL A   1      47.304  28.343  22.292  1.00  0.00    -0.237 OA
ATOM     80  O   UNL A   1      49.764  28.305  22.410  1.00  0.00    -0.744 OA
ENDBRANCH  73  77
ENDBRANCH  46  70
BRANCH  58  81
ATOM     81  C   UNL A   1      45.004  33.729  29.714  1.00  0.00     0.023 A 
ATOM     82  C   UNL A   1      45.735  33.920  30.898  1.00  0.00     0.031 A 
ATOM     83  C   UNL A   1      44.962  34.779  28.780  1.00  0.00     0.131 A 
ATOM     84  C   UNL A   1      46.377  35.146  31.130  1.00  0.00     0.055 A 
ATOM     85  C   UNL A   1      45.638  35.980  28.996  1.00  0.00     0.041 A 
ATOM     86  F   UNL A   1      44.277  34.643  27.632  1.00  0.00    -0.206 F 
ATOM     87  C   UNL A   1      46.346  36.170  30.178  1.00  0.00     0.022 A 
BRANCH  84  88
ATOM     88  S   UNL A   1      47.234  35.401  32.707  1.00  0.00     0.124 S 
ATOM     89  O   UNL A   1      48.151  34.266  32.739  1.00  0.00    -0.237 OA
ATOM     90  O   UNL A   1      47.848  36.712  32.528  1.00  0.00    -0.237 OA
ATOM     91  O   UNL A   1      46.157  35.354  33.695  1.00  0.00    -0.744 OA
ENDBRANCH  84  88
ENDBRANCH  58  81
ENDBRANCH  32  33
ENDBRANCH  25  27
ENDBRANCH  24  25
ENDBRANCH  23  24
ENDBRANCH   1  23
TORSDOF 18
ENDMDL
