MODEL 1
REMARK VINA RESULT:     -12.6      0.000      0.000
REMARK SMILES CCC(=O)N1CCC[C@](C[C@H]2CC(c3ccc(C)cc3)=NO2)(C(=O)OCCOC(=O)c2ccc(-c3c4nc(c(-c5cc(S(=O)(=O)[O-])ccc5F)c5ccc([nH]5)c(-c5cc(S(=O)(=O)[O-])ccc5F)c5nc(c(-c6cc(S(=O)(=O)[O-])ccc6F)c6ccc3[nH]6)C=C5)C=C4)cc2)C1
REMARK SMILES IDX 26 1 25 2 23 3 24 4 9 5 5 6 6 7 94 8 7 9 8 10 3 11 4 12 2 13
REMARK SMILES IDX 1 14 10 15 11 16 12 17 22 18 13 19 21 20 14 21 15 22 20 23
REMARK SMILES IDX 16 24 19 25 17 26 18 27 27 28 28 29 29 30 30 31 31 32 32 33
REMARK SMILES IDX 93 34 33 35 92 36 34 37 35 38 36 39 86 40 37 41 91 42 85 43
REMARK SMILES IDX 87 44 38 45 90 46 84 47 83 48 39 50 71 51 51 52 70 53 52 54
REMARK SMILES IDX 55 55 69 56 88 57 53 58 54 59 68 61 89 62 56 63 40 64 41 65
REMARK SMILES IDX 49 66 42 67 48 68 50 69 47 70 43 71 44 72 45 73 46 74 72 75
REMARK SMILES IDX 73 76 81 77 74 78 80 79 82 80 79 81 75 82 76 83 77 84 78 85
REMARK SMILES IDX 57 86 58 87 66 88 59 89 65 90 67 91 64 92 60 93 61 94 62 95
REMARK SMILES IDX 63 96
REMARK H PARENT 87 49 55 60
REMARK Flexibility Score: inf
ROOT
ATOM      1  C   UNL A   1      33.721  29.278  25.859  1.00  0.00     0.274 C 
ENDROOT
BRANCH   1   2
ATOM      2  O   UNL A   1      32.748  28.255  25.591  1.00  0.00    -0.462 OA
BRANCH   2   3
ATOM      3  C   UNL A   1      33.170  27.304  24.724  1.00  0.00     0.314 C 
ATOM      4  O   UNL A   1      33.687  27.552  23.637  1.00  0.00    -0.252 OA
BRANCH   3   5
ATOM      5  C   UNL A   1      32.867  25.860  25.105  1.00  0.00     0.089 C 
ATOM      6  N   UNL A   1      30.801  26.240  23.801  1.00  0.00    -0.342 N 
ATOM      7  C   UNL A   1      29.941  26.215  24.977  1.00  0.00     0.119 C 
ATOM      8  C   UNL A   1      31.983  25.365  23.919  1.00  0.00     0.138 C 
ATOM      9  C   UNL A   1      30.690  26.525  26.276  1.00  0.00     0.023 C 
ATOM     10  C   UNL A   1      32.039  25.791  26.399  1.00  0.00     0.022 C 
BRANCH   6  11
ATOM     11  C   UNL A   1      30.699  27.311  22.900  1.00  0.00     0.222 C 
ATOM     12  O   UNL A   1      31.141  27.216  21.750  1.00  0.00    -0.275 OA
BRANCH  11  13
ATOM     13  C   UNL A   1      30.155  28.648  23.401  1.00  0.00     0.097 C 
ATOM     14  C   UNL A   1      29.238  29.386  22.434  1.00  0.00     0.014 C 
ENDBRANCH  11  13
ENDBRANCH   6  11
BRANCH   5  15
ATOM     15  C   UNL A   1      34.247  25.154  25.220  1.00  0.00     0.069 C 
BRANCH  15  16
ATOM     16  C   UNL A   1      34.503  23.885  26.030  1.00  0.00     0.212 C 
ATOM     17  C   UNL A   1      33.748  22.668  25.561  1.00  0.00     0.108 C 
ATOM     18  O   UNL A   1      35.889  23.550  26.084  1.00  0.00    -0.392 OA
ATOM     19  C   UNL A   1      34.891  21.748  25.387  1.00  0.00     0.091 C 
ATOM     20  N   UNL A   1      36.058  22.205  25.688  1.00  0.00    -0.090 NA
BRANCH  19  21
ATOM     21  C   UNL A   1      34.644  20.399  24.894  1.00  0.00    -0.001 A 
ATOM     22  C   UNL A   1      33.346  20.057  24.519  1.00  0.00     0.010 A 
ATOM     23  C   UNL A   1      35.677  19.463  24.875  1.00  0.00     0.010 A 
ATOM     24  C   UNL A   1      33.068  18.748  24.139  1.00  0.00     0.004 A 
ATOM     25  C   UNL A   1      35.390  18.150  24.503  1.00  0.00     0.004 A 
ATOM     26  C   UNL A   1      34.084  17.782  24.141  1.00  0.00    -0.051 A 
ATOM     27  C   UNL A   1      33.777  16.359  23.784  1.00  0.00     0.044 C 
ENDBRANCH  19  21
ENDBRANCH  15  16
ENDBRANCH   5  15
ENDBRANCH   3   5
ENDBRANCH   2   3
ENDBRANCH   1   2
BRANCH   1  28
ATOM     28  C   UNL A   1      34.649  28.955  27.037  1.00  0.00     0.275 C 
BRANCH  28  29
ATOM     29  O   UNL A   1      34.794  29.897  28.134  1.00  0.00    -0.458 OA
BRANCH  29  30
ATOM     30  C   UNL A   1      35.958  30.360  28.665  1.00  0.00     0.338 C 
ATOM     31  O   UNL A   1      35.977  31.369  29.362  1.00  0.00    -0.246 OA
BRANCH  30  32
ATOM     32  C   UNL A   1      37.162  29.512  28.517  1.00  0.00     0.060 A 
ATOM     33  C   UNL A   1      38.132  29.868  27.562  1.00  0.00     0.016 A 
ATOM     34  C   UNL A   1      37.426  28.516  29.439  1.00  0.00     0.016 A 
ATOM     35  C   UNL A   1      39.420  29.334  27.623  1.00  0.00     0.010 A 
ATOM     36  C   UNL A   1      38.735  28.166  29.639  1.00  0.00     0.010 A 
ATOM     37  C   UNL A   1      39.734  28.535  28.711  1.00  0.00    -0.014 A 
BRANCH  37  38
ATOM     38  C   UNL A   1      40.979  27.799  28.884  1.00  0.00     0.031 A 
ATOM     39  C   UNL A   1      41.140  26.356  28.604  1.00  0.00     0.074 A 
ATOM     40  C   UNL A   1      41.973  28.679  29.159  1.00  0.00     0.049 A 
ATOM     41  N   UNL A   1      42.302  25.844  28.425  1.00  0.00    -0.248 NA
ATOM     42  C   UNL A   1      40.084  25.354  28.401  1.00  0.00     0.031 C 
ATOM     43  C   UNL A   1      43.413  28.578  29.257  1.00  0.00     0.029 A 
ATOM     44  N   UNL A   1      41.719  29.941  29.724  1.00  0.00    -0.354 N 
ATOM     45  C   UNL A   1      42.178  24.540  27.988  1.00  0.00     0.074 A 
ATOM     46  C   UNL A   1      40.766  24.291  27.925  1.00  0.00     0.031 C 
ATOM     47  C   UNL A   1      43.821  29.461  30.197  1.00  0.00     0.029 A 
ATOM     48  C   UNL A   1      42.617  30.071  30.771  1.00  0.00     0.049 A 
ATOM     49  H   UNL A   1      41.043  30.596  29.436  1.00  0.00     0.167 HD
ATOM     50  C   UNL A   1      43.349  23.904  27.717  1.00  0.00     0.034 A 
ATOM     51  C   UNL A   1      42.079  29.826  32.007  1.00  0.00     0.034 A 
ATOM     52  C   UNL A   1      44.362  24.509  28.572  1.00  0.00     0.049 A 
ATOM     53  C   UNL A   1      42.675  28.536  32.539  1.00  0.00     0.074 A 
ATOM     54  C   UNL A   1      45.312  25.493  28.391  1.00  0.00     0.029 A 
ATOM     55  N   UNL A   1      44.145  24.397  29.936  1.00  0.00    -0.354 N 
ATOM     56  N   UNL A   1      42.951  27.471  31.819  1.00  0.00    -0.248 NA
ATOM     57  C   UNL A   1      43.217  28.472  33.887  1.00  0.00     0.031 C 
ATOM     58  C   UNL A   1      45.520  26.096  29.672  1.00  0.00     0.029 A 
ATOM     59  C   UNL A   1      44.699  25.468  30.601  1.00  0.00     0.049 A 
ATOM     60  H   UNL A   1      43.662  23.656  30.368  1.00  0.00     0.167 HD
ATOM     61  C   UNL A   1      43.826  26.678  32.525  1.00  0.00     0.074 A 
ATOM     62  C   UNL A   1      43.929  27.338  33.822  1.00  0.00     0.031 C 
ATOM     63  C   UNL A   1      44.491  25.583  32.033  1.00  0.00     0.034 A 
BRANCH  50  64
ATOM     64  C   UNL A   1      43.687  22.874  26.677  1.00  0.00     0.023 A 
ATOM     65  C   UNL A   1      42.953  21.662  26.721  1.00  0.00     0.031 A 
ATOM     66  C   UNL A   1      44.775  22.894  25.791  1.00  0.00     0.131 A 
ATOM     67  C   UNL A   1      43.327  20.532  25.980  1.00  0.00     0.055 A 
ATOM     68  C   UNL A   1      45.129  21.771  25.014  1.00  0.00     0.041 A 
ATOM     69  F   UNL A   1      45.559  23.975  25.668  1.00  0.00    -0.206 F 
ATOM     70  C   UNL A   1      44.415  20.578  25.117  1.00  0.00     0.022 A 
BRANCH  67  71
ATOM     71  S   UNL A   1      42.402  18.989  26.231  1.00  0.00     0.124 S 
ATOM     72  O   UNL A   1      43.153  18.041  25.415  1.00  0.00    -0.237 OA
ATOM     73  O   UNL A   1      42.487  18.803  27.676  1.00  0.00    -0.237 OA
ATOM     74  O   UNL A   1      41.065  19.308  25.731  1.00  0.00    -0.744 OA
ENDBRANCH  67  71
ENDBRANCH  50  64
BRANCH  51  75
ATOM     75  C   UNL A   1      40.661  30.351  32.197  1.00  0.00     0.023 A 
ATOM     76  C   UNL A   1      40.375  31.677  31.755  1.00  0.00     0.031 A 
ATOM     77  C   UNL A   1      39.550  29.578  32.556  1.00  0.00     0.131 A 
ATOM     78  C   UNL A   1      39.061  32.128  31.537  1.00  0.00     0.055 A 
ATOM     79  C   UNL A   1      38.228  30.064  32.421  1.00  0.00     0.041 A 
ATOM     80  F   UNL A   1      39.698  28.307  32.954  1.00  0.00    -0.206 F 
ATOM     81  C   UNL A   1      37.977  31.329  31.879  1.00  0.00     0.022 A 
BRANCH  78  82
ATOM     82  S   UNL A   1      38.809  33.653  30.564  1.00  0.00     0.124 S 
ATOM     83  O   UNL A   1      38.613  33.127  29.217  1.00  0.00    -0.237 OA
ATOM     84  O   UNL A   1      37.629  34.250  31.189  1.00  0.00    -0.237 OA
ATOM     85  O   UNL A   1      40.045  34.401  30.770  1.00  0.00    -0.744 OA
ENDBRANCH  78  82
ENDBRANCH  51  75
BRANCH  63  86
ATOM     86  C   UNL A   1      45.036  24.479  32.912  1.00  0.00     0.023 A 
ATOM     87  C   UNL A   1      46.203  24.646  33.657  1.00  0.00     0.031 A 
ATOM     88  C   UNL A   1      44.331  23.272  33.145  1.00  0.00     0.131 A 
ATOM     89  C   UNL A   1      46.707  23.619  34.458  1.00  0.00     0.055 A 
ATOM     90  C   UNL A   1      44.753  22.314  34.071  1.00  0.00     0.041 A 
ATOM     91  F   UNL A   1      43.193  22.970  32.504  1.00  0.00    -0.206 F 
ATOM     92  C   UNL A   1      45.969  22.469  34.713  1.00  0.00     0.022 A 
BRANCH  89  93
ATOM     93  S   UNL A   1      48.417  23.782  35.011  1.00  0.00     0.124 S 
ATOM     94  O   UNL A   1      49.150  23.524  33.773  1.00  0.00    -0.237 OA
ATOM     95  O   UNL A   1      48.461  25.159  35.493  1.00  0.00    -0.237 OA
ATOM     96  O   UNL A   1      48.545  22.752  36.037  1.00  0.00    -0.744 OA
ENDBRANCH  89  93
ENDBRANCH  63  86
ENDBRANCH  37  38
ENDBRANCH  30  32
ENDBRANCH  29  30
ENDBRANCH  28  29
ENDBRANCH   1  28
TORSDOF 19
ENDMDL
MODEL 2
REMARK VINA RESULT:     -12.0      3.957     10.587
REMARK SMILES CCC(=O)N1CCC[C@](C[C@H]2CC(c3ccc(C)cc3)=NO2)(C(=O)OCCOC(=O)c2ccc(-c3c4nc(c(-c5cc(S(=O)(=O)[O-])ccc5F)c5ccc([nH]5)c(-c5cc(S(=O)(=O)[O-])ccc5F)c5nc(c(-c6cc(S(=O)(=O)[O-])ccc6F)c6ccc3[nH]6)C=C5)C=C4)cc2)C1
REMARK SMILES IDX 26 1 25 2 23 3 24 4 9 5 5 6 6 7 94 8 7 9 8 10 3 11 4 12 2 13
REMARK SMILES IDX 1 14 10 15 11 16 12 17 22 18 13 19 21 20 14 21 15 22 20 23
REMARK SMILES IDX 16 24 19 25 17 26 18 27 27 28 28 29 29 30 30 31 31 32 32 33
REMARK SMILES IDX 93 34 33 35 92 36 34 37 35 38 36 39 86 40 37 41 91 42 85 43
REMARK SMILES IDX 87 44 38 45 90 46 84 47 83 48 39 50 71 51 51 52 70 53 52 54
REMARK SMILES IDX 55 55 69 56 88 57 53 58 54 59 68 61 89 62 56 63 40 64 41 65
REMARK SMILES IDX 49 66 42 67 48 68 50 69 47 70 43 71 44 72 45 73 46 74 72 75
REMARK SMILES IDX 73 76 81 77 74 78 80 79 82 80 79 81 75 82 76 83 77 84 78 85
REMARK SMILES IDX 57 86 58 87 66 88 59 89 65 90 67 91 64 92 60 93 61 94 62 95
REMARK SMILES IDX 63 96
REMARK H PARENT 87 49 55 60
REMARK Flexibility Score: inf
ROOT
ATOM      1  C   UNL A   1      36.702  23.656  24.754  1.00  0.00     0.274 C 
ENDROOT
BRANCH   1   2
ATOM      2  O   UNL A   1      35.307  23.920  24.975  1.00  0.00    -0.462 OA
BRANCH   2   3
ATOM      3  C   UNL A   1      34.496  23.480  23.984  1.00  0.00     0.314 C 
ATOM      4  O   UNL A   1      34.904  22.955  22.950  1.00  0.00    -0.252 OA
BRANCH   3   5
ATOM      5  C   UNL A   1      33.008  23.771  24.148  1.00  0.00     0.089 C 
ATOM      6  N   UNL A   1      32.994  21.593  25.317  1.00  0.00    -0.342 N 
ATOM      7  C   UNL A   1      32.246  20.924  24.260  1.00  0.00     0.119 C 
ATOM      8  C   UNL A   1      32.650  23.019  25.467  1.00  0.00     0.138 C 
ATOM      9  C   UNL A   1      32.356  21.629  22.906  1.00  0.00     0.023 C 
ATOM     10  C   UNL A   1      32.195  23.159  22.995  1.00  0.00     0.022 C 
BRANCH   6  11
ATOM     11  C   UNL A   1      34.183  21.014  25.787  1.00  0.00     0.222 C 
ATOM     12  O   UNL A   1      34.686  21.377  26.856  1.00  0.00    -0.275 OA
BRANCH  11  13
ATOM     13  C   UNL A   1      34.924  20.020  24.894  1.00  0.00     0.097 C 
ATOM     14  C   UNL A   1      36.441  20.159  24.875  1.00  0.00     0.014 C 
ENDBRANCH  11  13
ENDBRANCH   6  11
BRANCH   5  15
ATOM     15  C   UNL A   1      32.887  25.318  24.233  1.00  0.00     0.069 C 
BRANCH  15  16
ATOM     16  C   UNL A   1      31.647  26.061  24.726  1.00  0.00     0.212 C 
ATOM     17  C   UNL A   1      31.508  27.473  24.217  1.00  0.00     0.108 C 
ATOM     18  O   UNL A   1      30.441  25.362  24.420  1.00  0.00    -0.392 OA
ATOM     19  C   UNL A   1      30.153  27.371  23.639  1.00  0.00     0.091 C 
ATOM     20  N   UNL A   1      29.551  26.237  23.760  1.00  0.00    -0.090 NA
BRANCH  19  21
ATOM     21  C   UNL A   1      29.577  28.534  22.974  1.00  0.00    -0.001 A 
ATOM     22  C   UNL A   1      28.191  28.679  22.976  1.00  0.00     0.010 A 
ATOM     23  C   UNL A   1      30.401  29.429  22.295  1.00  0.00     0.010 A 
ATOM     24  C   UNL A   1      27.614  29.727  22.266  1.00  0.00     0.004 A 
ATOM     25  C   UNL A   1      29.817  30.471  21.575  1.00  0.00     0.004 A 
ATOM     26  C   UNL A   1      28.420  30.622  21.550  1.00  0.00    -0.051 A 
ATOM     27  C   UNL A   1      27.799  31.719  20.738  1.00  0.00     0.044 C 
ENDBRANCH  19  21
ENDBRANCH  15  16
ENDBRANCH   5  15
ENDBRANCH   3   5
ENDBRANCH   2   3
ENDBRANCH   1   2
BRANCH   1  28
ATOM     28  C   UNL A   1      37.525  23.560  26.044  1.00  0.00     0.275 C 
BRANCH  28  29
ATOM     29  O   UNL A   1      38.769  24.301  26.175  1.00  0.00    -0.458 OA
BRANCH  29  30
ATOM     30  C   UNL A   1      39.566  24.372  27.275  1.00  0.00     0.338 C 
ATOM     31  O   UNL A   1      40.050  23.360  27.771  1.00  0.00    -0.246 OA
BRANCH  30  32
ATOM     32  C   UNL A   1      39.966  25.717  27.743  1.00  0.00     0.060 A 
ATOM     33  C   UNL A   1      39.839  26.810  26.865  1.00  0.00     0.016 A 
ATOM     34  C   UNL A   1      40.255  25.929  29.078  1.00  0.00     0.016 A 
ATOM     35  C   UNL A   1      39.854  28.118  27.350  1.00  0.00     0.010 A 
ATOM     36  C   UNL A   1      40.045  27.185  29.584  1.00  0.00     0.010 A 
ATOM     37  C   UNL A   1      39.888  28.294  28.725  1.00  0.00    -0.014 A 
BRANCH  37  38
ATOM     38  C   UNL A   1      40.027  29.574  29.407  1.00  0.00     0.031 A 
ATOM     39  C   UNL A   1      39.035  30.669  29.333  1.00  0.00     0.074 A 
ATOM     40  C   UNL A   1      41.096  29.513  30.238  1.00  0.00     0.049 A 
ATOM     41  N   UNL A   1      39.019  31.604  30.210  1.00  0.00    -0.248 NA
ATOM     42  C   UNL A   1      37.926  30.818  28.382  1.00  0.00     0.031 C 
ATOM     43  C   UNL A   1      41.621  30.376  31.274  1.00  0.00     0.029 A 
ATOM     44  N   UNL A   1      42.155  28.613  30.029  1.00  0.00    -0.354 N 
ATOM     45  C   UNL A   1      37.894  32.386  30.042  1.00  0.00     0.074 A 
ATOM     46  C   UNL A   1      37.199  31.820  28.920  1.00  0.00     0.031 C 
ATOM     47  C   UNL A   1      42.967  30.251  31.266  1.00  0.00     0.029 A 
ATOM     48  C   UNL A   1      43.314  29.362  30.152  1.00  0.00     0.049 A 
ATOM     49  H   UNL A   1      42.087  27.650  29.835  1.00  0.00     0.167 HD
ATOM     50  C   UNL A   1      37.741  33.389  30.949  1.00  0.00     0.034 A 
ATOM     51  C   UNL A   1      43.880  29.722  28.956  1.00  0.00     0.034 A 
ATOM     52  C   UNL A   1      39.079  33.761  31.391  1.00  0.00     0.049 A 
ATOM     53  C   UNL A   1      43.725  31.222  28.789  1.00  0.00     0.074 A 
ATOM     54  C   UNL A   1      39.861  33.431  32.478  1.00  0.00     0.029 A 
ATOM     55  N   UNL A   1      39.930  34.231  30.403  1.00  0.00    -0.354 N 
ATOM     56  N   UNL A   1      42.676  31.925  29.154  1.00  0.00    -0.248 NA
ATOM     57  C   UNL A   1      44.863  32.045  28.412  1.00  0.00     0.031 C 
ATOM     58  C   UNL A   1      41.221  33.541  32.048  1.00  0.00     0.029 A 
ATOM     59  C   UNL A   1      41.238  33.937  30.716  1.00  0.00     0.049 A 
ATOM     60  H   UNL A   1      39.640  34.709  29.593  1.00  0.00     0.167 HD
ATOM     61  C   UNL A   1      43.038  33.250  29.226  1.00  0.00     0.074 A 
ATOM     62  C   UNL A   1      44.405  33.268  28.719  1.00  0.00     0.031 C 
ATOM     63  C   UNL A   1      42.275  34.262  29.753  1.00  0.00     0.034 A 
BRANCH  50  64
ATOM     64  C   UNL A   1      36.501  33.980  31.556  1.00  0.00     0.023 A 
ATOM     65  C   UNL A   1      35.482  34.379  30.656  1.00  0.00     0.031 A 
ATOM     66  C   UNL A   1      36.316  34.361  32.894  1.00  0.00     0.131 A 
ATOM     67  C   UNL A   1      34.390  35.162  31.059  1.00  0.00     0.055 A 
ATOM     68  C   UNL A   1      35.198  35.114  33.310  1.00  0.00     0.041 A 
ATOM     69  F   UNL A   1      37.216  34.058  33.840  1.00  0.00    -0.206 F 
ATOM     70  C   UNL A   1      34.237  35.533  32.390  1.00  0.00     0.022 A 
BRANCH  67  71
ATOM     71  S   UNL A   1      33.226  35.741  29.791  1.00  0.00     0.124 S 
ATOM     72  O   UNL A   1      32.453  34.537  29.507  1.00  0.00    -0.237 OA
ATOM     73  O   UNL A   1      32.516  36.813  30.482  1.00  0.00    -0.237 OA
ATOM     74  O   UNL A   1      34.099  36.183  28.704  1.00  0.00    -0.744 OA
ENDBRANCH  67  71
ENDBRANCH  50  64
BRANCH  51  75
ATOM     75  C   UNL A   1      43.821  28.647  27.878  1.00  0.00     0.023 A 
ATOM     76  C   UNL A   1      44.281  27.339  28.213  1.00  0.00     0.031 A 
ATOM     77  C   UNL A   1      43.145  28.760  26.657  1.00  0.00     0.131 A 
ATOM     78  C   UNL A   1      43.942  26.206  27.451  1.00  0.00     0.055 A 
ATOM     79  C   UNL A   1      42.881  27.631  25.844  1.00  0.00     0.041 A 
ATOM     80  F   UNL A   1      42.641  29.935  26.256  1.00  0.00    -0.206 F 
ATOM     81  C   UNL A   1      43.248  26.345  26.254  1.00  0.00     0.022 A 
BRANCH  78  82
ATOM     82  S   UNL A   1      44.190  24.552  28.183  1.00  0.00     0.124 S 
ATOM     83  O   UNL A   1      43.310  24.597  29.345  1.00  0.00    -0.237 OA
ATOM     84  O   UNL A   1      43.776  23.651  27.108  1.00  0.00    -0.237 OA
ATOM     85  O   UNL A   1      45.619  24.519  28.481  1.00  0.00    -0.744 OA
ENDBRANCH  78  82
ENDBRANCH  51  75
BRANCH  63  86
ATOM     86  C   UNL A   1      42.464  35.719  29.391  1.00  0.00     0.023 A 
ATOM     87  C   UNL A   1      43.371  36.530  30.072  1.00  0.00     0.031 A 
ATOM     88  C   UNL A   1      41.847  36.310  28.260  1.00  0.00     0.131 A 
ATOM     89  C   UNL A   1      43.533  37.877  29.739  1.00  0.00     0.055 A 
ATOM     90  C   UNL A   1      42.133  37.608  27.832  1.00  0.00     0.041 A 
ATOM     91  F   UNL A   1      40.954  35.653  27.505  1.00  0.00    -0.206 F 
ATOM     92  C   UNL A   1      42.959  38.416  28.594  1.00  0.00     0.022 A 
BRANCH  89  93
ATOM     93  S   UNL A   1      44.381  38.917  30.946  1.00  0.00     0.124 S 
ATOM     94  O   UNL A   1      43.470  40.055  31.043  1.00  0.00    -0.237 OA
ATOM     95  O   UNL A   1      44.437  38.053  32.121  1.00  0.00    -0.237 OA
ATOM     96  O   UNL A   1      45.665  39.200  30.311  1.00  0.00    -0.744 OA
ENDBRANCH  89  93
ENDBRANCH  63  86
ENDBRANCH  37  38
ENDBRANCH  30  32
ENDBRANCH  29  30
ENDBRANCH  28  29
ENDBRANCH   1  28
TORSDOF 19
ENDMDL
MODEL 3
REMARK VINA RESULT:     -12.0      3.476      9.764
REMARK SMILES CCC(=O)N1CCC[C@](C[C@H]2CC(c3ccc(C)cc3)=NO2)(C(=O)OCCOC(=O)c2ccc(-c3c4nc(c(-c5cc(S(=O)(=O)[O-])ccc5F)c5ccc([nH]5)c(-c5cc(S(=O)(=O)[O-])ccc5F)c5nc(c(-c6cc(S(=O)(=O)[O-])ccc6F)c6ccc3[nH]6)C=C5)C=C4)cc2)C1
REMARK SMILES IDX 26 1 25 2 23 3 24 4 9 5 5 6 6 7 94 8 7 9 8 10 3 11 4 12 2 13
REMARK SMILES IDX 1 14 10 15 11 16 12 17 22 18 13 19 21 20 14 21 15 22 20 23
REMARK SMILES IDX 16 24 19 25 17 26 18 27 27 28 28 29 29 30 30 31 31 32 32 33
REMARK SMILES IDX 93 34 33 35 92 36 34 37 35 38 36 39 86 40 37 41 91 42 85 43
REMARK SMILES IDX 87 44 38 45 90 46 84 47 83 48 39 50 71 51 51 52 70 53 52 54
REMARK SMILES IDX 55 55 69 56 88 57 53 58 54 59 68 61 89 62 56 63 40 64 41 65
REMARK SMILES IDX 49 66 42 67 48 68 50 69 47 70 43 71 44 72 45 73 46 74 72 75
REMARK SMILES IDX 73 76 81 77 74 78 80 79 82 80 79 81 75 82 76 83 77 84 78 85
REMARK SMILES IDX 57 86 58 87 66 88 59 89 65 90 67 91 64 92 60 93 61 94 62 95
REMARK SMILES IDX 63 96
REMARK H PARENT 87 49 55 60
REMARK Flexibility Score: inf
ROOT
ATOM      1  C   UNL A   1      36.594  22.233  25.893  1.00  0.00     0.274 C 
ENDROOT
BRANCH   1   2
ATOM      2  O   UNL A   1      35.207  21.910  25.698  1.00  0.00    -0.462 OA
BRANCH   2   3
ATOM      3  C   UNL A   1      34.675  22.413  24.559  1.00  0.00     0.314 C 
ATOM      4  O   UNL A   1      35.212  22.323  23.457  1.00  0.00    -0.252 OA
BRANCH   3   5
ATOM      5  C   UNL A   1      33.396  23.227  24.712  1.00  0.00     0.089 C 
ATOM      6  N   UNL A   1      32.293  21.058  24.274  1.00  0.00    -0.342 N 
ATOM      7  C   UNL A   1      31.811  21.461  22.960  1.00  0.00     0.119 C 
ATOM      8  C   UNL A   1      32.374  22.172  25.238  1.00  0.00     0.138 C 
ATOM      9  C   UNL A   1      32.613  22.615  22.353  1.00  0.00     0.023 C 
ATOM     10  C   UNL A   1      32.907  23.751  23.352  1.00  0.00     0.022 C 
BRANCH   6  11
ATOM     11  C   UNL A   1      32.993  19.848  24.407  1.00  0.00     0.222 C 
ATOM     12  O   UNL A   1      33.524  19.312  23.428  1.00  0.00    -0.275 OA
BRANCH  11  13
ATOM     13  C   UNL A   1      32.977  19.130  25.755  1.00  0.00     0.097 C 
ATOM     14  C   UNL A   1      32.634  17.646  25.704  1.00  0.00     0.014 C 
ENDBRANCH  11  13
ENDBRANCH   6  11
BRANCH   5  15
ATOM     15  C   UNL A   1      33.732  24.359  25.722  1.00  0.00     0.069 C 
BRANCH  15  16
ATOM     16  C   UNL A   1      32.725  25.386  26.235  1.00  0.00     0.212 C 
ATOM     17  C   UNL A   1      32.446  26.528  25.291  1.00  0.00     0.108 C 
ATOM     18  O   UNL A   1      31.477  24.791  26.587  1.00  0.00    -0.392 OA
ATOM     19  C   UNL A   1      30.975  26.406  25.221  1.00  0.00     0.091 C 
ATOM     20  N   UNL A   1      30.432  25.481  25.936  1.00  0.00    -0.090 NA
BRANCH  19  21
ATOM     21  C   UNL A   1      30.230  27.320  24.364  1.00  0.00    -0.001 A 
ATOM     22  C   UNL A   1      30.738  28.602  24.161  1.00  0.00     0.010 A 
ATOM     23  C   UNL A   1      29.003  26.930  23.829  1.00  0.00     0.010 A 
ATOM     24  C   UNL A   1      29.995  29.521  23.427  1.00  0.00     0.004 A 
ATOM     25  C   UNL A   1      28.258  27.860  23.103  1.00  0.00     0.004 A 
ATOM     26  C   UNL A   1      28.746  29.162  22.905  1.00  0.00    -0.051 A 
ATOM     27  C   UNL A   1      27.918  30.167  22.161  1.00  0.00     0.044 C 
ENDBRANCH  19  21
ENDBRANCH  15  16
ENDBRANCH   5  15
ENDBRANCH   3   5
ENDBRANCH   2   3
ENDBRANCH   1   2
BRANCH   1  28
ATOM     28  C   UNL A   1      37.547  21.067  25.602  1.00  0.00     0.275 C 
BRANCH  28  29
ATOM     29  O   UNL A   1      38.966  21.314  25.407  1.00  0.00    -0.458 OA
BRANCH  29  30
ATOM     30  C   UNL A   1      39.985  20.904  26.210  1.00  0.00     0.338 C 
ATOM     31  O   UNL A   1      40.433  19.765  26.131  1.00  0.00    -0.246 OA
BRANCH  30  32
ATOM     32  C   UNL A   1      40.643  21.927  27.053  1.00  0.00     0.060 A 
ATOM     33  C   UNL A   1      41.716  21.541  27.878  1.00  0.00     0.016 A 
ATOM     34  C   UNL A   1      40.350  23.266  26.875  1.00  0.00     0.016 A 
ATOM     35  C   UNL A   1      42.587  22.495  28.406  1.00  0.00     0.010 A 
ATOM     36  C   UNL A   1      41.320  24.178  27.198  1.00  0.00     0.010 A 
ATOM     37  C   UNL A   1      42.421  23.810  28.001  1.00  0.00    -0.014 A 
BRANCH  37  38
ATOM     38  C   UNL A   1      43.152  24.953  28.532  1.00  0.00     0.031 A 
ATOM     39  C   UNL A   1      42.525  26.232  28.930  1.00  0.00     0.074 A 
ATOM     40  C   UNL A   1      44.437  24.583  28.762  1.00  0.00     0.049 A 
ATOM     41  N   UNL A   1      43.132  27.051  29.708  1.00  0.00    -0.248 NA
ATOM     42  C   UNL A   1      41.171  26.709  28.613  1.00  0.00     0.031 C 
ATOM     43  C   UNL A   1      45.563  25.203  29.424  1.00  0.00     0.029 A 
ATOM     44  N   UNL A   1      45.038  23.510  28.082  1.00  0.00    -0.354 N 
ATOM     45  C   UNL A   1      42.273  28.063  30.086  1.00  0.00     0.074 A 
ATOM     46  C   UNL A   1      41.030  27.776  29.427  1.00  0.00     0.031 C 
ATOM     47  C   UNL A   1      46.684  24.802  28.783  1.00  0.00     0.029 A 
ATOM     48  C   UNL A   1      46.262  23.985  27.641  1.00  0.00     0.049 A 
ATOM     49  H   UNL A   1      44.666  22.608  27.946  1.00  0.00     0.167 HD
ATOM     50  C   UNL A   1      42.792  28.973  30.954  1.00  0.00     0.034 A 
ATOM     51  C   UNL A   1      46.283  24.345  26.318  1.00  0.00     0.034 A 
ATOM     52  C   UNL A   1      44.228  29.010  30.712  1.00  0.00     0.049 A 
ATOM     53  C   UNL A   1      46.423  25.854  26.237  1.00  0.00     0.074 A 
ATOM     54  C   UNL A   1      45.321  28.411  31.303  1.00  0.00     0.029 A 
ATOM     55  N   UNL A   1      44.615  29.396  29.438  1.00  0.00    -0.354 N 
ATOM     56  N   UNL A   1      45.856  26.715  27.051  1.00  0.00    -0.248 NA
ATOM     57  C   UNL A   1      47.418  26.458  25.366  1.00  0.00     0.031 C 
ATOM     58  C   UNL A   1      46.315  28.281  30.282  1.00  0.00     0.029 A 
ATOM     59  C   UNL A   1      45.811  28.804  29.098  1.00  0.00     0.049 A 
ATOM     60  H   UNL A   1      44.105  30.007  28.858  1.00  0.00     0.167 HD
ATOM     61  C   UNL A   1      46.508  27.921  26.938  1.00  0.00     0.074 A 
ATOM     62  C   UNL A   1      47.452  27.709  25.847  1.00  0.00     0.031 C 
ATOM     63  C   UNL A   1      46.333  29.008  27.759  1.00  0.00     0.034 A 
BRANCH  50  64
ATOM     64  C   UNL A   1      42.146  29.741  32.071  1.00  0.00     0.023 A 
ATOM     65  C   UNL A   1      42.475  29.340  33.390  1.00  0.00     0.031 A 
ATOM     66  C   UNL A   1      41.109  30.679  31.961  1.00  0.00     0.131 A 
ATOM     67  C   UNL A   1      41.767  29.797  34.512  1.00  0.00     0.055 A 
ATOM     68  C   UNL A   1      40.421  31.171  33.091  1.00  0.00     0.041 A 
ATOM     69  F   UNL A   1      40.692  31.128  30.769  1.00  0.00    -0.206 F 
ATOM     70  C   UNL A   1      40.737  30.719  34.372  1.00  0.00     0.022 A 
BRANCH  67  71
ATOM     71  S   UNL A   1      42.178  29.098  36.137  1.00  0.00     0.124 S 
ATOM     72  O   UNL A   1      42.081  30.264  37.009  1.00  0.00    -0.237 OA
ATOM     73  O   UNL A   1      41.148  28.078  36.310  1.00  0.00    -0.237 OA
ATOM     74  O   UNL A   1      43.532  28.578  35.952  1.00  0.00    -0.744 OA
ENDBRANCH  67  71
ENDBRANCH  50  64
BRANCH  51  75
ATOM     75  C   UNL A   1      45.487  23.427  25.399  1.00  0.00     0.023 A 
ATOM     76  C   UNL A   1      45.981  22.107  25.181  1.00  0.00     0.031 A 
ATOM     77  C   UNL A   1      44.191  23.675  24.928  1.00  0.00     0.131 A 
ATOM     78  C   UNL A   1      45.171  21.076  24.673  1.00  0.00     0.055 A 
ATOM     79  C   UNL A   1      43.406  22.659  24.335  1.00  0.00     0.041 A 
ATOM     80  F   UNL A   1      43.613  24.871  25.108  1.00  0.00    -0.206 F 
ATOM     81  C   UNL A   1      43.879  21.346  24.236  1.00  0.00     0.022 A 
BRANCH  78  82
ATOM     82  S   UNL A   1      45.741  19.349  24.844  1.00  0.00     0.124 S 
ATOM     83  O   UNL A   1      44.764  18.795  25.775  1.00  0.00    -0.237 OA
ATOM     84  O   UNL A   1      45.670  18.843  23.474  1.00  0.00    -0.237 OA
ATOM     85  O   UNL A   1      47.097  19.485  25.367  1.00  0.00    -0.744 OA
ENDBRANCH  78  82
ENDBRANCH  51  75
BRANCH  63  86
ATOM     86  C   UNL A   1      46.669  30.423  27.344  1.00  0.00     0.023 A 
ATOM     87  C   UNL A   1      45.678  31.331  26.970  1.00  0.00     0.031 A 
ATOM     88  C   UNL A   1      47.978  30.957  27.443  1.00  0.00     0.131 A 
ATOM     89  C   UNL A   1      45.996  32.633  26.577  1.00  0.00     0.055 A 
ATOM     90  C   UNL A   1      48.269  32.303  27.207  1.00  0.00     0.041 A 
ATOM     91  F   UNL A   1      49.033  30.207  27.793  1.00  0.00    -0.206 F 
ATOM     92  C   UNL A   1      47.277  33.147  26.737  1.00  0.00     0.022 A 
BRANCH  89  93
ATOM     93  S   UNL A   1      44.713  33.557  25.707  1.00  0.00     0.124 S 
ATOM     94  O   UNL A   1      44.149  34.364  26.787  1.00  0.00    -0.237 OA
ATOM     95  O   UNL A   1      45.479  34.292  24.705  1.00  0.00    -0.237 OA
ATOM     96  O   UNL A   1      43.834  32.513  25.185  1.00  0.00    -0.744 OA
ENDBRANCH  89  93
ENDBRANCH  63  86
ENDBRANCH  37  38
ENDBRANCH  30  32
ENDBRANCH  29  30
ENDBRANCH  28  29
ENDBRANCH   1  28
TORSDOF 19
ENDMDL
