MODEL 1
REMARK VINA RESULT:     -10.7      0.000      0.000
REMARK SMILES CC[C@](C)(NC(=O)c1cccc2ncccc12)C(=O)OCCOC(=O)c1ccc(-c2c3nc(c(-c4cc(S(=O)(=O)[O-])ccc4F)c4ccc([nH]4)c(-c4cc(S(=O)(=O)[O-])ccc4F)c4nc(c(-c5cc(S(=O)(=O)[O-])ccc5F)c5ccc2[nH]5)C=C4)C=C3)cc1
REMARK SMILES IDX 22 1 21 2 20 3 18 4 19 5 3 6 4 7 2 8 1 9 5 10 6 11 7 13 8 14
REMARK SMILES IDX 9 15 17 16 10 17 12 18 16 19 11 20 13 21 15 22 14 23 23 24
REMARK SMILES IDX 24 25 25 26 26 27 27 28 88 29 28 30 87 31 29 32 30 33 31 34
REMARK SMILES IDX 81 35 32 36 86 37 80 38 82 39 33 40 85 41 79 42 78 43 34 45
REMARK SMILES IDX 66 46 46 47 65 48 47 49 50 50 64 51 83 52 48 53 49 54 63 56
REMARK SMILES IDX 84 57 51 58 35 59 36 60 44 61 37 62 43 63 45 64 42 65 38 66
REMARK SMILES IDX 39 67 40 68 41 69 67 70 68 71 76 72 69 73 75 74 77 75 74 76
REMARK SMILES IDX 70 77 71 78 72 79 73 80 52 81 53 82 61 83 54 84 60 85 62 86
REMARK SMILES IDX 59 87 55 88 56 89 57 90 58 91
REMARK H PARENT 5 12 82 44 50 55
REMARK Flexibility Score: inf
ROOT
ATOM      1  C   UNL A   1      40.297  20.046  26.417  1.00  0.00     0.275 C 
ENDROOT
BRANCH   1   2
ATOM      2  C   UNL A   1      41.738  19.541  26.552  1.00  0.00     0.274 C 
BRANCH   2   3
ATOM      3  O   UNL A   1      42.394  19.376  25.275  1.00  0.00    -0.460 OA
BRANCH   3   4
ATOM      4  C   UNL A   1      43.693  18.990  25.312  1.00  0.00     0.331 C 
ATOM      5  O   UNL A   1      44.089  18.068  26.019  1.00  0.00    -0.249 OA
BRANCH   4   6
ATOM      6  C   UNL A   1      44.648  19.868  24.445  1.00  0.00     0.135 C 
ATOM      7  C   UNL A   1      44.858  19.181  23.082  1.00  0.00     0.047 C 
BRANCH   6   8
ATOM      8  C   UNL A   1      45.998  19.911  25.243  1.00  0.00     0.037 C 
ATOM      9  C   UNL A   1      47.287  19.630  24.471  1.00  0.00     0.007 C 
ENDBRANCH   6   8
BRANCH   6  10
ATOM     10  N   UNL A   1      44.290  21.311  24.201  1.00  0.00    -0.336 N 
ATOM     11  C   UNL A   1      43.790  22.195  25.141  1.00  0.00     0.252 C 
ATOM     12  H   UNL A   1      44.425  21.658  23.290  1.00  0.00     0.165 HD
ATOM     13  O   UNL A   1      42.600  22.494  25.088  1.00  0.00    -0.269 OA
BRANCH  11  14
ATOM     14  C   UNL A   1      44.728  22.974  25.993  1.00  0.00     0.049 A 
ATOM     15  C   UNL A   1      45.837  23.555  25.362  1.00  0.00     0.014 A 
ATOM     16  C   UNL A   1      44.492  23.197  27.384  1.00  0.00     0.013 A 
ATOM     17  C   UNL A   1      46.758  24.282  26.101  1.00  0.00     0.003 A 
ATOM     18  C   UNL A   1      45.451  23.927  28.123  1.00  0.00     0.071 A 
ATOM     19  C   UNL A   1      43.389  22.704  28.123  1.00  0.00     0.013 A 
ATOM     20  C   UNL A   1      46.560  24.447  27.469  1.00  0.00     0.029 A 
ATOM     21  N   UNL A   1      45.364  24.141  29.448  1.00  0.00    -0.256 NA
ATOM     22  C   UNL A   1      43.294  22.916  29.494  1.00  0.00     0.021 A 
ATOM     23  C   UNL A   1      44.304  23.627  30.106  1.00  0.00     0.112 A 
ENDBRANCH  11  14
ENDBRANCH   6  10
ENDBRANCH   4   6
ENDBRANCH   3   4
ENDBRANCH   2   3
ENDBRANCH   1   2
BRANCH   1  24
ATOM     24  O   UNL A   1      40.058  21.252  27.158  1.00  0.00    -0.458 OA
BRANCH  24  25
ATOM     25  C   UNL A   1      39.260  22.143  26.537  1.00  0.00     0.338 C 
ATOM     26  O   UNL A   1      38.248  21.916  25.895  1.00  0.00    -0.246 OA
BRANCH  25  27
ATOM     27  C   UNL A   1      39.692  23.501  26.811  1.00  0.00     0.060 A 
ATOM     28  C   UNL A   1      40.059  23.822  28.117  1.00  0.00     0.016 A 
ATOM     29  C   UNL A   1      39.629  24.465  25.807  1.00  0.00     0.016 A 
ATOM     30  C   UNL A   1      40.387  25.125  28.436  1.00  0.00     0.010 A 
ATOM     31  C   UNL A   1      40.022  25.761  26.113  1.00  0.00     0.010 A 
ATOM     32  C   UNL A   1      40.424  26.086  27.421  1.00  0.00    -0.014 A 
BRANCH  32  33
ATOM     33  C   UNL A   1      40.992  27.417  27.697  1.00  0.00     0.031 A 
ATOM     34  C   UNL A   1      42.438  27.674  27.441  1.00  0.00     0.074 A 
ATOM     35  C   UNL A   1      40.186  28.333  28.262  1.00  0.00     0.049 A 
ATOM     36  N   UNL A   1      43.181  28.668  27.839  1.00  0.00    -0.248 NA
ATOM     37  C   UNL A   1      43.147  26.654  26.655  1.00  0.00     0.031 C 
ATOM     38  C   UNL A   1      38.754  28.149  28.521  1.00  0.00     0.029 A 
ATOM     39  N   UNL A   1      40.453  29.583  28.746  1.00  0.00    -0.354 N 
ATOM     40  C   UNL A   1      44.465  28.378  27.392  1.00  0.00     0.074 A 
ATOM     41  C   UNL A   1      44.392  27.105  26.702  1.00  0.00     0.031 C 
ATOM     42  C   UNL A   1      38.271  29.240  29.128  1.00  0.00     0.029 A 
ATOM     43  C   UNL A   1      39.373  30.160  29.371  1.00  0.00     0.049 A 
ATOM     44  H   UNL A   1      41.328  30.026  28.657  1.00  0.00     0.167 HD
ATOM     45  C   UNL A   1      45.590  29.116  27.564  1.00  0.00     0.034 A 
ATOM     46  C   UNL A   1      39.296  31.276  30.118  1.00  0.00     0.034 A 
ATOM     47  C   UNL A   1      45.595  30.374  28.275  1.00  0.00     0.049 A 
ATOM     48  C   UNL A   1      40.556  32.067  30.316  1.00  0.00     0.074 A 
ATOM     49  C   UNL A   1      46.653  31.229  28.523  1.00  0.00     0.029 A 
ATOM     50  N   UNL A   1      44.472  30.954  28.865  1.00  0.00    -0.354 N 
ATOM     51  N   UNL A   1      41.774  31.785  29.912  1.00  0.00    -0.248 NA
ATOM     52  C   UNL A   1      40.436  33.320  31.064  1.00  0.00     0.031 C 
ATOM     53  C   UNL A   1      46.183  32.291  29.309  1.00  0.00     0.029 A 
ATOM     54  C   UNL A   1      44.816  32.140  29.493  1.00  0.00     0.049 A 
ATOM     55  H   UNL A   1      43.565  30.574  28.839  1.00  0.00     0.167 HD
ATOM     56  C   UNL A   1      42.570  32.837  30.342  1.00  0.00     0.074 A 
ATOM     57  C   UNL A   1      41.686  33.763  31.030  1.00  0.00     0.031 C 
ATOM     58  C   UNL A   1      43.905  33.028  30.181  1.00  0.00     0.034 A 
BRANCH  45  59
ATOM     59  C   UNL A   1      46.884  28.525  27.053  1.00  0.00     0.023 A 
ATOM     60  C   UNL A   1      47.176  28.448  25.677  1.00  0.00     0.031 A 
ATOM     61  C   UNL A   1      47.800  27.940  27.946  1.00  0.00     0.131 A 
ATOM     62  C   UNL A   1      48.286  27.712  25.235  1.00  0.00     0.055 A 
ATOM     63  C   UNL A   1      48.954  27.290  27.502  1.00  0.00     0.041 A 
ATOM     64  F   UNL A   1      47.571  27.958  29.269  1.00  0.00    -0.206 F 
ATOM     65  C   UNL A   1      49.191  27.152  26.138  1.00  0.00     0.022 A 
BRANCH  62  66
ATOM     66  S   UNL A   1      48.421  27.332  23.465  1.00  0.00     0.124 S 
ATOM     67  O   UNL A   1      49.761  27.828  23.158  1.00  0.00    -0.237 OA
ATOM     68  O   UNL A   1      48.254  25.884  23.439  1.00  0.00    -0.237 OA
ATOM     69  O   UNL A   1      47.330  28.098  22.864  1.00  0.00    -0.744 OA
ENDBRANCH  62  66
ENDBRANCH  45  59
BRANCH  46  70
ATOM     70  C   UNL A   1      38.005  31.646  30.755  1.00  0.00     0.023 A 
ATOM     71  C   UNL A   1      37.019  32.344  30.045  1.00  0.00     0.031 A 
ATOM     72  C   UNL A   1      37.714  31.242  32.072  1.00  0.00     0.131 A 
ATOM     73  C   UNL A   1      35.787  32.625  30.658  1.00  0.00     0.055 A 
ATOM     74  C   UNL A   1      36.474  31.489  32.662  1.00  0.00     0.041 A 
ATOM     75  F   UNL A   1      38.617  30.553  32.787  1.00  0.00    -0.206 F 
ATOM     76  C   UNL A   1      35.502  32.189  31.955  1.00  0.00     0.022 A 
BRANCH  73  77
ATOM     77  S   UNL A   1      34.558  33.590  29.738  1.00  0.00     0.124 S 
ATOM     78  O   UNL A   1      33.914  32.560  28.930  1.00  0.00    -0.237 OA
ATOM     79  O   UNL A   1      33.752  34.161  30.812  1.00  0.00    -0.237 OA
ATOM     80  O   UNL A   1      35.368  34.552  28.993  1.00  0.00    -0.744 OA
ENDBRANCH  73  77
ENDBRANCH  46  70
BRANCH  58  81
ATOM     81  C   UNL A   1      44.463  34.314  30.728  1.00  0.00     0.023 A 
ATOM     82  C   UNL A   1      44.429  35.506  29.987  1.00  0.00     0.031 A 
ATOM     83  C   UNL A   1      45.041  34.336  32.008  1.00  0.00     0.131 A 
ATOM     84  C   UNL A   1      45.008  36.668  30.517  1.00  0.00     0.055 A 
ATOM     85  C   UNL A   1      45.569  35.507  32.551  1.00  0.00     0.041 A 
ATOM     86  F   UNL A   1      45.099  33.220  32.752  1.00  0.00    -0.206 F 
ATOM     87  C   UNL A   1      45.563  36.679  31.800  1.00  0.00     0.022 A 
BRANCH  84  88
ATOM     88  S   UNL A   1      45.093  38.150  29.476  1.00  0.00     0.124 S 
ATOM     89  O   UNL A   1      46.419  38.023  28.877  1.00  0.00    -0.237 OA
ATOM     90  O   UNL A   1      43.965  37.963  28.571  1.00  0.00    -0.237 OA
ATOM     91  O   UNL A   1      44.946  39.247  30.430  1.00  0.00    -0.744 OA
ENDBRANCH  84  88
ENDBRANCH  58  81
ENDBRANCH  32  33
ENDBRANCH  25  27
ENDBRANCH  24  25
ENDBRANCH   1  24
TORSDOF 17
ENDMDL
MODEL 2
REMARK VINA RESULT:     -10.6      4.043     10.145
REMARK SMILES CC[C@](C)(NC(=O)c1cccc2ncccc12)C(=O)OCCOC(=O)c1ccc(-c2c3nc(c(-c4cc(S(=O)(=O)[O-])ccc4F)c4ccc([nH]4)c(-c4cc(S(=O)(=O)[O-])ccc4F)c4nc(c(-c5cc(S(=O)(=O)[O-])ccc5F)c5ccc2[nH]5)C=C4)C=C3)cc1
REMARK SMILES IDX 22 1 21 2 20 3 18 4 19 5 3 6 4 7 2 8 1 9 5 10 6 11 7 13 8 14
REMARK SMILES IDX 9 15 17 16 10 17 12 18 16 19 11 20 13 21 15 22 14 23 23 24
REMARK SMILES IDX 24 25 25 26 26 27 27 28 88 29 28 30 87 31 29 32 30 33 31 34
REMARK SMILES IDX 81 35 32 36 86 37 80 38 82 39 33 40 85 41 79 42 78 43 34 45
REMARK SMILES IDX 66 46 46 47 65 48 47 49 50 50 64 51 83 52 48 53 49 54 63 56
REMARK SMILES IDX 84 57 51 58 35 59 36 60 44 61 37 62 43 63 45 64 42 65 38 66
REMARK SMILES IDX 39 67 40 68 41 69 67 70 68 71 76 72 69 73 75 74 77 75 74 76
REMARK SMILES IDX 70 77 71 78 72 79 73 80 52 81 53 82 61 83 54 84 60 85 62 86
REMARK SMILES IDX 59 87 55 88 56 89 57 90 58 91
REMARK H PARENT 5 12 82 44 50 55
REMARK Flexibility Score: inf
ROOT
ATOM      1  C   UNL A   1      36.209  21.515  25.811  1.00  0.00     0.275 C 
ENDROOT
BRANCH   1   2
ATOM      2  C   UNL A   1      35.187  20.702  25.007  1.00  0.00     0.274 C 
BRANCH   2   3
ATOM      3  O   UNL A   1      34.279  21.535  24.254  1.00  0.00    -0.460 OA
BRANCH   3   4
ATOM      4  C   UNL A   1      33.138  21.906  24.886  1.00  0.00     0.331 C 
ATOM      5  O   UNL A   1      32.459  21.120  25.540  1.00  0.00    -0.249 OA
BRANCH   4   6
ATOM      6  C   UNL A   1      32.722  23.390  24.640  1.00  0.00     0.135 C 
ATOM      7  C   UNL A   1      33.127  23.790  23.208  1.00  0.00     0.047 C 
BRANCH   6   8
ATOM      8  C   UNL A   1      33.542  24.222  25.686  1.00  0.00     0.037 C 
ATOM      9  C   UNL A   1      34.446  25.335  25.156  1.00  0.00     0.007 C 
ENDBRANCH   6   8
BRANCH   6  10
ATOM     10  N   UNL A   1      31.286  23.790  24.858  1.00  0.00    -0.336 N 
ATOM     11  C   UNL A   1      30.848  24.859  25.621  1.00  0.00     0.252 C 
ATOM     12  H   UNL A   1      30.596  23.243  24.419  1.00  0.00     0.165 HD
ATOM     13  O   UNL A   1      30.344  24.628  26.716  1.00  0.00    -0.269 OA
BRANCH  11  14
ATOM     14  C   UNL A   1      30.724  26.205  25.000  1.00  0.00     0.049 A 
ATOM     15  C   UNL A   1      30.020  26.293  23.792  1.00  0.00     0.014 A 
ATOM     16  C   UNL A   1      31.230  27.385  25.626  1.00  0.00     0.013 A 
ATOM     17  C   UNL A   1      29.880  27.516  23.153  1.00  0.00     0.003 A 
ATOM     18  C   UNL A   1      31.093  28.620  24.951  1.00  0.00     0.071 A 
ATOM     19  C   UNL A   1      31.917  27.432  26.864  1.00  0.00     0.013 A 
ATOM     20  C   UNL A   1      30.428  28.658  23.734  1.00  0.00     0.029 A 
ATOM     21  N   UNL A   1      31.588  29.781  25.417  1.00  0.00    -0.256 NA
ATOM     22  C   UNL A   1      32.437  28.628  27.349  1.00  0.00     0.021 A 
ATOM     23  C   UNL A   1      32.255  29.763  26.590  1.00  0.00     0.112 A 
ENDBRANCH  11  14
ENDBRANCH   6  10
ENDBRANCH   4   6
ENDBRANCH   3   4
ENDBRANCH   2   3
ENDBRANCH   1   2
BRANCH   1  24
ATOM     24  O   UNL A   1      37.422  21.758  25.082  1.00  0.00    -0.458 OA
BRANCH  24  25
ATOM     25  C   UNL A   1      38.547  21.407  25.735  1.00  0.00     0.338 C 
ATOM     26  O   UNL A   1      39.052  20.298  25.809  1.00  0.00    -0.246 OA
BRANCH  25  27
ATOM     27  C   UNL A   1      39.204  22.573  26.295  1.00  0.00     0.060 A 
ATOM     28  C   UNL A   1      40.235  22.369  27.211  1.00  0.00     0.016 A 
ATOM     29  C   UNL A   1      38.731  23.848  25.994  1.00  0.00     0.016 A 
ATOM     30  C   UNL A   1      40.822  23.453  27.835  1.00  0.00     0.010 A 
ATOM     31  C   UNL A   1      39.366  24.941  26.570  1.00  0.00     0.010 A 
ATOM     32  C   UNL A   1      40.427  24.744  27.472  1.00  0.00    -0.014 A 
BRANCH  32  33
ATOM     33  C   UNL A   1      41.198  25.904  27.951  1.00  0.00     0.031 A 
ATOM     34  C   UNL A   1      40.518  26.974  28.735  1.00  0.00     0.074 A 
ATOM     35  C   UNL A   1      42.487  25.992  27.579  1.00  0.00     0.049 A 
ATOM     36  N   UNL A   1      40.938  28.173  29.030  1.00  0.00    -0.248 NA
ATOM     37  C   UNL A   1      39.169  26.660  29.226  1.00  0.00     0.031 C 
ATOM     38  C   UNL A   1      43.217  24.966  26.825  1.00  0.00     0.029 A 
ATOM     39  N   UNL A   1      43.403  26.992  27.750  1.00  0.00    -0.354 N 
ATOM     40  C   UNL A   1      39.887  28.782  29.706  1.00  0.00     0.074 A 
ATOM     41  C   UNL A   1      38.809  27.816  29.763  1.00  0.00     0.031 C 
ATOM     42  C   UNL A   1      44.463  25.394  26.590  1.00  0.00     0.029 A 
ATOM     43  C   UNL A   1      44.591  26.751  27.102  1.00  0.00     0.049 A 
ATOM     44  H   UNL A   1      43.230  27.802  28.284  1.00  0.00     0.167 HD
ATOM     45  C   UNL A   1      39.845  30.040  30.213  1.00  0.00     0.034 A 
ATOM     46  C   UNL A   1      45.641  27.563  26.885  1.00  0.00     0.034 A 
ATOM     47  C   UNL A   1      40.955  30.959  30.110  1.00  0.00     0.049 A 
ATOM     48  C   UNL A   1      45.566  28.957  27.434  1.00  0.00     0.074 A 
ATOM     49  C   UNL A   1      41.057  32.256  30.578  1.00  0.00     0.029 A 
ATOM     50  N   UNL A   1      42.165  30.671  29.479  1.00  0.00    -0.354 N 
ATOM     51  N   UNL A   1      44.567  29.542  28.056  1.00  0.00    -0.248 NA
ATOM     52  C   UNL A   1      46.751  29.799  27.258  1.00  0.00     0.031 C 
ATOM     53  C   UNL A   1      42.300  32.768  30.180  1.00  0.00     0.029 A 
ATOM     54  C   UNL A   1      43.008  31.770  29.526  1.00  0.00     0.049 A 
ATOM     55  H   UNL A   1      42.389  29.809  29.060  1.00  0.00     0.167 HD
ATOM     56  C   UNL A   1      45.007  30.822  28.363  1.00  0.00     0.074 A 
ATOM     57  C   UNL A   1      46.369  30.916  27.863  1.00  0.00     0.031 C 
ATOM     58  C   UNL A   1      44.354  31.826  29.002  1.00  0.00     0.034 A 
BRANCH  45  59
ATOM     59  C   UNL A   1      38.538  30.490  30.826  1.00  0.00     0.023 A 
ATOM     60  C   UNL A   1      37.504  31.046  30.050  1.00  0.00     0.031 A 
ATOM     61  C   UNL A   1      38.359  30.453  32.220  1.00  0.00     0.131 A 
ATOM     62  C   UNL A   1      36.395  31.636  30.678  1.00  0.00     0.055 A 
ATOM     63  C   UNL A   1      37.209  30.959  32.832  1.00  0.00     0.041 A 
ATOM     64  F   UNL A   1      39.317  29.957  33.021  1.00  0.00    -0.206 F 
ATOM     65  C   UNL A   1      36.229  31.576  32.062  1.00  0.00     0.022 A 
BRANCH  62  66
ATOM     66  S   UNL A   1      35.275  32.654  29.675  1.00  0.00     0.124 S 
ATOM     67  O   UNL A   1      34.847  31.701  28.652  1.00  0.00    -0.237 OA
ATOM     68  O   UNL A   1      34.261  33.054  30.642  1.00  0.00    -0.237 OA
ATOM     69  O   UNL A   1      36.134  33.732  29.188  1.00  0.00    -0.744 OA
ENDBRANCH  62  66
ENDBRANCH  45  59
BRANCH  46  70
ATOM     70  C   UNL A   1      46.790  27.077  26.076  1.00  0.00     0.023 A 
ATOM     71  C   UNL A   1      47.007  27.540  24.772  1.00  0.00     0.031 A 
ATOM     72  C   UNL A   1      47.730  26.187  26.630  1.00  0.00     0.131 A 
ATOM     73  C   UNL A   1      48.137  27.106  24.058  1.00  0.00     0.055 A 
ATOM     74  C   UNL A   1      48.871  25.791  25.931  1.00  0.00     0.041 A 
ATOM     75  F   UNL A   1      47.578  25.731  27.883  1.00  0.00    -0.206 F 
ATOM     76  C   UNL A   1      49.077  26.248  24.634  1.00  0.00     0.022 A 
BRANCH  73  77
ATOM     77  S   UNL A   1      48.353  27.669  22.348  1.00  0.00     0.124 S 
ATOM     78  O   UNL A   1      47.135  28.443  22.132  1.00  0.00    -0.237 OA
ATOM     79  O   UNL A   1      49.593  28.435  22.434  1.00  0.00    -0.237 OA
ATOM     80  O   UNL A   1      48.446  26.424  21.587  1.00  0.00    -0.744 OA
ENDBRANCH  73  77
ENDBRANCH  46  70
BRANCH  58  81
ATOM     81  C   UNL A   1      45.139  33.090  29.228  1.00  0.00     0.023 A 
ATOM     82  C   UNL A   1      45.163  34.123  28.276  1.00  0.00     0.031 A 
ATOM     83  C   UNL A   1      45.877  33.252  30.412  1.00  0.00     0.131 A 
ATOM     84  C   UNL A   1      45.951  35.259  28.507  1.00  0.00     0.055 A 
ATOM     85  C   UNL A   1      46.617  34.408  30.659  1.00  0.00     0.041 A 
ATOM     86  F   UNL A   1      45.887  32.290  31.348  1.00  0.00    -0.206 F 
ATOM     87  C   UNL A   1      46.664  35.415  29.699  1.00  0.00     0.022 A 
BRANCH  84  88
ATOM     88  S   UNL A   1      46.089  36.502  27.195  1.00  0.00     0.124 S 
ATOM     89  O   UNL A   1      44.734  37.044  27.148  1.00  0.00    -0.237 OA
ATOM     90  O   UNL A   1      47.116  37.397  27.717  1.00  0.00    -0.237 OA
ATOM     91  O   UNL A   1      46.485  35.721  26.025  1.00  0.00    -0.744 OA
ENDBRANCH  84  88
ENDBRANCH  58  81
ENDBRANCH  32  33
ENDBRANCH  25  27
ENDBRANCH  24  25
ENDBRANCH   1  24
TORSDOF 17
ENDMDL
MODEL 3
REMARK VINA RESULT:     -10.6      4.185     10.308
REMARK SMILES CC[C@](C)(NC(=O)c1cccc2ncccc12)C(=O)OCCOC(=O)c1ccc(-c2c3nc(c(-c4cc(S(=O)(=O)[O-])ccc4F)c4ccc([nH]4)c(-c4cc(S(=O)(=O)[O-])ccc4F)c4nc(c(-c5cc(S(=O)(=O)[O-])ccc5F)c5ccc2[nH]5)C=C4)C=C3)cc1
REMARK SMILES IDX 22 1 21 2 20 3 18 4 19 5 3 6 4 7 2 8 1 9 5 10 6 11 7 13 8 14
REMARK SMILES IDX 9 15 17 16 10 17 12 18 16 19 11 20 13 21 15 22 14 23 23 24
REMARK SMILES IDX 24 25 25 26 26 27 27 28 88 29 28 30 87 31 29 32 30 33 31 34
REMARK SMILES IDX 81 35 32 36 86 37 80 38 82 39 33 40 85 41 79 42 78 43 34 45
REMARK SMILES IDX 66 46 46 47 65 48 47 49 50 50 64 51 83 52 48 53 49 54 63 56
REMARK SMILES IDX 84 57 51 58 35 59 36 60 44 61 37 62 43 63 45 64 42 65 38 66
REMARK SMILES IDX 39 67 40 68 41 69 67 70 68 71 76 72 69 73 75 74 77 75 74 76
REMARK SMILES IDX 70 77 71 78 72 79 73 80 52 81 53 82 61 83 54 84 60 85 62 86
REMARK SMILES IDX 59 87 55 88 56 89 57 90 58 91
REMARK H PARENT 5 12 82 44 50 55
REMARK Flexibility Score: inf
ROOT
ATOM      1  C   UNL A   1      36.486  20.922  25.457  1.00  0.00     0.275 C 
ENDROOT
BRANCH   1   2
ATOM      2  C   UNL A   1      35.254  21.344  24.647  1.00  0.00     0.274 C 
BRANCH   2   3
ATOM      3  O   UNL A   1      34.189  21.855  25.477  1.00  0.00    -0.460 OA
BRANCH   3   4
ATOM      4  C   UNL A   1      32.995  22.057  24.867  1.00  0.00     0.331 C 
ATOM      5  O   UNL A   1      32.311  21.136  24.430  1.00  0.00    -0.249 OA
BRANCH   4   6
ATOM      6  C   UNL A   1      32.609  23.559  24.694  1.00  0.00     0.135 C 
ATOM      7  C   UNL A   1      33.075  24.037  23.305  1.00  0.00     0.047 C 
BRANCH   6   8
ATOM      8  C   UNL A   1      33.399  24.315  25.819  1.00  0.00     0.037 C 
ATOM      9  C   UNL A   1      34.408  25.378  25.385  1.00  0.00     0.007 C 
ENDBRANCH   6   8
BRANCH   6  10
ATOM     10  N   UNL A   1      31.171  23.969  24.880  1.00  0.00    -0.336 N 
ATOM     11  C   UNL A   1      30.724  25.049  25.621  1.00  0.00     0.252 C 
ATOM     12  H   UNL A   1      30.487  23.419  24.434  1.00  0.00     0.165 HD
ATOM     13  O   UNL A   1      30.198  24.834  26.710  1.00  0.00    -0.269 OA
BRANCH  11  14
ATOM     14  C   UNL A   1      30.619  26.388  24.983  1.00  0.00     0.049 A 
ATOM     15  C   UNL A   1      29.886  26.475  23.791  1.00  0.00     0.014 A 
ATOM     16  C   UNL A   1      31.171  27.564  25.576  1.00  0.00     0.013 A 
ATOM     17  C   UNL A   1      29.761  27.692  23.136  1.00  0.00     0.003 A 
ATOM     18  C   UNL A   1      31.047  28.792  24.885  1.00  0.00     0.071 A 
ATOM     19  C   UNL A   1      31.890  27.613  26.796  1.00  0.00     0.013 A 
ATOM     20  C   UNL A   1      30.352  28.827  23.685  1.00  0.00     0.029 A 
ATOM     21  N   UNL A   1      31.583  29.946  25.319  1.00  0.00    -0.256 NA
ATOM     22  C   UNL A   1      32.452  28.802  27.248  1.00  0.00     0.021 A 
ATOM     23  C   UNL A   1      32.280  29.929  26.475  1.00  0.00     0.112 A 
ENDBRANCH  11  14
ENDBRANCH   6  10
ENDBRANCH   4   6
ENDBRANCH   3   4
ENDBRANCH   2   3
ENDBRANCH   1   2
BRANCH   1  24
ATOM     24  O   UNL A   1      37.667  21.657  25.097  1.00  0.00    -0.458 OA
BRANCH  24  25
ATOM     25  C   UNL A   1      38.761  21.347  25.820  1.00  0.00     0.338 C 
ATOM     26  O   UNL A   1      39.280  20.251  25.954  1.00  0.00    -0.246 OA
BRANCH  25  27
ATOM     27  C   UNL A   1      39.365  22.542  26.379  1.00  0.00     0.060 A 
ATOM     28  C   UNL A   1      40.394  22.385  27.306  1.00  0.00     0.016 A 
ATOM     29  C   UNL A   1      38.845  23.795  26.065  1.00  0.00     0.016 A 
ATOM     30  C   UNL A   1      40.932  23.495  27.928  1.00  0.00     0.010 A 
ATOM     31  C   UNL A   1      39.430  24.915  26.640  1.00  0.00     0.010 A 
ATOM     32  C   UNL A   1      40.489  24.766  27.554  1.00  0.00    -0.014 A 
BRANCH  32  33
ATOM     33  C   UNL A   1      41.209  25.959  28.033  1.00  0.00     0.031 A 
ATOM     34  C   UNL A   1      40.474  27.018  28.782  1.00  0.00     0.074 A 
ATOM     35  C   UNL A   1      42.503  26.084  27.691  1.00  0.00     0.049 A 
ATOM     36  N   UNL A   1      40.846  28.235  29.067  1.00  0.00    -0.248 NA
ATOM     37  C   UNL A   1      39.124  26.666  29.244  1.00  0.00     0.031 C 
ATOM     38  C   UNL A   1      43.286  25.071  26.973  1.00  0.00     0.029 A 
ATOM     39  N   UNL A   1      43.381  27.117  27.869  1.00  0.00    -0.354 N 
ATOM     40  C   UNL A   1      39.759  28.819  29.706  1.00  0.00     0.074 A 
ATOM     41  C   UNL A   1      38.712  27.818  29.752  1.00  0.00     0.031 C 
ATOM     42  C   UNL A   1      44.523  25.538  26.763  1.00  0.00     0.029 A 
ATOM     43  C   UNL A   1      44.592  26.907  27.255  1.00  0.00     0.049 A 
ATOM     44  H   UNL A   1      43.167  27.929  28.385  1.00  0.00     0.167 HD
ATOM     45  C   UNL A   1      39.662  30.082  30.191  1.00  0.00     0.034 A 
ATOM     46  C   UNL A   1      45.620  27.749  27.050  1.00  0.00     0.034 A 
ATOM     47  C   UNL A   1      40.743  31.036  30.101  1.00  0.00     0.049 A 
ATOM     48  C   UNL A   1      45.485  29.148  27.574  1.00  0.00     0.074 A 
ATOM     49  C   UNL A   1      40.791  32.343  30.550  1.00  0.00     0.029 A 
ATOM     50  N   UNL A   1      41.978  30.779  29.505  1.00  0.00    -0.354 N 
ATOM     51  N   UNL A   1      44.452  29.709  28.161  1.00  0.00    -0.248 NA
ATOM     52  C   UNL A   1      46.646  30.027  27.414  1.00  0.00     0.031 C 
ATOM     53  C   UNL A   1      42.026  32.891  30.175  1.00  0.00     0.029 A 
ATOM     54  C   UNL A   1      42.782  31.906  29.556  1.00  0.00     0.049 A 
ATOM     55  H   UNL A   1      42.241  29.918  29.106  1.00  0.00     0.167 HD
ATOM     56  C   UNL A   1      44.841  31.008  28.458  1.00  0.00     0.074 A 
ATOM     57  C   UNL A   1      46.211  31.140  27.991  1.00  0.00     0.031 C 
ATOM     58  C   UNL A   1      44.139  31.999  29.064  1.00  0.00     0.034 A 
BRANCH  45  59
ATOM     59  C   UNL A   1      38.326  30.497  30.764  1.00  0.00     0.023 A 
ATOM     60  C   UNL A   1      37.326  31.090  29.970  1.00  0.00     0.031 A 
ATOM     61  C   UNL A   1      38.081  30.389  32.145  1.00  0.00     0.131 A 
ATOM     62  C   UNL A   1      36.187  31.645  30.573  1.00  0.00     0.055 A 
ATOM     63  C   UNL A   1      36.902  30.861  32.726  1.00  0.00     0.041 A 
ATOM     64  F   UNL A   1      39.003  29.856  32.963  1.00  0.00    -0.206 F 
ATOM     65  C   UNL A   1      35.956  31.515  31.943  1.00  0.00     0.022 A 
BRANCH  62  66
ATOM     66  S   UNL A   1      35.111  32.711  29.571  1.00  0.00     0.124 S 
ATOM     67  O   UNL A   1      34.276  33.333  30.597  1.00  0.00    -0.237 OA
ATOM     68  O   UNL A   1      36.067  33.587  28.905  1.00  0.00    -0.237 OA
ATOM     69  O   UNL A   1      34.412  31.770  28.698  1.00  0.00    -0.744 OA
ENDBRANCH  62  66
ENDBRANCH  45  59
BRANCH  46  70
ATOM     70  C   UNL A   1      46.805  27.290  26.279  1.00  0.00     0.023 A 
ATOM     71  C   UNL A   1      47.922  26.742  26.922  1.00  0.00     0.031 A 
ATOM     72  C   UNL A   1      46.802  27.330  24.871  1.00  0.00     0.131 A 
ATOM     73  C   UNL A   1      49.000  26.262  26.159  1.00  0.00     0.055 A 
ATOM     74  C   UNL A   1      47.858  26.815  24.117  1.00  0.00     0.041 A 
ATOM     75  F   UNL A   1      45.746  27.826  24.208  1.00  0.00    -0.206 F 
ATOM     76  C   UNL A   1      48.967  26.281  24.761  1.00  0.00     0.022 A 
BRANCH  73  77
ATOM     77  S   UNL A   1      50.460  25.624  27.022  1.00  0.00     0.124 S 
ATOM     78  O   UNL A   1      50.771  26.719  27.934  1.00  0.00    -0.237 OA
ATOM     79  O   UNL A   1      49.943  24.405  27.636  1.00  0.00    -0.237 OA
ATOM     80  O   UNL A   1      51.428  25.413  25.947  1.00  0.00    -0.744 OA
ENDBRANCH  73  77
ENDBRANCH  46  70
BRANCH  58  81
ATOM     81  C   UNL A   1      44.875  33.292  29.289  1.00  0.00     0.023 A 
ATOM     82  C   UNL A   1      44.839  34.335  28.348  1.00  0.00     0.031 A 
ATOM     83  C   UNL A   1      45.630  33.473  30.461  1.00  0.00     0.131 A 
ATOM     84  C   UNL A   1      45.583  35.501  28.577  1.00  0.00     0.055 A 
ATOM     85  C   UNL A   1      46.326  34.656  30.706  1.00  0.00     0.041 A 
ATOM     86  F   UNL A   1      45.697  32.503  31.386  1.00  0.00    -0.206 F 
ATOM     87  C   UNL A   1      46.312  35.674  29.756  1.00  0.00     0.022 A 
BRANCH  84  88
ATOM     88  S   UNL A   1      45.644  36.762  27.276  1.00  0.00     0.124 S 
ATOM     89  O   UNL A   1      44.234  37.107  27.124  1.00  0.00    -0.237 OA
ATOM     90  O   UNL A   1      46.492  37.788  27.872  1.00  0.00    -0.237 OA
ATOM     91  O   UNL A   1      46.235  36.054  26.141  1.00  0.00    -0.744 OA
ENDBRANCH  84  88
ENDBRANCH  58  81
ENDBRANCH  32  33
ENDBRANCH  25  27
ENDBRANCH  24  25
ENDBRANCH   1  24
TORSDOF 17
ENDMDL
