MODEL 1
REMARK VINA RESULT:     -10.9      0.000      0.000
REMARK SMILES CCCc1c(C(=O)OCCOC(=O)c2ccc(-c3c4nc(c(-c5cc(S(=O)(=O)[O-])ccc5F)c5ccc([nH]5)c(-c5cc(S(=O)(=O)[O-])ccc5F)c5nc(c(-c6cc(S(=O)(=O)[O-])ccc6F)c6ccc3[nH]6)C=C5)C=C4)cc2)nnn1[C@@H](C)[C@H](C)O
REMARK SMILES IDX 9 1 8 2 6 3 7 4 5 5 4 6 79 7 77 8 78 9 3 10 2 11 1 12 80 13
REMARK SMILES IDX 81 14 82 15 83 16 84 17 10 19 11 20 12 21 13 22 14 23 15 24
REMARK SMILES IDX 76 25 16 26 75 27 17 28 18 29 19 30 69 31 20 32 74 33 68 34
REMARK SMILES IDX 70 35 21 36 73 37 67 38 66 39 22 41 54 42 34 43 53 44 35 45
REMARK SMILES IDX 38 46 52 47 71 48 36 49 37 50 51 52 72 53 39 54 23 55 24 56
REMARK SMILES IDX 32 57 25 58 31 59 33 60 30 61 26 62 27 63 28 64 29 65 55 66
REMARK SMILES IDX 56 67 64 68 57 69 63 70 65 71 62 72 58 73 59 74 60 75 61 76
REMARK SMILES IDX 40 77 41 78 49 79 42 80 48 81 50 82 47 83 43 84 44 85 45 86
REMARK SMILES IDX 46 87
REMARK H PARENT 84 18 70 40 38 51
REMARK Flexibility Score: inf
ROOT
ATOM      1  C   UNL A   1      33.911  31.897  27.863  1.00  0.00     0.275 C 
ENDROOT
BRANCH   1   2
ATOM      2  O   UNL A   1      33.619  30.757  27.035  1.00  0.00    -0.457 OA
BRANCH   2   3
ATOM      3  C   UNL A   1      32.301  30.558  26.725  1.00  0.00     0.360 C 
ATOM      4  O   UNL A   1      31.507  31.483  26.563  1.00  0.00    -0.244 OA
BRANCH   3   5
ATOM      5  C   UNL A   1      31.922  29.152  26.559  1.00  0.00     0.193 A 
ATOM      6  C   UNL A   1      31.428  28.449  25.456  1.00  0.00     0.074 A 
ATOM      7  N   UNL A   1      31.246  27.171  25.959  1.00  0.00    -0.243 N 
ATOM      8  N   UNL A   1      31.986  28.302  27.640  1.00  0.00    -0.123 NA
ATOM      9  N   UNL A   1      31.539  27.118  27.273  1.00  0.00    -0.066 NA
BRANCH   6  10
ATOM     10  C   UNL A   1      31.051  28.930  24.083  1.00  0.00     0.058 C 
BRANCH  10  11
ATOM     11  C   UNL A   1      32.136  28.841  23.007  1.00  0.00     0.003 C 
ATOM     12  C   UNL A   1      33.545  28.868  23.597  1.00  0.00     0.004 C 
ENDBRANCH  10  11
ENDBRANCH   6  10
BRANCH   7  13
ATOM     13  C   UNL A   1      31.020  25.900  25.269  1.00  0.00     0.135 C 
ATOM     14  C   UNL A   1      32.243  25.525  24.417  1.00  0.00     0.036 C 
BRANCH  13  15
ATOM     15  C   UNL A   1      30.560  24.773  26.218  1.00  0.00     0.135 C 
ATOM     16  C   UNL A   1      30.666  23.393  25.564  1.00  0.00     0.040 C 
BRANCH  15  17
ATOM     17  O   UNL A   1      29.177  24.962  26.532  1.00  0.00    -0.391 OA
ATOM     18  H   UNL A   1      28.712  25.308  25.753  1.00  0.00     0.211 HD
ENDBRANCH  15  17
ENDBRANCH  13  15
ENDBRANCH   7  13
ENDBRANCH   3   5
ENDBRANCH   2   3
ENDBRANCH   1   2
BRANCH   1  19
ATOM     19  C   UNL A   1      35.408  32.057  28.096  1.00  0.00     0.275 C 
BRANCH  19  20
ATOM     20  O   UNL A   1      36.094  30.820  27.921  1.00  0.00    -0.458 OA
BRANCH  20  21
ATOM     21  C   UNL A   1      36.531  30.259  29.074  1.00  0.00     0.338 C 
ATOM     22  O   UNL A   1      36.306  30.655  30.206  1.00  0.00    -0.246 OA
BRANCH  21  23
ATOM     23  C   UNL A   1      37.534  29.238  28.769  1.00  0.00     0.060 A 
ATOM     24  C   UNL A   1      37.917  28.388  29.812  1.00  0.00     0.016 A 
ATOM     25  C   UNL A   1      38.301  29.389  27.608  1.00  0.00     0.016 A 
ATOM     26  C   UNL A   1      39.178  27.831  29.779  1.00  0.00     0.010 A 
ATOM     27  C   UNL A   1      39.571  28.875  27.597  1.00  0.00     0.010 A 
ATOM     28  C   UNL A   1      40.014  28.159  28.711  1.00  0.00    -0.014 A 
BRANCH  28  29
ATOM     29  C   UNL A   1      41.384  27.692  28.720  1.00  0.00     0.031 A 
ATOM     30  C   UNL A   1      41.565  26.396  28.028  1.00  0.00     0.074 A 
ATOM     31  C   UNL A   1      42.380  28.507  29.119  1.00  0.00     0.049 A 
ATOM     32  N   UNL A   1      41.985  25.276  28.512  1.00  0.00    -0.248 NA
ATOM     33  C   UNL A   1      41.033  26.285  26.656  1.00  0.00     0.031 C 
ATOM     34  C   UNL A   1      42.276  29.923  29.487  1.00  0.00     0.029 A 
ATOM     35  N   UNL A   1      43.721  28.292  29.113  1.00  0.00    -0.354 N 
ATOM     36  C   UNL A   1      41.991  24.393  27.435  1.00  0.00     0.074 A 
ATOM     37  C   UNL A   1      41.151  24.980  26.435  1.00  0.00     0.031 C 
ATOM     38  C   UNL A   1      43.501  30.488  29.400  1.00  0.00     0.029 A 
ATOM     39  C   UNL A   1      44.475  29.460  29.064  1.00  0.00     0.049 A 
ATOM     40  H   UNL A   1      44.122  27.394  29.141  1.00  0.00     0.167 HD
ATOM     41  C   UNL A   1      42.927  23.413  27.327  1.00  0.00     0.034 A 
ATOM     42  C   UNL A   1      45.761  29.575  28.631  1.00  0.00     0.034 A 
ATOM     43  C   UNL A   1      43.532  23.136  28.613  1.00  0.00     0.049 A 
ATOM     44  C   UNL A   1      46.352  28.207  28.677  1.00  0.00     0.074 A 
ATOM     45  C   UNL A   1      43.022  22.801  29.855  1.00  0.00     0.029 A 
ATOM     46  N   UNL A   1      44.811  23.591  28.854  1.00  0.00    -0.354 N 
ATOM     47  N   UNL A   1      46.516  27.526  29.781  1.00  0.00    -0.248 NA
ATOM     48  C   UNL A   1      46.283  27.398  27.465  1.00  0.00     0.031 C 
ATOM     49  C   UNL A   1      43.797  23.556  30.784  1.00  0.00     0.029 A 
ATOM     50  C   UNL A   1      44.790  24.231  30.071  1.00  0.00     0.049 A 
ATOM     51  H   UNL A   1      45.594  23.477  28.268  1.00  0.00     0.167 HD
ATOM     52  C   UNL A   1      46.145  26.225  29.468  1.00  0.00     0.074 A 
ATOM     53  C   UNL A   1      46.099  26.189  28.006  1.00  0.00     0.031 C 
ATOM     54  C   UNL A   1      45.616  25.379  30.405  1.00  0.00     0.034 A 
BRANCH  41  55
ATOM     55  C   UNL A   1      43.556  22.990  26.011  1.00  0.00     0.023 A 
ATOM     56  C   UNL A   1      43.503  21.620  25.699  1.00  0.00     0.031 A 
ATOM     57  C   UNL A   1      44.422  23.762  25.199  1.00  0.00     0.131 A 
ATOM     58  C   UNL A   1      44.358  21.064  24.732  1.00  0.00     0.055 A 
ATOM     59  C   UNL A   1      45.216  23.215  24.188  1.00  0.00     0.041 A 
ATOM     60  F   UNL A   1      44.630  25.072  25.375  1.00  0.00    -0.206 F 
ATOM     61  C   UNL A   1      45.217  21.852  23.974  1.00  0.00     0.022 A 
BRANCH  58  62
ATOM     62  S   UNL A   1      44.459  19.262  24.625  1.00  0.00     0.124 S 
ATOM     63  O   UNL A   1      43.158  18.865  25.152  1.00  0.00    -0.237 OA
ATOM     64  O   UNL A   1      44.665  19.061  23.195  1.00  0.00    -0.237 OA
ATOM     65  O   UNL A   1      45.603  18.937  25.473  1.00  0.00    -0.744 OA
ENDBRANCH  58  62
ENDBRANCH  41  55
BRANCH  42  66
ATOM     66  C   UNL A   1      46.311  30.710  27.823  1.00  0.00     0.023 A 
ATOM     67  C   UNL A   1      45.507  31.561  27.033  1.00  0.00     0.031 A 
ATOM     68  C   UNL A   1      47.664  31.099  27.976  1.00  0.00     0.131 A 
ATOM     69  C   UNL A   1      46.069  32.711  26.421  1.00  0.00     0.055 A 
ATOM     70  C   UNL A   1      48.217  32.219  27.353  1.00  0.00     0.041 A 
ATOM     71  F   UNL A   1      48.490  30.447  28.808  1.00  0.00    -0.206 F 
ATOM     72  C   UNL A   1      47.419  33.035  26.573  1.00  0.00     0.022 A 
BRANCH  69  73
ATOM     73  S   UNL A   1      45.024  33.868  25.473  1.00  0.00     0.124 S 
ATOM     74  O   UNL A   1      44.407  32.992  24.485  1.00  0.00    -0.237 OA
ATOM     75  O   UNL A   1      44.144  34.408  26.502  1.00  0.00    -0.237 OA
ATOM     76  O   UNL A   1      45.985  34.828  24.927  1.00  0.00    -0.744 OA
ENDBRANCH  69  73
ENDBRANCH  42  66
BRANCH  54  77
ATOM     77  C   UNL A   1      45.679  25.761  31.873  1.00  0.00     0.023 A 
ATOM     78  C   UNL A   1      46.801  25.568  32.713  1.00  0.00     0.031 A 
ATOM     79  C   UNL A   1      44.602  26.503  32.392  1.00  0.00     0.131 A 
ATOM     80  C   UNL A   1      46.809  26.110  34.016  1.00  0.00     0.055 A 
ATOM     81  C   UNL A   1      44.624  27.056  33.673  1.00  0.00     0.041 A 
ATOM     82  F   UNL A   1      43.517  26.747  31.638  1.00  0.00    -0.206 F 
ATOM     83  C   UNL A   1      45.728  26.858  34.491  1.00  0.00     0.022 A 
BRANCH  80  84
ATOM     84  S   UNL A   1      48.229  25.847  35.130  1.00  0.00     0.124 S 
ATOM     85  O   UNL A   1      48.143  26.964  36.064  1.00  0.00    -0.237 OA
ATOM     86  O   UNL A   1      47.954  24.523  35.684  1.00  0.00    -0.237 OA
ATOM     87  O   UNL A   1      49.382  25.897  34.229  1.00  0.00    -0.744 OA
ENDBRANCH  80  84
ENDBRANCH  54  77
ENDBRANCH  28  29
ENDBRANCH  21  23
ENDBRANCH  20  21
ENDBRANCH  19  20
ENDBRANCH   1  19
TORSDOF 19
ENDMDL
MODEL 2
REMARK VINA RESULT:     -10.7      2.399      7.259
REMARK SMILES CCCc1c(C(=O)OCCOC(=O)c2ccc(-c3c4nc(c(-c5cc(S(=O)(=O)[O-])ccc5F)c5ccc([nH]5)c(-c5cc(S(=O)(=O)[O-])ccc5F)c5nc(c(-c6cc(S(=O)(=O)[O-])ccc6F)c6ccc3[nH]6)C=C5)C=C4)cc2)nnn1[C@@H](C)[C@H](C)O
REMARK SMILES IDX 9 1 8 2 6 3 7 4 5 5 4 6 79 7 77 8 78 9 3 10 2 11 1 12 80 13
REMARK SMILES IDX 81 14 82 15 83 16 84 17 10 19 11 20 12 21 13 22 14 23 15 24
REMARK SMILES IDX 76 25 16 26 75 27 17 28 18 29 19 30 69 31 20 32 74 33 68 34
REMARK SMILES IDX 70 35 21 36 73 37 67 38 66 39 22 41 54 42 34 43 53 44 35 45
REMARK SMILES IDX 38 46 52 47 71 48 36 49 37 50 51 52 72 53 39 54 23 55 24 56
REMARK SMILES IDX 32 57 25 58 31 59 33 60 30 61 26 62 27 63 28 64 29 65 55 66
REMARK SMILES IDX 56 67 64 68 57 69 63 70 65 71 62 72 58 73 59 74 60 75 61 76
REMARK SMILES IDX 40 77 41 78 49 79 42 80 48 81 50 82 47 83 43 84 44 85 45 86
REMARK SMILES IDX 46 87
REMARK H PARENT 84 18 70 40 38 51
REMARK Flexibility Score: inf
ROOT
ATOM      1  C   UNL A   1      32.831  30.339  26.290  1.00  0.00     0.275 C 
ENDROOT
BRANCH   1   2
ATOM      2  O   UNL A   1      31.548  29.796  26.649  1.00  0.00    -0.457 OA
BRANCH   2   3
ATOM      3  C   UNL A   1      31.475  28.432  26.748  1.00  0.00     0.360 C 
ATOM      4  O   UNL A   1      31.428  27.844  27.828  1.00  0.00    -0.244 OA
BRANCH   3   5
ATOM      5  C   UNL A   1      31.413  27.732  25.463  1.00  0.00     0.193 A 
ATOM      6  C   UNL A   1      31.976  26.525  25.036  1.00  0.00     0.074 A 
ATOM      7  N   UNL A   1      31.568  26.442  23.715  1.00  0.00    -0.243 N 
ATOM      8  N   UNL A   1      30.741  28.310  24.410  1.00  0.00    -0.123 NA
ATOM      9  N   UNL A   1      30.874  27.538  23.349  1.00  0.00    -0.066 NA
BRANCH   6  10
ATOM     10  C   UNL A   1      32.901  25.577  25.746  1.00  0.00     0.058 C 
BRANCH  10  11
ATOM     11  C   UNL A   1      34.384  25.664  25.374  1.00  0.00     0.003 C 
ATOM     12  C   UNL A   1      35.053  24.292  25.326  1.00  0.00     0.004 C 
ENDBRANCH  10  11
ENDBRANCH   6  10
BRANCH   7  13
ATOM     13  C   UNL A   1      31.578  25.313  22.785  1.00  0.00     0.135 C 
ATOM     14  C   UNL A   1      32.933  25.219  22.064  1.00  0.00     0.036 C 
BRANCH  13  15
ATOM     15  C   UNL A   1      31.137  23.987  23.442  1.00  0.00     0.135 C 
ATOM     16  C   UNL A   1      32.143  22.861  23.196  1.00  0.00     0.040 C 
BRANCH  15  17
ATOM     17  O   UNL A   1      29.905  23.561  22.852  1.00  0.00    -0.391 OA
ATOM     18  H   UNL A   1      29.829  23.931  21.959  1.00  0.00     0.211 HD
ENDBRANCH  15  17
ENDBRANCH  13  15
ENDBRANCH   7  13
ENDBRANCH   3   5
ENDBRANCH   2   3
ENDBRANCH   1   2
BRANCH   1  19
ATOM     19  C   UNL A   1      33.591  30.845  27.508  1.00  0.00     0.275 C 
BRANCH  19  20
ATOM     20  O   UNL A   1      34.975  30.512  27.430  1.00  0.00    -0.458 OA
BRANCH  20  21
ATOM     21  C   UNL A   1      35.799  31.425  27.998  1.00  0.00     0.338 C 
ATOM     22  O   UNL A   1      35.884  32.607  27.708  1.00  0.00    -0.246 OA
BRANCH  21  23
ATOM     23  C   UNL A   1      36.769  30.739  28.853  1.00  0.00     0.060 A 
ATOM     24  C   UNL A   1      37.787  31.518  29.415  1.00  0.00     0.016 A 
ATOM     25  C   UNL A   1      36.854  29.344  28.772  1.00  0.00     0.016 A 
ATOM     26  C   UNL A   1      38.985  30.912  29.724  1.00  0.00     0.010 A 
ATOM     27  C   UNL A   1      38.059  28.751  29.034  1.00  0.00     0.010 A 
ATOM     28  C   UNL A   1      39.127  29.552  29.444  1.00  0.00    -0.014 A 
BRANCH  28  29
ATOM     29  C   UNL A   1      40.416  28.924  29.637  1.00  0.00     0.031 A 
ATOM     30  C   UNL A   1      40.759  28.719  31.063  1.00  0.00     0.074 A 
ATOM     31  C   UNL A   1      41.078  28.388  28.594  1.00  0.00     0.049 A 
ATOM     32  N   UNL A   1      41.750  29.206  31.731  1.00  0.00    -0.248 NA
ATOM     33  C   UNL A   1      39.760  28.030  31.904  1.00  0.00     0.031 C 
ATOM     34  C   UNL A   1      40.606  28.265  27.210  1.00  0.00     0.029 A 
ATOM     35  N   UNL A   1      42.239  27.683  28.583  1.00  0.00    -0.354 N 
ATOM     36  C   UNL A   1      41.619  28.679  33.013  1.00  0.00     0.074 A 
ATOM     37  C   UNL A   1      40.267  28.219  33.118  1.00  0.00     0.031 C 
ATOM     38  C   UNL A   1      41.333  27.312  26.584  1.00  0.00     0.029 A 
ATOM     39  C   UNL A   1      42.368  26.834  27.488  1.00  0.00     0.049 A 
ATOM     40  H   UNL A   1      42.925  27.765  29.284  1.00  0.00     0.167 HD
ATOM     41  C   UNL A   1      42.707  28.378  33.772  1.00  0.00     0.034 A 
ATOM     42  C   UNL A   1      43.165  25.733  27.408  1.00  0.00     0.034 A 
ATOM     43  C   UNL A   1      43.876  29.086  33.297  1.00  0.00     0.049 A 
ATOM     44  C   UNL A   1      44.195  25.872  28.477  1.00  0.00     0.074 A 
ATOM     45  C   UNL A   1      44.151  30.422  33.059  1.00  0.00     0.029 A 
ATOM     46  N   UNL A   1      44.837  28.386  32.597  1.00  0.00    -0.354 N 
ATOM     47  N   UNL A   1      45.087  26.828  28.503  1.00  0.00    -0.248 NA
ATOM     48  C   UNL A   1      43.915  25.262  29.772  1.00  0.00     0.031 C 
ATOM     49  C   UNL A   1      44.895  30.430  31.842  1.00  0.00     0.029 A 
ATOM     50  C   UNL A   1      45.112  29.105  31.458  1.00  0.00     0.049 A 
ATOM     51  H   UNL A   1      45.248  27.532  32.864  1.00  0.00     0.167 HD
ATOM     52  C   UNL A   1      45.156  27.227  29.832  1.00  0.00     0.074 A 
ATOM     53  C   UNL A   1      44.480  26.166  30.578  1.00  0.00     0.031 C 
ATOM     54  C   UNL A   1      45.479  28.510  30.184  1.00  0.00     0.034 A 
BRANCH  41  55
ATOM     55  C   UNL A   1      42.790  27.164  34.681  1.00  0.00     0.023 A 
ATOM     56  C   UNL A   1      43.582  26.094  34.233  1.00  0.00     0.031 A 
ATOM     57  C   UNL A   1      41.953  26.875  35.787  1.00  0.00     0.131 A 
ATOM     58  C   UNL A   1      43.437  24.807  34.778  1.00  0.00     0.055 A 
ATOM     59  C   UNL A   1      41.867  25.610  36.373  1.00  0.00     0.041 A 
ATOM     60  F   UNL A   1      41.102  27.758  36.322  1.00  0.00    -0.206 F 
ATOM     61  C   UNL A   1      42.583  24.556  35.845  1.00  0.00     0.022 A 
BRANCH  58  62
ATOM     62  S   UNL A   1      44.247  23.430  33.930  1.00  0.00     0.124 S 
ATOM     63  O   UNL A   1      43.419  23.294  32.737  1.00  0.00    -0.237 OA
ATOM     64  O   UNL A   1      45.592  23.958  33.726  1.00  0.00    -0.237 OA
ATOM     65  O   UNL A   1      44.145  22.335  34.891  1.00  0.00    -0.744 OA
ENDBRANCH  58  62
ENDBRANCH  41  55
BRANCH  42  66
ATOM     66  C   UNL A   1      42.804  24.441  26.740  1.00  0.00     0.023 A 
ATOM     67  C   UNL A   1      43.704  23.703  25.941  1.00  0.00     0.031 A 
ATOM     68  C   UNL A   1      41.579  23.801  27.050  1.00  0.00     0.131 A 
ATOM     69  C   UNL A   1      43.350  22.413  25.470  1.00  0.00     0.055 A 
ATOM     70  C   UNL A   1      41.227  22.540  26.565  1.00  0.00     0.041 A 
ATOM     71  F   UNL A   1      40.702  24.345  27.908  1.00  0.00    -0.206 F 
ATOM     72  C   UNL A   1      42.115  21.837  25.773  1.00  0.00     0.022 A 
BRANCH  69  73
ATOM     73  S   UNL A   1      44.538  21.411  24.514  1.00  0.00     0.124 S 
ATOM     74  O   UNL A   1      43.950  20.079  24.585  1.00  0.00    -0.237 OA
ATOM     75  O   UNL A   1      44.518  22.063  23.210  1.00  0.00    -0.237 OA
ATOM     76  O   UNL A   1      45.792  21.568  25.254  1.00  0.00    -0.744 OA
ENDBRANCH  69  73
ENDBRANCH  42  66
BRANCH  54  77
ATOM     77  C   UNL A   1      46.037  29.453  29.134  1.00  0.00     0.023 A 
ATOM     78  C   UNL A   1      45.273  30.388  28.397  1.00  0.00     0.031 A 
ATOM     79  C   UNL A   1      47.437  29.511  28.999  1.00  0.00     0.131 A 
ATOM     80  C   UNL A   1      45.918  31.330  27.567  1.00  0.00     0.055 A 
ATOM     81  C   UNL A   1      48.071  30.458  28.195  1.00  0.00     0.041 A 
ATOM     82  F   UNL A   1      48.223  28.670  29.692  1.00  0.00    -0.206 F 
ATOM     83  C   UNL A   1      47.312  31.369  27.472  1.00  0.00     0.022 A 
BRANCH  80  84
ATOM     84  S   UNL A   1      44.955  32.523  26.580  1.00  0.00     0.124 S 
ATOM     85  O   UNL A   1      44.331  33.374  27.587  1.00  0.00    -0.237 OA
ATOM     86  O   UNL A   1      45.982  33.152  25.754  1.00  0.00    -0.237 OA
ATOM     87  O   UNL A   1      44.019  31.674  25.840  1.00  0.00    -0.744 OA
ENDBRANCH  80  84
ENDBRANCH  54  77
ENDBRANCH  28  29
ENDBRANCH  21  23
ENDBRANCH  20  21
ENDBRANCH  19  20
ENDBRANCH   1  19
TORSDOF 19
ENDMDL
MODEL 3
REMARK VINA RESULT:     -10.5      4.593      9.092
REMARK SMILES CCCc1c(C(=O)OCCOC(=O)c2ccc(-c3c4nc(c(-c5cc(S(=O)(=O)[O-])ccc5F)c5ccc([nH]5)c(-c5cc(S(=O)(=O)[O-])ccc5F)c5nc(c(-c6cc(S(=O)(=O)[O-])ccc6F)c6ccc3[nH]6)C=C5)C=C4)cc2)nnn1[C@@H](C)[C@H](C)O
REMARK SMILES IDX 9 1 8 2 6 3 7 4 5 5 4 6 79 7 77 8 78 9 3 10 2 11 1 12 80 13
REMARK SMILES IDX 81 14 82 15 83 16 84 17 10 19 11 20 12 21 13 22 14 23 15 24
REMARK SMILES IDX 76 25 16 26 75 27 17 28 18 29 19 30 69 31 20 32 74 33 68 34
REMARK SMILES IDX 70 35 21 36 73 37 67 38 66 39 22 41 54 42 34 43 53 44 35 45
REMARK SMILES IDX 38 46 52 47 71 48 36 49 37 50 51 52 72 53 39 54 23 55 24 56
REMARK SMILES IDX 32 57 25 58 31 59 33 60 30 61 26 62 27 63 28 64 29 65 55 66
REMARK SMILES IDX 56 67 64 68 57 69 63 70 65 71 62 72 58 73 59 74 60 75 61 76
REMARK SMILES IDX 40 77 41 78 49 79 42 80 48 81 50 82 47 83 43 84 44 85 45 86
REMARK SMILES IDX 46 87
REMARK H PARENT 84 18 70 40 38 51
REMARK Flexibility Score: inf
ROOT
ATOM      1  C   UNL A   1      36.996  23.752  25.539  1.00  0.00     0.275 C 
ENDROOT
BRANCH   1   2
ATOM      2  O   UNL A   1      35.730  23.237  25.988  1.00  0.00    -0.457 OA
BRANCH   2   3
ATOM      3  C   UNL A   1      34.783  23.032  25.021  1.00  0.00     0.360 C 
ATOM      4  O   UNL A   1      34.340  23.940  24.319  1.00  0.00    -0.244 OA
BRANCH   3   5
ATOM      5  C   UNL A   1      34.374  21.635  24.859  1.00  0.00     0.193 A 
ATOM      6  C   UNL A   1      33.110  21.037  24.826  1.00  0.00     0.074 A 
ATOM      7  N   UNL A   1      33.406  19.692  24.678  1.00  0.00    -0.243 N 
ATOM      8  N   UNL A   1      35.335  20.655  24.760  1.00  0.00    -0.123 NA
ATOM      9  N   UNL A   1      34.737  19.482  24.689  1.00  0.00    -0.066 NA
BRANCH   6  10
ATOM     10  C   UNL A   1      31.744  21.634  25.021  1.00  0.00     0.058 C 
BRANCH  10  11
ATOM     11  C   UNL A   1      31.539  22.465  26.290  1.00  0.00     0.003 C 
ATOM     12  C   UNL A   1      31.023  23.870  25.988  1.00  0.00     0.004 C 
ENDBRANCH  10  11
ENDBRANCH   6  10
BRANCH   7  13
ATOM     13  C   UNL A   1      32.552  18.565  24.303  1.00  0.00     0.135 C 
ATOM     14  C   UNL A   1      32.336  18.535  22.781  1.00  0.00     0.036 C 
BRANCH  13  15
ATOM     15  C   UNL A   1      33.039  17.220  24.884  1.00  0.00     0.135 C 
ATOM     16  C   UNL A   1      33.908  16.447  23.889  1.00  0.00     0.040 C 
BRANCH  15  17
ATOM     17  O   UNL A   1      31.906  16.390  25.155  1.00  0.00    -0.391 OA
ATOM     18  H   UNL A   1      31.859  15.679  24.497  1.00  0.00     0.211 HD
ENDBRANCH  15  17
ENDBRANCH  13  15
ENDBRANCH   7  13
ENDBRANCH   3   5
ENDBRANCH   2   3
ENDBRANCH   1   2
BRANCH   1  19
ATOM     19  C   UNL A   1      38.157  22.889  26.016  1.00  0.00     0.275 C 
BRANCH  19  20
ATOM     20  O   UNL A   1      38.752  23.428  27.194  1.00  0.00    -0.458 OA
BRANCH  20  21
ATOM     21  C   UNL A   1      40.100  23.298  27.244  1.00  0.00     0.338 C 
ATOM     22  O   UNL A   1      40.726  22.260  27.373  1.00  0.00    -0.246 OA
BRANCH  21  23
ATOM     23  C   UNL A   1      40.711  24.622  27.374  1.00  0.00     0.060 A 
ATOM     24  C   UNL A   1      41.733  24.763  28.320  1.00  0.00     0.016 A 
ATOM     25  C   UNL A   1      40.029  25.722  26.841  1.00  0.00     0.016 A 
ATOM     26  C   UNL A   1      41.942  26.004  28.882  1.00  0.00     0.010 A 
ATOM     27  C   UNL A   1      40.203  26.943  27.435  1.00  0.00     0.010 A 
ATOM     28  C   UNL A   1      41.110  27.053  28.491  1.00  0.00    -0.014 A 
BRANCH  28  29
ATOM     29  C   UNL A   1      41.224  28.330  29.162  1.00  0.00     0.031 A 
ATOM     30  C   UNL A   1      42.256  29.212  28.570  1.00  0.00     0.074 A 
ATOM     31  C   UNL A   1      40.301  28.711  30.066  1.00  0.00     0.049 A 
ATOM     32  N   UNL A   1      43.320  29.690  29.122  1.00  0.00    -0.248 NA
ATOM     33  C   UNL A   1      42.190  29.442  27.113  1.00  0.00     0.031 C 
ATOM     34  C   UNL A   1      39.067  28.006  30.427  1.00  0.00     0.029 A 
ATOM     35  N   UNL A   1      40.181  29.892  30.726  1.00  0.00    -0.354 N 
ATOM     36  C   UNL A   1      43.920  30.473  28.139  1.00  0.00     0.074 A 
ATOM     37  C   UNL A   1      43.348  30.056  26.895  1.00  0.00     0.031 C 
ATOM     38  C   UNL A   1      38.219  28.882  31.012  1.00  0.00     0.029 A 
ATOM     39  C   UNL A   1      38.884  30.169  31.147  1.00  0.00     0.049 A 
ATOM     40  H   UNL A   1      40.941  30.495  30.892  1.00  0.00     0.167 HD
ATOM     41  C   UNL A   1      44.599  31.609  28.454  1.00  0.00     0.034 A 
ATOM     42  C   UNL A   1      38.372  31.397  31.435  1.00  0.00     0.034 A 
ATOM     43  C   UNL A   1      44.995  31.602  29.846  1.00  0.00     0.049 A 
ATOM     44  C   UNL A   1      39.534  32.298  31.681  1.00  0.00     0.074 A 
ATOM     45  C   UNL A   1      45.705  30.710  30.631  1.00  0.00     0.029 A 
ATOM     46  N   UNL A   1      44.310  32.404  30.734  1.00  0.00    -0.354 N 
ATOM     47  N   UNL A   1      40.380  32.138  32.666  1.00  0.00    -0.248 NA
ATOM     48  C   UNL A   1      40.052  33.059  30.550  1.00  0.00     0.031 C 
ATOM     49  C   UNL A   1      45.006  30.681  31.874  1.00  0.00     0.029 A 
ATOM     50  C   UNL A   1      43.974  31.620  31.812  1.00  0.00     0.049 A 
ATOM     51  H   UNL A   1      44.102  33.359  30.619  1.00  0.00     0.167 HD
ATOM     52  C   UNL A   1      41.632  32.389  32.119  1.00  0.00     0.074 A 
ATOM     53  C   UNL A   1      41.358  33.040  30.838  1.00  0.00     0.031 C 
ATOM     54  C   UNL A   1      42.762  31.785  32.598  1.00  0.00     0.034 A 
BRANCH  41  55
ATOM     55  C   UNL A   1      44.561  32.873  27.613  1.00  0.00     0.023 A 
ATOM     56  C   UNL A   1      43.847  33.961  28.143  1.00  0.00     0.031 A 
ATOM     57  C   UNL A   1      44.924  32.994  26.249  1.00  0.00     0.131 A 
ATOM     58  C   UNL A   1      43.425  35.020  27.322  1.00  0.00     0.055 A 
ATOM     59  C   UNL A   1      44.564  34.086  25.455  1.00  0.00     0.041 A 
ATOM     60  F   UNL A   1      45.569  32.042  25.567  1.00  0.00    -0.206 F 
ATOM     61  C   UNL A   1      43.777  35.091  25.979  1.00  0.00     0.022 A 
BRANCH  58  62
ATOM     62  S   UNL A   1      42.242  36.204  28.005  1.00  0.00     0.124 S 
ATOM     63  O   UNL A   1      41.056  35.371  28.168  1.00  0.00    -0.237 OA
ATOM     64  O   UNL A   1      42.913  36.620  29.232  1.00  0.00    -0.237 OA
ATOM     65  O   UNL A   1      42.150  37.227  26.966  1.00  0.00    -0.744 OA
ENDBRANCH  58  62
ENDBRANCH  41  55
BRANCH  42  66
ATOM     66  C   UNL A   1      36.990  31.867  31.099  1.00  0.00     0.023 A 
ATOM     67  C   UNL A   1      36.152  32.534  32.019  1.00  0.00     0.031 A 
ATOM     68  C   UNL A   1      36.537  31.831  29.757  1.00  0.00     0.131 A 
ATOM     69  C   UNL A   1      34.920  33.092  31.590  1.00  0.00     0.055 A 
ATOM     70  C   UNL A   1      35.313  32.363  29.345  1.00  0.00     0.041 A 
ATOM     71  F   UNL A   1      37.305  31.346  28.771  1.00  0.00    -0.206 F 
ATOM     72  C   UNL A   1      34.499  33.001  30.262  1.00  0.00     0.022 A 
BRANCH  69  73
ATOM     73  S   UNL A   1      33.871  34.034  32.748  1.00  0.00     0.124 S 
ATOM     74  O   UNL A   1      33.207  34.983  31.863  1.00  0.00    -0.237 OA
ATOM     75  O   UNL A   1      33.033  32.991  33.329  1.00  0.00    -0.237 OA
ATOM     76  O   UNL A   1      34.834  34.630  33.676  1.00  0.00    -0.744 OA
ENDBRANCH  69  73
ENDBRANCH  42  66
BRANCH  54  77
ATOM     77  C   UNL A   1      42.706  31.036  33.917  1.00  0.00     0.023 A 
ATOM     78  C   UNL A   1      42.246  29.708  34.076  1.00  0.00     0.031 A 
ATOM     79  C   UNL A   1      43.302  31.653  35.033  1.00  0.00     0.131 A 
ATOM     80  C   UNL A   1      42.392  29.053  35.317  1.00  0.00     0.055 A 
ATOM     81  C   UNL A   1      43.465  30.994  36.252  1.00  0.00     0.041 A 
ATOM     82  F   UNL A   1      43.785  32.903  34.943  1.00  0.00    -0.206 F 
ATOM     83  C   UNL A   1      43.006  29.692  36.399  1.00  0.00     0.022 A 
BRANCH  80  84
ATOM     84  S   UNL A   1      41.777  27.354  35.558  1.00  0.00     0.124 S 
ATOM     85  O   UNL A   1      40.854  27.163  34.446  1.00  0.00    -0.237 OA
ATOM     86  O   UNL A   1      43.006  26.564  35.516  1.00  0.00    -0.237 OA
ATOM     87  O   UNL A   1      41.138  27.407  36.874  1.00  0.00    -0.744 OA
ENDBRANCH  80  84
ENDBRANCH  54  77
ENDBRANCH  28  29
ENDBRANCH  21  23
ENDBRANCH  20  21
ENDBRANCH  19  20
ENDBRANCH   1  19
TORSDOF 19
ENDMDL
