MODEL 1
REMARK VINA RESULT:     -11.9      0.000      0.000
REMARK SMILES Cc1ccc([C@@H](C)Nc2ccccc2C(=O)OCCOC(=O)c2ccc(-c3c4nc(c(-c5cc(S(=O)(=O)[O-])ccc5F)c5ccc([nH]5)c(-c5cc(S(=O)(=O)[O-])ccc5F)c5nc(c(-c6cc(S(=O)(=O)[O-])ccc6F)c6ccc3[nH]6)C=C5)C=C4)cc2)cc1F
REMARK SMILES IDX 18 1 17 2 15 3 16 4 14 5 9 6 10 7 11 8 13 9 12 10 8 11 6 13
REMARK SMILES IDX 7 14 5 15 1 16 2 17 3 18 87 19 4 20 86 21 88 22 19 23 20 24
REMARK SMILES IDX 21 25 22 26 23 27 24 28 85 29 25 30 84 31 26 32 27 33 28 34
REMARK SMILES IDX 78 35 29 36 83 37 77 38 79 39 30 40 82 41 76 42 75 43 31 45
REMARK SMILES IDX 63 46 43 47 62 48 44 49 47 50 61 51 80 52 45 53 46 54 60 56
REMARK SMILES IDX 81 57 48 58 32 59 33 60 41 61 34 62 40 63 42 64 39 65 35 66
REMARK SMILES IDX 36 67 37 68 38 69 64 70 65 71 73 72 66 73 72 74 74 75 71 76
REMARK SMILES IDX 67 77 68 78 69 79 70 80 49 81 50 82 58 83 51 84 57 85 59 86
REMARK SMILES IDX 56 87 52 88 53 89 54 90 55 91
REMARK H PARENT 8 12 79 44 47 55
REMARK Flexibility Score: inf
ROOT
ATOM      1  C   UNL A   1      33.173  35.024  29.502  1.00  0.00     0.275 C 
ENDROOT
BRANCH   1   2
ATOM      2  O   UNL A   1      33.544  33.711  29.026  1.00  0.00    -0.458 OA
BRANCH   2   3
ATOM      3  C   UNL A   1      34.485  33.608  28.065  1.00  0.00     0.340 C 
ATOM      4  O   UNL A   1      34.840  34.534  27.343  1.00  0.00    -0.246 OA
BRANCH   3   5
ATOM      5  C   UNL A   1      35.066  32.235  27.963  1.00  0.00     0.083 A 
ATOM      6  C   UNL A   1      34.372  31.012  27.784  1.00  0.00     0.049 A 
ATOM      7  C   UNL A   1      35.169  29.840  27.693  1.00  0.00     0.026 A 
ATOM      8  C   UNL A   1      36.561  29.856  27.760  1.00  0.00     0.002 A 
ATOM      9  C   UNL A   1      36.480  32.234  28.027  1.00  0.00     0.018 A 
ATOM     10  C   UNL A   1      37.221  31.059  27.921  1.00  0.00     0.001 A 
BRANCH   6  11
ATOM     11  N   UNL A   1      33.019  30.774  27.588  1.00  0.00    -0.378 N 
ATOM     12  H   UNL A   1      32.510  30.560  28.403  1.00  0.00     0.161 HD
BRANCH  11  13
ATOM     13  C   UNL A   1      32.250  30.793  26.372  1.00  0.00     0.106 C 
ATOM     14  C   UNL A   1      31.161  31.864  26.464  1.00  0.00     0.036 C 
BRANCH  13  15
ATOM     15  C   UNL A   1      31.748  29.398  26.070  1.00  0.00    -0.023 A 
ATOM     16  C   UNL A   1      30.515  25.332  25.372  1.00  0.00     0.047 C 
ATOM     17  C   UNL A   1      30.925  26.744  25.635  1.00  0.00    -0.015 A 
ATOM     18  C   UNL A   1      31.320  27.149  26.911  1.00  0.00     0.007 A 
ATOM     19  C   UNL A   1      30.914  27.685  24.600  1.00  0.00     0.126 A 
ATOM     20  C   UNL A   1      31.718  28.465  27.126  1.00  0.00     0.006 A 
ATOM     21  C   UNL A   1      31.313  29.001  24.805  1.00  0.00     0.045 A 
ATOM     22  F   UNL A   1      30.522  27.315  23.372  1.00  0.00    -0.207 F 
ENDBRANCH  13  15
ENDBRANCH  11  13
ENDBRANCH   6  11
ENDBRANCH   3   5
ENDBRANCH   2   3
ENDBRANCH   1   2
BRANCH   1  23
ATOM     23  C   UNL A   1      33.400  35.108  31.003  1.00  0.00     0.275 C 
BRANCH  23  24
ATOM     24  O   UNL A   1      34.493  34.250  31.316  1.00  0.00    -0.458 OA
BRANCH  24  25
ATOM     25  C   UNL A   1      34.441  33.847  32.605  1.00  0.00     0.338 C 
ATOM     26  O   UNL A   1      33.477  33.396  33.203  1.00  0.00    -0.246 OA
BRANCH  25  27
ATOM     27  C   UNL A   1      35.689  34.190  33.272  1.00  0.00     0.060 A 
ATOM     28  C   UNL A   1      36.649  34.781  32.443  1.00  0.00     0.016 A 
ATOM     29  C   UNL A   1      36.001  33.274  34.274  1.00  0.00     0.016 A 
ATOM     30  C   UNL A   1      37.893  34.193  32.375  1.00  0.00     0.010 A 
ATOM     31  C   UNL A   1      37.225  32.673  34.182  1.00  0.00     0.010 A 
ATOM     32  C   UNL A   1      38.110  33.071  33.165  1.00  0.00    -0.014 A 
BRANCH  32  33
ATOM     33  C   UNL A   1      39.269  32.227  33.026  1.00  0.00     0.031 A 
ATOM     34  C   UNL A   1      39.126  31.000  32.243  1.00  0.00     0.074 A 
ATOM     35  C   UNL A   1      40.463  32.727  33.405  1.00  0.00     0.049 A 
ATOM     36  N   UNL A   1      39.989  30.048  32.240  1.00  0.00    -0.248 NA
ATOM     37  C   UNL A   1      37.946  30.731  31.426  1.00  0.00     0.031 C 
ATOM     38  C   UNL A   1      41.767  32.362  32.877  1.00  0.00     0.029 A 
ATOM     39  N   UNL A   1      40.747  33.585  34.474  1.00  0.00    -0.354 N 
ATOM     40  C   UNL A   1      39.645  29.207  31.208  1.00  0.00     0.074 A 
ATOM     41  C   UNL A   1      38.314  29.607  30.808  1.00  0.00     0.031 C 
ATOM     42  C   UNL A   1      42.714  32.784  33.729  1.00  0.00     0.029 A 
ATOM     43  C   UNL A   1      42.035  33.250  34.929  1.00  0.00     0.049 A 
ATOM     44  H   UNL A   1      40.160  34.288  34.836  1.00  0.00     0.167 HD
ATOM     45  C   UNL A   1      40.598  28.390  30.683  1.00  0.00     0.034 A 
ATOM     46  C   UNL A   1      42.327  32.830  36.197  1.00  0.00     0.034 A 
ATOM     47  C   UNL A   1      41.858  28.531  31.415  1.00  0.00     0.049 A 
ATOM     48  C   UNL A   1      42.944  31.444  36.222  1.00  0.00     0.074 A 
ATOM     49  C   UNL A   1      42.974  29.324  31.195  1.00  0.00     0.029 A 
ATOM     50  N   UNL A   1      41.946  28.091  32.731  1.00  0.00    -0.354 N 
ATOM     51  N   UNL A   1      42.928  30.623  35.210  1.00  0.00    -0.248 NA
ATOM     52  C   UNL A   1      43.561  30.849  37.404  1.00  0.00     0.031 C 
ATOM     53  C   UNL A   1      43.710  29.400  32.403  1.00  0.00     0.029 A 
ATOM     54  C   UNL A   1      43.057  28.639  33.356  1.00  0.00     0.049 A 
ATOM     55  H   UNL A   1      41.308  27.476  33.160  1.00  0.00     0.167 HD
ATOM     56  C   UNL A   1      43.412  29.399  35.592  1.00  0.00     0.074 A 
ATOM     57  C   UNL A   1      43.849  29.612  36.959  1.00  0.00     0.031 C 
ATOM     58  C   UNL A   1      43.363  28.322  34.752  1.00  0.00     0.034 A 
BRANCH  45  59
ATOM     59  C   UNL A   1      40.458  27.756  29.318  1.00  0.00     0.023 A 
ATOM     60  C   UNL A   1      41.249  28.108  28.203  1.00  0.00     0.031 A 
ATOM     61  C   UNL A   1      39.553  26.695  29.112  1.00  0.00     0.131 A 
ATOM     62  C   UNL A   1      41.222  27.349  27.016  1.00  0.00     0.055 A 
ATOM     63  C   UNL A   1      39.478  25.983  27.909  1.00  0.00     0.041 A 
ATOM     64  F   UNL A   1      38.734  26.265  30.081  1.00  0.00    -0.206 F 
ATOM     65  C   UNL A   1      40.335  26.289  26.863  1.00  0.00     0.022 A 
BRANCH  62  66
ATOM     66  S   UNL A   1      42.418  27.646  25.681  1.00  0.00     0.124 S 
ATOM     67  O   UNL A   1      42.309  26.422  24.887  1.00  0.00    -0.237 OA
ATOM     68  O   UNL A   1      41.889  28.847  25.045  1.00  0.00    -0.237 OA
ATOM     69  O   UNL A   1      43.690  27.807  26.380  1.00  0.00    -0.744 OA
ENDBRANCH  62  66
ENDBRANCH  45  59
BRANCH  46  70
ATOM     70  C   UNL A   1      41.362  33.304  37.226  1.00  0.00     0.023 A 
ATOM     71  C   UNL A   1      40.269  32.490  37.549  1.00  0.00     0.031 A 
ATOM     72  C   UNL A   1      41.292  34.680  37.520  1.00  0.00     0.131 A 
ATOM     73  C   UNL A   1      39.085  33.084  37.999  1.00  0.00     0.055 A 
ATOM     74  C   UNL A   1      40.110  35.266  37.979  1.00  0.00     0.041 A 
ATOM     75  F   UNL A   1      42.330  35.486  37.242  1.00  0.00    -0.206 F 
ATOM     76  C   UNL A   1      38.985  34.470  38.178  1.00  0.00     0.022 A 
BRANCH  73  77
ATOM     77  S   UNL A   1      37.585  32.081  38.153  1.00  0.00     0.124 S 
ATOM     78  O   UNL A   1      36.545  33.044  37.802  1.00  0.00    -0.237 OA
ATOM     79  O   UNL A   1      37.832  31.016  37.188  1.00  0.00    -0.237 OA
ATOM     80  O   UNL A   1      37.596  31.648  39.544  1.00  0.00    -0.744 OA
ENDBRANCH  73  77
ENDBRANCH  46  70
BRANCH  58  81
ATOM     81  C   UNL A   1      43.648  26.876  35.102  1.00  0.00     0.023 A 
ATOM     82  C   UNL A   1      44.965  26.389  34.898  1.00  0.00     0.031 A 
ATOM     83  C   UNL A   1      42.696  25.916  35.479  1.00  0.00     0.131 A 
ATOM     84  C   UNL A   1      45.281  25.032  35.035  1.00  0.00     0.055 A 
ATOM     85  C   UNL A   1      43.030  24.573  35.697  1.00  0.00     0.041 A 
ATOM     86  F   UNL A   1      41.395  26.211  35.590  1.00  0.00    -0.206 F 
ATOM     87  C   UNL A   1      44.321  24.121  35.458  1.00  0.00     0.022 A 
BRANCH  84  88
ATOM     88  S   UNL A   1      46.900  24.406  34.502  1.00  0.00     0.124 S 
ATOM     89  O   UNL A   1      47.087  25.109  33.235  1.00  0.00    -0.237 OA
ATOM     90  O   UNL A   1      47.775  24.840  35.590  1.00  0.00    -0.237 OA
ATOM     91  O   UNL A   1      46.700  22.966  34.407  1.00  0.00    -0.744 OA
ENDBRANCH  84  88
ENDBRANCH  58  81
ENDBRANCH  32  33
ENDBRANCH  25  27
ENDBRANCH  24  25
ENDBRANCH  23  24
ENDBRANCH   1  23
TORSDOF 17
ENDMDL
MODEL 2
REMARK VINA RESULT:     -11.4      3.447      5.547
REMARK SMILES Cc1ccc([C@@H](C)Nc2ccccc2C(=O)OCCOC(=O)c2ccc(-c3c4nc(c(-c5cc(S(=O)(=O)[O-])ccc5F)c5ccc([nH]5)c(-c5cc(S(=O)(=O)[O-])ccc5F)c5nc(c(-c6cc(S(=O)(=O)[O-])ccc6F)c6ccc3[nH]6)C=C5)C=C4)cc2)cc1F
REMARK SMILES IDX 18 1 17 2 15 3 16 4 14 5 9 6 10 7 11 8 13 9 12 10 8 11 6 13
REMARK SMILES IDX 7 14 5 15 1 16 2 17 3 18 87 19 4 20 86 21 88 22 19 23 20 24
REMARK SMILES IDX 21 25 22 26 23 27 24 28 85 29 25 30 84 31 26 32 27 33 28 34
REMARK SMILES IDX 78 35 29 36 83 37 77 38 79 39 30 40 82 41 76 42 75 43 31 45
REMARK SMILES IDX 63 46 43 47 62 48 44 49 47 50 61 51 80 52 45 53 46 54 60 56
REMARK SMILES IDX 81 57 48 58 32 59 33 60 41 61 34 62 40 63 42 64 39 65 35 66
REMARK SMILES IDX 36 67 37 68 38 69 64 70 65 71 73 72 66 73 72 74 74 75 71 76
REMARK SMILES IDX 67 77 68 78 69 79 70 80 49 81 50 82 58 83 51 84 57 85 59 86
REMARK SMILES IDX 56 87 52 88 53 89 54 90 55 91
REMARK H PARENT 8 12 79 44 47 55
REMARK Flexibility Score: inf
ROOT
ATOM      1  C   UNL A   1      32.872  30.839  26.810  1.00  0.00     0.275 C 
ENDROOT
BRANCH   1   2
ATOM      2  O   UNL A   1      32.251  29.560  26.554  1.00  0.00    -0.458 OA
BRANCH   2   3
ATOM      3  C   UNL A   1      32.535  28.917  25.402  1.00  0.00     0.340 C 
ATOM      4  O   UNL A   1      33.658  28.552  25.072  1.00  0.00    -0.246 OA
BRANCH   3   5
ATOM      5  C   UNL A   1      31.328  28.687  24.551  1.00  0.00     0.083 A 
ATOM      6  C   UNL A   1      30.810  27.448  24.100  1.00  0.00     0.049 A 
ATOM      7  C   UNL A   1      29.626  27.504  23.317  1.00  0.00     0.026 A 
ATOM      8  C   UNL A   1      28.976  28.695  23.001  1.00  0.00     0.002 A 
ATOM      9  C   UNL A   1      30.654  29.888  24.223  1.00  0.00     0.018 A 
ATOM     10  C   UNL A   1      29.487  29.893  23.461  1.00  0.00     0.001 A 
BRANCH   6  11
ATOM     11  N   UNL A   1      31.225  26.153  24.376  1.00  0.00    -0.378 N 
ATOM     12  H   UNL A   1      31.166  25.887  25.322  1.00  0.00     0.161 HD
BRANCH  11  13
ATOM     13  C   UNL A   1      31.731  25.141  23.486  1.00  0.00     0.106 C 
ATOM     14  C   UNL A   1      30.710  24.008  23.356  1.00  0.00     0.036 C 
BRANCH  13  15
ATOM     15  C   UNL A   1      33.107  24.709  23.942  1.00  0.00    -0.023 A 
ATOM     16  C   UNL A   1      37.054  23.724  25.352  1.00  0.00     0.047 C 
ATOM     17  C   UNL A   1      35.674  24.056  24.886  1.00  0.00    -0.015 A 
ATOM     18  C   UNL A   1      34.801  24.783  25.695  1.00  0.00     0.007 A 
ATOM     19  C   UNL A   1      35.237  23.633  23.626  1.00  0.00     0.126 A 
ATOM     20  C   UNL A   1      33.528  25.098  25.229  1.00  0.00     0.006 A 
ATOM     21  C   UNL A   1      33.967  23.946  23.152  1.00  0.00     0.045 A 
ATOM     22  F   UNL A   1      36.058  22.919  22.844  1.00  0.00    -0.207 F 
ENDBRANCH  13  15
ENDBRANCH  11  13
ENDBRANCH   6  11
ENDBRANCH   3   5
ENDBRANCH   2   3
ENDBRANCH   1   2
BRANCH   1  23
ATOM     23  C   UNL A   1      34.051  30.656  27.754  1.00  0.00     0.275 C 
BRANCH  23  24
ATOM     24  O   UNL A   1      34.843  31.837  27.677  1.00  0.00    -0.458 OA
BRANCH  24  25
ATOM     25  C   UNL A   1      36.035  31.664  28.291  1.00  0.00     0.338 C 
ATOM     26  O   UNL A   1      36.816  32.530  28.654  1.00  0.00    -0.246 OA
BRANCH  25  27
ATOM     27  C   UNL A   1      36.366  30.246  28.316  1.00  0.00     0.060 A 
ATOM     28  C   UNL A   1      36.598  29.725  29.594  1.00  0.00     0.016 A 
ATOM     29  C   UNL A   1      37.100  29.873  27.193  1.00  0.00     0.016 A 
ATOM     30  C   UNL A   1      37.797  29.089  29.825  1.00  0.00     0.010 A 
ATOM     31  C   UNL A   1      38.303  29.271  27.431  1.00  0.00     0.010 A 
ATOM     32  C   UNL A   1      38.678  28.985  28.755  1.00  0.00    -0.014 A 
BRANCH  32  33
ATOM     33  C   UNL A   1      40.044  28.557  28.904  1.00  0.00     0.031 A 
ATOM     34  C   UNL A   1      40.336  27.135  28.713  1.00  0.00     0.074 A 
ATOM     35  C   UNL A   1      41.002  29.506  28.961  1.00  0.00     0.049 A 
ATOM     36  N   UNL A   1      41.445  26.581  29.050  1.00  0.00    -0.248 NA
ATOM     37  C   UNL A   1      39.353  26.207  28.161  1.00  0.00     0.031 C 
ATOM     38  C   UNL A   1      42.389  29.370  28.548  1.00  0.00     0.029 A 
ATOM     39  N   UNL A   1      40.937  30.772  29.555  1.00  0.00    -0.354 N 
ATOM     40  C   UNL A   1      41.444  25.326  28.487  1.00  0.00     0.074 A 
ATOM     41  C   UNL A   1      40.086  25.099  28.045  1.00  0.00     0.031 C 
ATOM     42  C   UNL A   1      43.101  30.373  29.083  1.00  0.00     0.029 A 
ATOM     43  C   UNL A   1      42.231  31.064  30.022  1.00  0.00     0.049 A 
ATOM     44  H   UNL A   1      40.141  31.346  29.629  1.00  0.00     0.167 HD
ATOM     45  C   UNL A   1      42.635  24.697  28.288  1.00  0.00     0.034 A 
ATOM     46  C   UNL A   1      42.546  31.320  31.328  1.00  0.00     0.034 A 
ATOM     47  C   UNL A   1      43.738  25.505  28.811  1.00  0.00     0.049 A 
ATOM     48  C   UNL A   1      43.551  30.329  31.887  1.00  0.00     0.074 A 
ATOM     49  C   UNL A   1      44.573  26.433  28.208  1.00  0.00     0.029 A 
ATOM     50  N   UNL A   1      43.862  25.701  30.181  1.00  0.00    -0.354 N 
ATOM     51  N   UNL A   1      43.855  29.200  31.311  1.00  0.00    -0.248 NA
ATOM     52  C   UNL A   1      44.234  30.497  33.165  1.00  0.00     0.031 C 
ATOM     53  C   UNL A   1      45.165  27.223  29.224  1.00  0.00     0.029 A 
ATOM     54  C   UNL A   1      44.708  26.768  30.447  1.00  0.00     0.049 A 
ATOM     55  H   UNL A   1      43.412  25.158  30.868  1.00  0.00     0.167 HD
ATOM     56  C   UNL A   1      44.659  28.457  32.135  1.00  0.00     0.074 A 
ATOM     57  C   UNL A   1      44.914  29.340  33.258  1.00  0.00     0.031 C 
ATOM     58  C   UNL A   1      44.998  27.169  31.825  1.00  0.00     0.034 A 
BRANCH  45  59
ATOM     59  C   UNL A   1      42.788  23.544  27.323  1.00  0.00     0.023 A 
ATOM     60  C   UNL A   1      43.599  23.588  26.168  1.00  0.00     0.031 A 
ATOM     61  C   UNL A   1      42.169  22.305  27.585  1.00  0.00     0.131 A 
ATOM     62  C   UNL A   1      43.871  22.427  25.418  1.00  0.00     0.055 A 
ATOM     63  C   UNL A   1      42.387  21.166  26.800  1.00  0.00     0.041 A 
ATOM     64  F   UNL A   1      41.364  22.125  28.640  1.00  0.00    -0.206 F 
ATOM     65  C   UNL A   1      43.263  21.215  25.727  1.00  0.00     0.022 A 
BRANCH  62  66
ATOM     66  S   UNL A   1      45.112  22.433  24.091  1.00  0.00     0.124 S 
ATOM     67  O   UNL A   1      44.299  22.172  22.902  1.00  0.00    -0.237 OA
ATOM     68  O   UNL A   1      45.664  23.780  24.181  1.00  0.00    -0.237 OA
ATOM     69  O   UNL A   1      46.021  21.350  24.456  1.00  0.00    -0.744 OA
ENDBRANCH  62  66
ENDBRANCH  45  59
BRANCH  46  70
ATOM     70  C   UNL A   1      41.414  31.860  32.127  1.00  0.00     0.023 A 
ATOM     71  C   UNL A   1      40.572  30.961  32.795  1.00  0.00     0.031 A 
ATOM     72  C   UNL A   1      40.938  33.158  31.855  1.00  0.00     0.131 A 
ATOM     73  C   UNL A   1      39.239  31.317  33.026  1.00  0.00     0.055 A 
ATOM     74  C   UNL A   1      39.609  33.511  32.097  1.00  0.00     0.041 A 
ATOM     75  F   UNL A   1      41.726  34.051  31.233  1.00  0.00    -0.206 F 
ATOM     76  C   UNL A   1      38.741  32.571  32.646  1.00  0.00     0.022 A 
BRANCH  73  77
ATOM     77  S   UNL A   1      38.074  30.071  33.632  1.00  0.00     0.124 S 
ATOM     78  O   UNL A   1      38.694  28.833  33.168  1.00  0.00    -0.237 OA
ATOM     79  O   UNL A   1      38.098  30.306  35.070  1.00  0.00    -0.237 OA
ATOM     80  O   UNL A   1      36.817  30.424  32.984  1.00  0.00    -0.744 OA
ENDBRANCH  73  77
ENDBRANCH  46  70
BRANCH  58  81
ATOM     81  C   UNL A   1      45.681  26.161  32.725  1.00  0.00     0.023 A 
ATOM     82  C   UNL A   1      44.867  25.367  33.575  1.00  0.00     0.031 A 
ATOM     83  C   UNL A   1      47.066  26.028  32.912  1.00  0.00     0.131 A 
ATOM     84  C   UNL A   1      45.416  24.532  34.555  1.00  0.00     0.055 A 
ATOM     85  C   UNL A   1      47.616  25.129  33.836  1.00  0.00     0.041 A 
ATOM     86  F   UNL A   1      47.947  26.799  32.264  1.00  0.00    -0.206 F 
ATOM     87  C   UNL A   1      46.793  24.390  34.675  1.00  0.00     0.022 A 
BRANCH  84  88
ATOM     88  S   UNL A   1      44.348  23.748  35.798  1.00  0.00     0.124 S 
ATOM     89  O   UNL A   1      45.272  22.812  36.435  1.00  0.00    -0.237 OA
ATOM     90  O   UNL A   1      43.944  24.884  36.623  1.00  0.00    -0.237 OA
ATOM     91  O   UNL A   1      43.281  23.148  35.006  1.00  0.00    -0.744 OA
ENDBRANCH  84  88
ENDBRANCH  58  81
ENDBRANCH  32  33
ENDBRANCH  25  27
ENDBRANCH  24  25
ENDBRANCH  23  24
ENDBRANCH   1  23
TORSDOF 17
ENDMDL
MODEL 3
REMARK VINA RESULT:     -11.3      3.575      5.428
REMARK SMILES Cc1ccc([C@@H](C)Nc2ccccc2C(=O)OCCOC(=O)c2ccc(-c3c4nc(c(-c5cc(S(=O)(=O)[O-])ccc5F)c5ccc([nH]5)c(-c5cc(S(=O)(=O)[O-])ccc5F)c5nc(c(-c6cc(S(=O)(=O)[O-])ccc6F)c6ccc3[nH]6)C=C5)C=C4)cc2)cc1F
REMARK SMILES IDX 18 1 17 2 15 3 16 4 14 5 9 6 10 7 11 8 13 9 12 10 8 11 6 13
REMARK SMILES IDX 7 14 5 15 1 16 2 17 3 18 87 19 4 20 86 21 88 22 19 23 20 24
REMARK SMILES IDX 21 25 22 26 23 27 24 28 85 29 25 30 84 31 26 32 27 33 28 34
REMARK SMILES IDX 78 35 29 36 83 37 77 38 79 39 30 40 82 41 76 42 75 43 31 45
REMARK SMILES IDX 63 46 43 47 62 48 44 49 47 50 61 51 80 52 45 53 46 54 60 56
REMARK SMILES IDX 81 57 48 58 32 59 33 60 41 61 34 62 40 63 42 64 39 65 35 66
REMARK SMILES IDX 36 67 37 68 38 69 64 70 65 71 73 72 66 73 72 74 74 75 71 76
REMARK SMILES IDX 67 77 68 78 69 79 70 80 49 81 50 82 58 83 51 84 57 85 59 86
REMARK SMILES IDX 56 87 52 88 53 89 54 90 55 91
REMARK H PARENT 8 12 79 44 47 55
REMARK Flexibility Score: inf
ROOT
ATOM      1  C   UNL A   1      32.586  30.741  27.326  1.00  0.00     0.275 C 
ENDROOT
BRANCH   1   2
ATOM      2  O   UNL A   1      32.618  29.765  26.261  1.00  0.00    -0.458 OA
BRANCH   2   3
ATOM      3  C   UNL A   1      32.593  28.454  26.578  1.00  0.00     0.340 C 
ATOM      4  O   UNL A   1      32.409  28.020  27.710  1.00  0.00    -0.246 OA
BRANCH   3   5
ATOM      5  C   UNL A   1      32.811  27.565  25.397  1.00  0.00     0.083 A 
ATOM      6  C   UNL A   1      32.162  27.620  24.139  1.00  0.00     0.049 A 
ATOM      7  C   UNL A   1      32.574  26.667  23.171  1.00  0.00     0.026 A 
ATOM      8  C   UNL A   1      33.569  25.721  23.407  1.00  0.00     0.002 A 
ATOM      9  C   UNL A   1      33.822  26.598  25.620  1.00  0.00     0.018 A 
ATOM     10  C   UNL A   1      34.202  25.689  24.635  1.00  0.00     0.001 A 
BRANCH   6  11
ATOM     11  N   UNL A   1      31.232  28.529  23.654  1.00  0.00    -0.378 N 
ATOM     12  H   UNL A   1      31.589  29.200  23.028  1.00  0.00     0.161 HD
BRANCH  11  13
ATOM     13  C   UNL A   1      29.823  28.638  23.930  1.00  0.00     0.106 C 
ATOM     14  C   UNL A   1      29.140  27.292  23.677  1.00  0.00     0.036 C 
BRANCH  13  15
ATOM     15  C   UNL A   1      29.246  29.802  23.156  1.00  0.00    -0.023 A 
ATOM     16  C   UNL A   1      27.701  33.003  20.726  1.00  0.00     0.047 C 
ATOM     17  C   UNL A   1      28.213  31.879  21.566  1.00  0.00    -0.015 A 
ATOM     18  C   UNL A   1      28.149  30.561  21.113  1.00  0.00     0.007 A 
ATOM     19  C   UNL A   1      28.762  32.137  22.826  1.00  0.00     0.126 A 
ATOM     20  C   UNL A   1      28.653  29.533  21.906  1.00  0.00     0.006 A 
ATOM     21  C   UNL A   1      29.271  31.116  23.623  1.00  0.00     0.045 A 
ATOM     22  F   UNL A   1      28.816  33.396  23.282  1.00  0.00    -0.207 F 
ENDBRANCH  13  15
ENDBRANCH  11  13
ENDBRANCH   6  11
ENDBRANCH   3   5
ENDBRANCH   2   3
ENDBRANCH   1   2
BRANCH   1  23
ATOM     23  C   UNL A   1      33.859  31.574  27.296  1.00  0.00     0.275 C 
BRANCH  23  24
ATOM     24  O   UNL A   1      34.330  31.677  28.636  1.00  0.00    -0.458 OA
BRANCH  24  25
ATOM     25  C   UNL A   1      35.678  31.593  28.684  1.00  0.00     0.338 C 
ATOM     26  O   UNL A   1      36.481  32.513  28.651  1.00  0.00    -0.246 OA
BRANCH  25  27
ATOM     27  C   UNL A   1      36.081  30.196  28.606  1.00  0.00     0.060 A 
ATOM     28  C   UNL A   1      36.325  29.590  29.843  1.00  0.00     0.016 A 
ATOM     29  C   UNL A   1      36.846  29.948  27.468  1.00  0.00     0.016 A 
ATOM     30  C   UNL A   1      37.553  28.999  30.042  1.00  0.00     0.010 A 
ATOM     31  C   UNL A   1      38.075  29.390  27.677  1.00  0.00     0.010 A 
ATOM     32  C   UNL A   1      38.449  29.022  28.980  1.00  0.00    -0.014 A 
BRANCH  32  33
ATOM     33  C   UNL A   1      39.834  28.652  29.117  1.00  0.00     0.031 A 
ATOM     34  C   UNL A   1      40.200  27.266  28.822  1.00  0.00     0.074 A 
ATOM     35  C   UNL A   1      40.741  29.641  29.261  1.00  0.00     0.049 A 
ATOM     36  N   UNL A   1      41.332  26.743  29.131  1.00  0.00    -0.248 NA
ATOM     37  C   UNL A   1      39.272  26.335  28.186  1.00  0.00     0.031 C 
ATOM     38  C   UNL A   1      42.138  29.606  28.860  1.00  0.00     0.029 A 
ATOM     39  N   UNL A   1      40.606  30.852  29.949  1.00  0.00    -0.354 N 
ATOM     40  C   UNL A   1      41.401  25.538  28.473  1.00  0.00     0.074 A 
ATOM     41  C   UNL A   1      40.062  25.278  27.995  1.00  0.00     0.031 C 
ATOM     42  C   UNL A   1      42.792  30.600  29.481  1.00  0.00     0.029 A 
ATOM     43  C   UNL A   1      41.877  31.172  30.457  1.00  0.00     0.049 A 
ATOM     44  H   UNL A   1      39.780  31.378  30.056  1.00  0.00     0.167 HD
ATOM     45  C   UNL A   1      42.624  24.986  28.245  1.00  0.00     0.034 A 
ATOM     46  C   UNL A   1      42.165  31.341  31.783  1.00  0.00     0.034 A 
ATOM     47  C   UNL A   1      43.680  25.805  28.845  1.00  0.00     0.049 A 
ATOM     48  C   UNL A   1      43.213  30.361  32.279  1.00  0.00     0.074 A 
ATOM     49  C   UNL A   1      44.473  26.818  28.327  1.00  0.00     0.029 A 
ATOM     50  N   UNL A   1      43.778  25.901  30.227  1.00  0.00    -0.354 N 
ATOM     51  N   UNL A   1      43.580  29.297  31.623  1.00  0.00    -0.248 NA
ATOM     52  C   UNL A   1      43.872  30.463  33.577  1.00  0.00     0.031 C 
ATOM     53  C   UNL A   1      45.013  27.555  29.409  1.00  0.00     0.029 A 
ATOM     54  C   UNL A   1      44.566  26.984  30.587  1.00  0.00     0.049 A 
ATOM     55  H   UNL A   1      43.349  25.284  30.864  1.00  0.00     0.167 HD
ATOM     56  C   UNL A   1      44.412  28.533  32.399  1.00  0.00     0.074 A 
ATOM     57  C   UNL A   1      44.609  29.338  33.590  1.00  0.00     0.031 C 
ATOM     58  C   UNL A   1      44.819  27.292  31.996  1.00  0.00     0.034 A 
BRANCH  45  59
ATOM     59  C   UNL A   1      42.848  23.921  27.197  1.00  0.00     0.023 A 
ATOM     60  C   UNL A   1      42.455  22.573  27.349  1.00  0.00     0.031 A 
ATOM     61  C   UNL A   1      43.407  24.254  25.946  1.00  0.00     0.131 A 
ATOM     62  C   UNL A   1      42.496  21.670  26.268  1.00  0.00     0.055 A 
ATOM     63  C   UNL A   1      43.510  23.338  24.892  1.00  0.00     0.041 A 
ATOM     64  F   UNL A   1      43.832  25.493  25.669  1.00  0.00    -0.206 F 
ATOM     65  C   UNL A   1      43.028  22.047  25.039  1.00  0.00     0.022 A 
BRANCH  62  66
ATOM     66  S   UNL A   1      41.756  20.016  26.394  1.00  0.00     0.124 S 
ATOM     67  O   UNL A   1      42.213  19.569  27.710  1.00  0.00    -0.237 OA
ATOM     68  O   UNL A   1      40.328  20.302  26.297  1.00  0.00    -0.237 OA
ATOM     69  O   UNL A   1      42.333  19.286  25.269  1.00  0.00    -0.744 OA
ENDBRANCH  62  66
ENDBRANCH  45  59
BRANCH  46  70
ATOM     70  C   UNL A   1      40.998  31.760  32.604  1.00  0.00     0.023 A 
ATOM     71  C   UNL A   1      40.966  33.066  33.111  1.00  0.00     0.031 A 
ATOM     72  C   UNL A   1      40.202  30.775  33.221  1.00  0.00     0.131 A 
ATOM     73  C   UNL A   1      40.279  33.318  34.304  1.00  0.00     0.055 A 
ATOM     74  C   UNL A   1      39.511  31.036  34.406  1.00  0.00     0.041 A 
ATOM     75  F   UNL A   1      40.194  29.518  32.748  1.00  0.00    -0.206 F 
ATOM     76  C   UNL A   1      39.585  32.304  34.976  1.00  0.00     0.022 A 
BRANCH  73  77
ATOM     77  S   UNL A   1      40.460  34.927  35.115  1.00  0.00     0.124 S 
ATOM     78  O   UNL A   1      41.468  35.572  34.277  1.00  0.00    -0.237 OA
ATOM     79  O   UNL A   1      39.108  35.464  35.028  1.00  0.00    -0.237 OA
ATOM     80  O   UNL A   1      40.889  34.590  36.466  1.00  0.00    -0.744 OA
ENDBRANCH  73  77
ENDBRANCH  46  70
BRANCH  58  81
ATOM     81  C   UNL A   1      45.544  26.252  32.827  1.00  0.00     0.023 A 
ATOM     82  C   UNL A   1      44.762  25.290  33.518  1.00  0.00     0.031 A 
ATOM     83  C   UNL A   1      46.920  26.229  33.100  1.00  0.00     0.131 A 
ATOM     84  C   UNL A   1      45.329  24.399  34.437  1.00  0.00     0.055 A 
ATOM     85  C   UNL A   1      47.498  25.282  33.956  1.00  0.00     0.041 A 
ATOM     86  F   UNL A   1      47.757  27.151  32.612  1.00  0.00    -0.206 F 
ATOM     87  C   UNL A   1      46.704  24.374  34.643  1.00  0.00     0.022 A 
BRANCH  84  88
ATOM     88  S   UNL A   1      44.270  23.376  35.500  1.00  0.00     0.124 S 
ATOM     89  O   UNL A   1      43.049  23.288  34.704  1.00  0.00    -0.237 OA
ATOM     90  O   UNL A   1      45.038  22.136  35.603  1.00  0.00    -0.237 OA
ATOM     91  O   UNL A   1      44.172  24.146  36.733  1.00  0.00    -0.744 OA
ENDBRANCH  84  88
ENDBRANCH  58  81
ENDBRANCH  32  33
ENDBRANCH  25  27
ENDBRANCH  24  25
ENDBRANCH  23  24
ENDBRANCH   1  23
TORSDOF 17
ENDMDL
