MODEL 1
REMARK VINA RESULT:     -11.3      0.000      0.000
REMARK SMILES Nc1cc([N+](=O)[O-])ccc1[C@H]([NH3+])C(=O)OCCOC(=O)c1ccc(-c2c3nc(c(-c4cc(S(=O)(=O)[O-])ccc4F)c4ccc([nH]4)c(-c4cc(S(=O)(=O)[O-])ccc4F)c4nc(c(-c5cc(S(=O)(=O)[O-])ccc5F)c5ccc2[nH]5)C=C4)C=C3)cc1
REMARK SMILES IDX 17 1 16 2 15 3 13 4 14 5 11 6 10 7 2 8 3 9 4 10 9 11 8 12
REMARK SMILES IDX 1 13 5 16 6 17 7 18 12 19 18 23 19 24 20 25 21 26 22 27
REMARK SMILES IDX 83 28 23 29 82 30 24 31 25 32 26 33 76 34 27 35 81 36 75 37
REMARK SMILES IDX 77 38 28 39 80 40 74 41 73 42 29 44 61 45 41 46 60 47 42 48
REMARK SMILES IDX 45 49 59 50 78 51 43 52 44 53 58 55 79 56 46 57 30 58 31 59
REMARK SMILES IDX 39 60 32 61 38 62 40 63 37 64 33 65 34 66 35 67 36 68 62 69
REMARK SMILES IDX 63 70 71 71 64 72 70 73 72 74 69 75 65 76 66 77 67 78 68 79
REMARK SMILES IDX 47 80 48 81 56 82 49 83 55 84 57 85 54 86 50 87 51 88 52 89
REMARK SMILES IDX 53 90
REMARK H PARENT 1 14 1 15 12 20 12 21 12 22 77 43 45 54
REMARK Flexibility Score: inf
ROOT
ATOM      1  C   UNL A   1      32.132  29.900  25.879  1.00  0.00     0.275 C 
ENDROOT
BRANCH   1   2
ATOM      2  C   UNL A   1      31.774  28.412  25.961  1.00  0.00     0.274 C 
BRANCH   2   3
ATOM      3  O   UNL A   1      31.263  27.925  24.709  1.00  0.00    -0.457 OA
BRANCH   3   4
ATOM      4  C   UNL A   1      30.279  26.981  24.760  1.00  0.00     0.369 C 
ATOM      5  O   UNL A   1      30.169  26.162  25.670  1.00  0.00    -0.245 OA
BRANCH   4   6
ATOM      6  C   UNL A   1      29.299  27.066  23.556  1.00  0.00     0.325 C 
BRANCH   6   7
ATOM      7  C   UNL A   1      29.025  28.485  23.041  1.00  0.00     0.044 A 
ATOM      8  C   UNL A   1      29.990  29.189  22.277  1.00  0.00     0.048 A 
ATOM      9  C   UNL A   1      29.648  30.415  21.687  1.00  0.00     0.111 A 
ATOM     10  C   UNL A   1      28.417  31.017  21.967  1.00  0.00     0.271 A 
ATOM     11  C   UNL A   1      27.813  29.141  23.345  1.00  0.00     0.020 A 
ATOM     12  C   UNL A   1      27.512  30.402  22.828  1.00  0.00     0.086 A 
BRANCH   8  13
ATOM     13  N   UNL A   1      31.254  28.658  22.001  1.00  0.00    -0.398 N 
ATOM     14  H   UNL A   1      31.827  29.082  21.323  1.00  0.00     0.156 HD
ATOM     15  H   UNL A   1      31.569  27.861  22.485  1.00  0.00     0.156 HD
ENDBRANCH   8  13
BRANCH  10  16
ATOM     16  N   UNL A   1      28.074  32.301  21.350  1.00  0.00     0.062 N 
ATOM     17  O   UNL A   1      28.028  33.301  22.082  1.00  0.00    -0.258 OA
ATOM     18  O   UNL A   1      27.872  32.320  20.127  1.00  0.00    -0.258 OA
ENDBRANCH  10  16
ENDBRANCH   6   7
BRANCH   6  19
ATOM     19  N   UNL A   1      28.042  26.342  23.875  1.00  0.00    -0.342 N 
ATOM     20  H   UNL A   1      28.256  25.373  24.106  1.00  0.00     0.345 HD
ATOM     21  H   UNL A   1      27.421  26.370  23.065  1.00  0.00     0.345 HD
ATOM     22  H   UNL A   1      27.585  26.789  24.669  1.00  0.00     0.345 HD
ENDBRANCH   6  19
ENDBRANCH   4   6
ENDBRANCH   3   4
ENDBRANCH   2   3
ENDBRANCH   1   2
BRANCH   1  23
ATOM     23  O   UNL A   1      32.294  30.494  27.180  1.00  0.00    -0.458 OA
BRANCH  23  24
ATOM     24  C   UNL A   1      33.056  31.614  27.214  1.00  0.00     0.338 C 
ATOM     25  O   UNL A   1      32.704  32.751  26.946  1.00  0.00    -0.246 OA
BRANCH  24  26
ATOM     26  C   UNL A   1      34.373  31.305  27.798  1.00  0.00     0.060 A 
ATOM     27  C   UNL A   1      34.603  29.989  28.209  1.00  0.00     0.016 A 
ATOM     28  C   UNL A   1      35.342  32.290  28.001  1.00  0.00     0.016 A 
ATOM     29  C   UNL A   1      35.792  29.649  28.843  1.00  0.00     0.010 A 
ATOM     30  C   UNL A   1      36.540  31.947  28.638  1.00  0.00     0.010 A 
ATOM     31  C   UNL A   1      36.765  30.629  29.075  1.00  0.00    -0.014 A 
BRANCH  31  32
ATOM     32  C   UNL A   1      37.980  30.271  29.843  1.00  0.00     0.031 A 
ATOM     33  C   UNL A   1      38.973  29.314  29.251  1.00  0.00     0.074 A 
ATOM     34  C   UNL A   1      38.205  30.832  31.045  1.00  0.00     0.049 A 
ATOM     35  N   UNL A   1      40.055  28.805  29.781  1.00  0.00    -0.248 NA
ATOM     36  C   UNL A   1      38.706  28.871  27.875  1.00  0.00     0.031 C 
ATOM     37  C   UNL A   1      37.335  31.816  31.691  1.00  0.00     0.029 A 
ATOM     38  N   UNL A   1      39.229  30.653  31.938  1.00  0.00    -0.354 N 
ATOM     39  C   UNL A   1      40.592  27.966  28.812  1.00  0.00     0.074 A 
ATOM     40  C   UNL A   1      39.696  28.014  27.674  1.00  0.00     0.031 C 
ATOM     41  C   UNL A   1      37.856  32.142  32.884  1.00  0.00     0.029 A 
ATOM     42  C   UNL A   1      39.065  31.354  33.108  1.00  0.00     0.049 A 
ATOM     43  H   UNL A   1      40.007  30.076  31.759  1.00  0.00     0.167 HD
ATOM     44  C   UNL A   1      41.729  27.229  28.867  1.00  0.00     0.034 A 
ATOM     45  C   UNL A   1      39.784  31.332  34.247  1.00  0.00     0.034 A 
ATOM     46  C   UNL A   1      42.602  27.191  30.018  1.00  0.00     0.049 A 
ATOM     47  C   UNL A   1      41.002  30.447  34.320  1.00  0.00     0.074 A 
ATOM     48  C   UNL A   1      43.776  26.480  30.190  1.00  0.00     0.029 A 
ATOM     49  N   UNL A   1      42.384  27.888  31.202  1.00  0.00    -0.354 N 
ATOM     50  N   UNL A   1      41.492  29.641  33.407  1.00  0.00    -0.248 NA
ATOM     51  C   UNL A   1      41.765  30.474  35.574  1.00  0.00     0.031 C 
ATOM     52  C   UNL A   1      44.233  26.696  31.496  1.00  0.00     0.029 A 
ATOM     53  C   UNL A   1      43.386  27.601  32.117  1.00  0.00     0.049 A 
ATOM     54  H   UNL A   1      41.629  28.498  31.367  1.00  0.00     0.167 HD
ATOM     55  C   UNL A   1      42.630  29.074  33.972  1.00  0.00     0.074 A 
ATOM     56  C   UNL A   1      42.763  29.646  35.297  1.00  0.00     0.031 C 
ATOM     57  C   UNL A   1      43.489  28.165  33.444  1.00  0.00     0.034 A 
BRANCH  44  58
ATOM     58  C   UNL A   1      42.044  26.361  27.672  1.00  0.00     0.023 A 
ATOM     59  C   UNL A   1      41.605  25.027  27.587  1.00  0.00     0.031 A 
ATOM     60  C   UNL A   1      42.851  26.853  26.631  1.00  0.00     0.131 A 
ATOM     61  C   UNL A   1      42.046  24.209  26.535  1.00  0.00     0.055 A 
ATOM     62  C   UNL A   1      43.216  26.058  25.543  1.00  0.00     0.041 A 
ATOM     63  F   UNL A   1      43.320  28.111  26.667  1.00  0.00    -0.206 F 
ATOM     64  C   UNL A   1      42.830  24.723  25.500  1.00  0.00     0.022 A 
BRANCH  61  65
ATOM     65  S   UNL A   1      41.723  22.427  26.630  1.00  0.00     0.124 S 
ATOM     66  O   UNL A   1      40.266  22.395  26.736  1.00  0.00    -0.237 OA
ATOM     67  O   UNL A   1      42.282  21.937  25.376  1.00  0.00    -0.237 OA
ATOM     68  O   UNL A   1      42.436  22.013  27.837  1.00  0.00    -0.744 OA
ENDBRANCH  61  65
ENDBRANCH  44  58
BRANCH  45  69
ATOM     69  C   UNL A   1      39.331  32.118  35.430  1.00  0.00     0.023 A 
ATOM     70  C   UNL A   1      39.755  33.437  35.641  1.00  0.00     0.031 A 
ATOM     71  C   UNL A   1      38.470  31.539  36.381  1.00  0.00     0.131 A 
ATOM     72  C   UNL A   1      39.343  34.126  36.793  1.00  0.00     0.055 A 
ATOM     73  C   UNL A   1      38.025  32.244  37.500  1.00  0.00     0.041 A 
ATOM     74  F   UNL A   1      38.034  30.279  36.224  1.00  0.00    -0.206 F 
ATOM     75  C   UNL A   1      38.470  33.544  37.716  1.00  0.00     0.022 A 
BRANCH  72  76
ATOM     76  S   UNL A   1      40.012  35.783  37.103  1.00  0.00     0.124 S 
ATOM     77  O   UNL A   1      39.654  36.484  35.875  1.00  0.00    -0.237 OA
ATOM     78  O   UNL A   1      39.285  36.182  38.305  1.00  0.00    -0.237 OA
ATOM     79  O   UNL A   1      41.441  35.544  37.292  1.00  0.00    -0.744 OA
ENDBRANCH  72  76
ENDBRANCH  45  69
BRANCH  57  80
ATOM     80  C   UNL A   1      44.667  27.766  34.299  1.00  0.00     0.023 A 
ATOM     81  C   UNL A   1      44.622  26.639  35.140  1.00  0.00     0.031 A 
ATOM     82  C   UNL A   1      45.843  28.536  34.285  1.00  0.00     0.131 A 
ATOM     83  C   UNL A   1      45.714  26.344  35.969  1.00  0.00     0.055 A 
ATOM     84  C   UNL A   1      46.947  28.205  35.072  1.00  0.00     0.041 A 
ATOM     85  F   UNL A   1      45.938  29.623  33.504  1.00  0.00    -0.206 F 
ATOM     86  C   UNL A   1      46.882  27.111  35.930  1.00  0.00     0.022 A 
BRANCH  83  87
ATOM     87  S   UNL A   1      45.558  24.992  37.169  1.00  0.00     0.124 S 
ATOM     88  O   UNL A   1      45.474  25.717  38.433  1.00  0.00    -0.237 OA
ATOM     89  O   UNL A   1      44.335  24.327  36.733  1.00  0.00    -0.237 OA
ATOM     90  O   UNL A   1      46.784  24.219  36.978  1.00  0.00    -0.744 OA
ENDBRANCH  83  87
ENDBRANCH  57  80
ENDBRANCH  31  32
ENDBRANCH  24  26
ENDBRANCH  23  24
ENDBRANCH   1  23
TORSDOF 18
ENDMDL
MODEL 2
REMARK VINA RESULT:     -11.2      6.321     11.278
REMARK SMILES Nc1cc([N+](=O)[O-])ccc1[C@H]([NH3+])C(=O)OCCOC(=O)c1ccc(-c2c3nc(c(-c4cc(S(=O)(=O)[O-])ccc4F)c4ccc([nH]4)c(-c4cc(S(=O)(=O)[O-])ccc4F)c4nc(c(-c5cc(S(=O)(=O)[O-])ccc5F)c5ccc2[nH]5)C=C4)C=C3)cc1
REMARK SMILES IDX 17 1 16 2 15 3 13 4 14 5 11 6 10 7 2 8 3 9 4 10 9 11 8 12
REMARK SMILES IDX 1 13 5 16 6 17 7 18 12 19 18 23 19 24 20 25 21 26 22 27
REMARK SMILES IDX 83 28 23 29 82 30 24 31 25 32 26 33 76 34 27 35 81 36 75 37
REMARK SMILES IDX 77 38 28 39 80 40 74 41 73 42 29 44 61 45 41 46 60 47 42 48
REMARK SMILES IDX 45 49 59 50 78 51 43 52 44 53 58 55 79 56 46 57 30 58 31 59
REMARK SMILES IDX 39 60 32 61 38 62 40 63 37 64 33 65 34 66 35 67 36 68 62 69
REMARK SMILES IDX 63 70 71 71 64 72 70 73 72 74 69 75 65 76 66 77 67 78 68 79
REMARK SMILES IDX 47 80 48 81 56 82 49 83 55 84 57 85 54 86 50 87 51 88 52 89
REMARK SMILES IDX 53 90
REMARK H PARENT 1 14 1 15 12 20 12 21 12 22 77 43 45 54
REMARK Flexibility Score: inf
ROOT
ATOM      1  C   UNL A   1      36.198  21.156  25.503  1.00  0.00     0.275 C 
ENDROOT
BRANCH   1   2
ATOM      2  C   UNL A   1      34.993  21.983  25.041  1.00  0.00     0.274 C 
BRANCH   2   3
ATOM      3  O   UNL A   1      34.398  21.428  23.856  1.00  0.00    -0.457 OA
BRANCH   3   4
ATOM      4  C   UNL A   1      33.151  21.867  23.518  1.00  0.00     0.369 C 
ATOM      5  O   UNL A   1      32.855  23.055  23.408  1.00  0.00    -0.245 OA
BRANCH   4   6
ATOM      6  C   UNL A   1      32.150  20.705  23.265  1.00  0.00     0.325 C 
BRANCH   6   7
ATOM      7  C   UNL A   1      32.604  19.333  23.784  1.00  0.00     0.044 A 
ATOM      8  C   UNL A   1      32.744  19.082  25.173  1.00  0.00     0.048 A 
ATOM      9  C   UNL A   1      33.003  17.778  25.619  1.00  0.00     0.111 A 
ATOM     10  C   UNL A   1      33.268  16.755  24.703  1.00  0.00     0.271 A 
ATOM     11  C   UNL A   1      32.925  18.293  22.886  1.00  0.00     0.020 A 
ATOM     12  C   UNL A   1      33.269  17.017  23.335  1.00  0.00     0.086 A 
BRANCH   8  13
ATOM     13  N   UNL A   1      32.536  20.076  26.134  1.00  0.00    -0.398 N 
ATOM     14  H   UNL A   1      33.286  20.385  26.692  1.00  0.00     0.156 HD
ATOM     15  H   UNL A   1      31.640  20.465  26.253  1.00  0.00     0.156 HD
ENDBRANCH   8  13
BRANCH  10  16
ATOM     16  N   UNL A   1      33.543  15.398  25.182  1.00  0.00     0.062 N 
ATOM     17  O   UNL A   1      32.577  14.642  25.365  1.00  0.00    -0.258 OA
ATOM     18  O   UNL A   1      34.727  15.074  25.356  1.00  0.00    -0.258 OA
ENDBRANCH  10  16
ENDBRANCH   6   7
BRANCH   6  19
ATOM     19  N   UNL A   1      31.784  20.656  21.827  1.00  0.00    -0.342 N 
ATOM     20  H   UNL A   1      32.181  21.463  21.347  1.00  0.00     0.345 HD
ATOM     21  H   UNL A   1      30.767  20.673  21.736  1.00  0.00     0.345 HD
ATOM     22  H   UNL A   1      32.149  19.798  21.412  1.00  0.00     0.345 HD
ENDBRANCH   6  19
ENDBRANCH   4   6
ENDBRANCH   3   4
ENDBRANCH   2   3
ENDBRANCH   1   2
BRANCH   1  23
ATOM     23  O   UNL A   1      37.446  21.710  25.048  1.00  0.00    -0.458 OA
BRANCH  23  24
ATOM     24  C   UNL A   1      38.541  21.317  25.744  1.00  0.00     0.338 C 
ATOM     25  O   UNL A   1      39.005  20.190  25.808  1.00  0.00    -0.246 OA
BRANCH  24  26
ATOM     26  C   UNL A   1      39.229  22.495  26.301  1.00  0.00     0.060 A 
ATOM     27  C   UNL A   1      38.812  23.753  25.860  1.00  0.00     0.016 A 
ATOM     28  C   UNL A   1      40.301  22.375  27.187  1.00  0.00     0.016 A 
ATOM     29  C   UNL A   1      39.473  24.900  26.282  1.00  0.00     0.010 A 
ATOM     30  C   UNL A   1      40.966  23.530  27.614  1.00  0.00     0.010 A 
ATOM     31  C   UNL A   1      40.565  24.797  27.153  1.00  0.00    -0.014 A 
BRANCH  31  32
ATOM     32  C   UNL A   1      41.321  26.019  27.510  1.00  0.00     0.031 A 
ATOM     33  C   UNL A   1      40.663  27.076  28.348  1.00  0.00     0.074 A 
ATOM     34  C   UNL A   1      42.600  26.158  27.117  1.00  0.00     0.049 A 
ATOM     35  N   UNL A   1      41.110  28.251  28.706  1.00  0.00    -0.248 NA
ATOM     36  C   UNL A   1      39.316  26.763  28.846  1.00  0.00     0.031 C 
ATOM     37  C   UNL A   1      43.355  25.169  26.347  1.00  0.00     0.029 A 
ATOM     38  N   UNL A   1      43.488  27.185  27.305  1.00  0.00    -0.354 N 
ATOM     39  C   UNL A   1      40.095  28.830  29.458  1.00  0.00     0.074 A 
ATOM     40  C   UNL A   1      38.997  27.884  29.476  1.00  0.00     0.031 C 
ATOM     41  C   UNL A   1      44.590  25.645  26.117  1.00  0.00     0.029 A 
ATOM     42  C   UNL A   1      44.693  26.990  26.676  1.00  0.00     0.049 A 
ATOM     43  H   UNL A   1      43.281  27.987  27.839  1.00  0.00     0.167 HD
ATOM     44  C   UNL A   1      40.084  30.037  30.078  1.00  0.00     0.034 A 
ATOM     45  C   UNL A   1      45.746  27.818  26.531  1.00  0.00     0.034 A 
ATOM     46  C   UNL A   1      41.188  30.966  30.037  1.00  0.00     0.049 A 
ATOM     47  C   UNL A   1      45.686  29.186  27.161  1.00  0.00     0.074 A 
ATOM     48  C   UNL A   1      41.290  32.215  30.623  1.00  0.00     0.029 A 
ATOM     49  N   UNL A   1      42.383  30.750  29.359  1.00  0.00    -0.354 N 
ATOM     50  N   UNL A   1      44.714  29.734  27.853  1.00  0.00    -0.248 NA
ATOM     51  C   UNL A   1      46.866  30.043  26.994  1.00  0.00     0.031 C 
ATOM     52  C   UNL A   1      42.516  32.779  30.247  1.00  0.00     0.029 A 
ATOM     53  C   UNL A   1      43.214  31.854  29.488  1.00  0.00     0.049 A 
ATOM     54  H   UNL A   1      42.608  29.931  28.860  1.00  0.00     0.167 HD
ATOM     55  C   UNL A   1      45.171  30.997  28.216  1.00  0.00     0.074 A 
ATOM     56  C   UNL A   1      46.514  31.120  27.683  1.00  0.00     0.031 C 
ATOM     57  C   UNL A   1      44.542  31.966  28.928  1.00  0.00     0.034 A 
BRANCH  44  58
ATOM     58  C   UNL A   1      38.811  30.431  30.790  1.00  0.00     0.023 A 
ATOM     59  C   UNL A   1      37.784  31.135  30.136  1.00  0.00     0.031 A 
ATOM     60  C   UNL A   1      38.651  30.158  32.160  1.00  0.00     0.131 A 
ATOM     61  C   UNL A   1      36.687  31.616  30.870  1.00  0.00     0.055 A 
ATOM     62  C   UNL A   1      37.517  30.566  32.865  1.00  0.00     0.041 A 
ATOM     63  F   UNL A   1      39.608  29.510  32.844  1.00  0.00    -0.206 F 
ATOM     64  C   UNL A   1      36.536  31.315  32.225  1.00  0.00     0.022 A 
BRANCH  61  65
ATOM     65  S   UNL A   1      35.553  32.781  30.067  1.00  0.00     0.124 S 
ATOM     66  O   UNL A   1      36.344  34.010  30.062  1.00  0.00    -0.237 OA
ATOM     67  O   UNL A   1      35.331  32.160  28.767  1.00  0.00    -0.237 OA
ATOM     68  O   UNL A   1      34.393  32.801  30.957  1.00  0.00    -0.744 OA
ENDBRANCH  61  65
ENDBRANCH  44  58
BRANCH  45  69
ATOM     69  C   UNL A   1      46.912  27.403  25.700  1.00  0.00     0.023 A 
ATOM     70  C   UNL A   1      47.055  27.828  24.372  1.00  0.00     0.031 A 
ATOM     71  C   UNL A   1      47.897  26.551  26.232  1.00  0.00     0.131 A 
ATOM     72  C   UNL A   1      48.144  27.377  23.609  1.00  0.00     0.055 A 
ATOM     73  C   UNL A   1      49.002  26.143  25.485  1.00  0.00     0.041 A 
ATOM     74  F   UNL A   1      47.807  26.116  27.500  1.00  0.00    -0.206 F 
ATOM     75  C   UNL A   1      49.125  26.548  24.161  1.00  0.00     0.022 A 
BRANCH  72  76
ATOM     76  S   UNL A   1      48.232  27.839  21.858  1.00  0.00     0.124 S 
ATOM     77  O   UNL A   1      48.373  26.538  21.213  1.00  0.00    -0.237 OA
ATOM     78  O   UNL A   1      46.955  28.518  21.660  1.00  0.00    -0.237 OA
ATOM     79  O   UNL A   1      49.410  28.700  21.791  1.00  0.00    -0.744 OA
ENDBRANCH  72  76
ENDBRANCH  45  69
BRANCH  57  80
ATOM     80  C   UNL A   1      45.323  33.230  29.194  1.00  0.00     0.023 A 
ATOM     81  C   UNL A   1      45.312  34.309  28.292  1.00  0.00     0.031 A 
ATOM     82  C   UNL A   1      46.102  33.347  30.359  1.00  0.00     0.131 A 
ATOM     83  C   UNL A   1      46.106  35.438  28.545  1.00  0.00     0.055 A 
ATOM     84  C   UNL A   1      46.846  34.496  30.632  1.00  0.00     0.041 A 
ATOM     85  F   UNL A   1      46.150  32.346  31.251  1.00  0.00    -0.206 F 
ATOM     86  C   UNL A   1      46.862  35.543  29.716  1.00  0.00     0.022 A 
BRANCH  83  87
ATOM     87  S   UNL A   1      46.210  36.733  27.280  1.00  0.00     0.124 S 
ATOM     88  O   UNL A   1      44.805  37.080  27.085  1.00  0.00    -0.237 OA
ATOM     89  O   UNL A   1      47.031  37.745  27.935  1.00  0.00    -0.237 OA
ATOM     90  O   UNL A   1      46.843  36.059  26.148  1.00  0.00    -0.744 OA
ENDBRANCH  83  87
ENDBRANCH  57  80
ENDBRANCH  31  32
ENDBRANCH  24  26
ENDBRANCH  23  24
ENDBRANCH   1  23
TORSDOF 18
ENDMDL
MODEL 3
REMARK VINA RESULT:     -11.0      1.569      8.016
REMARK SMILES Nc1cc([N+](=O)[O-])ccc1[C@H]([NH3+])C(=O)OCCOC(=O)c1ccc(-c2c3nc(c(-c4cc(S(=O)(=O)[O-])ccc4F)c4ccc([nH]4)c(-c4cc(S(=O)(=O)[O-])ccc4F)c4nc(c(-c5cc(S(=O)(=O)[O-])ccc5F)c5ccc2[nH]5)C=C4)C=C3)cc1
REMARK SMILES IDX 17 1 16 2 15 3 13 4 14 5 11 6 10 7 2 8 3 9 4 10 9 11 8 12
REMARK SMILES IDX 1 13 5 16 6 17 7 18 12 19 18 23 19 24 20 25 21 26 22 27
REMARK SMILES IDX 83 28 23 29 82 30 24 31 25 32 26 33 76 34 27 35 81 36 75 37
REMARK SMILES IDX 77 38 28 39 80 40 74 41 73 42 29 44 61 45 41 46 60 47 42 48
REMARK SMILES IDX 45 49 59 50 78 51 43 52 44 53 58 55 79 56 46 57 30 58 31 59
REMARK SMILES IDX 39 60 32 61 38 62 40 63 37 64 33 65 34 66 35 67 36 68 62 69
REMARK SMILES IDX 63 70 71 71 64 72 70 73 72 74 69 75 65 76 66 77 67 78 68 79
REMARK SMILES IDX 47 80 48 81 56 82 49 83 55 84 57 85 54 86 50 87 51 88 52 89
REMARK SMILES IDX 53 90
REMARK H PARENT 1 14 1 15 12 20 12 21 12 22 77 43 45 54
REMARK Flexibility Score: inf
ROOT
ATOM      1  C   UNL A   1      32.639  30.341  26.225  1.00  0.00     0.275 C 
ENDROOT
BRANCH   1   2
ATOM      2  C   UNL A   1      32.187  28.877  26.178  1.00  0.00     0.274 C 
BRANCH   2   3
ATOM      3  O   UNL A   1      31.142  28.680  25.213  1.00  0.00    -0.457 OA
BRANCH   3   4
ATOM      4  C   UNL A   1      30.744  27.397  24.975  1.00  0.00     0.369 C 
ATOM      5  O   UNL A   1      30.970  26.462  25.739  1.00  0.00    -0.245 OA
BRANCH   4   6
ATOM      6  C   UNL A   1      29.953  27.247  23.644  1.00  0.00     0.325 C 
BRANCH   6   7
ATOM      7  C   UNL A   1      29.450  28.564  23.037  1.00  0.00     0.044 A 
ATOM      8  C   UNL A   1      30.320  29.420  22.314  1.00  0.00     0.048 A 
ATOM      9  C   UNL A   1      29.794  30.531  21.638  1.00  0.00     0.111 A 
ATOM     10  C   UNL A   1      28.449  30.883  21.790  1.00  0.00     0.271 A 
ATOM     11  C   UNL A   1      28.110  28.973  23.211  1.00  0.00     0.020 A 
ATOM     12  C   UNL A   1      27.612  30.129  22.608  1.00  0.00     0.086 A 
BRANCH   8  13
ATOM     13  N   UNL A   1      31.682  29.145  22.165  1.00  0.00    -0.398 N 
ATOM     14  H   UNL A   1      32.012  28.225  22.277  1.00  0.00     0.156 HD
ATOM     15  H   UNL A   1      32.310  29.872  21.949  1.00  0.00     0.156 HD
ENDBRANCH   8  13
BRANCH  10  16
ATOM     16  N   UNL A   1      27.914  32.049  21.082  1.00  0.00     0.062 N 
ATOM     17  O   UNL A   1      27.945  33.144  21.665  1.00  0.00    -0.258 OA
ATOM     18  O   UNL A   1      27.483  31.881  19.932  1.00  0.00    -0.258 OA
ENDBRANCH  10  16
ENDBRANCH   6   7
BRANCH   6  19
ATOM     19  N   UNL A   1      28.854  26.264  23.815  1.00  0.00    -0.342 N 
ATOM     20  H   UNL A   1      28.063  26.533  23.231  1.00  0.00     0.345 HD
ATOM     21  H   UNL A   1      28.565  26.245  24.793  1.00  0.00     0.345 HD
ATOM     22  H   UNL A   1      29.181  25.338  23.539  1.00  0.00     0.345 HD
ENDBRANCH   6  19
ENDBRANCH   4   6
ENDBRANCH   3   4
ENDBRANCH   2   3
ENDBRANCH   1   2
BRANCH   1  23
ATOM     23  O   UNL A   1      33.025  30.750  27.550  1.00  0.00    -0.458 OA
BRANCH  23  24
ATOM     24  C   UNL A   1      33.929  31.759  27.603  1.00  0.00     0.338 C 
ATOM     25  O   UNL A   1      33.712  32.949  27.442  1.00  0.00    -0.246 OA
BRANCH  24  26
ATOM     26  C   UNL A   1      35.230  31.241  28.063  1.00  0.00     0.060 A 
ATOM     27  C   UNL A   1      35.286  29.904  28.466  1.00  0.00     0.016 A 
ATOM     28  C   UNL A   1      36.358  32.058  28.163  1.00  0.00     0.016 A 
ATOM     29  C   UNL A   1      36.460  29.377  28.989  1.00  0.00     0.010 A 
ATOM     30  C   UNL A   1      37.541  31.526  28.687  1.00  0.00     0.010 A 
ATOM     31  C   UNL A   1      37.594  30.187  29.116  1.00  0.00    -0.014 A 
BRANCH  31  32
ATOM     32  C   UNL A   1      38.804  29.638  29.770  1.00  0.00     0.031 A 
ATOM     33  C   UNL A   1      39.225  30.171  31.109  1.00  0.00     0.074 A 
ATOM     34  C   UNL A   1      39.495  28.645  29.183  1.00  0.00     0.049 A 
ATOM     35  N   UNL A   1      40.289  29.893  31.817  1.00  0.00    -0.248 NA
ATOM     36  C   UNL A   1      38.324  31.152  31.730  1.00  0.00     0.031 C 
ATOM     37  C   UNL A   1      39.143  28.015  27.909  1.00  0.00     0.029 A 
ATOM     38  N   UNL A   1      40.635  27.994  29.575  1.00  0.00    -0.354 N 
ATOM     39  C   UNL A   1      40.197  30.676  32.961  1.00  0.00     0.074 A 
ATOM     40  C   UNL A   1      38.987  31.463  32.833  1.00  0.00     0.031 C 
ATOM     41  C   UNL A   1      40.060  27.077  27.619  1.00  0.00     0.029 A 
ATOM     42  C   UNL A   1      41.087  27.078  28.657  1.00  0.00     0.049 A 
ATOM     43  H   UNL A   1      41.089  28.168  30.432  1.00  0.00     0.167 HD
ATOM     44  C   UNL A   1      41.044  30.730  34.020  1.00  0.00     0.034 A 
ATOM     45  C   UNL A   1      42.221  26.351  28.633  1.00  0.00     0.034 A 
ATOM     46  C   UNL A   1      42.250  29.941  34.119  1.00  0.00     0.049 A 
ATOM     47  C   UNL A   1      43.189  26.481  29.782  1.00  0.00     0.074 A 
ATOM     48  C   UNL A   1      43.184  29.913  35.140  1.00  0.00     0.029 A 
ATOM     49  N   UNL A   1      42.696  29.048  33.151  1.00  0.00    -0.354 N 
ATOM     50  N   UNL A   1      43.106  27.240  30.850  1.00  0.00    -0.248 NA
ATOM     51  C   UNL A   1      44.400  25.653  29.722  1.00  0.00     0.031 C 
ATOM     52  C   UNL A   1      44.223  29.054  34.761  1.00  0.00     0.029 A 
ATOM     53  C   UNL A   1      43.905  28.486  33.538  1.00  0.00     0.049 A 
ATOM     54  H   UNL A   1      42.222  28.842  32.313  1.00  0.00     0.167 HD
ATOM     55  C   UNL A   1      44.248  26.969  31.598  1.00  0.00     0.074 A 
ATOM     56  C   UNL A   1      44.993  25.964  30.866  1.00  0.00     0.031 C 
ATOM     57  C   UNL A   1      44.645  27.501  32.783  1.00  0.00     0.034 A 
BRANCH  44  58
ATOM     58  C   UNL A   1      40.716  31.721  35.111  1.00  0.00     0.023 A 
ATOM     59  C   UNL A   1      39.683  31.490  36.038  1.00  0.00     0.031 A 
ATOM     60  C   UNL A   1      41.403  32.946  35.186  1.00  0.00     0.131 A 
ATOM     61  C   UNL A   1      39.310  32.501  36.938  1.00  0.00     0.055 A 
ATOM     62  C   UNL A   1      41.083  33.913  36.140  1.00  0.00     0.041 A 
ATOM     63  F   UNL A   1      42.383  33.234  34.314  1.00  0.00    -0.206 F 
ATOM     64  C   UNL A   1      40.018  33.702  37.011  1.00  0.00     0.022 A 
BRANCH  61  65
ATOM     65  S   UNL A   1      37.781  32.290  37.891  1.00  0.00     0.124 S 
ATOM     66  O   UNL A   1      38.192  32.748  39.216  1.00  0.00    -0.237 OA
ATOM     67  O   UNL A   1      36.845  33.152  37.179  1.00  0.00    -0.237 OA
ATOM     68  O   UNL A   1      37.510  30.857  37.793  1.00  0.00    -0.744 OA
ENDBRANCH  61  65
ENDBRANCH  44  58
BRANCH  45  69
ATOM     69  C   UNL A   1      42.535  25.495  27.455  1.00  0.00     0.023 A 
ATOM     70  C   UNL A   1      42.117  24.158  27.387  1.00  0.00     0.031 A 
ATOM     71  C   UNL A   1      43.280  26.011  26.378  1.00  0.00     0.131 A 
ATOM     72  C   UNL A   1      42.473  23.372  26.280  1.00  0.00     0.055 A 
ATOM     73  C   UNL A   1      43.591  25.239  25.259  1.00  0.00     0.041 A 
ATOM     74  F   UNL A   1      43.703  27.286  26.394  1.00  0.00    -0.206 F 
ATOM     75  C   UNL A   1      43.195  23.907  25.209  1.00  0.00     0.022 A 
BRANCH  72  76
ATOM     76  S   UNL A   1      42.030  21.613  26.281  1.00  0.00     0.124 S 
ATOM     77  O   UNL A   1      42.323  21.233  27.659  1.00  0.00    -0.237 OA
ATOM     78  O   UNL A   1      40.618  21.657  25.915  1.00  0.00    -0.237 OA
ATOM     79  O   UNL A   1      42.916  21.037  25.272  1.00  0.00    -0.744 OA
ENDBRANCH  72  76
ENDBRANCH  45  69
BRANCH  57  80
ATOM     80  C   UNL A   1      45.930  26.971  33.369  1.00  0.00     0.023 A 
ATOM     81  C   UNL A   1      45.952  25.835  34.198  1.00  0.00     0.031 A 
ATOM     82  C   UNL A   1      47.148  27.625  33.108  1.00  0.00     0.131 A 
ATOM     83  C   UNL A   1      47.159  25.418  34.778  1.00  0.00     0.055 A 
ATOM     84  C   UNL A   1      48.354  27.171  33.643  1.00  0.00     0.041 A 
ATOM     85  F   UNL A   1      47.183  28.715  32.326  1.00  0.00    -0.206 F 
ATOM     86  C   UNL A   1      48.363  26.070  34.494  1.00  0.00     0.022 A 
BRANCH  83  87
ATOM     87  S   UNL A   1      47.126  24.061  35.981  1.00  0.00     0.124 S 
ATOM     88  O   UNL A   1      48.537  23.935  36.336  1.00  0.00    -0.237 OA
ATOM     89  O   UNL A   1      46.252  24.588  37.023  1.00  0.00    -0.237 OA
ATOM     90  O   UNL A   1      46.576  22.940  35.220  1.00  0.00    -0.744 OA
ENDBRANCH  83  87
ENDBRANCH  57  80
ENDBRANCH  31  32
ENDBRANCH  24  26
ENDBRANCH  23  24
ENDBRANCH   1  23
TORSDOF 18
ENDMDL
