MODEL 1
REMARK VINA RESULT:     -11.2      0.000      0.000
REMARK SMILES CC(C)=CC[N@H+]1CCCC[C@H]1C(=O)OCCOC(=O)c1ccc(-c2c3nc(c(-c4cc(S(=O)(=O)[O-])ccc4F)c4ccc([nH]4)c(-c4cc(S(=O)(=O)[O-])ccc4F)c4nc(c(-c5cc(S(=O)(=O)[O-])ccc5F)c5ccc2[nH]5)C=C4)C=C3)cc1
REMARK SMILES IDX 16 1 15 2 14 3 12 4 13 5 11 6 6 7 7 8 8 10 10 11 9 12 5 13
REMARK SMILES IDX 4 14 1 15 2 16 3 17 17 18 18 19 19 20 20 21 21 22 82 23
REMARK SMILES IDX 22 24 81 25 23 26 24 27 25 28 75 29 26 30 80 31 74 32 76 33
REMARK SMILES IDX 27 34 79 35 73 36 72 37 28 39 60 40 40 41 59 42 41 43 44 44
REMARK SMILES IDX 58 45 77 46 42 47 43 48 57 50 78 51 45 52 29 53 30 54 38 55
REMARK SMILES IDX 31 56 37 57 39 58 36 59 32 60 33 61 34 62 35 63 61 64 62 65
REMARK SMILES IDX 70 66 63 67 69 68 71 69 68 70 64 71 65 72 66 73 67 74 46 75
REMARK SMILES IDX 47 76 55 77 48 78 54 79 56 80 53 81 49 82 50 83 51 84 52 85
REMARK H PARENT 6 9 76 38 44 49
REMARK Flexibility Score: inf
ROOT
ATOM      1  C   UNL A   1      37.310  20.400  24.788  1.00  0.00     0.275 C 
ENDROOT
BRANCH   1   2
ATOM      2  C   UNL A   1      35.801  20.451  25.023  1.00  0.00     0.274 C 
BRANCH   2   3
ATOM      3  O   UNL A   1      35.433  21.410  26.036  1.00  0.00    -0.458 OA
BRANCH   3   4
ATOM      4  C   UNL A   1      34.566  22.382  25.611  1.00  0.00     0.365 C 
ATOM      5  O   UNL A   1      34.130  23.251  26.352  1.00  0.00    -0.245 OA
BRANCH   4   6
ATOM      6  C   UNL A   1      34.182  22.166  24.132  1.00  0.00     0.295 C 
ATOM      7  N   UNL A   1      32.740  21.914  23.888  1.00  0.00    -0.320 N 
ATOM      8  C   UNL A   1      31.883  23.080  24.112  1.00  0.00     0.263 C 
ATOM      9  H   UNL A   1      32.728  21.749  22.882  1.00  0.00     0.349 HD
ATOM     10  C   UNL A   1      32.307  24.243  23.215  1.00  0.00     0.062 C 
ATOM     11  C   UNL A   1      34.668  23.333  23.254  1.00  0.00     0.078 C 
ATOM     12  C   UNL A   1      33.788  24.577  23.343  1.00  0.00     0.013 C 
BRANCH   7  13
ATOM     13  C   UNL A   1      32.186  20.658  24.403  1.00  0.00     0.291 C 
BRANCH  13  14
ATOM     14  C   UNL A   1      32.561  19.398  23.678  1.00  0.00     0.032 C 
ATOM     15  C   UNL A   1      32.720  17.831  25.648  1.00  0.00     0.039 C 
ATOM     16  C   UNL A   1      32.833  18.182  24.192  1.00  0.00    -0.075 C 
ATOM     17  C   UNL A   1      33.372  17.086  23.309  1.00  0.00     0.039 C 
ENDBRANCH  13  14
ENDBRANCH   7  13
ENDBRANCH   4   6
ENDBRANCH   3   4
ENDBRANCH   2   3
ENDBRANCH   1   2
BRANCH   1  18
ATOM     18  O   UNL A   1      37.943  21.544  25.384  1.00  0.00    -0.458 OA
BRANCH  18  19
ATOM     19  C   UNL A   1      39.118  21.308  26.015  1.00  0.00     0.338 C 
ATOM     20  O   UNL A   1      39.717  20.247  26.049  1.00  0.00    -0.246 OA
BRANCH  19  21
ATOM     21  C   UNL A   1      39.609  22.539  26.678  1.00  0.00     0.060 A 
ATOM     22  C   UNL A   1      39.129  23.794  26.308  1.00  0.00     0.016 A 
ATOM     23  C   UNL A   1      40.660  22.456  27.590  1.00  0.00     0.016 A 
ATOM     24  C   UNL A   1      39.762  24.957  26.743  1.00  0.00     0.010 A 
ATOM     25  C   UNL A   1      41.228  23.626  28.111  1.00  0.00     0.010 A 
ATOM     26  C   UNL A   1      40.819  24.895  27.657  1.00  0.00    -0.014 A 
BRANCH  26  27
ATOM     27  C   UNL A   1      41.547  26.133  28.067  1.00  0.00     0.031 A 
ATOM     28  C   UNL A   1      40.831  27.175  28.891  1.00  0.00     0.074 A 
ATOM     29  C   UNL A   1      42.843  26.326  27.745  1.00  0.00     0.049 A 
ATOM     30  N   UNL A   1      41.169  28.414  29.138  1.00  0.00    -0.248 NA
ATOM     31  C   UNL A   1      39.557  26.769  29.504  1.00  0.00     0.031 C 
ATOM     32  C   UNL A   1      43.694  25.374  27.028  1.00  0.00     0.029 A 
ATOM     33  N   UNL A   1      43.678  27.394  27.983  1.00  0.00    -0.354 N 
ATOM     34  C   UNL A   1      40.111  28.960  29.860  1.00  0.00     0.074 A 
ATOM     35  C   UNL A   1      39.130  27.909  30.027  1.00  0.00     0.031 C 
ATOM     36  C   UNL A   1      44.931  25.881  26.921  1.00  0.00     0.029 A 
ATOM     37  C   UNL A   1      44.938  27.240  27.450  1.00  0.00     0.049 A 
ATOM     38  H   UNL A   1      43.400  28.192  28.489  1.00  0.00     0.167 HD
ATOM     39  C   UNL A   1      39.969  30.227  30.322  1.00  0.00     0.034 A 
ATOM     40  C   UNL A   1      45.962  28.110  27.334  1.00  0.00     0.034 A 
ATOM     41  C   UNL A   1      40.990  31.241  30.211  1.00  0.00     0.049 A 
ATOM     42  C   UNL A   1      45.775  29.520  27.836  1.00  0.00     0.074 A 
ATOM     43  C   UNL A   1      40.955  32.553  30.651  1.00  0.00     0.029 A 
ATOM     44  N   UNL A   1      42.238  31.050  29.633  1.00  0.00    -0.354 N 
ATOM     45  N   UNL A   1      44.727  30.058  28.417  1.00  0.00    -0.248 NA
ATOM     46  C   UNL A   1      46.897  30.447  27.641  1.00  0.00     0.031 C 
ATOM     47  C   UNL A   1      42.161  33.169  30.296  1.00  0.00     0.029 A 
ATOM     48  C   UNL A   1      42.973  32.225  29.689  1.00  0.00     0.049 A 
ATOM     49  H   UNL A   1      42.555  30.205  29.241  1.00  0.00     0.167 HD
ATOM     50  C   UNL A   1      45.067  31.386  28.655  1.00  0.00     0.074 A 
ATOM     51  C   UNL A   1      46.427  31.558  28.187  1.00  0.00     0.031 C 
ATOM     52  C   UNL A   1      44.321  32.379  29.200  1.00  0.00     0.034 A 
BRANCH  39  53
ATOM     53  C   UNL A   1      38.634  30.611  30.910  1.00  0.00     0.023 A 
ATOM     54  C   UNL A   1      37.614  31.209  30.154  1.00  0.00     0.031 A 
ATOM     55  C   UNL A   1      38.393  30.375  32.278  1.00  0.00     0.131 A 
ATOM     56  C   UNL A   1      36.419  31.600  30.780  1.00  0.00     0.055 A 
ATOM     57  C   UNL A   1      37.178  30.706  32.879  1.00  0.00     0.041 A 
ATOM     58  F   UNL A   1      39.341  29.826  33.053  1.00  0.00    -0.206 F 
ATOM     59  C   UNL A   1      36.186  31.332  32.132  1.00  0.00     0.022 A 
BRANCH  56  60
ATOM     60  S   UNL A   1      35.209  32.562  29.831  1.00  0.00     0.124 S 
ATOM     61  O   UNL A   1      36.045  33.628  29.282  1.00  0.00    -0.237 OA
ATOM     62  O   UNL A   1      34.710  31.584  28.872  1.00  0.00    -0.237 OA
ATOM     63  O   UNL A   1      34.246  32.994  30.841  1.00  0.00    -0.744 OA
ENDBRANCH  56  60
ENDBRANCH  39  53
BRANCH  40  64
ATOM     64  C   UNL A   1      47.213  27.718  26.618  1.00  0.00     0.023 A 
ATOM     65  C   UNL A   1      47.345  27.883  25.230  1.00  0.00     0.031 A 
ATOM     66  C   UNL A   1      48.280  27.117  27.313  1.00  0.00     0.131 A 
ATOM     67  C   UNL A   1      48.500  27.421  24.579  1.00  0.00     0.055 A 
ATOM     68  C   UNL A   1      49.451  26.716  26.670  1.00  0.00     0.041 A 
ATOM     69  F   UNL A   1      48.203  26.922  28.639  1.00  0.00    -0.206 F 
ATOM     70  C   UNL A   1      49.561  26.855  25.291  1.00  0.00     0.022 A 
BRANCH  67  71
ATOM     71  S   UNL A   1      48.560  27.476  22.766  1.00  0.00     0.124 S 
ATOM     72  O   UNL A   1      47.319  28.173  22.447  1.00  0.00    -0.237 OA
ATOM     73  O   UNL A   1      49.793  28.218  22.527  1.00  0.00    -0.237 OA
ATOM     74  O   UNL A   1      48.599  26.066  22.383  1.00  0.00    -0.744 OA
ENDBRANCH  67  71
ENDBRANCH  40  64
BRANCH  52  75
ATOM     75  C   UNL A   1      44.983  33.725  29.340  1.00  0.00     0.023 A 
ATOM     76  C   UNL A   1      45.077  34.612  28.253  1.00  0.00     0.031 A 
ATOM     77  C   UNL A   1      45.545  34.115  30.568  1.00  0.00     0.131 A 
ATOM     78  C   UNL A   1      45.766  35.825  28.401  1.00  0.00     0.055 A 
ATOM     79  C   UNL A   1      46.184  35.345  30.723  1.00  0.00     0.041 A 
ATOM     80  F   UNL A   1      45.482  33.303  31.635  1.00  0.00    -0.206 F 
ATOM     81  C   UNL A   1      46.309  36.203  29.632  1.00  0.00     0.022 A 
BRANCH  78  82
ATOM     82  S   UNL A   1      46.013  36.872  26.940  1.00  0.00     0.124 S 
ATOM     83  O   UNL A   1      47.329  37.448  27.200  1.00  0.00    -0.237 OA
ATOM     84  O   UNL A   1      45.945  35.907  25.848  1.00  0.00    -0.237 OA
ATOM     85  O   UNL A   1      44.899  37.817  27.003  1.00  0.00    -0.744 OA
ENDBRANCH  78  82
ENDBRANCH  52  75
ENDBRANCH  26  27
ENDBRANCH  19  21
ENDBRANCH  18  19
ENDBRANCH   1  18
TORSDOF 16
ENDMDL
MODEL 2
REMARK VINA RESULT:     -11.1      1.946      3.057
REMARK SMILES CC(C)=CC[N@H+]1CCCC[C@H]1C(=O)OCCOC(=O)c1ccc(-c2c3nc(c(-c4cc(S(=O)(=O)[O-])ccc4F)c4ccc([nH]4)c(-c4cc(S(=O)(=O)[O-])ccc4F)c4nc(c(-c5cc(S(=O)(=O)[O-])ccc5F)c5ccc2[nH]5)C=C4)C=C3)cc1
REMARK SMILES IDX 16 1 15 2 14 3 12 4 13 5 11 6 6 7 7 8 8 10 10 11 9 12 5 13
REMARK SMILES IDX 4 14 1 15 2 16 3 17 17 18 18 19 19 20 20 21 21 22 82 23
REMARK SMILES IDX 22 24 81 25 23 26 24 27 25 28 75 29 26 30 80 31 74 32 76 33
REMARK SMILES IDX 27 34 79 35 73 36 72 37 28 39 60 40 40 41 59 42 41 43 44 44
REMARK SMILES IDX 58 45 77 46 42 47 43 48 57 50 78 51 45 52 29 53 30 54 38 55
REMARK SMILES IDX 31 56 37 57 39 58 36 59 32 60 33 61 34 62 35 63 61 64 62 65
REMARK SMILES IDX 70 66 63 67 69 68 71 69 68 70 64 71 65 72 66 73 67 74 46 75
REMARK SMILES IDX 47 76 55 77 48 78 54 79 56 80 53 81 49 82 50 83 51 84 52 85
REMARK H PARENT 6 9 76 38 44 49
REMARK Flexibility Score: inf
ROOT
ATOM      1  C   UNL A   1      36.202  20.601  25.018  1.00  0.00     0.275 C 
ENDROOT
BRANCH   1   2
ATOM      2  C   UNL A   1      34.849  21.218  24.667  1.00  0.00     0.274 C 
BRANCH   2   3
ATOM      3  O   UNL A   1      34.825  22.647  24.869  1.00  0.00    -0.458 OA
BRANCH   3   4
ATOM      4  C   UNL A   1      34.511  23.374  23.752  1.00  0.00     0.365 C 
ATOM      5  O   UNL A   1      35.249  23.447  22.780  1.00  0.00    -0.245 OA
BRANCH   4   6
ATOM      6  C   UNL A   1      33.174  24.121  23.940  1.00  0.00     0.295 C 
ATOM      7  N   UNL A   1      33.300  25.545  24.338  1.00  0.00    -0.320 N 
ATOM      8  C   UNL A   1      33.828  26.416  23.286  1.00  0.00     0.263 C 
ATOM      9  H   UNL A   1      32.324  25.812  24.457  1.00  0.00     0.349 HD
ATOM     10  C   UNL A   1      32.940  26.361  22.042  1.00  0.00     0.062 C 
ATOM     11  C   UNL A   1      32.288  24.002  22.687  1.00  0.00     0.078 C 
ATOM     12  C   UNL A   1      32.698  24.938  21.554  1.00  0.00     0.013 C 
BRANCH   7  13
ATOM     13  C   UNL A   1      33.848  25.819  25.670  1.00  0.00     0.291 C 
BRANCH  13  14
ATOM     14  C   UNL A   1      33.554  27.167  26.265  1.00  0.00     0.032 C 
ATOM     15  C   UNL A   1      31.057  26.949  26.545  1.00  0.00     0.039 C 
ATOM     16  C   UNL A   1      32.362  27.689  26.614  1.00  0.00    -0.075 C 
ATOM     17  C   UNL A   1      32.258  29.136  27.025  1.00  0.00     0.039 C 
ENDBRANCH  13  14
ENDBRANCH   7  13
ENDBRANCH   4   6
ENDBRANCH   3   4
ENDBRANCH   2   3
ENDBRANCH   1   2
BRANCH   1  18
ATOM     18  O   UNL A   1      37.218  21.618  25.045  1.00  0.00    -0.458 OA
BRANCH  18  19
ATOM     19  C   UNL A   1      38.394  21.263  25.616  1.00  0.00     0.338 C 
ATOM     20  O   UNL A   1      38.910  20.160  25.577  1.00  0.00    -0.246 OA
BRANCH  19  21
ATOM     21  C   UNL A   1      39.001  22.420  26.316  1.00  0.00     0.060 A 
ATOM     22  C   UNL A   1      38.551  23.717  26.082  1.00  0.00     0.016 A 
ATOM     23  C   UNL A   1      40.126  22.225  27.116  1.00  0.00     0.016 A 
ATOM     24  C   UNL A   1      39.276  24.818  26.536  1.00  0.00     0.010 A 
ATOM     25  C   UNL A   1      40.794  23.329  27.663  1.00  0.00     0.010 A 
ATOM     26  C   UNL A   1      40.407  24.644  27.340  1.00  0.00    -0.014 A 
BRANCH  26  27
ATOM     27  C   UNL A   1      41.228  25.817  27.767  1.00  0.00     0.031 A 
ATOM     28  C   UNL A   1      40.608  26.876  28.644  1.00  0.00     0.074 A 
ATOM     29  C   UNL A   1      42.525  25.934  27.411  1.00  0.00     0.049 A 
ATOM     30  N   UNL A   1      41.035  28.081  28.919  1.00  0.00    -0.248 NA
ATOM     31  C   UNL A   1      39.327  26.535  29.283  1.00  0.00     0.031 C 
ATOM     32  C   UNL A   1      43.289  24.952  26.639  1.00  0.00     0.029 A 
ATOM     33  N   UNL A   1      43.436  26.936  27.657  1.00  0.00    -0.354 N 
ATOM     34  C   UNL A   1      40.037  28.672  29.690  1.00  0.00     0.074 A 
ATOM     35  C   UNL A   1      38.993  27.683  29.854  1.00  0.00     0.031 C 
ATOM     36  C   UNL A   1      44.554  25.379  26.510  1.00  0.00     0.029 A 
ATOM     37  C   UNL A   1      44.668  26.716  27.081  1.00  0.00     0.049 A 
ATOM     38  H   UNL A   1      43.227  27.733  28.195  1.00  0.00     0.167 HD
ATOM     39  C   UNL A   1      39.994  29.929  30.195  1.00  0.00     0.034 A 
ATOM     40  C   UNL A   1      45.743  27.520  26.961  1.00  0.00     0.034 A 
ATOM     41  C   UNL A   1      41.077  30.876  30.085  1.00  0.00     0.049 A 
ATOM     42  C   UNL A   1      45.666  28.922  27.512  1.00  0.00     0.074 A 
ATOM     43  C   UNL A   1      41.143  32.173  30.567  1.00  0.00     0.029 A 
ATOM     44  N   UNL A   1      42.292  30.623  29.463  1.00  0.00    -0.354 N 
ATOM     45  N   UNL A   1      44.674  29.508  28.141  1.00  0.00    -0.248 NA
ATOM     46  C   UNL A   1      46.842  29.778  27.312  1.00  0.00     0.031 C 
ATOM     47  C   UNL A   1      42.377  32.719  30.194  1.00  0.00     0.029 A 
ATOM     48  C   UNL A   1      43.106  31.743  29.533  1.00  0.00     0.049 A 
ATOM     49  H   UNL A   1      42.541  29.772  29.036  1.00  0.00     0.167 HD
ATOM     50  C   UNL A   1      45.109  30.802  28.410  1.00  0.00     0.074 A 
ATOM     51  C   UNL A   1      46.464  30.900  27.907  1.00  0.00     0.031 C 
ATOM     52  C   UNL A   1      44.448  31.824  29.009  1.00  0.00     0.034 A 
BRANCH  39  53
ATOM     53  C   UNL A   1      38.705  30.381  30.836  1.00  0.00     0.023 A 
ATOM     54  C   UNL A   1      37.666  30.984  30.109  1.00  0.00     0.031 A 
ATOM     55  C   UNL A   1      38.529  30.207  32.222  1.00  0.00     0.131 A 
ATOM     56  C   UNL A   1      36.519  31.440  30.781  1.00  0.00     0.055 A 
ATOM     57  C   UNL A   1      37.359  30.602  32.872  1.00  0.00     0.041 A 
ATOM     58  F   UNL A   1      39.499  29.656  32.969  1.00  0.00    -0.206 F 
ATOM     59  C   UNL A   1      36.349  31.232  32.153  1.00  0.00     0.022 A 
BRANCH  56  60
ATOM     60  S   UNL A   1      35.292  32.405  29.857  1.00  0.00     0.124 S 
ATOM     61  O   UNL A   1      34.275  32.643  30.878  1.00  0.00    -0.237 OA
ATOM     62  O   UNL A   1      36.059  33.571  29.435  1.00  0.00    -0.237 OA
ATOM     63  O   UNL A   1      34.885  31.503  28.782  1.00  0.00    -0.744 OA
ENDBRANCH  56  60
ENDBRANCH  39  53
BRANCH  40  64
ATOM     64  C   UNL A   1      46.945  27.070  26.195  1.00  0.00     0.023 A 
ATOM     65  C   UNL A   1      48.025  26.439  26.831  1.00  0.00     0.031 A 
ATOM     66  C   UNL A   1      47.048  27.318  24.812  1.00  0.00     0.131 A 
ATOM     67  C   UNL A   1      49.174  26.111  26.094  1.00  0.00     0.055 A 
ATOM     68  C   UNL A   1      48.167  26.933  24.073  1.00  0.00     0.041 A 
ATOM     69  F   UNL A   1      46.052  27.929  24.155  1.00  0.00    -0.206 F 
ATOM     70  C   UNL A   1      49.245  26.337  24.716  1.00  0.00     0.022 A 
BRANCH  67  71
ATOM     71  S   UNL A   1      50.625  25.471  26.978  1.00  0.00     0.124 S 
ATOM     72  O   UNL A   1      50.068  24.313  27.666  1.00  0.00    -0.237 OA
ATOM     73  O   UNL A   1      51.545  25.185  25.881  1.00  0.00    -0.237 OA
ATOM     74  O   UNL A   1      51.015  26.583  27.842  1.00  0.00    -0.744 OA
ENDBRANCH  67  71
ENDBRANCH  40  64
BRANCH  52  75
ATOM     75  C   UNL A   1      45.202  33.118  29.170  1.00  0.00     0.023 A 
ATOM     76  C   UNL A   1      45.137  34.131  28.197  1.00  0.00     0.031 A 
ATOM     77  C   UNL A   1      46.013  33.330  30.299  1.00  0.00     0.131 A 
ATOM     78  C   UNL A   1      45.912  35.291  28.346  1.00  0.00     0.055 A 
ATOM     79  C   UNL A   1      46.741  34.507  30.466  1.00  0.00     0.041 A 
ATOM     80  F   UNL A   1      46.109  32.393  31.255  1.00  0.00    -0.206 F 
ATOM     81  C   UNL A   1      46.703  35.491  29.480  1.00  0.00     0.022 A 
BRANCH  78  82
ATOM     82  S   UNL A   1      45.933  36.504  26.997  1.00  0.00     0.124 S 
ATOM     83  O   UNL A   1      44.539  36.935  26.956  1.00  0.00    -0.237 OA
ATOM     84  O   UNL A   1      46.892  37.492  27.480  1.00  0.00    -0.237 OA
ATOM     85  O   UNL A   1      46.376  35.725  25.842  1.00  0.00    -0.744 OA
ENDBRANCH  78  82
ENDBRANCH  52  75
ENDBRANCH  26  27
ENDBRANCH  19  21
ENDBRANCH  18  19
ENDBRANCH   1  18
TORSDOF 16
ENDMDL
MODEL 3
REMARK VINA RESULT:     -10.8      5.314     10.179
REMARK SMILES CC(C)=CC[N@H+]1CCCC[C@H]1C(=O)OCCOC(=O)c1ccc(-c2c3nc(c(-c4cc(S(=O)(=O)[O-])ccc4F)c4ccc([nH]4)c(-c4cc(S(=O)(=O)[O-])ccc4F)c4nc(c(-c5cc(S(=O)(=O)[O-])ccc5F)c5ccc2[nH]5)C=C4)C=C3)cc1
REMARK SMILES IDX 16 1 15 2 14 3 12 4 13 5 11 6 6 7 7 8 8 10 10 11 9 12 5 13
REMARK SMILES IDX 4 14 1 15 2 16 3 17 17 18 18 19 19 20 20 21 21 22 82 23
REMARK SMILES IDX 22 24 81 25 23 26 24 27 25 28 75 29 26 30 80 31 74 32 76 33
REMARK SMILES IDX 27 34 79 35 73 36 72 37 28 39 60 40 40 41 59 42 41 43 44 44
REMARK SMILES IDX 58 45 77 46 42 47 43 48 57 50 78 51 45 52 29 53 30 54 38 55
REMARK SMILES IDX 31 56 37 57 39 58 36 59 32 60 33 61 34 62 35 63 61 64 62 65
REMARK SMILES IDX 70 66 63 67 69 68 71 69 68 70 64 71 65 72 66 73 67 74 46 75
REMARK SMILES IDX 47 76 55 77 48 78 54 79 56 80 53 81 49 82 50 83 51 84 52 85
REMARK H PARENT 6 9 76 38 44 49
REMARK Flexibility Score: inf
ROOT
ATOM      1  C   UNL A   1      31.667  30.378  25.528  1.00  0.00     0.275 C 
ENDROOT
BRANCH   1   2
ATOM      2  C   UNL A   1      32.152  29.265  24.599  1.00  0.00     0.274 C 
BRANCH   2   3
ATOM      3  O   UNL A   1      31.242  28.145  24.559  1.00  0.00    -0.458 OA
BRANCH   3   4
ATOM      4  C   UNL A   1      31.438  27.292  23.505  1.00  0.00     0.365 C 
ATOM      5  O   UNL A   1      30.562  27.032  22.693  1.00  0.00    -0.245 OA
BRANCH   4   6
ATOM      6  C   UNL A   1      32.851  26.676  23.551  1.00  0.00     0.295 C 
ATOM      7  N   UNL A   1      32.949  25.381  24.266  1.00  0.00    -0.320 N 
ATOM      8  C   UNL A   1      32.306  24.263  23.572  1.00  0.00     0.263 C 
ATOM      9  H   UNL A   1      33.951  25.196  24.222  1.00  0.00     0.349 HD
ATOM     10  C   UNL A   1      32.913  24.070  22.181  1.00  0.00     0.062 C 
ATOM     11  C   UNL A   1      33.448  26.543  22.138  1.00  0.00     0.078 C 
ATOM     12  C   UNL A   1      32.910  25.350  21.354  1.00  0.00     0.013 C 
BRANCH   7  13
ATOM     13  C   UNL A   1      32.714  25.398  25.713  1.00  0.00     0.291 C 
BRANCH  13  14
ATOM     14  C   UNL A   1      31.472  24.718  26.213  1.00  0.00     0.032 C 
ATOM     15  C   UNL A   1      32.507  22.609  27.130  1.00  0.00     0.039 C 
ATOM     16  C   UNL A   1      31.352  23.505  26.789  1.00  0.00    -0.075 C 
ATOM     17  C   UNL A   1      29.988  22.921  27.053  1.00  0.00     0.039 C 
ENDBRANCH  13  14
ENDBRANCH   7  13
ENDBRANCH   4   6
ENDBRANCH   3   4
ENDBRANCH   2   3
ENDBRANCH   1   2
BRANCH   1  18
ATOM     18  O   UNL A   1      32.352  30.304  26.789  1.00  0.00    -0.458 OA
BRANCH  18  19
ATOM     19  C   UNL A   1      32.984  31.434  27.186  1.00  0.00     0.338 C 
ATOM     20  O   UNL A   1      32.516  32.559  27.184  1.00  0.00    -0.246 OA
BRANCH  19  21
ATOM     21  C   UNL A   1      34.361  31.127  27.642  1.00  0.00     0.060 A 
ATOM     22  C   UNL A   1      34.732  29.827  27.976  1.00  0.00     0.016 A 
ATOM     23  C   UNL A   1      35.258  32.169  27.868  1.00  0.00     0.016 A 
ATOM     24  C   UNL A   1      35.932  29.576  28.640  1.00  0.00     0.010 A 
ATOM     25  C   UNL A   1      36.510  31.902  28.437  1.00  0.00     0.010 A 
ATOM     26  C   UNL A   1      36.846  30.608  28.876  1.00  0.00    -0.014 A 
BRANCH  26  27
ATOM     27  C   UNL A   1      38.098  30.356  29.652  1.00  0.00     0.031 A 
ATOM     28  C   UNL A   1      39.181  29.494  29.051  1.00  0.00     0.074 A 
ATOM     29  C   UNL A   1      38.297  30.911  30.865  1.00  0.00     0.049 A 
ATOM     30  N   UNL A   1      40.215  28.938  29.628  1.00  0.00    -0.248 NA
ATOM     31  C   UNL A   1      39.072  29.206  27.612  1.00  0.00     0.031 C 
ATOM     32  C   UNL A   1      37.383  31.835  31.540  1.00  0.00     0.029 A 
ATOM     33  N   UNL A   1      39.342  30.780  31.752  1.00  0.00    -0.354 N 
ATOM     34  C   UNL A   1      40.830  28.168  28.644  1.00  0.00     0.074 A 
ATOM     35  C   UNL A   1      40.062  28.345  27.430  1.00  0.00     0.031 C 
ATOM     36  C   UNL A   1      37.922  32.216  32.708  1.00  0.00     0.029 A 
ATOM     37  C   UNL A   1      39.160  31.475  32.927  1.00  0.00     0.049 A 
ATOM     38  H   UNL A   1      40.144  30.242  31.563  1.00  0.00     0.167 HD
ATOM     39  C   UNL A   1      41.923  27.374  28.756  1.00  0.00     0.034 A 
ATOM     40  C   UNL A   1      39.865  31.468  34.076  1.00  0.00     0.034 A 
ATOM     41  C   UNL A   1      42.720  27.268  29.954  1.00  0.00     0.049 A 
ATOM     42  C   UNL A   1      41.065  30.562  34.186  1.00  0.00     0.074 A 
ATOM     43  C   UNL A   1      43.852  26.501  30.174  1.00  0.00     0.029 A 
ATOM     44  N   UNL A   1      42.479  27.964  31.131  1.00  0.00    -0.354 N 
ATOM     45  N   UNL A   1      41.572  29.752  33.285  1.00  0.00    -0.248 NA
ATOM     46  C   UNL A   1      41.770  30.549  35.473  1.00  0.00     0.031 C 
ATOM     47  C   UNL A   1      44.266  26.695  31.497  1.00  0.00     0.029 A 
ATOM     48  C   UNL A   1      43.429  27.631  32.085  1.00  0.00     0.049 A 
ATOM     49  H   UNL A   1      41.742  28.601  31.268  1.00  0.00     0.167 HD
ATOM     50  C   UNL A   1      42.656  29.133  33.901  1.00  0.00     0.074 A 
ATOM     51  C   UNL A   1      42.749  29.689  35.236  1.00  0.00     0.031 C 
ATOM     52  C   UNL A   1      43.493  28.183  33.415  1.00  0.00     0.034 A 
BRANCH  39  53
ATOM     53  C   UNL A   1      42.270  26.494  27.580  1.00  0.00     0.023 A 
ATOM     54  C   UNL A   1      41.851  25.158  27.481  1.00  0.00     0.031 A 
ATOM     55  C   UNL A   1      43.058  27.019  26.538  1.00  0.00     0.131 A 
ATOM     56  C   UNL A   1      42.265  24.376  26.390  1.00  0.00     0.055 A 
ATOM     57  C   UNL A   1      43.411  26.257  25.424  1.00  0.00     0.041 A 
ATOM     58  F   UNL A   1      43.506  28.284  26.591  1.00  0.00    -0.206 F 
ATOM     59  C   UNL A   1      43.022  24.923  25.350  1.00  0.00     0.022 A 
BRANCH  56  60
ATOM     60  S   UNL A   1      41.890  22.602  26.395  1.00  0.00     0.124 S 
ATOM     61  O   UNL A   1      40.429  22.609  26.377  1.00  0.00    -0.237 OA
ATOM     62  O   UNL A   1      42.541  22.137  25.176  1.00  0.00    -0.237 OA
ATOM     63  O   UNL A   1      42.487  22.128  27.641  1.00  0.00    -0.744 OA
ENDBRANCH  56  60
ENDBRANCH  39  53
BRANCH  40  64
ATOM     64  C   UNL A   1      39.396  32.255  35.258  1.00  0.00     0.023 A 
ATOM     65  C   UNL A   1      39.844  33.564  35.490  1.00  0.00     0.031 A 
ATOM     66  C   UNL A   1      38.529  31.678  36.205  1.00  0.00     0.131 A 
ATOM     67  C   UNL A   1      39.452  34.240  36.657  1.00  0.00     0.055 A 
ATOM     68  C   UNL A   1      38.093  32.376  37.332  1.00  0.00     0.041 A 
ATOM     69  F   UNL A   1      38.079  30.425  36.042  1.00  0.00    -0.206 F 
ATOM     70  C   UNL A   1      38.566  33.662  37.570  1.00  0.00     0.022 A 
BRANCH  67  71
ATOM     71  S   UNL A   1      40.196  35.854  37.022  1.00  0.00     0.124 S 
ATOM     72  O   UNL A   1      39.718  36.663  35.907  1.00  0.00    -0.237 OA
ATOM     73  O   UNL A   1      39.625  36.161  38.330  1.00  0.00    -0.237 OA
ATOM     74  O   UNL A   1      41.631  35.577  37.021  1.00  0.00    -0.744 OA
ENDBRANCH  67  71
ENDBRANCH  40  64
BRANCH  52  75
ATOM     75  C   UNL A   1      44.594  27.716  34.332  1.00  0.00     0.023 A 
ATOM     76  C   UNL A   1      44.395  26.659  35.237  1.00  0.00     0.031 A 
ATOM     77  C   UNL A   1      45.847  28.352  34.315  1.00  0.00     0.131 A 
ATOM     78  C   UNL A   1      45.418  26.302  36.127  1.00  0.00     0.055 A 
ATOM     79  C   UNL A   1      46.879  27.958  35.167  1.00  0.00     0.041 A 
ATOM     80  F   UNL A   1      46.086  29.367  33.470  1.00  0.00    -0.206 F 
ATOM     81  C   UNL A   1      46.664  26.935  36.088  1.00  0.00     0.022 A 
BRANCH  78  82
ATOM     82  S   UNL A   1      45.076  25.047  37.391  1.00  0.00     0.124 S 
ATOM     83  O   UNL A   1      45.907  25.502  38.502  1.00  0.00    -0.237 OA
ATOM     84  O   UNL A   1      43.635  25.175  37.579  1.00  0.00    -0.237 OA
ATOM     85  O   UNL A   1      45.510  23.800  36.763  1.00  0.00    -0.744 OA
ENDBRANCH  78  82
ENDBRANCH  52  75
ENDBRANCH  26  27
ENDBRANCH  19  21
ENDBRANCH  18  19
ENDBRANCH   1  18
TORSDOF 16
ENDMDL
