MODEL 1
REMARK VINA RESULT:     -10.1      0.000      0.000
REMARK SMILES CC[N@@H+](C[C@@H](C)C(=O)OCCOC(=O)c1ccc(-c2c3nc(c(-c4cc(S(=O)(=O)[O-])ccc4F)c4ccc([nH]4)c(-c4cc(S(=O)(=O)[O-])ccc4F)c4nc(c(-c5cc(S(=O)(=O)[O-])ccc5F)c5ccc2[nH]5)C=C4)C=C3)cc1)[C@@H](C)c1ccoc1
REMARK SMILES IDX 10 1 9 2 7 3 8 4 5 5 6 6 4 7 3 8 2 10 1 11 78 12 79 13 80 14
REMARK SMILES IDX 81 15 84 16 82 17 83 18 11 19 12 20 13 21 14 22 15 23 16 24
REMARK SMILES IDX 77 25 17 26 76 27 18 28 19 29 20 30 70 31 21 32 75 33 69 34
REMARK SMILES IDX 71 35 22 36 74 37 68 38 67 39 23 41 55 42 35 43 54 44 36 45
REMARK SMILES IDX 39 46 53 47 72 48 37 49 38 50 52 52 73 53 40 54 24 55 25 56
REMARK SMILES IDX 33 57 26 58 32 59 34 60 31 61 27 62 28 63 29 64 30 65 56 66
REMARK SMILES IDX 57 67 65 68 58 69 64 70 66 71 63 72 59 73 60 74 61 75 62 76
REMARK SMILES IDX 41 77 42 78 50 79 43 80 49 81 51 82 48 83 44 84 45 85 46 86
REMARK SMILES IDX 47 87
REMARK H PARENT 3 9 71 40 39 51
REMARK Flexibility Score: inf
ROOT
ATOM      1  C   UNL A   1      34.955  20.548  25.330  1.00  0.00     0.274 C 
ENDROOT
BRANCH   1   2
ATOM      2  O   UNL A   1      34.015  20.855  24.276  1.00  0.00    -0.462 OA
BRANCH   2   3
ATOM      3  C   UNL A   1      32.713  20.858  24.660  1.00  0.00     0.314 C 
ATOM      4  O   UNL A   1      32.154  19.915  25.212  1.00  0.00    -0.252 OA
BRANCH   3   5
ATOM      5  C   UNL A   1      31.939  22.088  24.219  1.00  0.00     0.151 C 
ATOM      6  C   UNL A   1      32.003  22.114  22.691  1.00  0.00     0.026 C 
BRANCH   5   7
ATOM      7  C   UNL A   1      32.358  23.417  24.891  1.00  0.00     0.277 C 
BRANCH   7   8
ATOM      8  N   UNL A   1      33.047  24.448  24.044  1.00  0.00    -0.328 N 
ATOM      9  H   UNL A   1      33.002  24.181  23.061  1.00  0.00     0.348 HD
BRANCH   8  10
ATOM     10  C   UNL A   1      34.485  24.473  24.375  1.00  0.00     0.259 C 
ATOM     11  C   UNL A   1      34.881  24.239  25.825  1.00  0.00     0.071 C 
ENDBRANCH   8  10
BRANCH   8  12
ATOM     12  C   UNL A   1      32.336  25.745  23.993  1.00  0.00     0.215 C 
ATOM     13  C   UNL A   1      31.696  26.259  25.289  1.00  0.00     0.081 C 
BRANCH  12  14
ATOM     14  C   UNL A   1      33.164  26.826  23.328  1.00  0.00     0.047 A 
ATOM     15  C   UNL A   1      33.718  28.023  23.873  1.00  0.00     0.052 A 
ATOM     16  C   UNL A   1      33.417  26.922  21.969  1.00  0.00     0.204 A 
ATOM     17  C   UNL A   1      34.248  28.739  22.826  1.00  0.00     0.195 A 
ATOM     18  O   UNL A   1      34.066  28.074  21.661  1.00  0.00    -0.472 OA
ENDBRANCH  12  14
ENDBRANCH   8  12
ENDBRANCH   7   8
ENDBRANCH   5   7
ENDBRANCH   3   5
ENDBRANCH   2   3
ENDBRANCH   1   2
BRANCH   1  19
ATOM     19  C   UNL A   1      36.418  20.757  24.922  1.00  0.00     0.275 C 
BRANCH  19  20
ATOM     20  O   UNL A   1      37.145  21.573  25.856  1.00  0.00    -0.458 OA
BRANCH  20  21
ATOM     21  C   UNL A   1      38.462  21.271  25.966  1.00  0.00     0.338 C 
ATOM     22  O   UNL A   1      38.996  20.209  25.701  1.00  0.00    -0.246 OA
BRANCH  21  23
ATOM     23  C   UNL A   1      39.215  22.480  26.334  1.00  0.00     0.060 A 
ATOM     24  C   UNL A   1      40.327  22.329  27.164  1.00  0.00     0.016 A 
ATOM     25  C   UNL A   1      38.800  23.746  25.928  1.00  0.00     0.016 A 
ATOM     26  C   UNL A   1      41.032  23.444  27.606  1.00  0.00     0.010 A 
ATOM     27  C   UNL A   1      39.517  24.867  26.357  1.00  0.00     0.010 A 
ATOM     28  C   UNL A   1      40.634  24.723  27.199  1.00  0.00    -0.014 A 
BRANCH  28  29
ATOM     29  C   UNL A   1      41.384  25.919  27.653  1.00  0.00     0.031 A 
ATOM     30  C   UNL A   1      40.694  26.969  28.471  1.00  0.00     0.074 A 
ATOM     31  C   UNL A   1      42.678  26.062  27.312  1.00  0.00     0.049 A 
ATOM     32  N   UNL A   1      41.118  28.153  28.827  1.00  0.00    -0.248 NA
ATOM     33  C   UNL A   1      39.343  26.639  28.946  1.00  0.00     0.031 C 
ATOM     34  C   UNL A   1      43.470  25.073  26.579  1.00  0.00     0.029 A 
ATOM     35  N   UNL A   1      43.549  27.100  27.523  1.00  0.00    -0.354 N 
ATOM     36  C   UNL A   1      40.082  28.721  29.561  1.00  0.00     0.074 A 
ATOM     37  C   UNL A   1      39.001  27.756  29.571  1.00  0.00     0.031 C 
ATOM     38  C   UNL A   1      44.709  25.557  26.394  1.00  0.00     0.029 A 
ATOM     39  C   UNL A   1      44.777  26.913  26.931  1.00  0.00     0.049 A 
ATOM     40  H   UNL A   1      43.319  27.901  28.047  1.00  0.00     0.167 HD
ATOM     41  C   UNL A   1      40.045  29.934  30.170  1.00  0.00     0.034 A 
ATOM     42  C   UNL A   1      45.816  27.757  26.791  1.00  0.00     0.034 A 
ATOM     43  C   UNL A   1      41.132  30.883  30.130  1.00  0.00     0.049 A 
ATOM     44  C   UNL A   1      45.697  29.154  27.346  1.00  0.00     0.074 A 
ATOM     45  C   UNL A   1      41.211  32.133  30.719  1.00  0.00     0.029 A 
ATOM     46  N   UNL A   1      42.327  30.693  29.446  1.00  0.00    -0.354 N 
ATOM     47  N   UNL A   1      44.705  29.694  28.016  1.00  0.00    -0.248 NA
ATOM     48  C   UNL A   1      46.830  30.058  27.112  1.00  0.00     0.031 C 
ATOM     49  C   UNL A   1      42.419  32.727  30.331  1.00  0.00     0.029 A 
ATOM     50  C   UNL A   1      43.129  31.820  29.559  1.00  0.00     0.049 A 
ATOM     51  H   UNL A   1      42.570  29.877  28.953  1.00  0.00     0.167 HD
ATOM     52  C   UNL A   1      45.104  30.997  28.297  1.00  0.00     0.074 A 
ATOM     53  C   UNL A   1      46.429  31.157  27.735  1.00  0.00     0.031 C 
ATOM     54  C   UNL A   1      44.436  31.973  28.966  1.00  0.00     0.034 A 
BRANCH  41  55
ATOM     55  C   UNL A   1      38.763  30.313  30.870  1.00  0.00     0.023 A 
ATOM     56  C   UNL A   1      37.788  31.113  30.248  1.00  0.00     0.031 A 
ATOM     57  C   UNL A   1      38.532  29.907  32.196  1.00  0.00     0.131 A 
ATOM     58  C   UNL A   1      36.671  31.549  30.977  1.00  0.00     0.055 A 
ATOM     59  C   UNL A   1      37.378  30.278  32.891  1.00  0.00     0.041 A 
ATOM     60  F   UNL A   1      39.436  29.159  32.850  1.00  0.00    -0.206 F 
ATOM     61  C   UNL A   1      36.449  31.119  32.287  1.00  0.00     0.022 A 
BRANCH  58  62
ATOM     62  S   UNL A   1      35.597  32.813  30.243  1.00  0.00     0.124 S 
ATOM     63  O   UNL A   1      36.559  33.619  29.493  1.00  0.00    -0.237 OA
ATOM     64  O   UNL A   1      34.673  32.016  29.444  1.00  0.00    -0.237 OA
ATOM     65  O   UNL A   1      35.008  33.479  31.402  1.00  0.00    -0.744 OA
ENDBRANCH  58  62
ENDBRANCH  41  55
BRANCH  42  66
ATOM     66  C   UNL A   1      47.028  27.338  26.035  1.00  0.00     0.023 A 
ATOM     67  C   UNL A   1      47.191  27.680  24.684  1.00  0.00     0.031 A 
ATOM     68  C   UNL A   1      48.030  26.563  26.647  1.00  0.00     0.131 A 
ATOM     69  C   UNL A   1      48.317  27.225  23.981  1.00  0.00     0.055 A 
ATOM     70  C   UNL A   1      49.172  26.153  25.956  1.00  0.00     0.041 A 
ATOM     71  F   UNL A   1      47.920  26.206  27.937  1.00  0.00    -0.206 F 
ATOM     72  C   UNL A   1      49.315  26.476  24.611  1.00  0.00     0.022 A 
BRANCH  69  73
ATOM     73  S   UNL A   1      48.431  27.573  22.205  1.00  0.00     0.124 S 
ATOM     74  O   UNL A   1      48.633  26.238  21.653  1.00  0.00    -0.237 OA
ATOM     75  O   UNL A   1      47.136  28.189  21.933  1.00  0.00    -0.237 OA
ATOM     76  O   UNL A   1      49.578  28.471  22.106  1.00  0.00    -0.744 OA
ENDBRANCH  69  73
ENDBRANCH  42  66
BRANCH  54  77
ATOM     77  C   UNL A   1      45.151  33.288  29.142  1.00  0.00     0.023 A 
ATOM     78  C   UNL A   1      45.089  34.296  28.164  1.00  0.00     0.031 A 
ATOM     79  C   UNL A   1      45.905  33.535  30.303  1.00  0.00     0.131 A 
ATOM     80  C   UNL A   1      45.804  35.490  28.346  1.00  0.00     0.055 A 
ATOM     81  C   UNL A   1      46.572  34.744  30.502  1.00  0.00     0.041 A 
ATOM     82  F   UNL A   1      45.999  32.604  31.266  1.00  0.00    -0.206 F 
ATOM     83  C   UNL A   1      46.531  35.726  29.517  1.00  0.00     0.022 A 
BRANCH  80  84
ATOM     84  S   UNL A   1      45.823  36.712  27.005  1.00  0.00     0.124 S 
ATOM     85  O   UNL A   1      44.431  37.150  26.977  1.00  0.00    -0.237 OA
ATOM     86  O   UNL A   1      46.791  37.692  27.486  1.00  0.00    -0.237 OA
ATOM     87  O   UNL A   1      46.253  35.938  25.842  1.00  0.00    -0.744 OA
ENDBRANCH  80  84
ENDBRANCH  54  77
ENDBRANCH  28  29
ENDBRANCH  21  23
ENDBRANCH  20  21
ENDBRANCH  19  20
ENDBRANCH   1  19
TORSDOF 19
ENDMDL
MODEL 2
REMARK VINA RESULT:     -10.1      1.751      2.268
REMARK SMILES CC[N@@H+](C[C@@H](C)C(=O)OCCOC(=O)c1ccc(-c2c3nc(c(-c4cc(S(=O)(=O)[O-])ccc4F)c4ccc([nH]4)c(-c4cc(S(=O)(=O)[O-])ccc4F)c4nc(c(-c5cc(S(=O)(=O)[O-])ccc5F)c5ccc2[nH]5)C=C4)C=C3)cc1)[C@@H](C)c1ccoc1
REMARK SMILES IDX 10 1 9 2 7 3 8 4 5 5 6 6 4 7 3 8 2 10 1 11 78 12 79 13 80 14
REMARK SMILES IDX 81 15 84 16 82 17 83 18 11 19 12 20 13 21 14 22 15 23 16 24
REMARK SMILES IDX 77 25 17 26 76 27 18 28 19 29 20 30 70 31 21 32 75 33 69 34
REMARK SMILES IDX 71 35 22 36 74 37 68 38 67 39 23 41 55 42 35 43 54 44 36 45
REMARK SMILES IDX 39 46 53 47 72 48 37 49 38 50 52 52 73 53 40 54 24 55 25 56
REMARK SMILES IDX 33 57 26 58 32 59 34 60 31 61 27 62 28 63 29 64 30 65 56 66
REMARK SMILES IDX 57 67 65 68 58 69 64 70 66 71 63 72 59 73 60 74 61 75 62 76
REMARK SMILES IDX 41 77 42 78 50 79 43 80 49 81 51 82 48 83 44 84 45 85 46 86
REMARK SMILES IDX 47 87
REMARK H PARENT 3 9 71 40 39 51
REMARK Flexibility Score: inf
ROOT
ATOM      1  C   UNL A   1      34.899  20.711  25.116  1.00  0.00     0.274 C 
ENDROOT
BRANCH   1   2
ATOM      2  O   UNL A   1      34.604  22.085  25.450  1.00  0.00    -0.462 OA
BRANCH   2   3
ATOM      3  C   UNL A   1      33.904  22.252  26.601  1.00  0.00     0.314 C 
ATOM      4  O   UNL A   1      33.878  21.436  27.518  1.00  0.00    -0.252 OA
BRANCH   3   5
ATOM      5  C   UNL A   1      33.018  23.485  26.615  1.00  0.00     0.151 C 
ATOM      6  C   UNL A   1      31.662  23.050  26.057  1.00  0.00     0.026 C 
BRANCH   5   7
ATOM      7  C   UNL A   1      33.610  24.740  25.929  1.00  0.00     0.277 C 
BRANCH   7   8
ATOM      8  N   UNL A   1      32.930  25.253  24.692  1.00  0.00    -0.328 N 
ATOM      9  H   UNL A   1      32.032  24.786  24.566  1.00  0.00     0.348 HD
BRANCH   8  10
ATOM     10  C   UNL A   1      33.728  24.888  23.507  1.00  0.00     0.259 C 
ATOM     11  C   UNL A   1      33.018  24.169  22.370  1.00  0.00     0.071 C 
ENDBRANCH   8  10
BRANCH   8  12
ATOM     12  C   UNL A   1      32.476  26.657  24.804  1.00  0.00     0.215 C 
ATOM     13  C   UNL A   1      33.371  27.746  24.197  1.00  0.00     0.081 C 
BRANCH  12  14
ATOM     14  C   UNL A   1      31.036  26.830  24.367  1.00  0.00     0.047 A 
ATOM     15  C   UNL A   1      29.882  26.050  24.678  1.00  0.00     0.052 A 
ATOM     16  C   UNL A   1      30.588  27.737  23.421  1.00  0.00     0.204 A 
ATOM     17  C   UNL A   1      28.848  26.530  23.910  1.00  0.00     0.195 A 
ATOM     18  O   UNL A   1      29.272  27.558  23.138  1.00  0.00    -0.472 OA
ENDBRANCH  12  14
ENDBRANCH   8  12
ENDBRANCH   7   8
ENDBRANCH   5   7
ENDBRANCH   3   5
ENDBRANCH   2   3
ENDBRANCH   1   2
BRANCH   1  19
ATOM     19  C   UNL A   1      36.399  20.422  24.990  1.00  0.00     0.275 C 
BRANCH  19  20
ATOM     20  O   UNL A   1      37.217  21.484  25.509  1.00  0.00    -0.458 OA
BRANCH  20  21
ATOM     21  C   UNL A   1      38.471  21.113  25.863  1.00  0.00     0.338 C 
ATOM     22  O   UNL A   1      38.994  20.028  25.679  1.00  0.00    -0.246 OA
BRANCH  21  23
ATOM     23  C   UNL A   1      39.197  22.275  26.399  1.00  0.00     0.060 A 
ATOM     24  C   UNL A   1      38.766  23.546  26.015  1.00  0.00     0.016 A 
ATOM     25  C   UNL A   1      40.321  22.121  27.207  1.00  0.00     0.016 A 
ATOM     26  C   UNL A   1      39.461  24.679  26.429  1.00  0.00     0.010 A 
ATOM     27  C   UNL A   1      41.010  23.258  27.637  1.00  0.00     0.010 A 
ATOM     28  C   UNL A   1      40.586  24.542  27.249  1.00  0.00    -0.014 A 
BRANCH  28  29
ATOM     29  C   UNL A   1      41.328  25.742  27.707  1.00  0.00     0.031 A 
ATOM     30  C   UNL A   1      40.622  26.801  28.499  1.00  0.00     0.074 A 
ATOM     31  C   UNL A   1      42.629  25.879  27.391  1.00  0.00     0.049 A 
ATOM     32  N   UNL A   1      41.041  27.987  28.854  1.00  0.00    -0.248 NA
ATOM     33  C   UNL A   1      39.262  26.476  28.950  1.00  0.00     0.031 C 
ATOM     34  C   UNL A   1      43.435  24.882  26.685  1.00  0.00     0.029 A 
ATOM     35  N   UNL A   1      43.497  26.918  27.610  1.00  0.00    -0.354 N 
ATOM     36  C   UNL A   1      39.991  28.564  29.560  1.00  0.00     0.074 A 
ATOM     37  C   UNL A   1      38.908  27.600  29.557  1.00  0.00     0.031 C 
ATOM     38  C   UNL A   1      44.678  25.363  26.521  1.00  0.00     0.029 A 
ATOM     39  C   UNL A   1      44.737  26.724  27.046  1.00  0.00     0.049 A 
ATOM     40  H   UNL A   1      43.257  27.725  28.122  1.00  0.00     0.167 HD
ATOM     41  C   UNL A   1      39.943  29.782  30.156  1.00  0.00     0.034 A 
ATOM     42  C   UNL A   1      45.780  27.566  26.920  1.00  0.00     0.034 A 
ATOM     43  C   UNL A   1      41.032  30.730  30.130  1.00  0.00     0.049 A 
ATOM     44  C   UNL A   1      45.651  28.968  27.459  1.00  0.00     0.074 A 
ATOM     45  C   UNL A   1      41.100  31.985  30.708  1.00  0.00     0.029 A 
ATOM     46  N   UNL A   1      42.240  30.532  29.473  1.00  0.00    -0.354 N 
ATOM     47  N   UNL A   1      44.646  29.516  28.103  1.00  0.00    -0.248 NA
ATOM     48  C   UNL A   1      46.790  29.868  27.240  1.00  0.00     0.031 C 
ATOM     49  C   UNL A   1      42.316  32.574  30.340  1.00  0.00     0.029 A 
ATOM     50  C   UNL A   1      43.041  31.658  29.592  1.00  0.00     0.049 A 
ATOM     51  H   UNL A   1      42.493  29.710  28.992  1.00  0.00     0.167 HD
ATOM     52  C   UNL A   1      45.041  30.821  28.380  1.00  0.00     0.074 A 
ATOM     53  C   UNL A   1      46.378  30.974  27.843  1.00  0.00     0.031 C 
ATOM     54  C   UNL A   1      44.361  31.804  29.025  1.00  0.00     0.034 A 
BRANCH  41  55
ATOM     55  C   UNL A   1      38.646  30.170  30.825  1.00  0.00     0.023 A 
ATOM     56  C   UNL A   1      37.622  30.834  30.127  1.00  0.00     0.031 A 
ATOM     57  C   UNL A   1      38.451  29.913  32.194  1.00  0.00     0.131 A 
ATOM     58  C   UNL A   1      36.488  31.290  30.816  1.00  0.00     0.055 A 
ATOM     59  C   UNL A   1      37.283  30.299  32.857  1.00  0.00     0.041 A 
ATOM     60  F   UNL A   1      39.401  29.301  32.918  1.00  0.00    -0.206 F 
ATOM     61  C   UNL A   1      36.302  31.008  32.171  1.00  0.00     0.022 A 
BRANCH  58  62
ATOM     62  S   UNL A   1      35.337  32.395  29.953  1.00  0.00     0.124 S 
ATOM     63  O   UNL A   1      34.859  31.537  28.870  1.00  0.00    -0.237 OA
ATOM     64  O   UNL A   1      34.365  32.712  30.993  1.00  0.00    -0.237 OA
ATOM     65  O   UNL A   1      36.183  33.508  29.528  1.00  0.00    -0.744 OA
ENDBRANCH  58  62
ENDBRANCH  41  55
BRANCH  42  66
ATOM     66  C   UNL A   1      47.007  27.137  26.193  1.00  0.00     0.023 A 
ATOM     67  C   UNL A   1      48.055  26.492  26.865  1.00  0.00     0.031 A 
ATOM     68  C   UNL A   1      47.160  27.394  24.819  1.00  0.00     0.131 A 
ATOM     69  C   UNL A   1      49.223  26.148  26.168  1.00  0.00     0.055 A 
ATOM     70  C   UNL A   1      48.304  27.007  24.119  1.00  0.00     0.041 A 
ATOM     71  F   UNL A   1      46.187  28.013  24.131  1.00  0.00    -0.206 F 
ATOM     72  C   UNL A   1      49.349  26.388  24.797  1.00  0.00     0.022 A 
BRANCH  69  73
ATOM     73  S   UNL A   1      50.610  25.435  27.093  1.00  0.00     0.124 S 
ATOM     74  O   UNL A   1      51.568  25.159  26.028  1.00  0.00    -0.237 OA
ATOM     75  O   UNL A   1      50.958  26.521  28.002  1.00  0.00    -0.237 OA
ATOM     76  O   UNL A   1      50.026  24.257  27.729  1.00  0.00    -0.744 OA
ENDBRANCH  69  73
ENDBRANCH  42  66
BRANCH  54  77
ATOM     77  C   UNL A   1      45.074  33.121  29.203  1.00  0.00     0.023 A 
ATOM     78  C   UNL A   1      45.119  34.078  28.174  1.00  0.00     0.031 A 
ATOM     79  C   UNL A   1      45.717  33.419  30.417  1.00  0.00     0.131 A 
ATOM     80  C   UNL A   1      45.830  35.273  28.365  1.00  0.00     0.055 A 
ATOM     81  C   UNL A   1      46.378  34.630  30.619  1.00  0.00     0.041 A 
ATOM     82  F   UNL A   1      45.707  32.537  31.430  1.00  0.00    -0.206 F 
ATOM     83  C   UNL A   1      46.445  35.562  29.586  1.00  0.00     0.022 A 
BRANCH  80  84
ATOM     84  S   UNL A   1      45.993  36.425  26.973  1.00  0.00     0.124 S 
ATOM     85  O   UNL A   1      45.596  35.591  25.843  1.00  0.00    -0.237 OA
ATOM     86  O   UNL A   1      45.065  37.491  27.336  1.00  0.00    -0.237 OA
ATOM     87  O   UNL A   1      47.405  36.800  27.002  1.00  0.00    -0.744 OA
ENDBRANCH  80  84
ENDBRANCH  54  77
ENDBRANCH  28  29
ENDBRANCH  21  23
ENDBRANCH  20  21
ENDBRANCH  19  20
ENDBRANCH   1  19
TORSDOF 19
ENDMDL
MODEL 3
REMARK VINA RESULT:     -10.1      5.120     10.013
REMARK SMILES CC[N@@H+](C[C@@H](C)C(=O)OCCOC(=O)c1ccc(-c2c3nc(c(-c4cc(S(=O)(=O)[O-])ccc4F)c4ccc([nH]4)c(-c4cc(S(=O)(=O)[O-])ccc4F)c4nc(c(-c5cc(S(=O)(=O)[O-])ccc5F)c5ccc2[nH]5)C=C4)C=C3)cc1)[C@@H](C)c1ccoc1
REMARK SMILES IDX 10 1 9 2 7 3 8 4 5 5 6 6 4 7 3 8 2 10 1 11 78 12 79 13 80 14
REMARK SMILES IDX 81 15 84 16 82 17 83 18 11 19 12 20 13 21 14 22 15 23 16 24
REMARK SMILES IDX 77 25 17 26 76 27 18 28 19 29 20 30 70 31 21 32 75 33 69 34
REMARK SMILES IDX 71 35 22 36 74 37 68 38 67 39 23 41 55 42 35 43 54 44 36 45
REMARK SMILES IDX 39 46 53 47 72 48 37 49 38 50 52 52 73 53 40 54 24 55 25 56
REMARK SMILES IDX 33 57 26 58 32 59 34 60 31 61 27 62 28 63 29 64 30 65 56 66
REMARK SMILES IDX 57 67 65 68 58 69 64 70 66 71 63 72 59 73 60 74 61 75 62 76
REMARK SMILES IDX 41 77 42 78 50 79 43 80 49 81 51 82 48 83 44 84 45 85 46 86
REMARK SMILES IDX 47 87
REMARK H PARENT 3 9 71 40 39 51
REMARK Flexibility Score: inf
ROOT
ATOM      1  C   UNL A   1      31.182  29.330  24.712  1.00  0.00     0.274 C 
ENDROOT
BRANCH   1   2
ATOM      2  O   UNL A   1      32.035  28.171  24.841  1.00  0.00    -0.462 OA
BRANCH   2   3
ATOM      3  C   UNL A   1      31.433  27.081  25.382  1.00  0.00     0.314 C 
ATOM      4  O   UNL A   1      30.258  26.777  25.194  1.00  0.00    -0.252 OA
BRANCH   3   5
ATOM      5  C   UNL A   1      32.297  26.323  26.375  1.00  0.00     0.151 C 
ATOM      6  C   UNL A   1      33.742  26.735  26.092  1.00  0.00     0.026 C 
BRANCH   5   7
ATOM      7  C   UNL A   1      32.074  24.793  26.421  1.00  0.00     0.277 C 
BRANCH   7   8
ATOM      8  N   UNL A   1      31.582  24.114  25.174  1.00  0.00    -0.328 N 
ATOM      9  H   UNL A   1      31.053  24.773  24.602  1.00  0.00     0.348 HD
BRANCH   8  10
ATOM     10  C   UNL A   1      30.620  23.057  25.538  1.00  0.00     0.259 C 
ATOM     11  C   UNL A   1      30.182  22.971  26.992  1.00  0.00     0.071 C 
ENDBRANCH   8  10
BRANCH   8  12
ATOM     12  C   UNL A   1      32.662  23.759  24.227  1.00  0.00     0.215 C 
ATOM     13  C   UNL A   1      32.746  22.301  23.757  1.00  0.00     0.081 C 
BRANCH  12  14
ATOM     14  C   UNL A   1      32.733  24.715  23.054  1.00  0.00     0.047 A 
ATOM     15  C   UNL A   1      31.695  25.207  22.207  1.00  0.00     0.052 A 
ATOM     16  C   UNL A   1      33.898  25.189  22.474  1.00  0.00     0.204 A 
ATOM     17  C   UNL A   1      32.297  25.922  21.199  1.00  0.00     0.195 A 
ATOM     18  O   UNL A   1      33.643  25.912  21.355  1.00  0.00    -0.472 OA
ENDBRANCH  12  14
ENDBRANCH   8  12
ENDBRANCH   7   8
ENDBRANCH   5   7
ENDBRANCH   3   5
ENDBRANCH   2   3
ENDBRANCH   1   2
BRANCH   1  19
ATOM     19  C   UNL A   1      31.446  30.402  25.776  1.00  0.00     0.275 C 
BRANCH  19  20
ATOM     20  O   UNL A   1      32.789  30.362  26.286  1.00  0.00    -0.458 OA
BRANCH  20  21
ATOM     21  C   UNL A   1      33.170  31.471  26.965  1.00  0.00     0.338 C 
ATOM     22  O   UNL A   1      32.517  32.484  27.141  1.00  0.00    -0.246 OA
BRANCH  21  23
ATOM     23  C   UNL A   1      34.474  31.234  27.604  1.00  0.00     0.060 A 
ATOM     24  C   UNL A   1      34.765  29.937  28.031  1.00  0.00     0.016 A 
ATOM     25  C   UNL A   1      35.368  32.276  27.841  1.00  0.00     0.016 A 
ATOM     26  C   UNL A   1      35.950  29.669  28.710  1.00  0.00     0.010 A 
ATOM     27  C   UNL A   1      36.566  32.005  28.507  1.00  0.00     0.010 A 
ATOM     28  C   UNL A   1      36.863  30.703  28.948  1.00  0.00    -0.014 A 
BRANCH  28  29
ATOM     29  C   UNL A   1      38.135  30.428  29.659  1.00  0.00     0.031 A 
ATOM     30  C   UNL A   1      39.144  29.498  29.055  1.00  0.00     0.074 A 
ATOM     31  C   UNL A   1      38.367  31.004  30.852  1.00  0.00     0.049 A 
ATOM     32  N   UNL A   1      40.234  29.004  29.580  1.00  0.00    -0.248 NA
ATOM     33  C   UNL A   1      38.885  29.067  27.674  1.00  0.00     0.031 C 
ATOM     34  C   UNL A   1      37.489  31.978  31.503  1.00  0.00     0.029 A 
ATOM     35  N   UNL A   1      39.403  30.843  31.737  1.00  0.00    -0.354 N 
ATOM     36  C   UNL A   1      40.792  28.190  28.600  1.00  0.00     0.074 A 
ATOM     37  C   UNL A   1      39.898  28.239  27.459  1.00  0.00     0.031 C 
ATOM     38  C   UNL A   1      38.020  32.320  32.689  1.00  0.00     0.029 A 
ATOM     39  C   UNL A   1      39.234  31.540  32.910  1.00  0.00     0.049 A 
ATOM     40  H   UNL A   1      40.191  30.282  31.550  1.00  0.00     0.167 HD
ATOM     41  C   UNL A   1      41.943  27.473  28.653  1.00  0.00     0.034 A 
ATOM     42  C   UNL A   1      39.947  31.512  34.052  1.00  0.00     0.034 A 
ATOM     43  C   UNL A   1      42.806  27.429  29.809  1.00  0.00     0.049 A 
ATOM     44  C   UNL A   1      41.140  30.595  34.142  1.00  0.00     0.074 A 
ATOM     45  C   UNL A   1      44.001  26.749  29.971  1.00  0.00     0.029 A 
ATOM     46  N   UNL A   1      42.557  28.080  31.011  1.00  0.00    -0.354 N 
ATOM     47  N   UNL A   1      41.646  29.807  33.222  1.00  0.00    -0.248 NA
ATOM     48  C   UNL A   1      41.845  30.551  35.429  1.00  0.00     0.031 C 
ATOM     49  C   UNL A   1      44.434  26.929  31.291  1.00  0.00     0.029 A 
ATOM     50  C   UNL A   1      43.549  27.781  31.933  1.00  0.00     0.049 A 
ATOM     51  H   UNL A   1      41.787  28.669  31.184  1.00  0.00     0.167 HD
ATOM     52  C   UNL A   1      42.742  29.187  33.815  1.00  0.00     0.074 A 
ATOM     53  C   UNL A   1      42.828  29.700  35.167  1.00  0.00     0.031 C 
ATOM     54  C   UNL A   1      43.603  28.279  33.288  1.00  0.00     0.034 A 
BRANCH  41  55
ATOM     55  C   UNL A   1      42.287  26.636  27.445  1.00  0.00     0.023 A 
ATOM     56  C   UNL A   1      41.897  25.288  27.342  1.00  0.00     0.031 A 
ATOM     57  C   UNL A   1      43.058  27.180  26.402  1.00  0.00     0.131 A 
ATOM     58  C   UNL A   1      42.347  24.510  26.264  1.00  0.00     0.055 A 
ATOM     59  C   UNL A   1      43.435  26.420  25.291  1.00  0.00     0.041 A 
ATOM     60  F   UNL A   1      43.477  28.454  26.454  1.00  0.00    -0.206 F 
ATOM     61  C   UNL A   1      43.094  25.073  25.227  1.00  0.00     0.022 A 
BRANCH  58  62
ATOM     62  S   UNL A   1      42.076  22.718  26.319  1.00  0.00     0.124 S 
ATOM     63  O   UNL A   1      42.823  22.342  27.517  1.00  0.00    -0.237 OA
ATOM     64  O   UNL A   1      40.624  22.621  26.415  1.00  0.00    -0.237 OA
ATOM     65  O   UNL A   1      42.652  22.245  25.062  1.00  0.00    -0.744 OA
ENDBRANCH  58  62
ENDBRANCH  41  55
BRANCH  42  66
ATOM     66  C   UNL A   1      39.515  32.319  35.227  1.00  0.00     0.023 A 
ATOM     67  C   UNL A   1      40.041  33.598  35.458  1.00  0.00     0.031 A 
ATOM     68  C   UNL A   1      38.587  31.808  36.153  1.00  0.00     0.131 A 
ATOM     69  C   UNL A   1      39.658  34.314  36.602  1.00  0.00     0.055 A 
ATOM     70  C   UNL A   1      38.172  32.543  37.265  1.00  0.00     0.041 A 
ATOM     71  F   UNL A   1      38.056  30.587  35.980  1.00  0.00    -0.206 F 
ATOM     72  C   UNL A   1      38.716  33.802  37.499  1.00  0.00     0.022 A 
BRANCH  69  73
ATOM     73  S   UNL A   1      40.456  35.907  36.939  1.00  0.00     0.124 S 
ATOM     74  O   UNL A   1      39.434  36.592  37.722  1.00  0.00    -0.237 OA
ATOM     75  O   UNL A   1      41.654  35.498  37.665  1.00  0.00    -0.237 OA
ATOM     76  O   UNL A   1      40.696  36.457  35.607  1.00  0.00    -0.744 OA
ENDBRANCH  69  73
ENDBRANCH  42  66
BRANCH  54  77
ATOM     77  C   UNL A   1      44.725  27.809  34.178  1.00  0.00     0.023 A 
ATOM     78  C   UNL A   1      44.580  26.688  35.015  1.00  0.00     0.031 A 
ATOM     79  C   UNL A   1      45.953  28.492  34.190  1.00  0.00     0.131 A 
ATOM     80  C   UNL A   1      45.635  26.309  35.860  1.00  0.00     0.055 A 
ATOM     81  C   UNL A   1      47.015  28.079  34.994  1.00  0.00     0.041 A 
ATOM     82  F   UNL A   1      46.142  29.570  33.412  1.00  0.00    -0.206 F 
ATOM     83  C   UNL A   1      46.856  26.987  35.842  1.00  0.00     0.022 A 
BRANCH  80  84
ATOM     84  S   UNL A   1      45.370  24.949  37.032  1.00  0.00     0.124 S 
ATOM     85  O   UNL A   1      46.174  23.883  36.444  1.00  0.00    -0.237 OA
ATOM     86  O   UNL A   1      45.869  25.510  38.283  1.00  0.00    -0.237 OA
ATOM     87  O   UNL A   1      43.924  24.734  36.986  1.00  0.00    -0.744 OA
ENDBRANCH  80  84
ENDBRANCH  54  77
ENDBRANCH  28  29
ENDBRANCH  21  23
ENDBRANCH  20  21
ENDBRANCH  19  20
ENDBRANCH   1  19
TORSDOF 19
ENDMDL
