MODEL 1
REMARK VINA RESULT:     -13.7      0.000      0.000
REMARK SMILES Cc1ccc2[nH]cc([C@@H](C(=O)OCCOC(=O)c3ccc(-c4c5nc(c(-c6cc(S(=O)(=O)[O-])ccc6F)c6ccc([nH]6)c(-c6cc(S(=O)(=O)[O-])ccc6F)c6nc(c(-c7cc(S(=O)(=O)[O-])ccc7F)c7ccc4[nH]7)C=C6)C=C5)cc3)[NH+]3CCN(c4ccc(F)cc4)CC3)c2c1
REMARK SMILES IDX 14 1 13 2 12 3 10 4 11 5 9 6 8 7 1 8 2 9 3 10 95 11 4 12
REMARK SMILES IDX 94 13 5 14 6 15 7 16 81 18 82 19 93 20 83 22 92 23 84 24
REMARK SMILES IDX 85 25 86 26 91 27 87 28 90 29 88 30 89 31 15 32 16 33 17 34
REMARK SMILES IDX 18 35 19 36 80 37 20 38 79 39 21 40 22 41 23 42 73 43 24 44
REMARK SMILES IDX 78 45 72 46 74 47 25 48 77 49 71 50 70 51 26 53 58 54 38 55
REMARK SMILES IDX 57 56 39 57 42 58 56 59 75 60 40 61 41 62 55 64 76 65 43 66
REMARK SMILES IDX 27 67 28 68 36 69 29 70 35 71 37 72 34 73 30 74 31 75 32 76
REMARK SMILES IDX 33 77 59 78 60 79 68 80 61 81 67 82 69 83 66 84 62 85 63 86
REMARK SMILES IDX 64 87 65 88 44 89 45 90 53 91 46 92 52 93 54 94 51 95 47 96
REMARK SMILES IDX 48 97 49 98 50 99
REMARK H PARENT 6 17 81 21 74 52 42 63
REMARK Flexibility Score: inf
ROOT
ATOM      1  C   UNL A   1      31.840  29.845  26.460  1.00  0.00     0.275 C 
ENDROOT
BRANCH   1   2
ATOM      2  C   UNL A   1      31.790  28.607  27.352  1.00  0.00     0.274 C 
BRANCH   2   3
ATOM      3  O   UNL A   1      32.308  27.460  26.650  1.00  0.00    -0.457 OA
BRANCH   3   4
ATOM      4  C   UNL A   1      31.397  26.691  25.983  1.00  0.00     0.370 C 
ATOM      5  O   UNL A   1      30.394  26.227  26.520  1.00  0.00    -0.245 OA
BRANCH   4   6
ATOM      6  C   UNL A   1      31.801  26.383  24.521  1.00  0.00     0.328 C 
BRANCH   6   7
ATOM      7  C   UNL A   1      31.639  27.507  23.531  1.00  0.00     0.046 A 
ATOM      8  C   UNL A   1      26.597  28.348  23.358  1.00  0.00     0.044 C 
ATOM      9  C   UNL A   1      28.022  28.688  23.042  1.00  0.00    -0.050 A 
ATOM     10  C   UNL A   1      28.349  29.808  22.273  1.00  0.00     0.005 A 
ATOM     11  C   UNL A   1      29.045  27.854  23.517  1.00  0.00     0.014 A 
ATOM     12  C   UNL A   1      29.674  30.096  21.927  1.00  0.00     0.027 A 
ATOM     13  C   UNL A   1      30.389  28.121  23.183  1.00  0.00     0.009 A 
ATOM     14  C   UNL A   1      30.668  29.218  22.373  1.00  0.00     0.046 A 
ATOM     15  N   UNL A   1      32.024  29.226  22.156  1.00  0.00    -0.361 N 
ATOM     16  C   UNL A   1      32.608  28.162  22.789  1.00  0.00     0.094 A 
ATOM     17  H   UNL A   1      32.506  29.898  21.624  1.00  0.00     0.166 HD
ENDBRANCH   6   7
BRANCH   6  18
ATOM     18  N   UNL A   1      31.193  25.123  24.049  1.00  0.00    -0.316 N 
ATOM     19  C   UNL A   1      31.775  24.479  22.866  1.00  0.00     0.284 C 
ATOM     20  C   UNL A   1      30.834  24.133  25.078  1.00  0.00     0.284 C 
ATOM     21  H   UNL A   1      30.314  25.522  23.719  1.00  0.00     0.349 HD
ATOM     22  C   UNL A   1      32.767  23.317  23.065  1.00  0.00     0.178 C 
ATOM     23  C   UNL A   1      31.849  22.991  25.341  1.00  0.00     0.178 C 
ATOM     24  N   UNL A   1      32.283  22.383  24.078  1.00  0.00    -0.360 N 
BRANCH  24  25
ATOM     25  C   UNL A   1      32.930  21.154  24.159  1.00  0.00     0.037 A 
ATOM     26  C   UNL A   1      32.352  19.968  23.676  1.00  0.00     0.029 A 
ATOM     27  C   UNL A   1      34.185  21.078  24.779  1.00  0.00     0.029 A 
ATOM     28  C   UNL A   1      33.004  18.742  23.820  1.00  0.00     0.041 A 
ATOM     29  C   UNL A   1      34.838  19.852  24.931  1.00  0.00     0.041 A 
ATOM     30  C   UNL A   1      34.244  18.696  24.444  1.00  0.00     0.123 A 
ATOM     31  F   UNL A   1      34.884  17.525  24.546  1.00  0.00    -0.207 F 
ENDBRANCH  24  25
ENDBRANCH   6  18
ENDBRANCH   4   6
ENDBRANCH   3   4
ENDBRANCH   2   3
ENDBRANCH   1   2
BRANCH   1  32
ATOM     32  O   UNL A   1      33.204  30.278  26.329  1.00  0.00    -0.458 OA
BRANCH  32  33
ATOM     33  C   UNL A   1      33.622  31.219  27.205  1.00  0.00     0.338 C 
ATOM     34  O   UNL A   1      32.976  32.186  27.591  1.00  0.00    -0.246 OA
BRANCH  33  35
ATOM     35  C   UNL A   1      34.988  30.909  27.687  1.00  0.00     0.060 A 
ATOM     36  C   UNL A   1      35.374  29.600  27.979  1.00  0.00     0.016 A 
ATOM     37  C   UNL A   1      35.865  31.958  27.974  1.00  0.00     0.016 A 
ATOM     38  C   UNL A   1      36.573  29.355  28.654  1.00  0.00     0.010 A 
ATOM     39  C   UNL A   1      37.117  31.692  28.546  1.00  0.00     0.010 A 
ATOM     40  C   UNL A   1      37.478  30.388  28.927  1.00  0.00    -0.014 A 
BRANCH  40  41
ATOM     41  C   UNL A   1      38.786  30.131  29.609  1.00  0.00     0.031 A 
ATOM     42  C   UNL A   1      39.786  29.177  29.001  1.00  0.00     0.074 A 
ATOM     43  C   UNL A   1      39.083  30.717  30.788  1.00  0.00     0.049 A 
ATOM     44  N   UNL A   1      40.784  28.547  29.566  1.00  0.00    -0.248 NA
ATOM     45  C   UNL A   1      39.620  28.876  27.571  1.00  0.00     0.031 C 
ATOM     46  C   UNL A   1      38.268  31.722  31.474  1.00  0.00     0.029 A 
ATOM     47  N   UNL A   1      40.156  30.539  31.631  1.00  0.00    -0.354 N 
ATOM     48  C   UNL A   1      41.318  27.716  28.585  1.00  0.00     0.074 A 
ATOM     49  C   UNL A   1      40.535  27.932  27.386  1.00  0.00     0.031 C 
ATOM     50  C   UNL A   1      38.880  32.093  32.607  1.00  0.00     0.029 A 
ATOM     51  C   UNL A   1      40.059  31.260  32.800  1.00  0.00     0.049 A 
ATOM     52  H   UNL A   1      40.918  29.953  31.419  1.00  0.00     0.167 HD
ATOM     53  C   UNL A   1      42.355  26.845  28.687  1.00  0.00     0.034 A 
ATOM     54  C   UNL A   1      40.777  31.207  33.939  1.00  0.00     0.034 A 
ATOM     55  C   UNL A   1      43.169  26.699  29.874  1.00  0.00     0.049 A 
ATOM     56  C   UNL A   1      41.887  30.201  34.056  1.00  0.00     0.074 A 
ATOM     57  C   UNL A   1      44.252  25.861  30.082  1.00  0.00     0.029 A 
ATOM     58  N   UNL A   1      43.003  27.423  31.047  1.00  0.00    -0.354 N 
ATOM     59  N   UNL A   1      42.298  29.322  33.173  1.00  0.00    -0.248 NA
ATOM     60  C   UNL A   1      42.611  30.164  35.332  1.00  0.00     0.031 C 
ATOM     61  C   UNL A   1      44.706  26.041  31.394  1.00  0.00     0.029 A 
ATOM     62  C   UNL A   1      43.950  27.039  31.986  1.00  0.00     0.049 A 
ATOM     63  H   UNL A   1      42.313  28.110  31.192  1.00  0.00     0.167 HD
ATOM     64  C   UNL A   1      43.336  28.629  33.787  1.00  0.00     0.074 A 
ATOM     65  C   UNL A   1      43.499  29.206  35.107  1.00  0.00     0.031 C 
ATOM     66  C   UNL A   1      44.086  27.607  33.305  1.00  0.00     0.034 A 
BRANCH  53  67
ATOM     67  C   UNL A   1      42.628  25.931  27.516  1.00  0.00     0.023 A 
ATOM     68  C   UNL A   1      42.084  24.638  27.421  1.00  0.00     0.031 A 
ATOM     69  C   UNL A   1      43.457  26.373  26.467  1.00  0.00     0.131 A 
ATOM     70  C   UNL A   1      42.425  23.815  26.333  1.00  0.00     0.055 A 
ATOM     71  C   UNL A   1      43.731  25.577  25.353  1.00  0.00     0.041 A 
ATOM     72  F   UNL A   1      44.022  27.590  26.510  1.00  0.00    -0.206 F 
ATOM     73  C   UNL A   1      43.223  24.284  25.287  1.00  0.00     0.022 A 
BRANCH  70  74
ATOM     74  S   UNL A   1      41.908  22.077  26.362  1.00  0.00     0.124 S 
ATOM     75  O   UNL A   1      42.282  21.686  27.717  1.00  0.00    -0.237 OA
ATOM     76  O   UNL A   1      40.479  22.171  26.088  1.00  0.00    -0.237 OA
ATOM     77  O   UNL A   1      42.707  21.465  25.301  1.00  0.00    -0.744 OA
ENDBRANCH  70  74
ENDBRANCH  53  67
BRANCH  54  78
ATOM     78  C   UNL A   1      40.392  32.059  35.101  1.00  0.00     0.023 A 
ATOM     79  C   UNL A   1      39.395  31.651  35.999  1.00  0.00     0.031 A 
ATOM     80  C   UNL A   1      41.016  33.302  35.322  1.00  0.00     0.131 A 
ATOM     81  C   UNL A   1      39.036  32.490  37.066  1.00  0.00     0.055 A 
ATOM     82  C   UNL A   1      40.694  34.105  36.415  1.00  0.00     0.041 A 
ATOM     83  F   UNL A   1      41.975  33.738  34.489  1.00  0.00    -0.206 F 
ATOM     84  C   UNL A   1      39.691  33.704  37.291  1.00  0.00     0.022 A 
BRANCH  81  85
ATOM     85  S   UNL A   1      37.649  32.000  38.127  1.00  0.00     0.124 S 
ATOM     86  O   UNL A   1      38.219  32.166  39.459  1.00  0.00    -0.237 OA
ATOM     87  O   UNL A   1      36.620  32.961  37.745  1.00  0.00    -0.237 OA
ATOM     88  O   UNL A   1      37.386  30.619  37.728  1.00  0.00    -0.744 OA
ENDBRANCH  81  85
ENDBRANCH  54  78
BRANCH  66  89
ATOM     89  C   UNL A   1      45.174  27.087  34.205  1.00  0.00     0.023 A 
ATOM     90  C   UNL A   1      44.935  26.056  35.130  1.00  0.00     0.031 A 
ATOM     91  C   UNL A   1      46.457  27.658  34.162  1.00  0.00     0.131 A 
ATOM     92  C   UNL A   1      45.953  25.663  36.014  1.00  0.00     0.055 A 
ATOM     93  C   UNL A   1      47.480  27.229  35.009  1.00  0.00     0.041 A 
ATOM     94  F   UNL A   1      46.735  28.648  33.298  1.00  0.00    -0.206 F 
ATOM     95  C   UNL A   1      47.226  26.235  35.950  1.00  0.00     0.022 A 
BRANCH  92  96
ATOM     96  S   UNL A   1      45.566  24.449  37.304  1.00  0.00     0.124 S 
ATOM     97  O   UNL A   1      44.339  24.993  37.877  1.00  0.00    -0.237 OA
ATOM     98  O   UNL A   1      45.421  23.214  36.539  1.00  0.00    -0.237 OA
ATOM     99  O   UNL A   1      46.735  24.498  38.182  1.00  0.00    -0.744 OA
ENDBRANCH  92  96
ENDBRANCH  66  89
ENDBRANCH  40  41
ENDBRANCH  33  35
ENDBRANCH  32  33
ENDBRANCH   1  32
TORSDOF 17
ENDMDL
MODEL 2
REMARK VINA RESULT:     -13.5      5.093     10.172
REMARK SMILES Cc1ccc2[nH]cc([C@@H](C(=O)OCCOC(=O)c3ccc(-c4c5nc(c(-c6cc(S(=O)(=O)[O-])ccc6F)c6ccc([nH]6)c(-c6cc(S(=O)(=O)[O-])ccc6F)c6nc(c(-c7cc(S(=O)(=O)[O-])ccc7F)c7ccc4[nH]7)C=C6)C=C5)cc3)[NH+]3CCN(c4ccc(F)cc4)CC3)c2c1
REMARK SMILES IDX 14 1 13 2 12 3 10 4 11 5 9 6 8 7 1 8 2 9 3 10 95 11 4 12
REMARK SMILES IDX 94 13 5 14 6 15 7 16 81 18 82 19 93 20 83 22 92 23 84 24
REMARK SMILES IDX 85 25 86 26 91 27 87 28 90 29 88 30 89 31 15 32 16 33 17 34
REMARK SMILES IDX 18 35 19 36 80 37 20 38 79 39 21 40 22 41 23 42 73 43 24 44
REMARK SMILES IDX 78 45 72 46 74 47 25 48 77 49 71 50 70 51 26 53 58 54 38 55
REMARK SMILES IDX 57 56 39 57 42 58 56 59 75 60 40 61 41 62 55 64 76 65 43 66
REMARK SMILES IDX 27 67 28 68 36 69 29 70 35 71 37 72 34 73 30 74 31 75 32 76
REMARK SMILES IDX 33 77 59 78 60 79 68 80 61 81 67 82 69 83 66 84 62 85 63 86
REMARK SMILES IDX 64 87 65 88 44 89 45 90 53 91 46 92 52 93 54 94 51 95 47 96
REMARK SMILES IDX 48 97 49 98 50 99
REMARK H PARENT 6 17 81 21 74 52 42 63
REMARK Flexibility Score: inf
ROOT
ATOM      1  C   UNL A   1      36.451  21.626  24.147  1.00  0.00     0.275 C 
ENDROOT
BRANCH   1   2
ATOM      2  C   UNL A   1      36.593  22.956  23.411  1.00  0.00     0.274 C 
BRANCH   2   3
ATOM      3  O   UNL A   1      35.500  23.835  23.744  1.00  0.00    -0.457 OA
BRANCH   3   4
ATOM      4  C   UNL A   1      34.287  23.534  23.191  1.00  0.00     0.370 C 
ATOM      5  O   UNL A   1      34.126  23.364  21.984  1.00  0.00    -0.245 OA
BRANCH   4   6
ATOM      6  C   UNL A   1      33.126  23.527  24.215  1.00  0.00     0.328 C 
BRANCH   6   7
ATOM      7  C   UNL A   1      33.044  22.331  25.126  1.00  0.00     0.046 A 
ATOM      8  C   UNL A   1      32.106  18.398  21.992  1.00  0.00     0.044 C 
ATOM      9  C   UNL A   1      32.457  18.997  23.322  1.00  0.00    -0.050 A 
ATOM     10  C   UNL A   1      32.664  18.196  24.447  1.00  0.00     0.005 A 
ATOM     11  C   UNL A   1      32.563  20.390  23.435  1.00  0.00     0.014 A 
ATOM     12  C   UNL A   1      32.934  18.754  25.702  1.00  0.00     0.027 A 
ATOM     13  C   UNL A   1      32.835  20.980  24.688  1.00  0.00     0.009 A 
ATOM     14  C   UNL A   1      32.986  20.149  25.795  1.00  0.00     0.046 A 
ATOM     15  N   UNL A   1      33.187  20.961  26.885  1.00  0.00    -0.361 N 
ATOM     16  C   UNL A   1      33.153  22.276  26.505  1.00  0.00     0.094 A 
ATOM     17  H   UNL A   1      33.334  20.644  27.804  1.00  0.00     0.166 HD
ENDBRANCH   6   7
BRANCH   6  18
ATOM     18  N   UNL A   1      31.835  23.835  23.566  1.00  0.00    -0.316 N 
ATOM     19  C   UNL A   1      30.691  24.151  24.427  1.00  0.00     0.284 C 
ATOM     20  C   UNL A   1      31.879  24.712  22.385  1.00  0.00     0.284 C 
ATOM     21  H   UNL A   1      31.643  22.896  23.217  1.00  0.00     0.349 HD
ATOM     22  C   UNL A   1      30.327  25.629  24.667  1.00  0.00     0.178 C 
ATOM     23  C   UNL A   1      31.580  26.216  22.613  1.00  0.00     0.178 C 
ATOM     24  N   UNL A   1      30.365  26.386  23.419  1.00  0.00    -0.360 N 
BRANCH  24  25
ATOM     25  C   UNL A   1      29.791  27.654  23.435  1.00  0.00     0.037 A 
ATOM     26  C   UNL A   1      28.465  27.883  23.033  1.00  0.00     0.029 A 
ATOM     27  C   UNL A   1      30.568  28.753  23.826  1.00  0.00     0.029 A 
ATOM     28  C   UNL A   1      27.936  29.175  23.011  1.00  0.00     0.041 A 
ATOM     29  C   UNL A   1      30.044  30.048  23.799  1.00  0.00     0.041 A 
ATOM     30  C   UNL A   1      28.730  30.246  23.398  1.00  0.00     0.123 A 
ATOM     31  F   UNL A   1      28.208  31.478  23.413  1.00  0.00    -0.207 F 
ENDBRANCH  24  25
ENDBRANCH   6  18
ENDBRANCH   4   6
ENDBRANCH   3   4
ENDBRANCH   2   3
ENDBRANCH   1   2
BRANCH   1  32
ATOM     32  O   UNL A   1      36.909  21.783  25.499  1.00  0.00    -0.458 OA
BRANCH  32  33
ATOM     33  C   UNL A   1      38.207  21.485  25.732  1.00  0.00     0.338 C 
ATOM     34  O   UNL A   1      38.778  20.447  25.420  1.00  0.00    -0.246 OA
BRANCH  33  35
ATOM     35  C   UNL A   1      38.889  22.619  26.400  1.00  0.00     0.060 A 
ATOM     36  C   UNL A   1      38.466  23.935  26.206  1.00  0.00     0.016 A 
ATOM     37  C   UNL A   1      40.051  22.378  27.137  1.00  0.00     0.016 A 
ATOM     38  C   UNL A   1      39.258  24.999  26.645  1.00  0.00     0.010 A 
ATOM     39  C   UNL A   1      40.778  23.449  27.674  1.00  0.00     0.010 A 
ATOM     40  C   UNL A   1      40.413  24.780  27.408  1.00  0.00    -0.014 A 
BRANCH  40  41
ATOM     41  C   UNL A   1      41.244  25.913  27.923  1.00  0.00     0.031 A 
ATOM     42  C   UNL A   1      40.620  26.983  28.786  1.00  0.00     0.074 A 
ATOM     43  C   UNL A   1      42.551  26.019  27.602  1.00  0.00     0.049 A 
ATOM     44  N   UNL A   1      41.037  28.198  29.037  1.00  0.00    -0.248 NA
ATOM     45  C   UNL A   1      39.343  26.644  29.432  1.00  0.00     0.031 C 
ATOM     46  C   UNL A   1      43.330  25.036  26.846  1.00  0.00     0.029 A 
ATOM     47  N   UNL A   1      43.459  27.019  27.865  1.00  0.00    -0.354 N 
ATOM     48  C   UNL A   1      40.041  28.797  29.802  1.00  0.00     0.074 A 
ATOM     49  C   UNL A   1      39.002  27.803  29.982  1.00  0.00     0.031 C 
ATOM     50  C   UNL A   1      44.595  25.461  26.734  1.00  0.00     0.029 A 
ATOM     51  C   UNL A   1      44.690  26.805  27.288  1.00  0.00     0.049 A 
ATOM     52  H   UNL A   1      43.248  27.811  28.410  1.00  0.00     0.167 HD
ATOM     53  C   UNL A   1      39.996  30.062  30.292  1.00  0.00     0.034 A 
ATOM     54  C   UNL A   1      45.756  27.617  27.139  1.00  0.00     0.034 A 
ATOM     55  C   UNL A   1      41.077  31.014  30.162  1.00  0.00     0.049 A 
ATOM     56  C   UNL A   1      45.671  29.031  27.640  1.00  0.00     0.074 A 
ATOM     57  C   UNL A   1      41.145  32.315  30.633  1.00  0.00     0.029 A 
ATOM     58  N   UNL A   1      42.288  30.761  29.532  1.00  0.00    -0.354 N 
ATOM     59  N   UNL A   1      44.672  29.633  28.241  1.00  0.00    -0.248 NA
ATOM     60  C   UNL A   1      46.846  29.881  27.417  1.00  0.00     0.031 C 
ATOM     61  C   UNL A   1      42.374  32.863  30.243  1.00  0.00     0.029 A 
ATOM     62  C   UNL A   1      43.100  31.885  29.586  1.00  0.00     0.049 A 
ATOM     63  H   UNL A   1      42.535  29.908  29.107  1.00  0.00     0.167 HD
ATOM     64  C   UNL A   1      45.103  30.935  28.474  1.00  0.00     0.074 A 
ATOM     65  C   UNL A   1      46.458  31.022  27.966  1.00  0.00     0.031 C 
ATOM     66  C   UNL A   1      44.440  31.965  29.056  1.00  0.00     0.034 A 
BRANCH  53  67
ATOM     67  C   UNL A   1      38.716  30.519  30.952  1.00  0.00     0.023 A 
ATOM     68  C   UNL A   1      37.663  31.112  30.233  1.00  0.00     0.031 A 
ATOM     69  C   UNL A   1      38.551  30.355  32.341  1.00  0.00     0.131 A 
ATOM     70  C   UNL A   1      36.523  31.570  30.915  1.00  0.00     0.055 A 
ATOM     71  C   UNL A   1      37.384  30.745  33.000  1.00  0.00     0.041 A 
ATOM     72  F   UNL A   1      39.530  29.814  33.084  1.00  0.00    -0.206 F 
ATOM     73  C   UNL A   1      36.365  31.367  32.289  1.00  0.00     0.022 A 
BRANCH  70  74
ATOM     74  S   UNL A   1      35.295  32.544  30.002  1.00  0.00     0.124 S 
ATOM     75  O   UNL A   1      34.910  31.610  28.949  1.00  0.00    -0.237 OA
ATOM     76  O   UNL A   1      34.289  32.817  31.022  1.00  0.00    -0.237 OA
ATOM     77  O   UNL A   1      36.053  33.709  29.547  1.00  0.00    -0.744 OA
ENDBRANCH  70  74
ENDBRANCH  53  67
BRANCH  54  78
ATOM     78  C   UNL A   1      46.952  27.144  26.383  1.00  0.00     0.023 A 
ATOM     79  C   UNL A   1      48.008  26.490  27.034  1.00  0.00     0.031 A 
ATOM     80  C   UNL A   1      47.056  27.353  24.995  1.00  0.00     0.131 A 
ATOM     81  C   UNL A   1      49.133  26.085  26.299  1.00  0.00     0.055 A 
ATOM     82  C   UNL A   1      48.150  26.899  24.261  1.00  0.00     0.041 A 
ATOM     83  F   UNL A   1      46.072  27.977  24.326  1.00  0.00    -0.206 F 
ATOM     84  C   UNL A   1      49.202  26.268  24.915  1.00  0.00     0.022 A 
BRANCH  81  85
ATOM     85  S   UNL A   1      50.540  25.368  27.189  1.00  0.00     0.124 S 
ATOM     86  O   UNL A   1      50.983  26.495  28.003  1.00  0.00    -0.237 OA
ATOM     87  O   UNL A   1      49.915  24.263  27.909  1.00  0.00    -0.237 OA
ATOM     88  O   UNL A   1      51.454  24.972  26.120  1.00  0.00    -0.744 OA
ENDBRANCH  81  85
ENDBRANCH  54  78
BRANCH  66  89
ATOM     89  C   UNL A   1      45.198  33.257  29.203  1.00  0.00     0.023 A 
ATOM     90  C   UNL A   1      45.078  34.294  28.262  1.00  0.00     0.031 A 
ATOM     91  C   UNL A   1      46.082  33.435  30.282  1.00  0.00     0.131 A 
ATOM     92  C   UNL A   1      45.871  35.444  28.388  1.00  0.00     0.055 A 
ATOM     93  C   UNL A   1      46.831  34.603  30.429  1.00  0.00     0.041 A 
ATOM     94  F   UNL A   1      46.235  32.473  31.205  1.00  0.00    -0.206 F 
ATOM     95  C   UNL A   1      46.737  35.611  29.472  1.00  0.00     0.022 A 
BRANCH  92  96
ATOM     96  S   UNL A   1      45.816  36.691  27.071  1.00  0.00     0.124 S 
ATOM     97  O   UNL A   1      46.533  36.023  25.990  1.00  0.00    -0.237 OA
ATOM     98  O   UNL A   1      44.381  36.870  26.870  1.00  0.00    -0.237 OA
ATOM     99  O   UNL A   1      46.506  37.839  27.657  1.00  0.00    -0.744 OA
ENDBRANCH  92  96
ENDBRANCH  66  89
ENDBRANCH  40  41
ENDBRANCH  33  35
ENDBRANCH  32  33
ENDBRANCH   1  32
TORSDOF 17
ENDMDL
MODEL 3
REMARK VINA RESULT:     -13.4      1.777      2.096
REMARK SMILES Cc1ccc2[nH]cc([C@@H](C(=O)OCCOC(=O)c3ccc(-c4c5nc(c(-c6cc(S(=O)(=O)[O-])ccc6F)c6ccc([nH]6)c(-c6cc(S(=O)(=O)[O-])ccc6F)c6nc(c(-c7cc(S(=O)(=O)[O-])ccc7F)c7ccc4[nH]7)C=C6)C=C5)cc3)[NH+]3CCN(c4ccc(F)cc4)CC3)c2c1
REMARK SMILES IDX 14 1 13 2 12 3 10 4 11 5 9 6 8 7 1 8 2 9 3 10 95 11 4 12
REMARK SMILES IDX 94 13 5 14 6 15 7 16 81 18 82 19 93 20 83 22 92 23 84 24
REMARK SMILES IDX 85 25 86 26 91 27 87 28 90 29 88 30 89 31 15 32 16 33 17 34
REMARK SMILES IDX 18 35 19 36 80 37 20 38 79 39 21 40 22 41 23 42 73 43 24 44
REMARK SMILES IDX 78 45 72 46 74 47 25 48 77 49 71 50 70 51 26 53 58 54 38 55
REMARK SMILES IDX 57 56 39 57 42 58 56 59 75 60 40 61 41 62 55 64 76 65 43 66
REMARK SMILES IDX 27 67 28 68 36 69 29 70 35 71 37 72 34 73 30 74 31 75 32 76
REMARK SMILES IDX 33 77 59 78 60 79 68 80 61 81 67 82 69 83 66 84 62 85 63 86
REMARK SMILES IDX 64 87 65 88 44 89 45 90 53 91 46 92 52 93 54 94 51 95 47 96
REMARK SMILES IDX 48 97 49 98 50 99
REMARK H PARENT 6 17 81 21 74 52 42 63
REMARK Flexibility Score: inf
ROOT
ATOM      1  C   UNL A   1      31.540  29.995  26.399  1.00  0.00     0.275 C 
ENDROOT
BRANCH   1   2
ATOM      2  C   UNL A   1      31.630  28.654  27.123  1.00  0.00     0.274 C 
BRANCH   2   3
ATOM      3  O   UNL A   1      31.414  27.568  26.201  1.00  0.00    -0.457 OA
BRANCH   3   4
ATOM      4  C   UNL A   1      32.528  27.028  25.624  1.00  0.00     0.370 C 
ATOM      5  O   UNL A   1      33.591  26.886  26.225  1.00  0.00    -0.245 OA
BRANCH   4   6
ATOM      6  C   UNL A   1      32.351  26.706  24.120  1.00  0.00     0.328 C 
BRANCH   6   7
ATOM      7  C   UNL A   1      31.888  27.840  23.243  1.00  0.00     0.046 A 
ATOM      8  C   UNL A   1      26.790  27.780  23.658  1.00  0.00     0.044 C 
ATOM      9  C   UNL A   1      28.091  28.386  23.224  1.00  0.00    -0.050 A 
ATOM     10  C   UNL A   1      28.131  29.589  22.514  1.00  0.00     0.005 A 
ATOM     11  C   UNL A   1      29.288  27.720  23.524  1.00  0.00     0.014 A 
ATOM     12  C   UNL A   1      29.339  30.128  22.056  1.00  0.00     0.027 A 
ATOM     13  C   UNL A   1      30.519  28.240  23.075  1.00  0.00     0.009 A 
ATOM     14  C   UNL A   1      30.512  29.416  22.328  1.00  0.00     0.046 A 
ATOM     15  N   UNL A   1      31.813  29.677  21.973  1.00  0.00    -0.361 N 
ATOM     16  C   UNL A   1      32.639  28.698  22.457  1.00  0.00     0.094 A 
ATOM     17  H   UNL A   1      32.109  30.454  21.448  1.00  0.00     0.166 HD
ENDBRANCH   6   7
BRANCH   6  18
ATOM     18  N   UNL A   1      31.556  25.477  23.922  1.00  0.00    -0.316 N 
ATOM     19  C   UNL A   1      31.819  24.673  22.725  1.00  0.00     0.284 C 
ATOM     20  C   UNL A   1      31.344  24.628  25.106  1.00  0.00     0.284 C 
ATOM     21  H   UNL A   1      30.663  25.933  23.736  1.00  0.00     0.349 HD
ATOM     22  C   UNL A   1      32.732  23.437  22.845  1.00  0.00     0.178 C 
ATOM     23  C   UNL A   1      32.294  23.416  25.282  1.00  0.00     0.178 C 
ATOM     24  N   UNL A   1      32.400  22.654  24.032  1.00  0.00    -0.360 N 
BRANCH  24  25
ATOM     25  C   UNL A   1      32.946  21.377  24.115  1.00  0.00     0.037 A 
ATOM     26  C   UNL A   1      32.286  20.244  23.613  1.00  0.00     0.029 A 
ATOM     27  C   UNL A   1      34.179  21.199  24.756  1.00  0.00     0.029 A 
ATOM     28  C   UNL A   1      32.836  18.969  23.760  1.00  0.00     0.041 A 
ATOM     29  C   UNL A   1      34.731  19.925  24.911  1.00  0.00     0.041 A 
ATOM     30  C   UNL A   1      34.057  18.822  24.405  1.00  0.00     0.123 A 
ATOM     31  F   UNL A   1      34.600  17.603  24.510  1.00  0.00    -0.207 F 
ENDBRANCH  24  25
ENDBRANCH   6  18
ENDBRANCH   4   6
ENDBRANCH   3   4
ENDBRANCH   2   3
ENDBRANCH   1   2
BRANCH   1  32
ATOM     32  O   UNL A   1      32.864  30.518  26.208  1.00  0.00    -0.458 OA
BRANCH  32  33
ATOM     33  C   UNL A   1      33.257  31.486  27.066  1.00  0.00     0.338 C 
ATOM     34  O   UNL A   1      32.606  32.470  27.396  1.00  0.00    -0.246 OA
BRANCH  33  35
ATOM     35  C   UNL A   1      34.602  31.183  27.610  1.00  0.00     0.060 A 
ATOM     36  C   UNL A   1      34.966  29.882  27.962  1.00  0.00     0.016 A 
ATOM     37  C   UNL A   1      35.477  32.235  27.892  1.00  0.00     0.016 A 
ATOM     38  C   UNL A   1      36.137  29.652  28.688  1.00  0.00     0.010 A 
ATOM     39  C   UNL A   1      36.704  31.981  28.519  1.00  0.00     0.010 A 
ATOM     40  C   UNL A   1      37.041  30.688  28.958  1.00  0.00    -0.014 A 
BRANCH  40  41
ATOM     41  C   UNL A   1      38.320  30.446  29.696  1.00  0.00     0.031 A 
ATOM     42  C   UNL A   1      39.381  29.549  29.105  1.00  0.00     0.074 A 
ATOM     43  C   UNL A   1      38.537  30.993  30.911  1.00  0.00     0.049 A 
ATOM     44  N   UNL A   1      40.370  28.929  29.696  1.00  0.00    -0.248 NA
ATOM     45  C   UNL A   1      39.297  29.299  27.658  1.00  0.00     0.031 C 
ATOM     46  C   UNL A   1      37.656  31.945  31.592  1.00  0.00     0.029 A 
ATOM     47  N   UNL A   1      39.572  30.817  31.801  1.00  0.00    -0.354 N 
ATOM     48  C   UNL A   1      40.981  28.155  28.714  1.00  0.00     0.074 A 
ATOM     49  C   UNL A   1      40.252  28.393  27.485  1.00  0.00     0.031 C 
ATOM     50  C   UNL A   1      38.197  32.290  32.768  1.00  0.00     0.029 A 
ATOM     51  C   UNL A   1      39.392  31.487  32.989  1.00  0.00     0.049 A 
ATOM     52  H   UNL A   1      40.363  30.264  31.606  1.00  0.00     0.167 HD
ATOM     53  C   UNL A   1      42.039  27.313  28.837  1.00  0.00     0.034 A 
ATOM     54  C   UNL A   1      40.053  31.413  34.161  1.00  0.00     0.034 A 
ATOM     55  C   UNL A   1      42.797  27.147  30.057  1.00  0.00     0.049 A 
ATOM     56  C   UNL A   1      41.189  30.438  34.297  1.00  0.00     0.074 A 
ATOM     57  C   UNL A   1      43.896  26.335  30.289  1.00  0.00     0.029 A 
ATOM     58  N   UNL A   1      42.548  27.818  31.247  1.00  0.00    -0.354 N 
ATOM     59  N   UNL A   1      41.674  29.608  33.404  1.00  0.00    -0.248 NA
ATOM     60  C   UNL A   1      41.848  30.373  35.607  1.00  0.00     0.031 C 
ATOM     61  C   UNL A   1      44.277  26.478  31.629  1.00  0.00     0.029 A 
ATOM     62  C   UNL A   1      43.458  27.427  32.218  1.00  0.00     0.049 A 
ATOM     63  H   UNL A   1      41.828  28.477  31.382  1.00  0.00     0.167 HD
ATOM     64  C   UNL A   1      42.701  28.924  34.044  1.00  0.00     0.074 A 
ATOM     65  C   UNL A   1      42.778  29.454  35.391  1.00  0.00     0.031 C 
ATOM     66  C   UNL A   1      43.509  27.947  33.563  1.00  0.00     0.034 A 
BRANCH  53  67
ATOM     67  C   UNL A   1      42.401  26.455  27.647  1.00  0.00     0.023 A 
ATOM     68  C   UNL A   1      41.949  25.133  27.501  1.00  0.00     0.031 A 
ATOM     69  C   UNL A   1      43.225  26.983  26.633  1.00  0.00     0.131 A 
ATOM     70  C   UNL A   1      42.371  24.368  26.399  1.00  0.00     0.055 A 
ATOM     71  C   UNL A   1      43.579  26.241  25.505  1.00  0.00     0.041 A 
ATOM     72  F   UNL A   1      43.705  28.233  26.727  1.00  0.00    -0.206 F 
ATOM     73  C   UNL A   1      43.161  24.921  25.388  1.00  0.00     0.022 A 
BRANCH  70  74
ATOM     74  S   UNL A   1      41.970  22.599  26.364  1.00  0.00     0.124 S 
ATOM     75  O   UNL A   1      42.649  22.174  25.143  1.00  0.00    -0.237 OA
ATOM     76  O   UNL A   1      42.540  22.124  27.619  1.00  0.00    -0.237 OA
ATOM     77  O   UNL A   1      40.510  22.581  26.295  1.00  0.00    -0.744 OA
ENDBRANCH  70  74
ENDBRANCH  53  67
BRANCH  54  78
ATOM     78  C   UNL A   1      39.582  32.205  35.334  1.00  0.00     0.023 A 
ATOM     79  C   UNL A   1      40.008  33.526  35.534  1.00  0.00     0.031 A 
ATOM     80  C   UNL A   1      38.702  31.642  36.277  1.00  0.00     0.131 A 
ATOM     81  C   UNL A   1      39.569  34.234  36.664  1.00  0.00     0.055 A 
ATOM     82  C   UNL A   1      38.226  32.368  37.368  1.00  0.00     0.041 A 
ATOM     83  F   UNL A   1      38.267  30.379  36.132  1.00  0.00    -0.206 F 
ATOM     84  C   UNL A   1      38.667  33.671  37.571  1.00  0.00     0.022 A 
BRANCH  81  85
ATOM     85  S   UNL A   1      40.246  35.888  36.969  1.00  0.00     0.124 S 
ATOM     86  O   UNL A   1      41.679  35.620  37.017  1.00  0.00    -0.237 OA
ATOM     87  O   UNL A   1      39.771  36.631  35.806  1.00  0.00    -0.237 OA
ATOM     88  O   UNL A   1      39.641  36.275  38.242  1.00  0.00    -0.744 OA
ENDBRANCH  81  85
ENDBRANCH  54  78
BRANCH  66  89
ATOM     89  C   UNL A   1      44.567  27.426  34.498  1.00  0.00     0.023 A 
ATOM     90  C   UNL A   1      45.834  28.027  34.586  1.00  0.00     0.031 A 
ATOM     91  C   UNL A   1      44.314  26.288  35.283  1.00  0.00     0.131 A 
ATOM     92  C   UNL A   1      46.822  27.455  35.402  1.00  0.00     0.055 A 
ATOM     93  C   UNL A   1      45.284  25.752  36.132  1.00  0.00     0.041 A 
ATOM     94  F   UNL A   1      43.121  25.675  35.233  1.00  0.00    -0.206 F 
ATOM     95  C   UNL A   1      46.551  26.330  36.185  1.00  0.00     0.022 A 
BRANCH  92  96
ATOM     96  S   UNL A   1      48.495  28.155  35.368  1.00  0.00     0.124 S 
ATOM     97  O   UNL A   1      48.962  27.764  34.043  1.00  0.00    -0.237 OA
ATOM     98  O   UNL A   1      48.242  29.580  35.562  1.00  0.00    -0.237 OA
ATOM     99  O   UNL A   1      49.167  27.490  36.484  1.00  0.00    -0.744 OA
ENDBRANCH  92  96
ENDBRANCH  66  89
ENDBRANCH  40  41
ENDBRANCH  33  35
ENDBRANCH  32  33
ENDBRANCH   1  32
TORSDOF 17
ENDMDL
