MODEL 1
REMARK VINA RESULT:     -11.8      0.000      0.000
REMARK SMILES C[N@H+](Cc1cc(Cl)ccc1[N+](=O)[O-])[C@H]1COC[C@@H]1C(=O)OCCOC(=O)c1ccc(-c2c3nc(c(-c4cc(S(=O)(=O)[O-])ccc4F)c4ccc([nH]4)c(-c4cc(S(=O)(=O)[O-])ccc4F)c4nc(c(-c5cc(S(=O)(=O)[O-])ccc5F)c5ccc2[nH]5)C=C4)C=C3)cc1
REMARK SMILES IDX 22 1 21 2 19 3 20 4 18 5 14 6 15 7 16 8 17 9 2 10 1 11 3 13
REMARK SMILES IDX 4 14 5 15 10 16 6 17 9 18 7 19 8 20 11 21 12 22 13 23 23 24
REMARK SMILES IDX 24 25 25 26 26 27 27 28 28 29 89 30 29 31 88 32 30 33 31 34
REMARK SMILES IDX 32 35 82 36 33 37 87 38 81 39 83 40 34 41 86 42 80 43 79 44
REMARK SMILES IDX 35 46 67 47 47 48 66 49 48 50 51 51 65 52 84 53 49 54 50 55
REMARK SMILES IDX 64 57 85 58 52 59 36 60 37 61 45 62 38 63 44 64 46 65 43 66
REMARK SMILES IDX 39 67 40 68 41 69 42 70 68 71 69 72 77 73 70 74 76 75 78 76
REMARK SMILES IDX 75 77 71 78 72 79 73 80 74 81 53 82 54 83 62 84 55 85 61 86
REMARK SMILES IDX 63 87 60 88 56 89 57 90 58 91 59 92
REMARK H PARENT 2 12 83 45 51 56
REMARK Flexibility Score: inf
ROOT
ATOM      1  C   UNL A   1      34.758  20.798  25.563  1.00  0.00     0.274 C 
ENDROOT
BRANCH   1   2
ATOM      2  O   UNL A   1      34.635  22.082  26.209  1.00  0.00    -0.462 OA
BRANCH   2   3
ATOM      3  C   UNL A   1      33.464  22.342  26.862  1.00  0.00     0.317 C 
ATOM      4  O   UNL A   1      33.322  22.330  28.076  1.00  0.00    -0.252 OA
BRANCH   3   5
ATOM      5  C   UNL A   1      32.391  22.720  25.857  1.00  0.00     0.185 C 
ATOM      6  C   UNL A   1      32.425  24.210  25.495  1.00  0.00     0.227 C 
ATOM      7  C   UNL A   1      31.552  24.799  26.619  1.00  0.00     0.226 C 
ATOM      8  O   UNL A   1      30.643  23.779  27.067  1.00  0.00    -0.374 OA
ATOM      9  C   UNL A   1      31.024  22.534  26.470  1.00  0.00     0.182 C 
BRANCH   6  10
ATOM     10  N   UNL A   1      31.880  24.643  24.160  1.00  0.00    -0.328 N 
ATOM     11  C   UNL A   1      31.756  23.551  23.194  1.00  0.00     0.333 C 
ATOM     12  H   UNL A   1      30.926  24.973  24.307  1.00  0.00     0.348 HD
BRANCH  10  13
ATOM     13  C   UNL A   1      32.730  25.741  23.627  1.00  0.00     0.306 C 
BRANCH  13  14
ATOM     14  C   UNL A   1      32.553  27.104  24.269  1.00  0.00     0.085 A 
ATOM     15  C   UNL A   1      33.559  27.585  25.127  1.00  0.00     0.037 A 
ATOM     16  C   UNL A   1      31.439  27.944  24.051  1.00  0.00     0.278 A 
ATOM     17  C   UNL A   1      33.449  28.846  25.726  1.00  0.00     0.042 A 
ATOM     18  C   UNL A   1      31.316  29.201  24.660  1.00  0.00     0.088 A 
ATOM     19  Cl  UNL A   1      34.704  29.408  26.761  1.00  0.00    -0.084 Cl
ATOM     20  C   UNL A   1      32.334  29.652  25.497  1.00  0.00     0.027 A 
BRANCH  16  21
ATOM     21  N   UNL A   1      30.337  27.526  23.200  1.00  0.00     0.063 N 
ATOM     22  O   UNL A   1      30.310  27.991  22.052  1.00  0.00    -0.258 OA
ATOM     23  O   UNL A   1      29.489  26.779  23.696  1.00  0.00    -0.258 OA
ENDBRANCH  16  21
ENDBRANCH  13  14
ENDBRANCH  10  13
ENDBRANCH   6  10
ENDBRANCH   3   5
ENDBRANCH   2   3
ENDBRANCH   1   2
BRANCH   1  24
ATOM     24  C   UNL A   1      36.171  20.617  25.005  1.00  0.00     0.275 C 
BRANCH  24  25
ATOM     25  O   UNL A   1      37.030  21.668  25.487  1.00  0.00    -0.458 OA
BRANCH  25  26
ATOM     26  C   UNL A   1      38.305  21.312  25.754  1.00  0.00     0.338 C 
ATOM     27  O   UNL A   1      38.873  20.280  25.424  1.00  0.00    -0.246 OA
BRANCH  26  28
ATOM     28  C   UNL A   1      38.988  22.442  26.397  1.00  0.00     0.060 A 
ATOM     29  C   UNL A   1      38.505  23.717  26.126  1.00  0.00     0.016 A 
ATOM     30  C   UNL A   1      40.138  22.275  27.165  1.00  0.00     0.016 A 
ATOM     31  C   UNL A   1      39.199  24.837  26.572  1.00  0.00     0.010 A 
ATOM     32  C   UNL A   1      40.808  23.409  27.656  1.00  0.00     0.010 A 
ATOM     33  C   UNL A   1      40.366  24.707  27.334  1.00  0.00    -0.014 A 
BRANCH  33  34
ATOM     34  C   UNL A   1      41.149  25.928  27.696  1.00  0.00     0.031 A 
ATOM     35  C   UNL A   1      40.530  26.992  28.570  1.00  0.00     0.074 A 
ATOM     36  C   UNL A   1      42.438  26.062  27.317  1.00  0.00     0.049 A 
ATOM     37  N   UNL A   1      40.980  28.186  28.872  1.00  0.00    -0.248 NA
ATOM     38  C   UNL A   1      39.231  26.673  29.180  1.00  0.00     0.031 C 
ATOM     39  C   UNL A   1      43.200  25.080  26.544  1.00  0.00     0.029 A 
ATOM     40  N   UNL A   1      43.342  27.074  27.542  1.00  0.00    -0.354 N 
ATOM     41  C   UNL A   1      40.001  28.774  29.667  1.00  0.00     0.074 A 
ATOM     42  C   UNL A   1      38.930  27.806  29.795  1.00  0.00     0.031 C 
ATOM     43  C   UNL A   1      44.460  25.518  26.393  1.00  0.00     0.029 A 
ATOM     44  C   UNL A   1      44.573  26.856  26.965  1.00  0.00     0.049 A 
ATOM     45  H   UNL A   1      43.129  27.879  28.068  1.00  0.00     0.167 HD
ATOM     46  C   UNL A   1      39.993  30.004  30.238  1.00  0.00     0.034 A 
ATOM     47  C   UNL A   1      45.653  27.656  26.851  1.00  0.00     0.034 A 
ATOM     48  C   UNL A   1      41.079  30.951  30.135  1.00  0.00     0.049 A 
ATOM     49  C   UNL A   1      45.594  29.048  27.425  1.00  0.00     0.074 A 
ATOM     50  C   UNL A   1      41.160  32.234  30.650  1.00  0.00     0.029 A 
ATOM     51  N   UNL A   1      42.281  30.713  29.479  1.00  0.00    -0.354 N 
ATOM     52  N   UNL A   1      44.619  29.630  28.083  1.00  0.00    -0.248 NA
ATOM     53  C   UNL A   1      46.776  29.898  27.222  1.00  0.00     0.031 C 
ATOM     54  C   UNL A   1      42.384  32.790  30.263  1.00  0.00     0.029 A 
ATOM     55  C   UNL A   1      43.098  31.831  29.562  1.00  0.00     0.049 A 
ATOM     56  H   UNL A   1      42.518  29.875  29.023  1.00  0.00     0.167 HD
ATOM     57  C   UNL A   1      45.071  30.914  28.374  1.00  0.00     0.074 A 
ATOM     58  C   UNL A   1      46.417  31.010  27.847  1.00  0.00     0.031 C 
ATOM     59  C   UNL A   1      44.430  31.924  29.013  1.00  0.00     0.034 A 
BRANCH  46  60
ATOM     60  C   UNL A   1      38.739  30.423  30.966  1.00  0.00     0.023 A 
ATOM     61  C   UNL A   1      37.691  31.101  30.319  1.00  0.00     0.031 A 
ATOM     62  C   UNL A   1      38.606  30.163  32.342  1.00  0.00     0.131 A 
ATOM     63  C   UNL A   1      36.587  31.550  31.061  1.00  0.00     0.055 A 
ATOM     64  C   UNL A   1      37.473  30.550  33.060  1.00  0.00     0.041 A 
ATOM     65  F   UNL A   1      39.584  29.537  33.015  1.00  0.00    -0.206 F 
ATOM     66  C   UNL A   1      36.461  31.260  32.422  1.00  0.00     0.022 A 
BRANCH  63  67
ATOM     67  S   UNL A   1      35.375  32.626  30.248  1.00  0.00     0.124 S 
ATOM     68  O   UNL A   1      36.175  33.816  29.971  1.00  0.00    -0.237 OA
ATOM     69  O   UNL A   1      34.981  31.839  29.086  1.00  0.00    -0.237 OA
ATOM     70  O   UNL A   1      34.337  32.803  31.263  1.00  0.00    -0.744 OA
ENDBRANCH  63  67
ENDBRANCH  46  60
BRANCH  47  71
ATOM     71  C   UNL A   1      46.846  27.204  26.077  1.00  0.00     0.023 A 
ATOM     72  C   UNL A   1      47.089  27.659  24.772  1.00  0.00     0.031 A 
ATOM     73  C   UNL A   1      47.741  26.265  26.624  1.00  0.00     0.131 A 
ATOM     74  C   UNL A   1      48.180  27.153  24.048  1.00  0.00     0.055 A 
ATOM     75  C   UNL A   1      48.856  25.808  25.921  1.00  0.00     0.041 A 
ATOM     76  F   UNL A   1      47.551  25.788  27.865  1.00  0.00    -0.206 F 
ATOM     77  C   UNL A   1      49.074  26.244  24.619  1.00  0.00     0.022 A 
BRANCH  74  78
ATOM     78  S   UNL A   1      48.373  27.636  22.310  1.00  0.00     0.124 S 
ATOM     79  O   UNL A   1      48.445  26.340  21.646  1.00  0.00    -0.237 OA
ATOM     80  O   UNL A   1      47.159  28.411  22.074  1.00  0.00    -0.237 OA
ATOM     81  O   UNL A   1      49.614  28.409  22.307  1.00  0.00    -0.744 OA
ENDBRANCH  74  78
ENDBRANCH  47  71
BRANCH  59  82
ATOM     82  C   UNL A   1      45.197  33.209  29.199  1.00  0.00     0.023 A 
ATOM     83  C   UNL A   1      45.104  34.261  28.272  1.00  0.00     0.031 A 
ATOM     84  C   UNL A   1      46.047  33.372  30.306  1.00  0.00     0.131 A 
ATOM     85  C   UNL A   1      45.889  35.413  28.442  1.00  0.00     0.055 A 
ATOM     86  C   UNL A   1      46.787  34.540  30.498  1.00  0.00     0.041 A 
ATOM     87  F   UNL A   1      46.174  32.396  31.219  1.00  0.00    -0.206 F 
ATOM     88  C   UNL A   1      46.719  35.563  29.557  1.00  0.00     0.022 A 
BRANCH  85  89
ATOM     89  S   UNL A   1      45.872  36.681  27.145  1.00  0.00     0.124 S 
ATOM     90  O   UNL A   1      46.525  35.992  26.037  1.00  0.00    -0.237 OA
ATOM     91  O   UNL A   1      44.445  36.942  26.981  1.00  0.00    -0.237 OA
ATOM     92  O   UNL A   1      46.639  37.780  27.730  1.00  0.00    -0.744 OA
ENDBRANCH  85  89
ENDBRANCH  59  82
ENDBRANCH  33  34
ENDBRANCH  26  28
ENDBRANCH  25  26
ENDBRANCH  24  25
ENDBRANCH   1  24
TORSDOF 18
ENDMDL
MODEL 2
REMARK VINA RESULT:     -11.4      1.620      1.966
REMARK SMILES C[N@H+](Cc1cc(Cl)ccc1[N+](=O)[O-])[C@H]1COC[C@@H]1C(=O)OCCOC(=O)c1ccc(-c2c3nc(c(-c4cc(S(=O)(=O)[O-])ccc4F)c4ccc([nH]4)c(-c4cc(S(=O)(=O)[O-])ccc4F)c4nc(c(-c5cc(S(=O)(=O)[O-])ccc5F)c5ccc2[nH]5)C=C4)C=C3)cc1
REMARK SMILES IDX 22 1 21 2 19 3 20 4 18 5 14 6 15 7 16 8 17 9 2 10 1 11 3 13
REMARK SMILES IDX 4 14 5 15 10 16 6 17 9 18 7 19 8 20 11 21 12 22 13 23 23 24
REMARK SMILES IDX 24 25 25 26 26 27 27 28 28 29 89 30 29 31 88 32 30 33 31 34
REMARK SMILES IDX 32 35 82 36 33 37 87 38 81 39 83 40 34 41 86 42 80 43 79 44
REMARK SMILES IDX 35 46 67 47 47 48 66 49 48 50 51 51 65 52 84 53 49 54 50 55
REMARK SMILES IDX 64 57 85 58 52 59 36 60 37 61 45 62 38 63 44 64 46 65 43 66
REMARK SMILES IDX 39 67 40 68 41 69 42 70 68 71 69 72 77 73 70 74 76 75 78 76
REMARK SMILES IDX 75 77 71 78 72 79 73 80 74 81 53 82 54 83 62 84 55 85 61 86
REMARK SMILES IDX 63 87 60 88 56 89 57 90 58 91 59 92
REMARK H PARENT 2 12 83 45 51 56
REMARK Flexibility Score: inf
ROOT
ATOM      1  C   UNL A   1      36.699  22.276  23.856  1.00  0.00     0.274 C 
ENDROOT
BRANCH   1   2
ATOM      2  O   UNL A   1      35.269  22.465  23.896  1.00  0.00    -0.462 OA
BRANCH   2   3
ATOM      3  C   UNL A   1      34.804  23.565  24.557  1.00  0.00     0.317 C 
ATOM      4  O   UNL A   1      35.505  24.456  25.014  1.00  0.00    -0.252 OA
BRANCH   3   5
ATOM      5  C   UNL A   1      33.286  23.549  24.571  1.00  0.00     0.185 C 
ATOM      6  C   UNL A   1      32.702  24.346  25.744  1.00  0.00     0.227 C 
ATOM      7  C   UNL A   1      32.703  23.274  26.850  1.00  0.00     0.226 C 
ATOM      8  O   UNL A   1      32.620  21.981  26.227  1.00  0.00    -0.374 OA
ATOM      9  C   UNL A   1      32.790  22.144  24.813  1.00  0.00     0.182 C 
BRANCH   6  10
ATOM     10  N   UNL A   1      31.317  24.922  25.609  1.00  0.00    -0.328 N 
ATOM     11  C   UNL A   1      30.295  24.175  26.341  1.00  0.00     0.333 C 
ATOM     12  H   UNL A   1      31.323  25.848  26.036  1.00  0.00     0.348 HD
BRANCH  10  13
ATOM     13  C   UNL A   1      30.979  25.023  24.163  1.00  0.00     0.306 C 
BRANCH  13  14
ATOM     14  C   UNL A   1      30.709  26.416  23.628  1.00  0.00     0.085 A 
ATOM     15  C   UNL A   1      29.382  26.883  23.589  1.00  0.00     0.037 A 
ATOM     16  C   UNL A   1      31.714  27.298  23.172  1.00  0.00     0.278 A 
ATOM     17  C   UNL A   1      29.088  28.170  23.123  1.00  0.00     0.042 A 
ATOM     18  C   UNL A   1      31.424  28.581  22.690  1.00  0.00     0.088 A 
ATOM     19  Cl  UNL A   1      27.454  28.712  23.100  1.00  0.00    -0.084 Cl
ATOM     20  C   UNL A   1      30.100  29.017  22.672  1.00  0.00     0.027 A 
BRANCH  16  21
ATOM     21  N   UNL A   1      33.112  26.899  23.151  1.00  0.00     0.063 N 
ATOM     22  O   UNL A   1      33.475  26.184  22.208  1.00  0.00    -0.258 OA
ATOM     23  O   UNL A   1      33.819  27.263  24.095  1.00  0.00    -0.258 OA
ENDBRANCH  16  21
ENDBRANCH  13  14
ENDBRANCH  10  13
ENDBRANCH   6  10
ENDBRANCH   3   5
ENDBRANCH   2   3
ENDBRANCH   1   2
BRANCH   1  24
ATOM     24  C   UNL A   1      37.107  21.120  24.771  1.00  0.00     0.275 C 
BRANCH  24  25
ATOM     25  O   UNL A   1      37.662  21.633  25.997  1.00  0.00    -0.458 OA
BRANCH  25  26
ATOM     26  C   UNL A   1      38.999  21.501  26.140  1.00  0.00     0.338 C 
ATOM     27  O   UNL A   1      39.704  20.593  25.724  1.00  0.00    -0.246 OA
BRANCH  26  28
ATOM     28  C   UNL A   1      39.531  22.718  26.767  1.00  0.00     0.060 A 
ATOM     29  C   UNL A   1      39.049  23.937  26.304  1.00  0.00     0.016 A 
ATOM     30  C   UNL A   1      40.553  22.681  27.713  1.00  0.00     0.016 A 
ATOM     31  C   UNL A   1      39.622  25.126  26.739  1.00  0.00     0.010 A 
ATOM     32  C   UNL A   1      41.097  23.887  28.187  1.00  0.00     0.010 A 
ATOM     33  C   UNL A   1      40.661  25.126  27.678  1.00  0.00    -0.014 A 
BRANCH  33  34
ATOM     34  C   UNL A   1      41.332  26.414  28.034  1.00  0.00     0.031 A 
ATOM     35  C   UNL A   1      40.582  27.469  28.810  1.00  0.00     0.074 A 
ATOM     36  C   UNL A   1      42.634  26.622  27.740  1.00  0.00     0.049 A 
ATOM     37  N   UNL A   1      40.928  28.703  29.084  1.00  0.00    -0.248 NA
ATOM     38  C   UNL A   1      39.267  27.086  29.343  1.00  0.00     0.031 C 
ATOM     39  C   UNL A   1      43.515  25.662  27.070  1.00  0.00     0.029 A 
ATOM     40  N   UNL A   1      43.450  27.703  27.978  1.00  0.00    -0.354 N 
ATOM     41  C   UNL A   1      39.857  29.256  29.780  1.00  0.00     0.074 A 
ATOM     42  C   UNL A   1      38.846  28.222  29.880  1.00  0.00     0.031 C 
ATOM     43  C   UNL A   1      44.750  26.180  26.987  1.00  0.00     0.029 A 
ATOM     44  C   UNL A   1      44.731  27.547  27.499  1.00  0.00     0.049 A 
ATOM     45  H   UNL A   1      43.146  28.513  28.448  1.00  0.00     0.167 HD
ATOM     46  C   UNL A   1      39.725  30.506  30.289  1.00  0.00     0.034 A 
ATOM     47  C   UNL A   1      45.761  28.414  27.423  1.00  0.00     0.034 A 
ATOM     48  C   UNL A   1      40.750  31.521  30.215  1.00  0.00     0.049 A 
ATOM     49  C   UNL A   1      45.568  29.823  27.923  1.00  0.00     0.074 A 
ATOM     50  C   UNL A   1      40.707  32.827  30.672  1.00  0.00     0.029 A 
ATOM     51  N   UNL A   1      42.010  31.340  29.658  1.00  0.00    -0.354 N 
ATOM     52  N   UNL A   1      44.510  30.363  28.482  1.00  0.00    -0.248 NA
ATOM     53  C   UNL A   1      46.702  30.744  27.762  1.00  0.00     0.031 C 
ATOM     54  C   UNL A   1      41.917  33.451  30.344  1.00  0.00     0.029 A 
ATOM     55  C   UNL A   1      42.742  32.515  29.743  1.00  0.00     0.049 A 
ATOM     56  H   UNL A   1      42.334  30.501  29.260  1.00  0.00     0.167 HD
ATOM     57  C   UNL A   1      44.854  31.687  28.741  1.00  0.00     0.074 A 
ATOM     58  C   UNL A   1      46.225  31.854  28.305  1.00  0.00     0.031 C 
ATOM     59  C   UNL A   1      44.101  32.677  29.284  1.00  0.00     0.034 A 
BRANCH  46  60
ATOM     60  C   UNL A   1      38.396  30.867  30.905  1.00  0.00     0.023 A 
ATOM     61  C   UNL A   1      37.375  31.491  30.168  1.00  0.00     0.031 A 
ATOM     62  C   UNL A   1      38.161  30.607  32.268  1.00  0.00     0.131 A 
ATOM     63  C   UNL A   1      36.193  31.891  30.812  1.00  0.00     0.055 A 
ATOM     64  C   UNL A   1      36.955  30.941  32.885  1.00  0.00     0.041 A 
ATOM     65  F   UNL A   1      39.107  30.030  33.025  1.00  0.00    -0.206 F 
ATOM     66  C   UNL A   1      35.967  31.600  32.160  1.00  0.00     0.022 A 
BRANCH  63  67
ATOM     67  S   UNL A   1      35.003  32.904  29.893  1.00  0.00     0.124 S 
ATOM     68  O   UNL A   1      34.125  33.372  30.963  1.00  0.00    -0.237 OA
ATOM     69  O   UNL A   1      35.856  33.917  29.281  1.00  0.00    -0.237 OA
ATOM     70  O   UNL A   1      34.391  31.958  28.962  1.00  0.00    -0.744 OA
ENDBRANCH  63  67
ENDBRANCH  46  60
BRANCH  47  71
ATOM     71  C   UNL A   1      47.035  28.014  26.757  1.00  0.00     0.023 A 
ATOM     72  C   UNL A   1      47.173  28.041  25.360  1.00  0.00     0.031 A 
ATOM     73  C   UNL A   1      48.125  27.550  27.517  1.00  0.00     0.131 A 
ATOM     74  C   UNL A   1      48.361  27.584  24.766  1.00  0.00     0.055 A 
ATOM     75  C   UNL A   1      49.324  27.151  26.925  1.00  0.00     0.041 A 
ATOM     76  F   UNL A   1      48.044  27.493  28.856  1.00  0.00    -0.206 F 
ATOM     77  C   UNL A   1      49.442  27.156  25.540  1.00  0.00     0.022 A 
BRANCH  74  78
ATOM     78  S   UNL A   1      48.447  27.479  22.957  1.00  0.00     0.124 S 
ATOM     79  O   UNL A   1      49.741  28.093  22.685  1.00  0.00    -0.237 OA
ATOM     80  O   UNL A   1      48.360  26.039  22.733  1.00  0.00    -0.237 OA
ATOM     81  O   UNL A   1      47.285  28.247  22.516  1.00  0.00    -0.744 OA
ENDBRANCH  74  78
ENDBRANCH  47  71
BRANCH  59  82
ATOM     82  C   UNL A   1      44.765  34.019  29.461  1.00  0.00     0.023 A 
ATOM     83  C   UNL A   1      44.634  35.036  28.499  1.00  0.00     0.031 A 
ATOM     84  C   UNL A   1      45.556  34.274  30.594  1.00  0.00     0.131 A 
ATOM     85  C   UNL A   1      45.326  36.246  28.665  1.00  0.00     0.055 A 
ATOM     86  C   UNL A   1      46.201  35.498  30.779  1.00  0.00     0.041 A 
ATOM     87  F   UNL A   1      45.716  33.335  31.540  1.00  0.00    -0.206 F 
ATOM     88  C   UNL A   1      46.097  36.488  29.805  1.00  0.00     0.022 A 
BRANCH  85  89
ATOM     89  S   UNL A   1      45.269  37.474  27.331  1.00  0.00     0.124 S 
ATOM     90  O   UNL A   1      46.221  36.924  26.371  1.00  0.00    -0.237 OA
ATOM     91  O   UNL A   1      43.867  37.437  26.930  1.00  0.00    -0.237 OA
ATOM     92  O   UNL A   1      45.693  38.711  27.985  1.00  0.00    -0.744 OA
ENDBRANCH  85  89
ENDBRANCH  59  82
ENDBRANCH  33  34
ENDBRANCH  26  28
ENDBRANCH  25  26
ENDBRANCH  24  25
ENDBRANCH   1  24
TORSDOF 18
ENDMDL
MODEL 3
REMARK VINA RESULT:     -11.4      4.774      9.803
REMARK SMILES C[N@H+](Cc1cc(Cl)ccc1[N+](=O)[O-])[C@H]1COC[C@@H]1C(=O)OCCOC(=O)c1ccc(-c2c3nc(c(-c4cc(S(=O)(=O)[O-])ccc4F)c4ccc([nH]4)c(-c4cc(S(=O)(=O)[O-])ccc4F)c4nc(c(-c5cc(S(=O)(=O)[O-])ccc5F)c5ccc2[nH]5)C=C4)C=C3)cc1
REMARK SMILES IDX 22 1 21 2 19 3 20 4 18 5 14 6 15 7 16 8 17 9 2 10 1 11 3 13
REMARK SMILES IDX 4 14 5 15 10 16 6 17 9 18 7 19 8 20 11 21 12 22 13 23 23 24
REMARK SMILES IDX 24 25 25 26 26 27 27 28 28 29 89 30 29 31 88 32 30 33 31 34
REMARK SMILES IDX 32 35 82 36 33 37 87 38 81 39 83 40 34 41 86 42 80 43 79 44
REMARK SMILES IDX 35 46 67 47 47 48 66 49 48 50 51 51 65 52 84 53 49 54 50 55
REMARK SMILES IDX 64 57 85 58 52 59 36 60 37 61 45 62 38 63 44 64 46 65 43 66
REMARK SMILES IDX 39 67 40 68 41 69 42 70 68 71 69 72 77 73 70 74 76 75 78 76
REMARK SMILES IDX 75 77 71 78 72 79 73 80 74 81 53 82 54 83 62 84 55 85 61 86
REMARK SMILES IDX 63 87 60 88 56 89 57 90 58 91 59 92
REMARK H PARENT 2 12 83 45 51 56
REMARK Flexibility Score: inf
ROOT
ATOM      1  C   UNL A   1      31.472  29.248  24.225  1.00  0.00     0.274 C 
ENDROOT
BRANCH   1   2
ATOM      2  O   UNL A   1      31.077  27.863  24.140  1.00  0.00    -0.462 OA
BRANCH   2   3
ATOM      3  C   UNL A   1      30.856  27.354  22.893  1.00  0.00     0.317 C 
ATOM      4  O   UNL A   1      30.235  27.919  22.005  1.00  0.00    -0.252 OA
BRANCH   3   5
ATOM      5  C   UNL A   1      31.560  26.016  22.755  1.00  0.00     0.185 C 
ATOM      6  C   UNL A   1      32.823  25.926  23.620  1.00  0.00     0.227 C 
ATOM      7  C   UNL A   1      33.866  26.549  22.674  1.00  0.00     0.226 C 
ATOM      8  O   UNL A   1      33.423  26.352  21.320  1.00  0.00    -0.374 OA
ATOM      9  C   UNL A   1      32.080  25.851  21.347  1.00  0.00     0.182 C 
BRANCH   6  10
ATOM     10  N   UNL A   1      33.300  24.569  24.065  1.00  0.00    -0.328 N 
ATOM     11  C   UNL A   1      34.390  24.032  23.249  1.00  0.00     0.333 C 
ATOM     12  H   UNL A   1      33.696  24.670  24.999  1.00  0.00     0.348 HD
BRANCH  10  13
ATOM     13  C   UNL A   1      32.140  23.638  24.093  1.00  0.00     0.306 C 
BRANCH  13  14
ATOM     14  C   UNL A   1      32.432  22.206  24.497  1.00  0.00     0.085 A 
ATOM     15  C   UNL A   1      32.254  21.183  23.546  1.00  0.00     0.037 A 
ATOM     16  C   UNL A   1      32.892  21.821  25.776  1.00  0.00     0.278 A 
ATOM     17  C   UNL A   1      32.531  19.849  23.868  1.00  0.00     0.042 A 
ATOM     18  C   UNL A   1      33.156  20.485  26.108  1.00  0.00     0.088 A 
ATOM     19  Cl  UNL A   1      32.312  18.625  22.677  1.00  0.00    -0.084 Cl
ATOM     20  C   UNL A   1      32.978  19.497  25.141  1.00  0.00     0.027 A 
BRANCH  16  21
ATOM     21  N   UNL A   1      33.085  22.801  26.832  1.00  0.00     0.063 N 
ATOM     22  O   UNL A   1      34.179  23.379  26.864  1.00  0.00    -0.258 OA
ATOM     23  O   UNL A   1      32.165  22.949  27.641  1.00  0.00    -0.258 OA
ENDBRANCH  16  21
ENDBRANCH  13  14
ENDBRANCH  10  13
ENDBRANCH   6  10
ENDBRANCH   3   5
ENDBRANCH   2   3
ENDBRANCH   1   2
BRANCH   1  24
ATOM     24  C   UNL A   1      31.674  29.654  25.686  1.00  0.00     0.275 C 
BRANCH  24  25
ATOM     25  O   UNL A   1      33.028  30.100  25.892  1.00  0.00    -0.458 OA
BRANCH  25  26
ATOM     26  C   UNL A   1      33.203  31.033  26.852  1.00  0.00     0.338 C 
ATOM     27  O   UNL A   1      32.371  31.818  27.286  1.00  0.00    -0.246 OA
BRANCH  26  28
ATOM     28  C   UNL A   1      34.544  30.875  27.428  1.00  0.00     0.060 A 
ATOM     29  C   UNL A   1      35.011  29.580  27.613  1.00  0.00     0.016 A 
ATOM     30  C   UNL A   1      35.293  31.962  27.876  1.00  0.00     0.016 A 
ATOM     31  C   UNL A   1      36.200  29.355  28.297  1.00  0.00     0.010 A 
ATOM     32  C   UNL A   1      36.520  31.732  28.523  1.00  0.00     0.010 A 
ATOM     33  C   UNL A   1      36.972  30.422  28.773  1.00  0.00    -0.014 A 
BRANCH  33  34
ATOM     34  C   UNL A   1      38.182  30.141  29.605  1.00  0.00     0.031 A 
ATOM     35  C   UNL A   1      39.283  29.260  29.067  1.00  0.00     0.074 A 
ATOM     36  C   UNL A   1      38.348  30.731  30.809  1.00  0.00     0.049 A 
ATOM     37  N   UNL A   1      40.334  28.774  29.680  1.00  0.00    -0.248 NA
ATOM     38  C   UNL A   1      39.183  28.869  27.653  1.00  0.00     0.031 C 
ATOM     39  C   UNL A   1      37.413  31.675  31.425  1.00  0.00     0.029 A 
ATOM     40  N   UNL A   1      39.368  30.635  31.726  1.00  0.00    -0.354 N 
ATOM     41  C   UNL A   1      40.994  27.986  28.742  1.00  0.00     0.074 A 
ATOM     42  C   UNL A   1      40.220  28.054  27.520  1.00  0.00     0.031 C 
ATOM     43  C   UNL A   1      37.919  32.098  32.594  1.00  0.00     0.029 A 
ATOM     44  C   UNL A   1      39.161  31.381  32.865  1.00  0.00     0.049 A 
ATOM     45  H   UNL A   1      40.172  30.085  31.581  1.00  0.00     0.167 HD
ATOM     46  C   UNL A   1      42.139  27.271  28.884  1.00  0.00     0.034 A 
ATOM     47  C   UNL A   1      39.853  31.443  34.021  1.00  0.00     0.034 A 
ATOM     48  C   UNL A   1      42.924  27.235  30.096  1.00  0.00     0.049 A 
ATOM     49  C   UNL A   1      41.078  30.581  34.187  1.00  0.00     0.074 A 
ATOM     50  C   UNL A   1      44.082  26.520  30.353  1.00  0.00     0.029 A 
ATOM     51  N   UNL A   1      42.638  27.952  31.250  1.00  0.00    -0.354 N 
ATOM     52  N   UNL A   1      41.630  29.758  33.327  1.00  0.00    -0.248 NA
ATOM     53  C   UNL A   1      41.760  30.643  35.487  1.00  0.00     0.031 C 
ATOM     54  C   UNL A   1      44.466  26.763  31.677  1.00  0.00     0.029 A 
ATOM     55  C   UNL A   1      43.586  27.681  32.226  1.00  0.00     0.049 A 
ATOM     56  H   UNL A   1      41.875  28.562  31.360  1.00  0.00     0.167 HD
ATOM     57  C   UNL A   1      42.727  29.205  33.984  1.00  0.00     0.074 A 
ATOM     58  C   UNL A   1      42.774  29.812  35.298  1.00  0.00     0.031 C 
ATOM     59  C   UNL A   1      43.611  28.275  33.542  1.00  0.00     0.034 A 
BRANCH  46  60
ATOM     60  C   UNL A   1      42.568  26.413  27.720  1.00  0.00     0.023 A 
ATOM     61  C   UNL A   1      42.079  25.108  27.532  1.00  0.00     0.031 A 
ATOM     62  C   UNL A   1      43.511  26.902  26.797  1.00  0.00     0.131 A 
ATOM     63  C   UNL A   1      42.581  24.318  26.486  1.00  0.00     0.055 A 
ATOM     64  C   UNL A   1      43.953  26.137  25.717  1.00  0.00     0.041 A 
ATOM     65  F   UNL A   1      44.027  28.133  26.938  1.00  0.00    -0.206 F 
ATOM     66  C   UNL A   1      43.498  24.831  25.564  1.00  0.00     0.022 A 
BRANCH  63  67
ATOM     67  S   UNL A   1      42.111  22.568  26.417  1.00  0.00     0.124 S 
ATOM     68  O   UNL A   1      42.657  22.166  25.123  1.00  0.00    -0.237 OA
ATOM     69  O   UNL A   1      42.779  22.014  27.589  1.00  0.00    -0.237 OA
ATOM     70  O   UNL A   1      40.651  22.601  26.488  1.00  0.00    -0.744 OA
ENDBRANCH  63  67
ENDBRANCH  46  60
BRANCH  47  71
ATOM     71  C   UNL A   1      39.351  32.273  35.155  1.00  0.00     0.023 A 
ATOM     72  C   UNL A   1      39.795  33.589  35.354  1.00  0.00     0.031 A 
ATOM     73  C   UNL A   1      38.446  31.736  36.090  1.00  0.00     0.131 A 
ATOM     74  C   UNL A   1      39.359  34.312  36.476  1.00  0.00     0.055 A 
ATOM     75  C   UNL A   1      37.970  32.478  37.171  1.00  0.00     0.041 A 
ATOM     76  F   UNL A   1      37.995  30.478  35.954  1.00  0.00    -0.206 F 
ATOM     77  C   UNL A   1      38.436  33.772  37.375  1.00  0.00     0.022 A 
BRANCH  74  78
ATOM     78  S   UNL A   1      40.076  35.948  36.793  1.00  0.00     0.124 S 
ATOM     79  O   UNL A   1      39.725  36.668  35.575  1.00  0.00    -0.237 OA
ATOM     80  O   UNL A   1      39.375  36.357  38.005  1.00  0.00    -0.237 OA
ATOM     81  O   UNL A   1      41.500  35.668  36.964  1.00  0.00    -0.744 OA
ENDBRANCH  74  78
ENDBRANCH  47  71
BRANCH  59  82
ATOM     82  C   UNL A   1      44.719  27.886  34.487  1.00  0.00     0.023 A 
ATOM     83  C   UNL A   1      45.944  28.576  34.507  1.00  0.00     0.031 A 
ATOM     84  C   UNL A   1      44.556  26.798  35.361  1.00  0.00     0.131 A 
ATOM     85  C   UNL A   1      46.978  28.138  35.350  1.00  0.00     0.055 A 
ATOM     86  C   UNL A   1      45.569  26.399  36.234  1.00  0.00     0.041 A 
ATOM     87  F   UNL A   1      43.406  26.105  35.380  1.00  0.00    -0.206 F 
ATOM     88  C   UNL A   1      46.792  27.063  36.223  1.00  0.00     0.022 A 
BRANCH  85  89
ATOM     89  S   UNL A   1      48.599  28.945  35.235  1.00  0.00     0.124 S 
ATOM     90  O   UNL A   1      49.507  27.848  35.555  1.00  0.00    -0.237 OA
ATOM     91  O   UNL A   1      48.621  29.407  33.851  1.00  0.00    -0.237 OA
ATOM     92  O   UNL A   1      48.528  30.004  36.240  1.00  0.00    -0.744 OA
ENDBRANCH  85  89
ENDBRANCH  59  82
ENDBRANCH  33  34
ENDBRANCH  26  28
ENDBRANCH  25  26
ENDBRANCH  24  25
ENDBRANCH   1  24
TORSDOF 18
ENDMDL
