MODEL 1
REMARK VINA RESULT:     -12.9      0.000      0.000
REMARK SMILES O=C1C[C@H](c2cn[nH]c2C(=O)OCCOC(=O)c2ccc(-c3c4nc(c(-c5cc(S(=O)(=O)[O-])ccc5F)c5ccc([nH]5)c(-c5cc(S(=O)(=O)[O-])ccc5F)c5nc(c(-c6cc(S(=O)(=O)[O-])ccc6F)c6ccc3[nH]6)C=C5)C=C4)cc2)c2c(-c3cccs3)n[nH]c2N1
REMARK SMILES IDX 14 1 13 2 12 3 10 4 11 5 9 6 5 7 6 8 7 9 8 10 4 12 1 13 2 14
REMARK SMILES IDX 3 15 91 16 90 17 81 19 89 20 82 21 88 22 83 24 84 25 87 26
REMARK SMILES IDX 85 27 86 28 15 29 16 30 17 31 18 32 19 33 80 34 20 35 79 36
REMARK SMILES IDX 21 37 22 38 23 39 73 40 24 41 78 42 72 43 74 44 25 45 77 46
REMARK SMILES IDX 71 47 70 48 26 50 58 51 38 52 57 53 39 54 42 55 56 56 75 57
REMARK SMILES IDX 40 58 41 59 55 61 76 62 43 63 27 64 28 65 36 66 29 67 35 68
REMARK SMILES IDX 37 69 34 70 30 71 31 72 32 73 33 74 59 75 60 76 68 77 61 78
REMARK SMILES IDX 67 79 69 80 66 81 62 82 63 83 64 84 65 85 44 86 45 87 53 88
REMARK SMILES IDX 46 89 52 90 54 91 51 92 47 93 48 94 49 95 50 96
REMARK H PARENT 8 11 91 18 89 23 74 49 42 60
REMARK Flexibility Score: inf
ROOT
ATOM      1  C   UNL A   1      34.711  29.736  27.615  1.00  0.00     0.275 C 
ENDROOT
BRANCH   1   2
ATOM      2  C   UNL A   1      34.247  28.672  26.651  1.00  0.00     0.275 C 
BRANCH   2   3
ATOM      3  O   UNL A   1      32.925  28.271  27.043  1.00  0.00    -0.457 OA
BRANCH   3   4
ATOM      4  C   UNL A   1      31.893  28.553  26.228  1.00  0.00     0.356 C 
ATOM      5  O   UNL A   1      31.616  29.679  25.821  1.00  0.00    -0.244 OA
BRANCH   4   6
ATOM      6  C   UNL A   1      31.156  27.369  25.865  1.00  0.00     0.147 A 
ATOM      7  C   UNL A   1      30.664  26.760  24.705  1.00  0.00     0.013 A 
ATOM      8  C   UNL A   1      30.086  25.550  25.204  1.00  0.00     0.140 A 
ATOM      9  N   UNL A   1      30.163  25.421  26.523  1.00  0.00    -0.183 NA
ATOM     10  N   UNL A   1      30.747  26.561  26.899  1.00  0.00    -0.271 N 
ATOM     11  H   UNL A   1      30.874  26.805  27.845  1.00  0.00     0.190 HD
BRANCH   7  12
ATOM     12  C   UNL A   1      30.662  27.062  23.213  1.00  0.00     0.069 C 
ATOM     13  O   UNL A   1      29.372  30.524  22.644  1.00  0.00    -0.275 OA
ATOM     14  C   UNL A   1      30.132  29.556  22.607  1.00  0.00     0.226 C 
ATOM     15  C   UNL A   1      29.613  28.138  22.832  1.00  0.00     0.114 C 
ATOM     16  N   UNL A   1      31.428  29.720  22.182  1.00  0.00    -0.311 N 
ATOM     17  C   UNL A   1      32.255  28.636  22.118  1.00  0.00     0.132 A 
ATOM     18  H   UNL A   1      31.758  30.612  21.928  1.00  0.00     0.171 HD
ATOM     19  C   UNL A   1      31.957  27.374  22.558  1.00  0.00     0.031 A 
ATOM     20  N   UNL A   1      33.545  28.614  21.692  1.00  0.00    -0.262 N 
ATOM     21  C   UNL A   1      33.148  26.633  22.348  1.00  0.00     0.108 A 
ATOM     22  N   UNL A   1      34.128  27.403  21.840  1.00  0.00    -0.173 NA
ATOM     23  H   UNL A   1      34.007  29.398  21.315  1.00  0.00     0.192 HD
BRANCH  21  24
ATOM     24  C   UNL A   1      33.381  25.244  22.857  1.00  0.00     0.055 A 
ATOM     25  C   UNL A   1      33.076  24.105  22.139  1.00  0.00     0.022 A 
ATOM     26  S   UNL A   1      34.191  24.882  24.311  1.00  0.00    -0.142 S 
ATOM     27  C   UNL A   1      33.609  22.931  22.748  1.00  0.00     0.012 A 
ATOM     28  C   UNL A   1      34.183  23.206  23.969  1.00  0.00     0.065 A 
ENDBRANCH  21  24
ENDBRANCH   7  12
ENDBRANCH   4   6
ENDBRANCH   3   4
ENDBRANCH   2   3
ENDBRANCH   1   2
BRANCH   1  29
ATOM     29  O   UNL A   1      36.126  29.723  27.608  1.00  0.00    -0.458 OA
BRANCH  29  30
ATOM     30  C   UNL A   1      36.763  29.629  28.793  1.00  0.00     0.338 C 
ATOM     31  O   UNL A   1      36.461  30.143  29.852  1.00  0.00    -0.246 OA
BRANCH  30  32
ATOM     32  C   UNL A   1      37.998  28.896  28.524  1.00  0.00     0.060 A 
ATOM     33  C   UNL A   1      38.451  27.968  29.462  1.00  0.00     0.016 A 
ATOM     34  C   UNL A   1      38.795  29.329  27.449  1.00  0.00     0.016 A 
ATOM     35  C   UNL A   1      39.783  27.613  29.416  1.00  0.00     0.010 A 
ATOM     36  C   UNL A   1      40.115  28.998  27.423  1.00  0.00     0.010 A 
ATOM     37  C   UNL A   1      40.605  28.210  28.452  1.00  0.00    -0.014 A 
BRANCH  37  38
ATOM     38  C   UNL A   1      42.003  27.873  28.389  1.00  0.00     0.031 A 
ATOM     39  C   UNL A   1      42.210  26.622  27.636  1.00  0.00     0.074 A 
ATOM     40  C   UNL A   1      42.973  28.704  28.810  1.00  0.00     0.049 A 
ATOM     41  N   UNL A   1      42.415  25.455  28.143  1.00  0.00    -0.248 NA
ATOM     42  C   UNL A   1      41.877  26.598  26.200  1.00  0.00     0.031 C 
ATOM     43  C   UNL A   1      42.861  30.078  29.303  1.00  0.00     0.029 A 
ATOM     44  N   UNL A   1      44.312  28.498  28.799  1.00  0.00    -0.354 N 
ATOM     45  C   UNL A   1      42.543  24.610  27.054  1.00  0.00     0.074 A 
ATOM     46  C   UNL A   1      41.925  25.289  25.950  1.00  0.00     0.031 C 
ATOM     47  C   UNL A   1      44.092  30.644  29.337  1.00  0.00     0.029 A 
ATOM     48  C   UNL A   1      45.086  29.637  28.999  1.00  0.00     0.049 A 
ATOM     49  H   UNL A   1      44.708  27.608  28.661  1.00  0.00     0.167 HD
ATOM     50  C   UNL A   1      43.433  23.582  27.091  1.00  0.00     0.034 A 
ATOM     51  C   UNL A   1      46.438  29.727  28.847  1.00  0.00     0.034 A 
ATOM     52  C   UNL A   1      43.865  23.330  28.451  1.00  0.00     0.049 A 
ATOM     53  C   UNL A   1      46.964  28.338  28.968  1.00  0.00     0.074 A 
ATOM     54  C   UNL A   1      43.208  23.011  29.625  1.00  0.00     0.029 A 
ATOM     55  N   UNL A   1      45.091  23.832  28.837  1.00  0.00    -0.354 N 
ATOM     56  N   UNL A   1      46.889  27.646  30.073  1.00  0.00    -0.248 NA
ATOM     57  C   UNL A   1      47.069  27.540  27.752  1.00  0.00     0.031 C 
ATOM     58  C   UNL A   1      43.854  23.789  30.633  1.00  0.00     0.029 A 
ATOM     59  C   UNL A   1      44.935  24.457  30.051  1.00  0.00     0.049 A 
ATOM     60  H   UNL A   1      45.932  23.754  28.330  1.00  0.00     0.167 HD
ATOM     61  C   UNL A   1      46.488  26.377  29.681  1.00  0.00     0.074 A 
ATOM     62  C   UNL A   1      46.701  26.347  28.233  1.00  0.00     0.031 C 
ATOM     63  C   UNL A   1      45.741  25.581  30.506  1.00  0.00     0.034 A 
BRANCH  50  64
ATOM     64  C   UNL A   1      44.206  23.092  25.893  1.00  0.00     0.023 A 
ATOM     65  C   UNL A   1      44.119  21.721  25.601  1.00  0.00     0.031 A 
ATOM     66  C   UNL A   1      45.215  23.805  25.203  1.00  0.00     0.131 A 
ATOM     67  C   UNL A   1      45.053  21.105  24.753  1.00  0.00     0.055 A 
ATOM     68  C   UNL A   1      46.098  23.202  24.305  1.00  0.00     0.041 A 
ATOM     69  F   UNL A   1      45.479  25.099  25.423  1.00  0.00    -0.206 F 
ATOM     70  C   UNL A   1      46.040  21.837  24.099  1.00  0.00     0.022 A 
BRANCH  67  71
ATOM     71  S   UNL A   1      45.057  19.300  24.659  1.00  0.00     0.124 S 
ATOM     72  O   UNL A   1      46.437  18.992  25.015  1.00  0.00    -0.237 OA
ATOM     73  O   UNL A   1      44.041  18.947  25.647  1.00  0.00    -0.237 OA
ATOM     74  O   UNL A   1      44.694  19.033  23.270  1.00  0.00    -0.744 OA
ENDBRANCH  67  71
ENDBRANCH  50  64
BRANCH  51  75
ATOM     75  C   UNL A   1      47.211  30.848  28.230  1.00  0.00     0.023 A 
ATOM     76  C   UNL A   1      46.628  31.817  27.380  1.00  0.00     0.031 A 
ATOM     77  C   UNL A   1      48.519  31.126  28.691  1.00  0.00     0.131 A 
ATOM     78  C   UNL A   1      47.343  32.993  27.034  1.00  0.00     0.055 A 
ATOM     79  C   UNL A   1      49.216  32.288  28.350  1.00  0.00     0.041 A 
ATOM     80  F   UNL A   1      49.135  30.314  29.564  1.00  0.00    -0.206 F 
ATOM     81  C   UNL A   1      48.626  33.233  27.528  1.00  0.00     0.022 A 
BRANCH  78  82
ATOM     82  S   UNL A   1      46.581  34.284  25.992  1.00  0.00     0.124 S 
ATOM     83  O   UNL A   1      46.177  35.282  26.977  1.00  0.00    -0.237 OA
ATOM     84  O   UNL A   1      47.674  34.657  25.101  1.00  0.00    -0.237 OA
ATOM     85  O   UNL A   1      45.472  33.587  25.337  1.00  0.00    -0.744 OA
ENDBRANCH  78  82
ENDBRANCH  51  75
BRANCH  63  86
ATOM     86  C   UNL A   1      45.598  25.987  31.965  1.00  0.00     0.023 A 
ATOM     87  C   UNL A   1      44.445  26.564  32.552  1.00  0.00     0.031 A 
ATOM     88  C   UNL A   1      46.665  25.664  32.822  1.00  0.00     0.131 A 
ATOM     89  C   UNL A   1      44.404  26.807  33.942  1.00  0.00     0.055 A 
ATOM     90  C   UNL A   1      46.610  25.880  34.198  1.00  0.00     0.041 A 
ATOM     91  F   UNL A   1      47.780  25.095  32.334  1.00  0.00    -0.206 F 
ATOM     92  C   UNL A   1      45.481  26.458  34.763  1.00  0.00     0.022 A 
BRANCH  89  93
ATOM     93  S   UNL A   1      42.959  27.609  34.715  1.00  0.00     0.124 S 
ATOM     94  O   UNL A   1      43.462  28.043  36.012  1.00  0.00    -0.237 OA
ATOM     95  O   UNL A   1      42.641  28.672  33.765  1.00  0.00    -0.237 OA
ATOM     96  O   UNL A   1      41.966  26.534  34.776  1.00  0.00    -0.744 OA
ENDBRANCH  89  93
ENDBRANCH  63  86
ENDBRANCH  37  38
ENDBRANCH  30  32
ENDBRANCH  29  30
ENDBRANCH   1  29
TORSDOF 16
ENDMDL
MODEL 2
REMARK VINA RESULT:     -12.9      1.517      1.848
REMARK SMILES O=C1C[C@H](c2cn[nH]c2C(=O)OCCOC(=O)c2ccc(-c3c4nc(c(-c5cc(S(=O)(=O)[O-])ccc5F)c5ccc([nH]5)c(-c5cc(S(=O)(=O)[O-])ccc5F)c5nc(c(-c6cc(S(=O)(=O)[O-])ccc6F)c6ccc3[nH]6)C=C5)C=C4)cc2)c2c(-c3cccs3)n[nH]c2N1
REMARK SMILES IDX 14 1 13 2 12 3 10 4 11 5 9 6 5 7 6 8 7 9 8 10 4 12 1 13 2 14
REMARK SMILES IDX 3 15 91 16 90 17 81 19 89 20 82 21 88 22 83 24 84 25 87 26
REMARK SMILES IDX 85 27 86 28 15 29 16 30 17 31 18 32 19 33 80 34 20 35 79 36
REMARK SMILES IDX 21 37 22 38 23 39 73 40 24 41 78 42 72 43 74 44 25 45 77 46
REMARK SMILES IDX 71 47 70 48 26 50 58 51 38 52 57 53 39 54 42 55 56 56 75 57
REMARK SMILES IDX 40 58 41 59 55 61 76 62 43 63 27 64 28 65 36 66 29 67 35 68
REMARK SMILES IDX 37 69 34 70 30 71 31 72 32 73 33 74 59 75 60 76 68 77 61 78
REMARK SMILES IDX 67 79 69 80 66 81 62 82 63 83 64 84 65 85 44 86 45 87 53 88
REMARK SMILES IDX 46 89 52 90 54 91 51 92 47 93 48 94 49 95 50 96
REMARK H PARENT 8 11 91 18 89 23 74 49 42 60
REMARK Flexibility Score: inf
ROOT
ATOM      1  C   UNL A   1      34.771  29.447  27.611  1.00  0.00     0.275 C 
ENDROOT
BRANCH   1   2
ATOM      2  C   UNL A   1      34.349  28.475  26.536  1.00  0.00     0.275 C 
BRANCH   2   3
ATOM      3  O   UNL A   1      33.115  27.870  26.951  1.00  0.00    -0.457 OA
BRANCH   3   4
ATOM      4  C   UNL A   1      32.153  27.663  26.035  1.00  0.00     0.356 C 
ATOM      5  O   UNL A   1      31.741  28.518  25.253  1.00  0.00    -0.244 OA
BRANCH   4   6
ATOM      6  C   UNL A   1      31.670  26.305  26.060  1.00  0.00     0.147 A 
ATOM      7  C   UNL A   1      31.037  25.406  25.194  1.00  0.00     0.013 A 
ATOM      8  C   UNL A   1      30.957  24.214  25.981  1.00  0.00     0.140 A 
ATOM      9  N   UNL A   1      31.443  24.345  27.209  1.00  0.00    -0.183 NA
ATOM     10  N   UNL A   1      31.799  25.631  27.251  1.00  0.00    -0.271 N 
ATOM     11  H   UNL A   1      32.128  26.064  28.073  1.00  0.00     0.190 HD
BRANCH   7  12
ATOM     12  C   UNL A   1      30.526  25.425  23.761  1.00  0.00     0.069 C 
ATOM     13  O   UNL A   1      28.948  28.737  23.042  1.00  0.00    -0.275 OA
ATOM     14  C   UNL A   1      29.701  27.769  22.928  1.00  0.00     0.226 C 
ATOM     15  C   UNL A   1      29.358  26.425  23.565  1.00  0.00     0.114 C 
ATOM     16  N   UNL A   1      30.773  27.835  22.073  1.00  0.00    -0.311 N 
ATOM     17  C   UNL A   1      31.586  26.747  21.932  1.00  0.00     0.132 A 
ATOM     18  H   UNL A   1      30.954  28.659  21.566  1.00  0.00     0.171 HD
ATOM     19  C   UNL A   1      31.514  25.593  22.665  1.00  0.00     0.031 A 
ATOM     20  N   UNL A   1      32.662  26.630  21.110  1.00  0.00    -0.262 N 
ATOM     21  C   UNL A   1      32.605  24.810  22.206  1.00  0.00     0.108 A 
ATOM     22  N   UNL A   1      33.321  25.460  21.269  1.00  0.00    -0.173 NA
ATOM     23  H   UNL A   1      32.933  27.324  20.466  1.00  0.00     0.192 HD
BRANCH  21  24
ATOM     24  C   UNL A   1      33.062  23.538  22.848  1.00  0.00     0.055 A 
ATOM     25  C   UNL A   1      34.250  23.412  23.539  1.00  0.00     0.022 A 
ATOM     26  S   UNL A   1      32.114  22.125  22.950  1.00  0.00    -0.142 S 
ATOM     27  C   UNL A   1      34.331  22.176  24.244  1.00  0.00     0.012 A 
ATOM     28  C   UNL A   1      33.263  21.356  23.957  1.00  0.00     0.065 A 
ENDBRANCH  21  24
ENDBRANCH   7  12
ENDBRANCH   4   6
ENDBRANCH   3   4
ENDBRANCH   2   3
ENDBRANCH   1   2
BRANCH   1  29
ATOM     29  O   UNL A   1      36.170  29.626  27.491  1.00  0.00    -0.458 OA
BRANCH  29  30
ATOM     30  C   UNL A   1      36.889  29.756  28.625  1.00  0.00     0.338 C 
ATOM     31  O   UNL A   1      36.666  30.476  29.578  1.00  0.00    -0.246 OA
BRANCH  30  32
ATOM     32  C   UNL A   1      38.099  28.962  28.421  1.00  0.00     0.060 A 
ATOM     33  C   UNL A   1      38.447  28.006  29.376  1.00  0.00     0.016 A 
ATOM     34  C   UNL A   1      38.979  29.359  27.399  1.00  0.00     0.016 A 
ATOM     35  C   UNL A   1      39.759  27.582  29.405  1.00  0.00     0.010 A 
ATOM     36  C   UNL A   1      40.279  28.960  27.447  1.00  0.00     0.010 A 
ATOM     37  C   UNL A   1      40.667  28.142  28.496  1.00  0.00    -0.014 A 
BRANCH  37  38
ATOM     38  C   UNL A   1      42.046  27.732  28.512  1.00  0.00     0.031 A 
ATOM     39  C   UNL A   1      42.253  26.542  27.668  1.00  0.00     0.074 A 
ATOM     40  C   UNL A   1      43.018  28.468  29.081  1.00  0.00     0.049 A 
ATOM     41  N   UNL A   1      42.357  25.325  28.080  1.00  0.00    -0.248 NA
ATOM     42  C   UNL A   1      42.039  26.661  26.213  1.00  0.00     0.031 C 
ATOM     43  C   UNL A   1      42.934  29.798  29.687  1.00  0.00     0.029 A 
ATOM     44  N   UNL A   1      44.342  28.188  29.156  1.00  0.00    -0.354 N 
ATOM     45  C   UNL A   1      42.533  24.571  26.932  1.00  0.00     0.074 A 
ATOM     46  C   UNL A   1      42.043  25.378  25.850  1.00  0.00     0.031 C 
ATOM     47  C   UNL A   1      44.185  30.288  29.868  1.00  0.00     0.029 A 
ATOM     48  C   UNL A   1      45.152  29.259  29.519  1.00  0.00     0.049 A 
ATOM     49  H   UNL A   1      44.703  27.292  28.970  1.00  0.00     0.167 HD
ATOM     50  C   UNL A   1      43.364  23.495  26.945  1.00  0.00     0.034 A 
ATOM     51  C   UNL A   1      46.515  29.286  29.481  1.00  0.00     0.034 A 
ATOM     52  C   UNL A   1      43.670  23.102  28.307  1.00  0.00     0.049 A 
ATOM     53  C   UNL A   1      46.960  27.863  29.517  1.00  0.00     0.074 A 
ATOM     54  C   UNL A   1      42.902  22.721  29.392  1.00  0.00     0.029 A 
ATOM     55  N   UNL A   1      44.883  23.499  28.831  1.00  0.00    -0.354 N 
ATOM     56  N   UNL A   1      46.759  27.084  30.545  1.00  0.00    -0.248 NA
ATOM     57  C   UNL A   1      47.125  27.169  28.245  1.00  0.00     0.031 C 
ATOM     58  C   UNL A   1      43.500  23.371  30.513  1.00  0.00     0.029 A 
ATOM     59  C   UNL A   1      44.657  24.025  30.081  1.00  0.00     0.049 A 
ATOM     60  H   UNL A   1      45.758  23.418  28.387  1.00  0.00     0.167 HD
ATOM     61  C   UNL A   1      46.330  25.878  30.010  1.00  0.00     0.074 A 
ATOM     62  C   UNL A   1      46.660  25.961  28.585  1.00  0.00     0.031 C 
ATOM     63  C   UNL A   1      45.478  25.057  30.697  1.00  0.00     0.034 A 
BRANCH  50  64
ATOM     64  C   UNL A   1      44.209  23.068  25.772  1.00  0.00     0.023 A 
ATOM     65  C   UNL A   1      44.023  21.758  25.302  1.00  0.00     0.031 A 
ATOM     66  C   UNL A   1      45.349  23.744  25.275  1.00  0.00     0.131 A 
ATOM     67  C   UNL A   1      44.977  21.148  24.473  1.00  0.00     0.055 A 
ATOM     68  C   UNL A   1      46.259  23.157  24.393  1.00  0.00     0.041 A 
ATOM     69  F   UNL A   1      45.711  24.967  25.680  1.00  0.00    -0.206 F 
ATOM     70  C   UNL A   1      46.093  21.840  24.012  1.00  0.00     0.022 A 
BRANCH  67  71
ATOM     71  S   UNL A   1      44.818  19.376  24.152  1.00  0.00     0.124 S 
ATOM     72  O   UNL A   1      44.493  19.364  22.731  1.00  0.00    -0.237 OA
ATOM     73  O   UNL A   1      46.145  18.887  24.515  1.00  0.00    -0.237 OA
ATOM     74  O   UNL A   1      43.738  18.967  25.046  1.00  0.00    -0.744 OA
ENDBRANCH  67  71
ENDBRANCH  50  64
BRANCH  51  75
ATOM     75  C   UNL A   1      47.390  30.410  29.032  1.00  0.00     0.023 A 
ATOM     76  C   UNL A   1      47.059  31.269  27.958  1.00  0.00     0.031 A 
ATOM     77  C   UNL A   1      48.476  30.813  29.845  1.00  0.00     0.131 A 
ATOM     78  C   UNL A   1      47.794  32.464  27.742  1.00  0.00     0.055 A 
ATOM     79  C   UNL A   1      49.192  31.994  29.629  1.00  0.00     0.041 A 
ATOM     80  F   UNL A   1      48.824  30.114  30.936  1.00  0.00    -0.206 F 
ATOM     81  C   UNL A   1      48.846  32.830  28.581  1.00  0.00     0.022 A 
BRANCH  78  82
ATOM     82  S   UNL A   1      47.338  33.618  26.401  1.00  0.00     0.124 S 
ATOM     83  O   UNL A   1      46.155  32.983  25.832  1.00  0.00    -0.237 OA
ATOM     84  O   UNL A   1      47.122  34.868  27.120  1.00  0.00    -0.237 OA
ATOM     85  O   UNL A   1      48.515  33.612  25.529  1.00  0.00    -0.744 OA
ENDBRANCH  78  82
ENDBRANCH  51  75
BRANCH  63  86
ATOM     86  C   UNL A   1      45.235  25.343  32.172  1.00  0.00     0.023 A 
ATOM     87  C   UNL A   1      46.060  24.920  33.243  1.00  0.00     0.031 A 
ATOM     88  C   UNL A   1      44.156  26.189  32.485  1.00  0.00     0.131 A 
ATOM     89  C   UNL A   1      45.776  25.335  34.561  1.00  0.00     0.055 A 
ATOM     90  C   UNL A   1      43.895  26.618  33.785  1.00  0.00     0.041 A 
ATOM     91  F   UNL A   1      43.345  26.644  31.515  1.00  0.00    -0.206 F 
ATOM     92  C   UNL A   1      44.701  26.188  34.830  1.00  0.00     0.022 A 
BRANCH  89  93
ATOM     93  S   UNL A   1      46.783  24.753  35.968  1.00  0.00     0.124 S 
ATOM     94  O   UNL A   1      47.383  23.520  35.472  1.00  0.00    -0.237 OA
ATOM     95  O   UNL A   1      47.701  25.868  36.184  1.00  0.00    -0.237 OA
ATOM     96  O   UNL A   1      45.797  24.563  37.035  1.00  0.00    -0.744 OA
ENDBRANCH  89  93
ENDBRANCH  63  86
ENDBRANCH  37  38
ENDBRANCH  30  32
ENDBRANCH  29  30
ENDBRANCH   1  29
TORSDOF 16
ENDMDL
MODEL 3
REMARK VINA RESULT:     -12.8      2.538      7.273
REMARK SMILES O=C1C[C@H](c2cn[nH]c2C(=O)OCCOC(=O)c2ccc(-c3c4nc(c(-c5cc(S(=O)(=O)[O-])ccc5F)c5ccc([nH]5)c(-c5cc(S(=O)(=O)[O-])ccc5F)c5nc(c(-c6cc(S(=O)(=O)[O-])ccc6F)c6ccc3[nH]6)C=C5)C=C4)cc2)c2c(-c3cccs3)n[nH]c2N1
REMARK SMILES IDX 14 1 13 2 12 3 10 4 11 5 9 6 5 7 6 8 7 9 8 10 4 12 1 13 2 14
REMARK SMILES IDX 3 15 91 16 90 17 81 19 89 20 82 21 88 22 83 24 84 25 87 26
REMARK SMILES IDX 85 27 86 28 15 29 16 30 17 31 18 32 19 33 80 34 20 35 79 36
REMARK SMILES IDX 21 37 22 38 23 39 73 40 24 41 78 42 72 43 74 44 25 45 77 46
REMARK SMILES IDX 71 47 70 48 26 50 58 51 38 52 57 53 39 54 42 55 56 56 75 57
REMARK SMILES IDX 40 58 41 59 55 61 76 62 43 63 27 64 28 65 36 66 29 67 35 68
REMARK SMILES IDX 37 69 34 70 30 71 31 72 32 73 33 74 59 75 60 76 68 77 61 78
REMARK SMILES IDX 67 79 69 80 66 81 62 82 63 83 64 84 65 85 44 86 45 87 53 88
REMARK SMILES IDX 46 89 52 90 54 91 51 92 47 93 48 94 49 95 50 96
REMARK H PARENT 8 11 91 18 89 23 74 49 42 60
REMARK Flexibility Score: inf
ROOT
ATOM      1  C   UNL A   1      33.163  30.155  27.093  1.00  0.00     0.275 C 
ENDROOT
BRANCH   1   2
ATOM      2  C   UNL A   1      32.799  28.788  27.619  1.00  0.00     0.275 C 
BRANCH   2   3
ATOM      3  O   UNL A   1      32.059  28.107  26.593  1.00  0.00    -0.457 OA
BRANCH   3   4
ATOM      4  C   UNL A   1      32.642  27.084  25.943  1.00  0.00     0.356 C 
ATOM      5  O   UNL A   1      33.730  27.152  25.375  1.00  0.00    -0.244 OA
BRANCH   4   6
ATOM      6  C   UNL A   1      31.849  25.883  26.009  1.00  0.00     0.147 A 
ATOM      7  C   UNL A   1      31.020  25.132  25.168  1.00  0.00     0.013 A 
ATOM      8  C   UNL A   1      30.655  24.021  25.993  1.00  0.00     0.140 A 
ATOM      9  N   UNL A   1      31.157  24.075  27.221  1.00  0.00    -0.183 NA
ATOM     10  N   UNL A   1      31.811  25.239  27.223  1.00  0.00    -0.271 N 
ATOM     11  H   UNL A   1      32.233  25.609  28.033  1.00  0.00     0.190 HD
BRANCH   7  12
ATOM     12  C   UNL A   1      30.529  25.223  23.730  1.00  0.00     0.069 C 
ATOM     13  O   UNL A   1      29.164  28.645  23.092  1.00  0.00    -0.275 OA
ATOM     14  C   UNL A   1      29.858  27.636  22.958  1.00  0.00     0.226 C 
ATOM     15  C   UNL A   1      29.426  26.297  23.550  1.00  0.00     0.114 C 
ATOM     16  N   UNL A   1      30.944  27.661  22.116  1.00  0.00    -0.311 N 
ATOM     17  C   UNL A   1      31.691  26.530  21.953  1.00  0.00     0.132 A 
ATOM     18  H   UNL A   1      31.181  28.487  21.637  1.00  0.00     0.171 HD
ATOM     19  C   UNL A   1      31.540  25.362  22.651  1.00  0.00     0.031 A 
ATOM     20  N   UNL A   1      32.768  26.371  21.140  1.00  0.00    -0.262 N 
ATOM     21  C   UNL A   1      32.587  24.528  22.181  1.00  0.00     0.108 A 
ATOM     22  N   UNL A   1      33.353  25.159  21.272  1.00  0.00    -0.173 NA
ATOM     23  H   UNL A   1      33.089  27.065  20.520  1.00  0.00     0.192 HD
BRANCH  21  24
ATOM     24  C   UNL A   1      32.957  23.212  22.791  1.00  0.00     0.055 A 
ATOM     25  C   UNL A   1      34.063  23.025  23.596  1.00  0.00     0.022 A 
ATOM     26  S   UNL A   1      31.988  21.813  22.707  1.00  0.00    -0.142 S 
ATOM     27  C   UNL A   1      34.053  21.748  24.230  1.00  0.00     0.012 A 
ATOM     28  C   UNL A   1      33.013  20.965  23.783  1.00  0.00     0.065 A 
ENDBRANCH  21  24
ENDBRANCH   7  12
ENDBRANCH   4   6
ENDBRANCH   3   4
ENDBRANCH   2   3
ENDBRANCH   1   2
BRANCH   1  29
ATOM     29  O   UNL A   1      34.575  30.255  27.121  1.00  0.00    -0.458 OA
BRANCH  29  30
ATOM     30  C   UNL A   1      35.122  31.293  27.786  1.00  0.00     0.338 C 
ATOM     31  O   UNL A   1      34.814  32.467  27.731  1.00  0.00    -0.246 OA
BRANCH  30  32
ATOM     32  C   UNL A   1      36.281  30.748  28.489  1.00  0.00     0.060 A 
ATOM     33  C   UNL A   1      37.296  31.616  28.893  1.00  0.00     0.016 A 
ATOM     34  C   UNL A   1      36.433  29.350  28.514  1.00  0.00     0.016 A 
ATOM     35  C   UNL A   1      38.535  31.072  29.153  1.00  0.00     0.010 A 
ATOM     36  C   UNL A   1      37.665  28.818  28.745  1.00  0.00     0.010 A 
ATOM     37  C   UNL A   1      38.713  29.692  28.981  1.00  0.00    -0.014 A 
BRANCH  37  38
ATOM     38  C   UNL A   1      40.000  29.096  29.228  1.00  0.00     0.031 A 
ATOM     39  C   UNL A   1      40.257  28.978  30.675  1.00  0.00     0.074 A 
ATOM     40  C   UNL A   1      40.756  28.563  28.252  1.00  0.00     0.049 A 
ATOM     41  N   UNL A   1      40.990  29.766  31.385  1.00  0.00    -0.248 NA
ATOM     42  C   UNL A   1      39.402  28.080  31.474  1.00  0.00     0.031 C 
ATOM     43  C   UNL A   1      40.440  28.386  26.834  1.00  0.00     0.029 A 
ATOM     44  N   UNL A   1      41.973  27.977  28.364  1.00  0.00    -0.354 N 
ATOM     45  C   UNL A   1      40.921  29.258  32.671  1.00  0.00     0.074 A 
ATOM     46  C   UNL A   1      39.740  28.443  32.712  1.00  0.00     0.031 C 
ATOM     47  C   UNL A   1      41.348  27.549  26.274  1.00  0.00     0.029 A 
ATOM     48  C   UNL A   1      42.378  27.242  27.254  1.00  0.00     0.049 A 
ATOM     49  H   UNL A   1      42.529  28.067  29.170  1.00  0.00     0.167 HD
ATOM     50  C   UNL A   1      42.017  29.293  33.475  1.00  0.00     0.034 A 
ATOM     51  C   UNL A   1      43.459  26.414  27.189  1.00  0.00     0.034 A 
ATOM     52  C   UNL A   1      43.011  30.205  32.946  1.00  0.00     0.049 A 
ATOM     53  C   UNL A   1      44.384  26.851  28.275  1.00  0.00     0.074 A 
ATOM     54  C   UNL A   1      43.007  31.551  32.626  1.00  0.00     0.029 A 
ATOM     55  N   UNL A   1      44.074  29.662  32.254  1.00  0.00    -0.354 N 
ATOM     56  N   UNL A   1      44.969  28.019  28.278  1.00  0.00    -0.248 NA
ATOM     57  C   UNL A   1      44.230  26.240  29.589  1.00  0.00     0.031 C 
ATOM     58  C   UNL A   1      43.734  31.641  31.401  1.00  0.00     0.029 A 
ATOM     59  C   UNL A   1      44.234  30.374  31.088  1.00  0.00     0.049 A 
ATOM     60  H   UNL A   1      44.622  28.898  32.545  1.00  0.00     0.167 HD
ATOM     61  C   UNL A   1      44.850  28.482  29.581  1.00  0.00     0.074 A 
ATOM     62  C   UNL A   1      44.465  27.305  30.363  1.00  0.00     0.031 C 
ATOM     63  C   UNL A   1      44.774  29.820  29.856  1.00  0.00     0.034 A 
BRANCH  50  64
ATOM     64  C   UNL A   1      42.355  28.226  34.486  1.00  0.00     0.023 A 
ATOM     65  C   UNL A   1      43.185  27.181  34.047  1.00  0.00     0.031 A 
ATOM     66  C   UNL A   1      41.714  28.022  35.730  1.00  0.00     0.131 A 
ATOM     67  C   UNL A   1      43.272  25.980  34.769  1.00  0.00     0.055 A 
ATOM     68  C   UNL A   1      41.860  26.854  36.481  1.00  0.00     0.041 A 
ATOM     69  F   UNL A   1      40.835  28.886  36.252  1.00  0.00    -0.206 F 
ATOM     70  C   UNL A   1      42.618  25.810  35.986  1.00  0.00     0.022 A 
BRANCH  67  71
ATOM     71  S   UNL A   1      44.118  24.582  33.997  1.00  0.00     0.124 S 
ATOM     72  O   UNL A   1      45.208  24.344  34.937  1.00  0.00    -0.237 OA
ATOM     73  O   UNL A   1      43.062  23.574  33.964  1.00  0.00    -0.237 OA
ATOM     74  O   UNL A   1      44.519  25.107  32.695  1.00  0.00    -0.744 OA
ENDBRANCH  67  71
ENDBRANCH  50  64
BRANCH  51  75
ATOM     75  C   UNL A   1      43.543  25.077  26.528  1.00  0.00     0.023 A 
ATOM     76  C   UNL A   1      42.709  23.987  26.873  1.00  0.00     0.031 A 
ATOM     77  C   UNL A   1      44.299  24.935  25.341  1.00  0.00     0.131 A 
ATOM     78  C   UNL A   1      42.655  22.834  26.048  1.00  0.00     0.055 A 
ATOM     79  C   UNL A   1      44.238  23.798  24.530  1.00  0.00     0.041 A 
ATOM     80  F   UNL A   1      45.062  25.938  24.878  1.00  0.00    -0.206 F 
ATOM     81  C   UNL A   1      43.407  22.746  24.875  1.00  0.00     0.022 A 
BRANCH  78  82
ATOM     82  S   UNL A   1      41.536  21.446  26.444  1.00  0.00     0.124 S 
ATOM     83  O   UNL A   1      41.732  21.288  27.880  1.00  0.00    -0.237 OA
ATOM     84  O   UNL A   1      40.238  21.957  26.018  1.00  0.00    -0.237 OA
ATOM     85  O   UNL A   1      42.054  20.345  25.630  1.00  0.00    -0.744 OA
ENDBRANCH  78  82
ENDBRANCH  51  75
BRANCH  63  86
ATOM     86  C   UNL A   1      45.110  30.805  28.745  1.00  0.00     0.023 A 
ATOM     87  C   UNL A   1      46.410  31.257  28.408  1.00  0.00     0.031 A 
ATOM     88  C   UNL A   1      44.049  31.216  27.919  1.00  0.00     0.131 A 
ATOM     89  C   UNL A   1      46.598  32.098  27.290  1.00  0.00     0.055 A 
ATOM     90  C   UNL A   1      44.243  32.025  26.801  1.00  0.00     0.041 A 
ATOM     91  F   UNL A   1      42.794  30.807  28.170  1.00  0.00    -0.206 F 
ATOM     92  C   UNL A   1      45.518  32.474  26.485  1.00  0.00     0.022 A 
BRANCH  89  93
ATOM     93  S   UNL A   1      48.250  32.749  26.871  1.00  0.00     0.124 S 
ATOM     94  O   UNL A   1      47.985  33.674  25.776  1.00  0.00    -0.237 OA
ATOM     95  O   UNL A   1      48.681  33.354  28.129  1.00  0.00    -0.237 OA
ATOM     96  O   UNL A   1      49.000  31.550  26.486  1.00  0.00    -0.744 OA
ENDBRANCH  89  93
ENDBRANCH  63  86
ENDBRANCH  37  38
ENDBRANCH  30  32
ENDBRANCH  29  30
ENDBRANCH   1  29
TORSDOF 16
ENDMDL
