MODEL 1
REMARK VINA RESULT:     -11.8      0.000      0.000
REMARK SMILES COc1ccc(/C=C/c2nc(C(=O)OCCOC(=O)c3ccc(-c4c5nc(c(-c6cc(S(=O)(=O)[O-])ccc6F)c6ccc([nH]6)c(-c6cc(S(=O)(=O)[O-])ccc6F)c6nc(c(-c7cc(S(=O)(=O)[O-])ccc7F)c7ccc4[nH]7)C=C6)C=C5)cc3)ccc2C#N)cc1F
REMARK SMILES IDX 15 1 14 2 12 3 13 4 11 5 9 6 10 7 85 8 84 9 83 10 8 11 7 12
REMARK SMILES IDX 6 13 3 14 4 15 89 16 5 17 88 18 90 19 2 20 1 21 86 22 87 23
REMARK SMILES IDX 16 24 17 25 18 26 19 27 20 28 21 29 82 30 22 31 81 32 23 33
REMARK SMILES IDX 24 34 25 35 75 36 26 37 80 38 74 39 76 40 27 41 79 42 73 43
REMARK SMILES IDX 72 44 28 46 60 47 40 48 59 49 41 50 44 51 58 52 77 53 42 54
REMARK SMILES IDX 43 55 57 57 78 58 45 59 29 60 30 61 38 62 31 63 37 64 39 65
REMARK SMILES IDX 36 66 32 67 33 68 34 69 35 70 61 71 62 72 70 73 63 74 69 75
REMARK SMILES IDX 71 76 68 77 64 78 65 79 66 80 67 81 46 82 47 83 55 84 48 85
REMARK SMILES IDX 54 86 56 87 53 88 49 89 50 90 51 91 52 92
REMARK H PARENT 76 45 44 56
REMARK Flexibility Score: inf
ROOT
ATOM      1  C   UNL A   1      36.783  22.314  23.690  1.00  0.00     0.275 C 
ENDROOT
BRANCH   1   2
ATOM      2  O   UNL A   1      35.830  23.237  24.258  1.00  0.00    -0.457 OA
BRANCH   2   3
ATOM      3  C   UNL A   1      34.672  23.395  23.559  1.00  0.00     0.357 C 
ATOM      4  O   UNL A   1      34.595  23.532  22.348  1.00  0.00    -0.244 OA
BRANCH   3   5
ATOM      5  C   UNL A   1      33.481  23.287  24.467  1.00  0.00     0.149 A 
ATOM      6  C   UNL A   1      31.557  24.359  25.275  1.00  0.00     0.082 A 
ATOM      7  N   UNL A   1      32.687  24.393  24.528  1.00  0.00    -0.240 NA
ATOM      8  C   UNL A   1      31.225  23.249  26.045  1.00  0.00     0.078 A 
ATOM      9  C   UNL A   1      32.071  22.130  25.998  1.00  0.00     0.024 A 
ATOM     10  C   UNL A   1      33.205  22.137  25.185  1.00  0.00     0.037 A 
BRANCH   6  11
ATOM     11  C   UNL A   1      30.695  25.543  25.104  1.00  0.00     0.030 C 
ATOM     12  C   UNL A   1      30.537  26.182  23.934  1.00  0.00     0.010 C 
BRANCH  12  13
ATOM     13  C   UNL A   1      29.731  27.393  23.674  1.00  0.00    -0.022 A 
ATOM     14  C   UNL A   1      28.015  29.594  23.170  1.00  0.00     0.154 A 
ATOM     15  C   UNL A   1      29.402  29.757  23.154  1.00  0.00     0.050 A 
ATOM     16  C   UNL A   1      27.494  28.327  23.412  1.00  0.00     0.165 A 
ATOM     17  C   UNL A   1      30.254  28.669  23.415  1.00  0.00     0.012 A 
ATOM     18  C   UNL A   1      28.335  27.244  23.666  1.00  0.00     0.051 A 
ATOM     19  F   UNL A   1      26.174  28.098  23.369  1.00  0.00    -0.203 F 
BRANCH  14  20
ATOM     20  O   UNL A   1      27.265  30.697  22.864  1.00  0.00    -0.494 OA
ATOM     21  C   UNL A   1      28.043  31.847  22.534  1.00  0.00     0.278 C 
ENDBRANCH  14  20
ENDBRANCH  12  13
ENDBRANCH   6  11
BRANCH   8  22
ATOM     22  C   UNL A   1      30.059  23.208  26.876  1.00  0.00     0.101 C 
ATOM     23  N   UNL A   1      29.154  23.131  27.594  1.00  0.00    -0.192 NA
ENDBRANCH   8  22
ENDBRANCH   3   5
ENDBRANCH   2   3
ENDBRANCH   1   2
BRANCH   1  24
ATOM     24  C   UNL A   1      37.025  21.103  24.599  1.00  0.00     0.275 C 
BRANCH  24  25
ATOM     25  O   UNL A   1      37.497  21.485  25.903  1.00  0.00    -0.458 OA
BRANCH  25  26
ATOM     26  C   UNL A   1      38.822  21.288  26.102  1.00  0.00     0.338 C 
ATOM     27  O   UNL A   1      39.476  20.318  25.756  1.00  0.00    -0.246 OA
BRANCH  26  28
ATOM     28  C   UNL A   1      39.432  22.486  26.695  1.00  0.00     0.060 A 
ATOM     29  C   UNL A   1      39.026  23.718  26.196  1.00  0.00     0.016 A 
ATOM     30  C   UNL A   1      40.477  22.416  27.612  1.00  0.00     0.016 A 
ATOM     31  C   UNL A   1      39.708  24.878  26.524  1.00  0.00     0.010 A 
ATOM     32  C   UNL A   1      41.118  23.599  28.008  1.00  0.00     0.010 A 
ATOM     33  C   UNL A   1      40.757  24.838  27.444  1.00  0.00    -0.014 A 
BRANCH  33  34
ATOM     34  C   UNL A   1      41.470  26.098  27.781  1.00  0.00     0.031 A 
ATOM     35  C   UNL A   1      40.783  27.161  28.594  1.00  0.00     0.074 A 
ATOM     36  C   UNL A   1      42.755  26.261  27.402  1.00  0.00     0.049 A 
ATOM     37  N   UNL A   1      41.200  28.361  28.898  1.00  0.00    -0.248 NA
ATOM     38  C   UNL A   1      39.454  26.832  29.136  1.00  0.00     0.031 C 
ATOM     39  C   UNL A   1      43.554  25.269  26.676  1.00  0.00     0.029 A 
ATOM     40  N   UNL A   1      43.621  27.310  27.583  1.00  0.00    -0.354 N 
ATOM     41  C   UNL A   1      40.176  28.945  29.636  1.00  0.00     0.074 A 
ATOM     42  C   UNL A   1      39.109  27.971  29.721  1.00  0.00     0.031 C 
ATOM     43  C   UNL A   1      44.797  25.742  26.506  1.00  0.00     0.029 A 
ATOM     44  C   UNL A   1      44.860  27.104  27.021  1.00  0.00     0.049 A 
ATOM     45  H   UNL A   1      43.379  28.131  28.069  1.00  0.00     0.167 HD
ATOM     46  C   UNL A   1      40.137  30.180  30.190  1.00  0.00     0.034 A 
ATOM     47  C   UNL A   1      45.918  27.929  26.889  1.00  0.00     0.034 A 
ATOM     48  C   UNL A   1      41.222  31.127  30.113  1.00  0.00     0.049 A 
ATOM     49  C   UNL A   1      45.813  29.329  27.429  1.00  0.00     0.074 A 
ATOM     50  C   UNL A   1      41.284  32.402  30.648  1.00  0.00     0.029 A 
ATOM     51  N   UNL A   1      42.429  30.909  29.463  1.00  0.00    -0.354 N 
ATOM     52  N   UNL A   1      44.813  29.889  28.068  1.00  0.00    -0.248 NA
ATOM     53  C   UNL A   1      46.966  30.212  27.218  1.00  0.00     0.031 C 
ATOM     54  C   UNL A   1      42.494  32.981  30.256  1.00  0.00     0.029 A 
ATOM     55  C   UNL A   1      43.226  32.039  29.553  1.00  0.00     0.049 A 
ATOM     56  H   UNL A   1      42.681  30.074  29.007  1.00  0.00     0.167 HD
ATOM     57  C   UNL A   1      45.227  31.185  28.357  1.00  0.00     0.074 A 
ATOM     58  C   UNL A   1      46.568  31.322  27.825  1.00  0.00     0.031 C 
ATOM     59  C   UNL A   1      44.557  32.166  29.009  1.00  0.00     0.034 A 
BRANCH  46  60
ATOM     60  C   UNL A   1      38.871  30.607  30.887  1.00  0.00     0.023 A 
ATOM     61  C   UNL A   1      37.796  31.185  30.192  1.00  0.00     0.031 A 
ATOM     62  C   UNL A   1      38.724  30.386  32.269  1.00  0.00     0.131 A 
ATOM     63  C   UNL A   1      36.631  31.547  30.887  1.00  0.00     0.055 A 
ATOM     64  C   UNL A   1      37.541  30.690  32.942  1.00  0.00     0.041 A 
ATOM     65  F   UNL A   1      39.729  29.856  32.985  1.00  0.00    -0.206 F 
ATOM     66  C   UNL A   1      36.487  31.280  32.252  1.00  0.00     0.022 A 
BRANCH  63  67
ATOM     67  S   UNL A   1      35.326  32.439  29.998  1.00  0.00     0.124 S 
ATOM     68  O   UNL A   1      36.031  33.646  29.574  1.00  0.00    -0.237 OA
ATOM     69  O   UNL A   1      34.968  31.503  28.938  1.00  0.00    -0.237 OA
ATOM     70  O   UNL A   1      34.299  32.649  31.017  1.00  0.00    -0.744 OA
ENDBRANCH  63  67
ENDBRANCH  46  60
BRANCH  47  71
ATOM     71  C   UNL A   1      47.134  27.466  26.166  1.00  0.00     0.023 A 
ATOM     72  C   UNL A   1      48.223  26.914  26.857  1.00  0.00     0.031 A 
ATOM     73  C   UNL A   1      47.217  27.553  24.763  1.00  0.00     0.131 A 
ATOM     74  C   UNL A   1      49.354  26.483  26.146  1.00  0.00     0.055 A 
ATOM     75  C   UNL A   1      48.324  27.081  24.058  1.00  0.00     0.041 A 
ATOM     76  F   UNL A   1      46.200  28.071  24.055  1.00  0.00    -0.206 F 
ATOM     77  C   UNL A   1      49.404  26.546  24.751  1.00  0.00     0.022 A 
BRANCH  74  78
ATOM     78  S   UNL A   1      50.782  25.863  27.076  1.00  0.00     0.124 S 
ATOM     79  O   UNL A   1      50.398  24.476  27.320  1.00  0.00    -0.237 OA
ATOM     80  O   UNL A   1      51.875  26.068  26.131  1.00  0.00    -0.237 OA
ATOM     81  O   UNL A   1      50.816  26.720  28.259  1.00  0.00    -0.744 OA
ENDBRANCH  74  78
ENDBRANCH  47  71
BRANCH  59  82
ATOM     82  C   UNL A   1      45.272  33.475  29.225  1.00  0.00     0.023 A 
ATOM     83  C   UNL A   1      45.282  34.479  28.243  1.00  0.00     0.031 A 
ATOM     84  C   UNL A   1      45.898  33.740  30.455  1.00  0.00     0.131 A 
ATOM     85  C   UNL A   1      45.926  35.698  28.502  1.00  0.00     0.055 A 
ATOM     86  C   UNL A   1      46.491  34.972  30.727  1.00  0.00     0.041 A 
ATOM     87  F   UNL A   1      45.915  32.812  31.426  1.00  0.00    -0.206 F 
ATOM     88  C   UNL A   1      46.511  35.958  29.744  1.00  0.00     0.022 A 
BRANCH  85  89
ATOM     89  S   UNL A   1      46.020  36.933  27.178  1.00  0.00     0.124 S 
ATOM     90  O   UNL A   1      47.083  37.810  27.658  1.00  0.00    -0.237 OA
ATOM     91  O   UNL A   1      46.343  36.120  26.009  1.00  0.00    -0.237 OA
ATOM     92  O   UNL A   1      44.683  37.526  27.167  1.00  0.00    -0.744 OA
ENDBRANCH  85  89
ENDBRANCH  59  82
ENDBRANCH  33  34
ENDBRANCH  26  28
ENDBRANCH  25  26
ENDBRANCH  24  25
ENDBRANCH   1  24
TORSDOF 18
ENDMDL
MODEL 2
REMARK VINA RESULT:     -11.6      4.996     10.583
REMARK SMILES COc1ccc(/C=C/c2nc(C(=O)OCCOC(=O)c3ccc(-c4c5nc(c(-c6cc(S(=O)(=O)[O-])ccc6F)c6ccc([nH]6)c(-c6cc(S(=O)(=O)[O-])ccc6F)c6nc(c(-c7cc(S(=O)(=O)[O-])ccc7F)c7ccc4[nH]7)C=C6)C=C5)cc3)ccc2C#N)cc1F
REMARK SMILES IDX 15 1 14 2 12 3 13 4 11 5 9 6 10 7 85 8 84 9 83 10 8 11 7 12
REMARK SMILES IDX 6 13 3 14 4 15 89 16 5 17 88 18 90 19 2 20 1 21 86 22 87 23
REMARK SMILES IDX 16 24 17 25 18 26 19 27 20 28 21 29 82 30 22 31 81 32 23 33
REMARK SMILES IDX 24 34 25 35 75 36 26 37 80 38 74 39 76 40 27 41 79 42 73 43
REMARK SMILES IDX 72 44 28 46 60 47 40 48 59 49 41 50 44 51 58 52 77 53 42 54
REMARK SMILES IDX 43 55 57 57 78 58 45 59 29 60 30 61 38 62 31 63 37 64 39 65
REMARK SMILES IDX 36 66 32 67 33 68 34 69 35 70 61 71 62 72 70 73 63 74 69 75
REMARK SMILES IDX 71 76 68 77 64 78 65 79 66 80 67 81 46 82 47 83 55 84 48 85
REMARK SMILES IDX 54 86 56 87 53 88 49 89 50 90 51 91 52 92
REMARK H PARENT 76 45 44 56
REMARK Flexibility Score: inf
ROOT
ATOM      1  C   UNL A   1      31.941  28.947  24.887  1.00  0.00     0.275 C 
ENDROOT
BRANCH   1   2
ATOM      2  O   UNL A   1      30.916  28.111  25.463  1.00  0.00    -0.457 OA
BRANCH   2   3
ATOM      3  C   UNL A   1      31.334  27.237  26.421  1.00  0.00     0.357 C 
ATOM      4  O   UNL A   1      31.409  27.485  27.614  1.00  0.00    -0.244 OA
BRANCH   3   5
ATOM      5  C   UNL A   1      31.606  25.885  25.828  1.00  0.00     0.149 A 
ATOM      6  C   UNL A   1      33.175  24.160  25.576  1.00  0.00     0.082 A 
ATOM      7  N   UNL A   1      32.864  25.400  26.024  1.00  0.00    -0.240 NA
ATOM      8  C   UNL A   1      32.266  23.397  24.851  1.00  0.00     0.078 A 
ATOM      9  C   UNL A   1      30.983  23.924  24.628  1.00  0.00     0.024 A 
ATOM     10  C   UNL A   1      30.638  25.176  25.138  1.00  0.00     0.037 A 
BRANCH   6  11
ATOM     11  C   UNL A   1      34.498  23.682  26.017  1.00  0.00     0.030 C 
ATOM     12  C   UNL A   1      35.628  23.879  25.317  1.00  0.00     0.010 C 
BRANCH  12  13
ATOM     13  C   UNL A   1      36.987  23.406  25.656  1.00  0.00    -0.022 A 
ATOM     14  C   UNL A   1      39.534  22.307  26.246  1.00  0.00     0.154 A 
ATOM     15  C   UNL A   1      39.230  23.624  26.597  1.00  0.00     0.050 A 
ATOM     16  C   UNL A   1      38.554  21.539  25.626  1.00  0.00     0.165 A 
ATOM     17  C   UNL A   1      37.972  24.173  26.295  1.00  0.00     0.012 A 
ATOM     18  C   UNL A   1      37.303  22.078  25.328  1.00  0.00     0.051 A 
ATOM     19  F   UNL A   1      38.765  20.248  25.330  1.00  0.00    -0.203 F 
BRANCH  14  20
ATOM     20  O   UNL A   1      40.766  21.843  26.617  1.00  0.00    -0.494 OA
ATOM     21  C   UNL A   1      40.888  21.590  28.016  1.00  0.00     0.278 C 
ENDBRANCH  14  20
ENDBRANCH  12  13
ENDBRANCH   6  11
BRANCH   8  22
ATOM     22  C   UNL A   1      32.588  22.102  24.330  1.00  0.00     0.101 C 
ATOM     23  N   UNL A   1      32.814  21.026  23.967  1.00  0.00    -0.192 NA
ENDBRANCH   8  22
ENDBRANCH   3   5
ENDBRANCH   2   3
ENDBRANCH   1   2
BRANCH   1  24
ATOM     24  C   UNL A   1      32.256  30.161  25.770  1.00  0.00     0.275 C 
BRANCH  24  25
ATOM     25  O   UNL A   1      33.540  30.051  26.411  1.00  0.00    -0.458 OA
BRANCH  25  26
ATOM     26  C   UNL A   1      33.876  31.112  27.182  1.00  0.00     0.338 C 
ATOM     27  O   UNL A   1      33.177  32.079  27.439  1.00  0.00    -0.246 OA
BRANCH  26  28
ATOM     28  C   UNL A   1      35.190  30.896  27.803  1.00  0.00     0.060 A 
ATOM     29  C   UNL A   1      35.453  29.628  28.307  1.00  0.00     0.016 A 
ATOM     30  C   UNL A   1      36.093  31.933  28.020  1.00  0.00     0.016 A 
ATOM     31  C   UNL A   1      36.558  29.396  29.109  1.00  0.00     0.010 A 
ATOM     32  C   UNL A   1      37.255  31.681  28.764  1.00  0.00     0.010 A 
ATOM     33  C   UNL A   1      37.482  30.416  29.341  1.00  0.00    -0.014 A 
BRANCH  33  34
ATOM     34  C   UNL A   1      38.661  30.140  30.203  1.00  0.00     0.031 A 
ATOM     35  C   UNL A   1      39.780  29.271  29.696  1.00  0.00     0.074 A 
ATOM     36  C   UNL A   1      38.750  30.716  31.419  1.00  0.00     0.049 A 
ATOM     37  N   UNL A   1      40.833  28.833  30.334  1.00  0.00    -0.248 NA
ATOM     38  C   UNL A   1      39.705  28.837  28.292  1.00  0.00     0.031 C 
ATOM     39  C   UNL A   1      37.764  31.641  31.990  1.00  0.00     0.029 A 
ATOM     40  N   UNL A   1      39.715  30.626  32.391  1.00  0.00    -0.354 N 
ATOM     41  C   UNL A   1      41.530  28.046  29.423  1.00  0.00     0.074 A 
ATOM     42  C   UNL A   1      40.770  28.053  28.192  1.00  0.00     0.031 C 
ATOM     43  C   UNL A   1      38.193  32.056  33.191  1.00  0.00     0.029 A 
ATOM     44  C   UNL A   1      39.429  31.358  33.520  1.00  0.00     0.049 A 
ATOM     45  H   UNL A   1      40.533  30.088  32.289  1.00  0.00     0.167 HD
ATOM     46  C   UNL A   1      42.696  27.382  29.604  1.00  0.00     0.034 A 
ATOM     47  C   UNL A   1      40.060  31.428  34.709  1.00  0.00     0.034 A 
ATOM     48  C   UNL A   1      43.449  27.408  30.834  1.00  0.00     0.049 A 
ATOM     49  C   UNL A   1      41.301  30.606  34.917  1.00  0.00     0.074 A 
ATOM     50  C   UNL A   1      44.648  26.776  31.116  1.00  0.00     0.029 A 
ATOM     51  N   UNL A   1      43.082  28.097  31.982  1.00  0.00    -0.354 N 
ATOM     52  N   UNL A   1      41.914  29.815  34.068  1.00  0.00    -0.248 NA
ATOM     53  C   UNL A   1      41.929  30.670  36.243  1.00  0.00     0.031 C 
ATOM     54  C   UNL A   1      44.964  27.017  32.455  1.00  0.00     0.029 A 
ATOM     55  C   UNL A   1      44.012  27.874  32.985  1.00  0.00     0.049 A 
ATOM     56  H   UNL A   1      42.281  28.660  32.070  1.00  0.00     0.167 HD
ATOM     57  C   UNL A   1      43.014  29.305  34.750  1.00  0.00     0.074 A 
ATOM     58  C   UNL A   1      42.982  29.881  36.079  1.00  0.00     0.031 C 
ATOM     59  C   UNL A   1      43.964  28.445  34.310  1.00  0.00     0.034 A 
BRANCH  46  60
ATOM     60  C   UNL A   1      43.213  26.532  28.473  1.00  0.00     0.023 A 
ATOM     61  C   UNL A   1      44.261  26.957  27.640  1.00  0.00     0.031 A 
ATOM     62  C   UNL A   1      42.674  25.250  28.258  1.00  0.00     0.131 A 
ATOM     63  C   UNL A   1      44.718  26.116  26.612  1.00  0.00     0.055 A 
ATOM     64  C   UNL A   1      43.174  24.395  27.275  1.00  0.00     0.041 A 
ATOM     65  F   UNL A   1      41.657  24.803  29.012  1.00  0.00    -0.206 F 
ATOM     66  C   UNL A   1      44.200  24.829  26.441  1.00  0.00     0.022 A 
BRANCH  63  67
ATOM     67  S   UNL A   1      45.957  26.753  25.451  1.00  0.00     0.124 S 
ATOM     68  O   UNL A   1      47.058  27.088  26.351  1.00  0.00    -0.237 OA
ATOM     69  O   UNL A   1      46.178  25.613  24.568  1.00  0.00    -0.237 OA
ATOM     70  O   UNL A   1      45.292  27.900  24.835  1.00  0.00    -0.744 OA
ENDBRANCH  63  67
ENDBRANCH  46  60
BRANCH  47  71
ATOM     71  C   UNL A   1      39.490  32.263  35.803  1.00  0.00     0.023 A 
ATOM     72  C   UNL A   1      39.927  33.579  36.015  1.00  0.00     0.031 A 
ATOM     73  C   UNL A   1      38.482  31.757  36.646  1.00  0.00     0.131 A 
ATOM     74  C   UNL A   1      39.366  34.341  37.052  1.00  0.00     0.055 A 
ATOM     75  C   UNL A   1      37.896  32.534  37.645  1.00  0.00     0.041 A 
ATOM     76  F   UNL A   1      38.027  30.504  36.483  1.00  0.00    -0.206 F 
ATOM     77  C   UNL A   1      38.343  33.833  37.856  1.00  0.00     0.022 A 
BRANCH  74  78
ATOM     78  S   UNL A   1      40.019  36.005  37.360  1.00  0.00     0.124 S 
ATOM     79  O   UNL A   1      39.717  36.679  36.102  1.00  0.00    -0.237 OA
ATOM     80  O   UNL A   1      39.241  36.429  38.519  1.00  0.00    -0.237 OA
ATOM     81  O   UNL A   1      41.439  35.770  37.618  1.00  0.00    -0.744 OA
ENDBRANCH  74  78
ENDBRANCH  47  71
BRANCH  59  82
ATOM     82  C   UNL A   1      45.080  28.093  35.258  1.00  0.00     0.023 A 
ATOM     83  C   UNL A   1      45.006  26.971  36.099  1.00  0.00     0.031 A 
ATOM     84  C   UNL A   1      46.258  28.859  35.272  1.00  0.00     0.131 A 
ATOM     85  C   UNL A   1      46.086  26.658  36.938  1.00  0.00     0.055 A 
ATOM     86  C   UNL A   1      47.349  28.514  36.069  1.00  0.00     0.041 A 
ATOM     87  F   UNL A   1      46.378  29.942  34.486  1.00  0.00    -0.206 F 
ATOM     88  C   UNL A   1      47.264  27.409  36.912  1.00  0.00     0.022 A 
BRANCH  85  89
ATOM     89  S   UNL A   1      45.920  25.270  38.092  1.00  0.00     0.124 S 
ATOM     90  O   UNL A   1      44.504  24.941  37.967  1.00  0.00    -0.237 OA
ATOM     91  O   UNL A   1      46.853  24.290  37.544  1.00  0.00    -0.237 OA
ATOM     92  O   UNL A   1      46.313  25.844  39.378  1.00  0.00    -0.744 OA
ENDBRANCH  85  89
ENDBRANCH  59  82
ENDBRANCH  33  34
ENDBRANCH  26  28
ENDBRANCH  25  26
ENDBRANCH  24  25
ENDBRANCH   1  24
TORSDOF 18
ENDMDL
MODEL 3
REMARK VINA RESULT:     -11.6      3.038      8.007
REMARK SMILES COc1ccc(/C=C/c2nc(C(=O)OCCOC(=O)c3ccc(-c4c5nc(c(-c6cc(S(=O)(=O)[O-])ccc6F)c6ccc([nH]6)c(-c6cc(S(=O)(=O)[O-])ccc6F)c6nc(c(-c7cc(S(=O)(=O)[O-])ccc7F)c7ccc4[nH]7)C=C6)C=C5)cc3)ccc2C#N)cc1F
REMARK SMILES IDX 15 1 14 2 12 3 13 4 11 5 9 6 10 7 85 8 84 9 83 10 8 11 7 12
REMARK SMILES IDX 6 13 3 14 4 15 89 16 5 17 88 18 90 19 2 20 1 21 86 22 87 23
REMARK SMILES IDX 16 24 17 25 18 26 19 27 20 28 21 29 82 30 22 31 81 32 23 33
REMARK SMILES IDX 24 34 25 35 75 36 26 37 80 38 74 39 76 40 27 41 79 42 73 43
REMARK SMILES IDX 72 44 28 46 60 47 40 48 59 49 41 50 44 51 58 52 77 53 42 54
REMARK SMILES IDX 43 55 57 57 78 58 45 59 29 60 30 61 38 62 31 63 37 64 39 65
REMARK SMILES IDX 36 66 32 67 33 68 34 69 35 70 61 71 62 72 70 73 63 74 69 75
REMARK SMILES IDX 71 76 68 77 64 78 65 79 66 80 67 81 46 82 47 83 55 84 48 85
REMARK SMILES IDX 54 86 56 87 53 88 49 89 50 90 51 91 52 92
REMARK H PARENT 76 45 44 56
REMARK Flexibility Score: inf
ROOT
ATOM      1  C   UNL A   1      36.093  20.421  25.006  1.00  0.00     0.275 C 
ENDROOT
BRANCH   1   2
ATOM      2  O   UNL A   1      35.415  21.397  25.825  1.00  0.00    -0.457 OA
BRANCH   2   3
ATOM      3  C   UNL A   1      34.096  21.590  25.545  1.00  0.00     0.357 C 
ATOM      4  O   UNL A   1      33.175  20.943  26.019  1.00  0.00    -0.244 OA
BRANCH   3   5
ATOM      5  C   UNL A   1      33.909  22.773  24.640  1.00  0.00     0.149 A 
ATOM      6  C   UNL A   1      33.937  25.113  24.480  1.00  0.00     0.082 A 
ATOM      7  N   UNL A   1      34.030  23.993  25.236  1.00  0.00    -0.240 NA
ATOM      8  C   UNL A   1      33.644  25.054  23.122  1.00  0.00     0.078 A 
ATOM      9  C   UNL A   1      33.488  23.790  22.529  1.00  0.00     0.024 A 
ATOM     10  C   UNL A   1      33.641  22.631  23.290  1.00  0.00     0.037 A 
BRANCH   6  11
ATOM     11  C   UNL A   1      34.274  26.351  25.206  1.00  0.00     0.030 C 
ATOM     12  C   UNL A   1      33.354  27.217  25.661  1.00  0.00     0.010 C 
BRANCH  12  13
ATOM     13  C   UNL A   1      33.595  28.497  26.360  1.00  0.00    -0.022 A 
ATOM     14  C   UNL A   1      34.224  30.864  27.789  1.00  0.00     0.154 A 
ATOM     15  C   UNL A   1      33.023  30.758  27.085  1.00  0.00     0.050 A 
ATOM     16  C   UNL A   1      35.092  29.776  27.797  1.00  0.00     0.165 A 
ATOM     17  C   UNL A   1      32.715  29.590  26.367  1.00  0.00     0.012 A 
ATOM     18  C   UNL A   1      34.788  28.613  27.090  1.00  0.00     0.051 A 
ATOM     19  F   UNL A   1      36.225  29.795  28.513  1.00  0.00    -0.203 F 
BRANCH  14  20
ATOM     20  O   UNL A   1      34.422  32.020  28.494  1.00  0.00    -0.494 OA
ATOM     21  C   UNL A   1      33.674  33.129  27.999  1.00  0.00     0.278 C 
ENDBRANCH  14  20
ENDBRANCH  12  13
ENDBRANCH   6  11
BRANCH   8  22
ATOM     22  C   UNL A   1      33.497  26.227  22.313  1.00  0.00     0.101 C 
ATOM     23  N   UNL A   1      33.429  27.208  21.701  1.00  0.00    -0.192 NA
ENDBRANCH   8  22
ENDBRANCH   3   5
ENDBRANCH   2   3
ENDBRANCH   1   2
BRANCH   1  24
ATOM     24  C   UNL A   1      37.607  20.662  24.958  1.00  0.00     0.275 C 
BRANCH  24  25
ATOM     25  O   UNL A   1      38.020  21.719  25.842  1.00  0.00    -0.458 OA
BRANCH  25  26
ATOM     26  C   UNL A   1      39.220  21.520  26.435  1.00  0.00     0.338 C 
ATOM     27  O   UNL A   1      39.836  20.468  26.505  1.00  0.00    -0.246 OA
BRANCH  26  28
ATOM     28  C   UNL A   1      39.780  22.798  26.895  1.00  0.00     0.060 A 
ATOM     29  C   UNL A   1      39.295  23.955  26.298  1.00  0.00     0.016 A 
ATOM     30  C   UNL A   1      40.852  22.868  27.782  1.00  0.00     0.016 A 
ATOM     31  C   UNL A   1      39.922  25.175  26.495  1.00  0.00     0.010 A 
ATOM     32  C   UNL A   1      41.437  24.115  28.047  1.00  0.00     0.010 A 
ATOM     33  C   UNL A   1      40.996  25.275  27.382  1.00  0.00    -0.014 A 
BRANCH  33  34
ATOM     34  C   UNL A   1      41.648  26.596  27.578  1.00  0.00     0.031 A 
ATOM     35  C   UNL A   1      42.997  26.870  26.971  1.00  0.00     0.074 A 
ATOM     36  C   UNL A   1      41.001  27.568  28.254  1.00  0.00     0.049 A 
ATOM     37  N   UNL A   1      43.767  27.915  27.117  1.00  0.00    -0.248 NA
ATOM     38  C   UNL A   1      43.553  25.833  26.086  1.00  0.00     0.031 C 
ATOM     39  C   UNL A   1      39.654  27.448  28.823  1.00  0.00     0.029 A 
ATOM     40  N   UNL A   1      41.376  28.850  28.568  1.00  0.00    -0.354 N 
ATOM     41  C   UNL A   1      44.912  27.652  26.372  1.00  0.00     0.074 A 
ATOM     42  C   UNL A   1      44.743  26.339  25.788  1.00  0.00     0.031 C 
ATOM     43  C   UNL A   1      39.307  28.616  29.383  1.00  0.00     0.029 A 
ATOM     44  C   UNL A   1      40.434  29.535  29.300  1.00  0.00     0.049 A 
ATOM     45  H   UNL A   1      42.236  29.242  28.294  1.00  0.00     0.167 HD
ATOM     46  C   UNL A   1      46.000  28.439  26.196  1.00  0.00     0.034 A 
ATOM     47  C   UNL A   1      40.483  30.749  29.885  1.00  0.00     0.034 A 
ATOM     48  C   UNL A   1      46.138  29.755  26.770  1.00  0.00     0.049 A 
ATOM     49  C   UNL A   1      41.741  31.563  29.755  1.00  0.00     0.074 A 
ATOM     50  C   UNL A   1      47.198  30.636  26.644  1.00  0.00     0.029 A 
ATOM     51  N   UNL A   1      45.194  30.379  27.574  1.00  0.00    -0.354 N 
ATOM     52  N   UNL A   1      42.841  31.274  29.101  1.00  0.00    -0.248 NA
ATOM     53  C   UNL A   1      41.773  32.856  30.449  1.00  0.00     0.031 C 
ATOM     54  C   UNL A   1      46.930  31.757  27.434  1.00  0.00     0.029 A 
ATOM     55  C   UNL A   1      45.665  31.618  27.981  1.00  0.00     0.049 A 
ATOM     56  H   UNL A   1      44.320  29.999  27.818  1.00  0.00     0.167 HD
ATOM     57  C   UNL A   1      43.689  32.361  29.287  1.00  0.00     0.074 A 
ATOM     58  C   UNL A   1      42.971  33.312  30.111  1.00  0.00     0.031 C 
ATOM     59  C   UNL A   1      44.943  32.553  28.811  1.00  0.00     0.034 A 
BRANCH  46  60
ATOM     60  C   UNL A   1      47.152  27.890  25.394  1.00  0.00     0.023 A 
ATOM     61  C   UNL A   1      47.257  28.092  24.008  1.00  0.00     0.031 A 
ATOM     62  C   UNL A   1      48.187  27.192  26.043  1.00  0.00     0.131 A 
ATOM     63  C   UNL A   1      48.361  27.575  23.311  1.00  0.00     0.055 A 
ATOM     64  C   UNL A   1      49.312  26.736  25.356  1.00  0.00     0.041 A 
ATOM     65  F   UNL A   1      48.126  26.954  27.363  1.00  0.00    -0.206 F 
ATOM     66  C   UNL A   1      49.401  26.922  23.980  1.00  0.00     0.022 A 
BRANCH  63  67
ATOM     67  S   UNL A   1      48.391  27.707  21.503  1.00  0.00     0.124 S 
ATOM     68  O   UNL A   1      47.045  28.201  21.222  1.00  0.00    -0.237 OA
ATOM     69  O   UNL A   1      49.479  28.650  21.272  1.00  0.00    -0.237 OA
ATOM     70  O   UNL A   1      48.650  26.337  21.064  1.00  0.00    -0.744 OA
ENDBRANCH  63  67
ENDBRANCH  46  60
BRANCH  47  71
ATOM     71  C   UNL A   1      39.327  31.231  30.691  1.00  0.00     0.023 A 
ATOM     72  C   UNL A   1      39.355  31.195  32.093  1.00  0.00     0.031 A 
ATOM     73  C   UNL A   1      38.179  31.753  30.066  1.00  0.00     0.131 A 
ATOM     74  C   UNL A   1      38.252  31.661  32.825  1.00  0.00     0.055 A 
ATOM     75  C   UNL A   1      37.105  32.257  30.799  1.00  0.00     0.041 A 
ATOM     76  F   UNL A   1      38.104  31.813  28.727  1.00  0.00    -0.206 F 
ATOM     77  C   UNL A   1      37.135  32.207  32.188  1.00  0.00     0.022 A 
BRANCH  74  78
ATOM     78  S   UNL A   1      38.280  31.512  34.632  1.00  0.00     0.124 S 
ATOM     79  O   UNL A   1      37.037  32.180  35.004  1.00  0.00    -0.237 OA
ATOM     80  O   UNL A   1      38.312  30.065  34.820  1.00  0.00    -0.237 OA
ATOM     81  O   UNL A   1      39.505  32.214  35.012  1.00  0.00    -0.744 OA
ENDBRANCH  74  78
ENDBRANCH  47  71
BRANCH  59  82
ATOM     82  C   UNL A   1      45.620  33.859  29.134  1.00  0.00     0.023 A 
ATOM     83  C   UNL A   1      45.468  34.990  28.316  1.00  0.00     0.031 A 
ATOM     84  C   UNL A   1      46.377  33.986  30.312  1.00  0.00     0.131 A 
ATOM     85  C   UNL A   1      46.084  36.197  28.677  1.00  0.00     0.055 A 
ATOM     86  C   UNL A   1      46.944  35.202  30.693  1.00  0.00     0.041 A 
ATOM     87  F   UNL A   1      46.551  32.934  31.128  1.00  0.00    -0.206 F 
ATOM     88  C   UNL A   1      46.802  36.316  29.870  1.00  0.00     0.022 A 
BRANCH  85  89
ATOM     89  S   UNL A   1      45.964  37.609  27.547  1.00  0.00     0.124 S 
ATOM     90  O   UNL A   1      44.606  37.469  27.031  1.00  0.00    -0.237 OA
ATOM     91  O   UNL A   1      46.194  38.745  28.435  1.00  0.00    -0.237 OA
ATOM     92  O   UNL A   1      47.026  37.362  26.573  1.00  0.00    -0.744 OA
ENDBRANCH  85  89
ENDBRANCH  59  82
ENDBRANCH  33  34
ENDBRANCH  26  28
ENDBRANCH  25  26
ENDBRANCH  24  25
ENDBRANCH   1  24
TORSDOF 18
ENDMDL
