MODEL 1
REMARK VINA RESULT:     -11.8      0.000      0.000
REMARK SMILES C[C@@H]1[C@@H](C(=O)OCCOC(=O)c2ccc(-c3c4nc(c(-c5cc(S(=O)(=O)[O-])ccc5F)c5ccc([nH]5)c(-c5cc(S(=O)(=O)[O-])ccc5F)c5nc(c(-c6cc(S(=O)(=O)[O-])ccc6F)c6ccc3[nH]6)C=C5)C=C4)cc2)CCN1C(=O)NC[C@@H]1COCCO1
REMARK SMILES IDX 7 1 6 2 4 3 5 4 3 5 1 6 2 7 77 8 75 9 76 10 78 11 79 12
REMARK SMILES IDX 80 13 81 15 82 16 83 17 87 18 84 19 86 20 85 21 8 22 9 23
REMARK SMILES IDX 10 24 11 25 12 26 13 27 74 28 14 29 73 30 15 31 16 32 17 33
REMARK SMILES IDX 67 34 18 35 72 36 66 37 68 38 19 39 71 40 65 41 64 42 20 44
REMARK SMILES IDX 52 45 32 46 51 47 33 48 36 49 50 50 69 51 34 52 35 53 49 55
REMARK SMILES IDX 70 56 37 57 21 58 22 59 30 60 23 61 29 62 31 63 28 64 24 65
REMARK SMILES IDX 25 66 26 67 27 68 53 69 54 70 62 71 55 72 61 73 63 74 60 75
REMARK SMILES IDX 56 76 57 77 58 78 59 79 38 80 39 81 47 82 40 83 46 84 48 85
REMARK SMILES IDX 45 86 41 87 42 88 43 89 44 90
REMARK H PARENT 80 14 68 43 36 54
REMARK Flexibility Score: inf
ROOT
ATOM      1  C   UNL A   1      31.542  28.348  26.010  1.00  0.00     0.274 C 
ENDROOT
BRANCH   1   2
ATOM      2  O   UNL A   1      32.199  27.129  26.414  1.00  0.00    -0.462 OA
BRANCH   2   3
ATOM      3  C   UNL A   1      31.490  25.982  26.210  1.00  0.00     0.311 C 
ATOM      4  O   UNL A   1      30.300  25.850  26.449  1.00  0.00    -0.252 OA
BRANCH   3   5
ATOM      5  C   UNL A   1      32.393  24.898  25.642  1.00  0.00     0.123 C 
ATOM      6  C   UNL A   1      34.713  24.655  24.657  1.00  0.00     0.032 C 
ATOM      7  C   UNL A   1      33.430  25.491  24.672  1.00  0.00     0.098 C 
ATOM      8  N   UNL A   1      32.779  25.480  23.366  1.00  0.00    -0.321 N 
ATOM      9  C   UNL A   1      31.609  23.938  24.759  1.00  0.00     0.039 C 
ATOM     10  C   UNL A   1      31.592  24.636  23.404  1.00  0.00     0.122 C 
BRANCH   8  11
ATOM     11  C   UNL A   1      33.012  26.203  22.235  1.00  0.00     0.317 C 
ATOM     12  O   UNL A   1      33.653  25.709  21.300  1.00  0.00    -0.249 OA
ATOM     13  N   UNL A   1      32.572  27.460  22.050  1.00  0.00    -0.335 N 
ATOM     14  H   UNL A   1      32.876  27.821  21.185  1.00  0.00     0.165 HD
BRANCH  13  15
ATOM     15  C   UNL A   1      31.768  28.436  22.777  1.00  0.00     0.152 C 
BRANCH  15  16
ATOM     16  C   UNL A   1      30.290  28.400  22.366  1.00  0.00     0.163 C 
ATOM     17  C   UNL A   1      29.806  29.809  21.991  1.00  0.00     0.194 C 
ATOM     18  O   UNL A   1      29.521  27.890  23.469  1.00  0.00    -0.372 OA
ATOM     19  O   UNL A   1      28.423  29.774  21.629  1.00  0.00    -0.376 OA
ATOM     20  C   UNL A   1      28.115  27.916  23.165  1.00  0.00     0.189 C 
ATOM     21  C   UNL A   1      27.654  29.316  22.753  1.00  0.00     0.188 C 
ENDBRANCH  15  16
ENDBRANCH  13  15
ENDBRANCH   8  11
ENDBRANCH   3   5
ENDBRANCH   2   3
ENDBRANCH   1   2
BRANCH   1  22
ATOM     22  C   UNL A   1      31.898  29.496  26.953  1.00  0.00     0.275 C 
BRANCH  22  23
ATOM     23  O   UNL A   1      32.929  30.308  26.363  1.00  0.00    -0.458 OA
BRANCH  23  24
ATOM     24  C   UNL A   1      33.378  31.341  27.109  1.00  0.00     0.338 C 
ATOM     25  O   UNL A   1      32.801  32.393  27.343  1.00  0.00    -0.246 OA
BRANCH  24  26
ATOM     26  C   UNL A   1      34.701  31.004  27.656  1.00  0.00     0.060 A 
ATOM     27  C   UNL A   1      34.991  29.671  27.935  1.00  0.00     0.016 A 
ATOM     28  C   UNL A   1      35.615  32.002  27.992  1.00  0.00     0.016 A 
ATOM     29  C   UNL A   1      36.168  29.334  28.599  1.00  0.00     0.010 A 
ATOM     30  C   UNL A   1      36.829  31.652  28.603  1.00  0.00     0.010 A 
ATOM     31  C   UNL A   1      37.109  30.315  28.940  1.00  0.00    -0.014 A 
BRANCH  31  32
ATOM     32  C   UNL A   1      38.319  29.943  29.732  1.00  0.00     0.031 A 
ATOM     33  C   UNL A   1      39.348  29.017  29.133  1.00  0.00     0.074 A 
ATOM     34  C   UNL A   1      38.558  30.486  30.944  1.00  0.00     0.049 A 
ATOM     35  N   UNL A   1      40.384  28.449  29.694  1.00  0.00    -0.248 NA
ATOM     36  C   UNL A   1      39.183  28.691  27.708  1.00  0.00     0.031 C 
ATOM     37  C   UNL A   1      37.716  31.481  31.610  1.00  0.00     0.029 A 
ATOM     38  N   UNL A   1      39.600  30.300  31.822  1.00  0.00    -0.354 N 
ATOM     39  C   UNL A   1      40.969  27.662  28.707  1.00  0.00     0.074 A 
ATOM     40  C   UNL A   1      40.165  27.825  27.513  1.00  0.00     0.031 C 
ATOM     41  C   UNL A   1      38.298  31.850  32.762  1.00  0.00     0.029 A 
ATOM     42  C   UNL A   1      39.500  31.050  32.972  1.00  0.00     0.049 A 
ATOM     43  H   UNL A   1      40.349  29.685  31.644  1.00  0.00     0.167 HD
ATOM     44  C   UNL A   1      42.068  26.871  28.789  1.00  0.00     0.034 A 
ATOM     45  C   UNL A   1      40.260  31.061  34.087  1.00  0.00     0.034 A 
ATOM     46  C   UNL A   1      42.882  26.736  29.972  1.00  0.00     0.049 A 
ATOM     47  C   UNL A   1      41.422  30.105  34.192  1.00  0.00     0.074 A 
ATOM     48  C   UNL A   1      43.983  25.920  30.178  1.00  0.00     0.029 A 
ATOM     49  N   UNL A   1      42.697  27.449  31.148  1.00  0.00    -0.354 N 
ATOM     50  N   UNL A   1      41.889  29.269  33.294  1.00  0.00    -0.248 NA
ATOM     51  C   UNL A   1      42.145  30.076  35.472  1.00  0.00     0.031 C 
ATOM     52  C   UNL A   1      44.431  26.105  31.491  1.00  0.00     0.029 A 
ATOM     53  C   UNL A   1      43.649  27.081  32.086  1.00  0.00     0.049 A 
ATOM     54  H   UNL A   1      41.991  28.120  31.294  1.00  0.00     0.167 HD
ATOM     55  C   UNL A   1      42.962  28.622  33.901  1.00  0.00     0.074 A 
ATOM     56  C   UNL A   1      43.093  29.184  35.228  1.00  0.00     0.031 C 
ATOM     57  C   UNL A   1      43.763  27.643  33.409  1.00  0.00     0.034 A 
BRANCH  44  58
ATOM     58  C   UNL A   1      42.398  26.027  27.582  1.00  0.00     0.023 A 
ATOM     59  C   UNL A   1      41.960  24.699  27.458  1.00  0.00     0.031 A 
ATOM     60  C   UNL A   1      43.208  26.557  26.561  1.00  0.00     0.131 A 
ATOM     61  C   UNL A   1      42.390  23.923  26.369  1.00  0.00     0.055 A 
ATOM     62  C   UNL A   1      43.571  25.802  25.444  1.00  0.00     0.041 A 
ATOM     63  F   UNL A   1      43.673  27.813  26.639  1.00  0.00    -0.206 F 
ATOM     64  C   UNL A   1      43.173  24.472  25.351  1.00  0.00     0.022 A 
BRANCH  61  65
ATOM     65  S   UNL A   1      42.029  22.145  26.373  1.00  0.00     0.124 S 
ATOM     66  O   UNL A   1      42.945  21.655  25.345  1.00  0.00    -0.237 OA
ATOM     67  O   UNL A   1      42.341  21.762  27.744  1.00  0.00    -0.237 OA
ATOM     68  O   UNL A   1      40.613  22.082  26.014  1.00  0.00    -0.744 OA
ENDBRANCH  61  65
ENDBRANCH  44  58
BRANCH  45  69
ATOM     69  C   UNL A   1      39.912  31.941  35.241  1.00  0.00     0.023 A 
ATOM     70  C   UNL A   1      39.065  31.488  36.264  1.00  0.00     0.031 A 
ATOM     71  C   UNL A   1      40.355  33.275  35.296  1.00  0.00     0.131 A 
ATOM     72  C   UNL A   1      38.650  32.372  37.274  1.00  0.00     0.055 A 
ATOM     73  C   UNL A   1      39.990  34.134  36.334  1.00  0.00     0.041 A 
ATOM     74  F   UNL A   1      41.154  33.765  34.335  1.00  0.00    -0.206 F 
ATOM     75  C   UNL A   1      39.121  33.687  37.324  1.00  0.00     0.022 A 
BRANCH  72  76
ATOM     76  S   UNL A   1      37.403  31.808  38.463  1.00  0.00     0.124 S 
ATOM     77  O   UNL A   1      37.170  30.439  38.019  1.00  0.00    -0.237 OA
ATOM     78  O   UNL A   1      38.106  31.957  39.734  1.00  0.00    -0.237 OA
ATOM     79  O   UNL A   1      36.291  32.733  38.255  1.00  0.00    -0.744 OA
ENDBRANCH  72  76
ENDBRANCH  45  69
BRANCH  57  80
ATOM     80  C   UNL A   1      44.871  27.153  34.305  1.00  0.00     0.023 A 
ATOM     81  C   UNL A   1      44.713  26.018  35.120  1.00  0.00     0.031 A 
ATOM     82  C   UNL A   1      46.097  27.840  34.354  1.00  0.00     0.131 A 
ATOM     83  C   UNL A   1      45.748  25.630  35.985  1.00  0.00     0.055 A 
ATOM     84  C   UNL A   1      47.139  27.423  35.184  1.00  0.00     0.041 A 
ATOM     85  F   UNL A   1      46.299  28.930  33.598  1.00  0.00    -0.206 F 
ATOM     86  C   UNL A   1      46.963  26.318  36.012  1.00  0.00     0.022 A 
BRANCH  83  87
ATOM     87  S   UNL A   1      45.458  24.251  37.129  1.00  0.00     0.124 S 
ATOM     88  O   UNL A   1      44.531  24.842  38.089  1.00  0.00    -0.237 OA
ATOM     89  O   UNL A   1      44.901  23.228  36.250  1.00  0.00    -0.237 OA
ATOM     90  O   UNL A   1      46.790  23.957  37.655  1.00  0.00    -0.744 OA
ENDBRANCH  83  87
ENDBRANCH  57  80
ENDBRANCH  31  32
ENDBRANCH  24  26
ENDBRANCH  23  24
ENDBRANCH  22  23
ENDBRANCH   1  22
TORSDOF 17
ENDMDL
MODEL 2
REMARK VINA RESULT:     -11.8      5.556     10.562
REMARK SMILES C[C@@H]1[C@@H](C(=O)OCCOC(=O)c2ccc(-c3c4nc(c(-c5cc(S(=O)(=O)[O-])ccc5F)c5ccc([nH]5)c(-c5cc(S(=O)(=O)[O-])ccc5F)c5nc(c(-c6cc(S(=O)(=O)[O-])ccc6F)c6ccc3[nH]6)C=C5)C=C4)cc2)CCN1C(=O)NC[C@@H]1COCCO1
REMARK SMILES IDX 7 1 6 2 4 3 5 4 3 5 1 6 2 7 77 8 75 9 76 10 78 11 79 12
REMARK SMILES IDX 80 13 81 15 82 16 83 17 87 18 84 19 86 20 85 21 8 22 9 23
REMARK SMILES IDX 10 24 11 25 12 26 13 27 74 28 14 29 73 30 15 31 16 32 17 33
REMARK SMILES IDX 67 34 18 35 72 36 66 37 68 38 19 39 71 40 65 41 64 42 20 44
REMARK SMILES IDX 52 45 32 46 51 47 33 48 36 49 50 50 69 51 34 52 35 53 49 55
REMARK SMILES IDX 70 56 37 57 21 58 22 59 30 60 23 61 29 62 31 63 28 64 24 65
REMARK SMILES IDX 25 66 26 67 27 68 53 69 54 70 62 71 55 72 61 73 63 74 60 75
REMARK SMILES IDX 56 76 57 77 58 78 59 79 38 80 39 81 47 82 40 83 46 84 48 85
REMARK SMILES IDX 45 86 41 87 42 88 43 89 44 90
REMARK H PARENT 80 14 68 43 36 54
REMARK Flexibility Score: inf
ROOT
ATOM      1  C   UNL A   1      36.071  21.079  24.768  1.00  0.00     0.274 C 
ENDROOT
BRANCH   1   2
ATOM      2  O   UNL A   1      35.940  22.505  24.943  1.00  0.00    -0.462 OA
BRANCH   2   3
ATOM      3  C   UNL A   1      35.659  23.215  23.813  1.00  0.00     0.311 C 
ATOM      4  O   UNL A   1      36.204  23.044  22.733  1.00  0.00    -0.252 OA
BRANCH   3   5
ATOM      5  C   UNL A   1      34.572  24.241  24.091  1.00  0.00     0.123 C 
ATOM      6  C   UNL A   1      33.107  25.014  26.005  1.00  0.00     0.032 C 
ATOM      7  C   UNL A   1      33.681  23.802  25.265  1.00  0.00     0.098 C 
ATOM      8  N   UNL A   1      32.620  23.005  24.660  1.00  0.00    -0.321 N 
ATOM      9  C   UNL A   1      33.592  24.329  22.931  1.00  0.00     0.039 C 
ATOM     10  C   UNL A   1      32.603  23.204  23.217  1.00  0.00     0.122 C 
BRANCH   8  11
ATOM     11  C   UNL A   1      31.793  22.056  25.182  1.00  0.00     0.317 C 
ATOM     12  O   UNL A   1      30.848  22.385  25.910  1.00  0.00    -0.249 OA
ATOM     13  N   UNL A   1      31.929  20.739  24.950  1.00  0.00    -0.335 N 
ATOM     14  H   UNL A   1      31.258  20.217  25.448  1.00  0.00     0.165 HD
BRANCH  13  15
ATOM     15  C   UNL A   1      32.798  19.870  24.164  1.00  0.00     0.152 C 
BRANCH  15  16
ATOM     16  C   UNL A   1      33.215  18.609  24.933  1.00  0.00     0.163 C 
ATOM     17  C   UNL A   1      34.324  17.863  24.174  1.00  0.00     0.194 C 
ATOM     18  O   UNL A   1      32.062  17.761  25.081  1.00  0.00    -0.372 OA
ATOM     19  O   UNL A   1      34.694  16.678  24.883  1.00  0.00    -0.376 OA
ATOM     20  C   UNL A   1      32.418  16.523  25.722  1.00  0.00     0.189 C 
ATOM     21  C   UNL A   1      33.552  15.812  24.980  1.00  0.00     0.188 C 
ENDBRANCH  15  16
ENDBRANCH  13  15
ENDBRANCH   8  11
ENDBRANCH   3   5
ENDBRANCH   2   3
ENDBRANCH   1   2
BRANCH   1  22
ATOM     22  C   UNL A   1      37.518  20.636  24.977  1.00  0.00     0.275 C 
BRANCH  22  23
ATOM     23  O   UNL A   1      38.312  21.757  25.404  1.00  0.00    -0.458 OA
BRANCH  23  24
ATOM     24  C   UNL A   1      39.289  21.491  26.300  1.00  0.00     0.338 C 
ATOM     25  O   UNL A   1      39.736  20.396  26.607  1.00  0.00    -0.246 OA
BRANCH  24  26
ATOM     26  C   UNL A   1      39.791  22.757  26.857  1.00  0.00     0.060 A 
ATOM     27  C   UNL A   1      39.312  23.955  26.335  1.00  0.00     0.016 A 
ATOM     28  C   UNL A   1      40.804  22.768  27.814  1.00  0.00     0.016 A 
ATOM     29  C   UNL A   1      39.879  25.166  26.726  1.00  0.00     0.010 A 
ATOM     30  C   UNL A   1      41.329  23.993  28.253  1.00  0.00     0.010 A 
ATOM     31  C   UNL A   1      40.892  25.208  27.693  1.00  0.00    -0.014 A 
BRANCH  31  32
ATOM     32  C   UNL A   1      41.548  26.506  28.029  1.00  0.00     0.031 A 
ATOM     33  C   UNL A   1      40.807  27.525  28.859  1.00  0.00     0.074 A 
ATOM     34  C   UNL A   1      42.827  26.758  27.677  1.00  0.00     0.049 A 
ATOM     35  N   UNL A   1      41.124  28.763  29.136  1.00  0.00    -0.248 NA
ATOM     36  C   UNL A   1      39.538  27.082  29.457  1.00  0.00     0.031 C 
ATOM     37  C   UNL A   1      43.711  25.830  26.971  1.00  0.00     0.029 A 
ATOM     38  N   UNL A   1      43.617  27.862  27.896  1.00  0.00    -0.354 N 
ATOM     39  C   UNL A   1      40.074  29.264  29.900  1.00  0.00     0.074 A 
ATOM     40  C   UNL A   1      39.110  28.192  30.037  1.00  0.00     0.031 C 
ATOM     41  C   UNL A   1      44.929  26.383  26.858  1.00  0.00     0.029 A 
ATOM     42  C   UNL A   1      44.892  27.742  27.390  1.00  0.00     0.049 A 
ATOM     43  H   UNL A   1      43.299  28.665  28.369  1.00  0.00     0.167 HD
ATOM     44  C   UNL A   1      39.924  30.503  30.432  1.00  0.00     0.034 A 
ATOM     45  C   UNL A   1      45.901  28.635  27.320  1.00  0.00     0.034 A 
ATOM     46  C   UNL A   1      40.902  31.558  30.317  1.00  0.00     0.049 A 
ATOM     47  C   UNL A   1      45.677  30.036  27.834  1.00  0.00     0.074 A 
ATOM     48  C   UNL A   1      40.823  32.865  30.770  1.00  0.00     0.029 A 
ATOM     49  N   UNL A   1      42.148  31.423  29.721  1.00  0.00    -0.354 N 
ATOM     50  N   UNL A   1      44.627  30.536  28.442  1.00  0.00    -0.248 NA
ATOM     51  C   UNL A   1      46.768  31.001  27.628  1.00  0.00     0.031 C 
ATOM     52  C   UNL A   1      42.000  33.530  30.405  1.00  0.00     0.029 A 
ATOM     53  C   UNL A   1      42.839  32.623  29.779  1.00  0.00     0.049 A 
ATOM     54  H   UNL A   1      42.491  30.594  29.316  1.00  0.00     0.167 HD
ATOM     55  C   UNL A   1      44.936  31.869  28.695  1.00  0.00     0.074 A 
ATOM     56  C   UNL A   1      46.278  32.089  28.202  1.00  0.00     0.031 C 
ATOM     57  C   UNL A   1      44.174  32.831  29.276  1.00  0.00     0.034 A 
BRANCH  44  58
ATOM     58  C   UNL A   1      38.612  30.803  31.114  1.00  0.00     0.023 A 
ATOM     59  C   UNL A   1      37.533  31.388  30.431  1.00  0.00     0.031 A 
ATOM     60  C   UNL A   1      38.462  30.538  32.487  1.00  0.00     0.131 A 
ATOM     61  C   UNL A   1      36.375  31.750  31.139  1.00  0.00     0.055 A 
ATOM     62  C   UNL A   1      37.280  30.833  33.169  1.00  0.00     0.041 A 
ATOM     63  F   UNL A   1      39.470  30.002  33.193  1.00  0.00    -0.206 F 
ATOM     64  C   UNL A   1      36.233  31.456  32.498  1.00  0.00     0.022 A 
BRANCH  61  65
ATOM     65  S   UNL A   1      35.112  32.737  30.292  1.00  0.00     0.124 S 
ATOM     66  O   UNL A   1      35.877  33.917  29.894  1.00  0.00    -0.237 OA
ATOM     67  O   UNL A   1      34.691  31.854  29.212  1.00  0.00    -0.237 OA
ATOM     68  O   UNL A   1      34.110  32.976  31.329  1.00  0.00    -0.744 OA
ENDBRANCH  61  65
ENDBRANCH  44  58
BRANCH  45  69
ATOM     69  C   UNL A   1      47.195  28.279  26.666  1.00  0.00     0.023 A 
ATOM     70  C   UNL A   1      47.304  28.217  25.268  1.00  0.00     0.031 A 
ATOM     71  C   UNL A   1      48.318  27.914  27.431  1.00  0.00     0.131 A 
ATOM     72  C   UNL A   1      48.493  27.758  24.679  1.00  0.00     0.055 A 
ATOM     73  C   UNL A   1      49.518  27.517  26.840  1.00  0.00     0.041 A 
ATOM     74  F   UNL A   1      48.263  27.939  28.773  1.00  0.00    -0.206 F 
ATOM     75  C   UNL A   1      49.606  27.424  25.455  1.00  0.00     0.022 A 
BRANCH  72  76
ATOM     76  S   UNL A   1      48.530  27.505  22.883  1.00  0.00     0.124 S 
ATOM     77  O   UNL A   1      49.822  28.080  22.530  1.00  0.00    -0.237 OA
ATOM     78  O   UNL A   1      48.425  26.054  22.779  1.00  0.00    -0.237 OA
ATOM     79  O   UNL A   1      47.364  28.249  22.411  1.00  0.00    -0.744 OA
ENDBRANCH  72  76
ENDBRANCH  45  69
BRANCH  57  80
ATOM     80  C   UNL A   1      44.799  34.193  29.437  1.00  0.00     0.023 A 
ATOM     81  C   UNL A   1      44.634  35.199  28.470  1.00  0.00     0.031 A 
ATOM     82  C   UNL A   1      45.582  34.482  30.569  1.00  0.00     0.131 A 
ATOM     83  C   UNL A   1      45.282  36.434  28.628  1.00  0.00     0.055 A 
ATOM     84  C   UNL A   1      46.188  35.727  30.743  1.00  0.00     0.041 A 
ATOM     85  F   UNL A   1      45.772  33.556  31.521  1.00  0.00    -0.206 F 
ATOM     86  C   UNL A   1      46.048  36.707  29.765  1.00  0.00     0.022 A 
BRANCH  83  87
ATOM     87  S   UNL A   1      45.169  37.658  27.293  1.00  0.00     0.124 S 
ATOM     88  O   UNL A   1      46.198  37.192  26.367  1.00  0.00    -0.237 OA
ATOM     89  O   UNL A   1      43.790  37.504  26.844  1.00  0.00    -0.237 OA
ATOM     90  O   UNL A   1      45.466  38.923  27.962  1.00  0.00    -0.744 OA
ENDBRANCH  83  87
ENDBRANCH  57  80
ENDBRANCH  31  32
ENDBRANCH  24  26
ENDBRANCH  23  24
ENDBRANCH  22  23
ENDBRANCH   1  22
TORSDOF 17
ENDMDL
MODEL 3
REMARK VINA RESULT:     -11.7      5.127      9.811
REMARK SMILES C[C@@H]1[C@@H](C(=O)OCCOC(=O)c2ccc(-c3c4nc(c(-c5cc(S(=O)(=O)[O-])ccc5F)c5ccc([nH]5)c(-c5cc(S(=O)(=O)[O-])ccc5F)c5nc(c(-c6cc(S(=O)(=O)[O-])ccc6F)c6ccc3[nH]6)C=C5)C=C4)cc2)CCN1C(=O)NC[C@@H]1COCCO1
REMARK SMILES IDX 7 1 6 2 4 3 5 4 3 5 1 6 2 7 77 8 75 9 76 10 78 11 79 12
REMARK SMILES IDX 80 13 81 15 82 16 83 17 87 18 84 19 86 20 85 21 8 22 9 23
REMARK SMILES IDX 10 24 11 25 12 26 13 27 74 28 14 29 73 30 15 31 16 32 17 33
REMARK SMILES IDX 67 34 18 35 72 36 66 37 68 38 19 39 71 40 65 41 64 42 20 44
REMARK SMILES IDX 52 45 32 46 51 47 33 48 36 49 50 50 69 51 34 52 35 53 49 55
REMARK SMILES IDX 70 56 37 57 21 58 22 59 30 60 23 61 29 62 31 63 28 64 24 65
REMARK SMILES IDX 25 66 26 67 27 68 53 69 54 70 62 71 55 72 61 73 63 74 60 75
REMARK SMILES IDX 56 76 57 77 58 78 59 79 38 80 39 81 47 82 40 83 46 84 48 85
REMARK SMILES IDX 45 86 41 87 42 88 43 89 44 90
REMARK H PARENT 80 14 68 43 36 54
REMARK Flexibility Score: inf
ROOT
ATOM      1  C   UNL A   1      34.785  21.319  24.525  1.00  0.00     0.274 C 
ENDROOT
BRANCH   1   2
ATOM      2  O   UNL A   1      35.043  22.641  24.008  1.00  0.00    -0.462 OA
BRANCH   2   3
ATOM      3  C   UNL A   1      34.052  23.177  23.240  1.00  0.00     0.311 C 
ATOM      4  O   UNL A   1      34.010  23.117  22.020  1.00  0.00    -0.252 OA
BRANCH   3   5
ATOM      5  C   UNL A   1      33.012  23.854  24.117  1.00  0.00     0.123 C 
ATOM      6  C   UNL A   1      30.840  25.134  23.880  1.00  0.00     0.032 C 
ATOM      7  C   UNL A   1      32.263  24.954  23.344  1.00  0.00     0.098 C 
ATOM      8  N   UNL A   1      33.055  26.163  23.541  1.00  0.00    -0.321 N 
ATOM      9  C   UNL A   1      33.670  24.622  25.254  1.00  0.00     0.039 C 
ATOM     10  C   UNL A   1      34.012  25.966  24.622  1.00  0.00     0.122 C 
BRANCH   8  11
ATOM     11  C   UNL A   1      33.134  27.318  22.822  1.00  0.00     0.317 C 
ATOM     12  O   UNL A   1      33.843  27.374  21.811  1.00  0.00    -0.249 OA
ATOM     13  N   UNL A   1      32.465  28.440  23.138  1.00  0.00    -0.335 N 
ATOM     14  H   UNL A   1      32.685  29.174  22.519  1.00  0.00     0.165 HD
BRANCH  13  15
ATOM     15  C   UNL A   1      31.503  28.871  24.147  1.00  0.00     0.152 C 
BRANCH  15  16
ATOM     16  C   UNL A   1      30.184  29.353  23.530  1.00  0.00     0.163 C 
ATOM     17  C   UNL A   1      30.318  29.463  22.003  1.00  0.00     0.194 C 
ATOM     18  O   UNL A   1      29.859  30.637  24.090  1.00  0.00    -0.372 OA
ATOM     19  O   UNL A   1      29.093  29.933  21.434  1.00  0.00    -0.376 OA
ATOM     20  C   UNL A   1      28.672  31.175  23.480  1.00  0.00     0.189 C 
ATOM     21  C   UNL A   1      28.802  31.239  21.957  1.00  0.00     0.188 C 
ENDBRANCH  15  16
ENDBRANCH  13  15
ENDBRANCH   8  11
ENDBRANCH   3   5
ENDBRANCH   2   3
ENDBRANCH   1   2
BRANCH   1  22
ATOM     22  C   UNL A   1      36.038  20.736  25.176  1.00  0.00     0.275 C 
BRANCH  22  23
ATOM     23  O   UNL A   1      36.893  21.802  25.625  1.00  0.00    -0.458 OA
BRANCH  23  24
ATOM     24  C   UNL A   1      38.195  21.489  25.807  1.00  0.00     0.338 C 
ATOM     25  O   UNL A   1      38.757  20.447  25.503  1.00  0.00    -0.246 OA
BRANCH  24  26
ATOM     26  C   UNL A   1      38.887  22.634  26.419  1.00  0.00     0.060 A 
ATOM     27  C   UNL A   1      38.381  23.913  26.208  1.00  0.00     0.016 A 
ATOM     28  C   UNL A   1      40.088  22.463  27.107  1.00  0.00     0.016 A 
ATOM     29  C   UNL A   1      39.096  25.029  26.636  1.00  0.00     0.010 A 
ATOM     30  C   UNL A   1      40.773  23.587  27.593  1.00  0.00     0.010 A 
ATOM     31  C   UNL A   1      40.300  24.887  27.338  1.00  0.00    -0.014 A 
BRANCH  31  32
ATOM     32  C   UNL A   1      41.095  26.096  27.707  1.00  0.00     0.031 A 
ATOM     33  C   UNL A   1      40.479  27.156  28.587  1.00  0.00     0.074 A 
ATOM     34  C   UNL A   1      42.387  26.225  27.339  1.00  0.00     0.049 A 
ATOM     35  N   UNL A   1      40.930  28.343  28.900  1.00  0.00    -0.248 NA
ATOM     36  C   UNL A   1      39.180  26.827  29.193  1.00  0.00     0.031 C 
ATOM     37  C   UNL A   1      43.157  25.236  26.584  1.00  0.00     0.029 A 
ATOM     38  N   UNL A   1      43.293  27.231  27.580  1.00  0.00    -0.354 N 
ATOM     39  C   UNL A   1      39.951  28.923  29.701  1.00  0.00     0.074 A 
ATOM     40  C   UNL A   1      38.882  27.954  29.820  1.00  0.00     0.031 C 
ATOM     41  C   UNL A   1      44.425  25.661  26.466  1.00  0.00     0.029 A 
ATOM     42  C   UNL A   1      44.540  26.996  27.046  1.00  0.00     0.049 A 
ATOM     43  H   UNL A   1      43.070  28.045  28.087  1.00  0.00     0.167 HD
ATOM     44  C   UNL A   1      39.941  30.151  30.279  1.00  0.00     0.034 A 
ATOM     45  C   UNL A   1      45.637  27.780  26.986  1.00  0.00     0.034 A 
ATOM     46  C   UNL A   1      41.023  31.100  30.182  1.00  0.00     0.049 A 
ATOM     47  C   UNL A   1      45.570  29.177  27.553  1.00  0.00     0.074 A 
ATOM     48  C   UNL A   1      41.091  32.391  30.681  1.00  0.00     0.029 A 
ATOM     49  N   UNL A   1      42.238  30.857  29.557  1.00  0.00    -0.354 N 
ATOM     50  N   UNL A   1      44.589  29.762  28.199  1.00  0.00    -0.248 NA
ATOM     51  C   UNL A   1      46.754  30.028  27.359  1.00  0.00     0.031 C 
ATOM     52  C   UNL A   1      42.325  32.941  30.317  1.00  0.00     0.029 A 
ATOM     53  C   UNL A   1      43.053  31.975  29.643  1.00  0.00     0.049 A 
ATOM     54  H   UNL A   1      42.485  30.012  29.116  1.00  0.00     0.167 HD
ATOM     55  C   UNL A   1      45.041  31.045  28.492  1.00  0.00     0.074 A 
ATOM     56  C   UNL A   1      46.391  31.141  27.981  1.00  0.00     0.031 C 
ATOM     57  C   UNL A   1      44.395  32.059  29.121  1.00  0.00     0.034 A 
BRANCH  44  58
ATOM     58  C   UNL A   1      38.679  30.562  30.997  1.00  0.00     0.023 A 
ATOM     59  C   UNL A   1      37.608  31.178  30.329  1.00  0.00     0.031 A 
ATOM     60  C   UNL A   1      38.573  30.372  32.386  1.00  0.00     0.131 A 
ATOM     61  C   UNL A   1      36.505  31.643  31.064  1.00  0.00     0.055 A 
ATOM     62  C   UNL A   1      37.441  30.770  33.099  1.00  0.00     0.041 A 
ATOM     63  F   UNL A   1      39.576  29.809  33.078  1.00  0.00    -0.206 F 
ATOM     64  C   UNL A   1      36.404  31.423  32.440  1.00  0.00     0.022 A 
BRANCH  61  65
ATOM     65  S   UNL A   1      35.267  32.664  30.219  1.00  0.00     0.124 S 
ATOM     66  O   UNL A   1      34.302  32.906  31.290  1.00  0.00    -0.237 OA
ATOM     67  O   UNL A   1      36.048  33.816  29.789  1.00  0.00    -0.237 OA
ATOM     68  O   UNL A   1      34.785  31.799  29.143  1.00  0.00    -0.744 OA
ENDBRANCH  61  65
ENDBRANCH  44  58
BRANCH  45  69
ATOM     69  C   UNL A   1      46.875  27.314  26.295  1.00  0.00     0.023 A 
ATOM     70  C   UNL A   1      47.155  27.704  24.977  1.00  0.00     0.031 A 
ATOM     71  C   UNL A   1      47.753  26.406  26.914  1.00  0.00     0.131 A 
ATOM     72  C   UNL A   1      48.259  27.154  24.304  1.00  0.00     0.055 A 
ATOM     73  C   UNL A   1      48.883  25.908  26.263  1.00  0.00     0.041 A 
ATOM     74  F   UNL A   1      47.523  25.986  28.169  1.00  0.00    -0.206 F 
ATOM     75  C   UNL A   1      49.133  26.272  24.944  1.00  0.00     0.022 A 
BRANCH  72  76
ATOM     76  S   UNL A   1      48.476  27.529  22.543  1.00  0.00     0.124 S 
ATOM     77  O   UNL A   1      47.270  28.296  22.254  1.00  0.00    -0.237 OA
ATOM     78  O   UNL A   1      49.727  28.280  22.544  1.00  0.00    -0.237 OA
ATOM     79  O   UNL A   1      48.542  26.209  21.919  1.00  0.00    -0.744 OA
ENDBRANCH  72  76
ENDBRANCH  45  69
BRANCH  57  80
ATOM     80  C   UNL A   1      45.163  33.342  29.317  1.00  0.00     0.023 A 
ATOM     81  C   UNL A   1      45.208  34.333  28.322  1.00  0.00     0.031 A 
ATOM     82  C   UNL A   1      45.871  33.566  30.512  1.00  0.00     0.131 A 
ATOM     83  C   UNL A   1      45.984  35.486  28.520  1.00  0.00     0.055 A 
ATOM     84  C   UNL A   1      46.605  34.734  30.721  1.00  0.00     0.041 A 
ATOM     85  F   UNL A   1      45.861  32.650  31.492  1.00  0.00    -0.206 F 
ATOM     86  C   UNL A   1      46.672  35.697  29.718  1.00  0.00     0.022 A 
BRANCH  83  87
ATOM     87  S   UNL A   1      46.140  36.678  27.161  1.00  0.00     0.124 S 
ATOM     88  O   UNL A   1      47.463  37.246  27.405  1.00  0.00    -0.237 OA
ATOM     89  O   UNL A   1      46.019  35.826  25.983  1.00  0.00    -0.237 OA
ATOM     90  O   UNL A   1      45.023  37.596  27.379  1.00  0.00    -0.744 OA
ENDBRANCH  83  87
ENDBRANCH  57  80
ENDBRANCH  31  32
ENDBRANCH  24  26
ENDBRANCH  23  24
ENDBRANCH  22  23
ENDBRANCH   1  22
TORSDOF 17
ENDMDL
