MODEL 1
REMARK VINA RESULT:     -11.6      0.000      0.000
REMARK SMILES Cc1ccc(C)c(S(=O)(=O)[C@H](C)C(=O)OCCOC(=O)c2ccc(-c3c4nc(c(-c5cc(S(=O)(=O)[O-])ccc5F)c5ccc([nH]5)c(-c5cc(S(=O)(=O)[O-])ccc5F)c5nc(c(-c6cc(S(=O)(=O)[O-])ccc6F)c6ccc3[nH]6)C=C5)C=C4)cc2)c1
REMARK SMILES IDX 17 1 16 2 15 3 13 4 14 5 11 6 12 7 8 8 9 9 10 10 7 11 1 12
REMARK SMILES IDX 2 13 3 14 84 15 4 16 5 17 6 18 18 19 19 20 20 21 21 22 22 23
REMARK SMILES IDX 83 24 23 25 82 26 24 27 25 28 26 29 76 30 27 31 81 32 75 33
REMARK SMILES IDX 77 34 28 35 80 36 74 37 73 38 29 40 61 41 41 42 60 43 42 44
REMARK SMILES IDX 45 45 59 46 78 47 43 48 44 49 58 51 79 52 46 53 30 54 31 55
REMARK SMILES IDX 39 56 32 57 38 58 40 59 37 60 33 61 34 62 35 63 36 64 62 65
REMARK SMILES IDX 63 66 71 67 64 68 70 69 72 70 69 71 65 72 66 73 67 74 68 75
REMARK SMILES IDX 47 76 48 77 56 78 49 79 55 80 57 81 54 82 50 83 51 84 52 85
REMARK SMILES IDX 53 86
REMARK H PARENT 77 39 45 50
REMARK Flexibility Score: inf
ROOT
ATOM      1  C   UNL A   1      35.687  32.895  29.299  1.00  0.00     0.275 C 
ENDROOT
BRANCH   1   2
ATOM      2  C   UNL A   1      34.432  33.233  30.112  1.00  0.00     0.274 C 
BRANCH   2   3
ATOM      3  O   UNL A   1      34.511  32.608  31.398  1.00  0.00    -0.461 OA
BRANCH   3   4
ATOM      4  C   UNL A   1      34.180  33.362  32.492  1.00  0.00     0.324 C 
ATOM      5  O   UNL A   1      33.269  33.081  33.253  1.00  0.00    -0.251 OA
BRANCH   4   6
ATOM      6  C   UNL A   1      35.198  34.449  32.695  1.00  0.00     0.219 C 
ATOM      7  C   UNL A   1      34.618  35.577  33.554  1.00  0.00     0.038 C 
BRANCH   6   8
ATOM      8  S   UNL A   1      36.682  33.809  33.449  1.00  0.00     0.192 S 
ATOM      9  O   UNL A   1      36.284  32.740  34.345  1.00  0.00    -0.223 OA
ATOM     10  O   UNL A   1      37.402  34.949  34.002  1.00  0.00    -0.223 OA
BRANCH   8  11
ATOM     11  C   UNL A   1      37.802  33.188  32.183  1.00  0.00     0.071 A 
ATOM     12  C   UNL A   1      40.029  34.773  29.486  1.00  0.00     0.044 C 
ATOM     13  C   UNL A   1      39.384  33.763  30.389  1.00  0.00    -0.050 A 
ATOM     14  C   UNL A   1      39.814  32.439  30.355  1.00  0.00     0.004 A 
ATOM     15  C   UNL A   1      38.398  34.132  31.317  1.00  0.00     0.024 A 
ATOM     16  C   UNL A   1      39.254  31.503  31.221  1.00  0.00     0.005 A 
ATOM     17  C   UNL A   1      38.247  31.851  32.148  1.00  0.00    -0.032 A 
ATOM     18  C   UNL A   1      37.839  30.741  33.078  1.00  0.00     0.046 C 
ENDBRANCH   8  11
ENDBRANCH   6   8
ENDBRANCH   4   6
ENDBRANCH   3   4
ENDBRANCH   2   3
ENDBRANCH   1   2
BRANCH   1  19
ATOM     19  O   UNL A   1      36.273  31.566  29.476  1.00  0.00    -0.458 OA
BRANCH  19  20
ATOM     20  C   UNL A   1      36.114  30.448  28.722  1.00  0.00     0.338 C 
ATOM     21  O   UNL A   1      35.055  30.217  28.150  1.00  0.00    -0.246 OA
BRANCH  20  22
ATOM     22  C   UNL A   1      37.274  29.557  28.533  1.00  0.00     0.060 A 
ATOM     23  C   UNL A   1      38.078  29.716  27.393  1.00  0.00     0.016 A 
ATOM     24  C   UNL A   1      37.636  28.658  29.527  1.00  0.00     0.016 A 
ATOM     25  C   UNL A   1      39.339  29.123  27.341  1.00  0.00     0.010 A 
ATOM     26  C   UNL A   1      38.923  28.158  29.524  1.00  0.00     0.010 A 
ATOM     27  C   UNL A   1      39.786  28.390  28.439  1.00  0.00    -0.014 A 
BRANCH  27  28
ATOM     28  C   UNL A   1      41.155  27.868  28.504  1.00  0.00     0.031 A 
ATOM     29  C   UNL A   1      41.552  26.673  27.678  1.00  0.00     0.074 A 
ATOM     30  C   UNL A   1      42.137  28.652  28.995  1.00  0.00     0.049 A 
ATOM     31  N   UNL A   1      42.163  25.594  28.059  1.00  0.00    -0.248 NA
ATOM     32  C   UNL A   1      41.265  26.684  26.239  1.00  0.00     0.031 C 
ATOM     33  C   UNL A   1      42.032  30.013  29.533  1.00  0.00     0.029 A 
ATOM     34  N   UNL A   1      43.476  28.458  28.909  1.00  0.00    -0.354 N 
ATOM     35  C   UNL A   1      42.451  24.835  26.912  1.00  0.00     0.074 A 
ATOM     36  C   UNL A   1      41.781  25.518  25.836  1.00  0.00     0.031 C 
ATOM     37  C   UNL A   1      43.232  30.620  29.432  1.00  0.00     0.029 A 
ATOM     38  C   UNL A   1      44.209  29.627  29.025  1.00  0.00     0.049 A 
ATOM     39  H   UNL A   1      43.887  27.574  28.775  1.00  0.00     0.167 HD
ATOM     40  C   UNL A   1      43.321  23.776  26.929  1.00  0.00     0.034 A 
ATOM     41  C   UNL A   1      45.523  29.787  28.747  1.00  0.00     0.034 A 
ATOM     42  C   UNL A   1      43.642  23.399  28.285  1.00  0.00     0.049 A 
ATOM     43  C   UNL A   1      46.149  28.447  28.883  1.00  0.00     0.074 A 
ATOM     44  C   UNL A   1      42.915  22.961  29.374  1.00  0.00     0.029 A 
ATOM     45  N   UNL A   1      44.860  23.781  28.804  1.00  0.00    -0.354 N 
ATOM     46  N   UNL A   1      46.146  27.777  30.008  1.00  0.00    -0.248 NA
ATOM     47  C   UNL A   1      46.350  27.639  27.690  1.00  0.00     0.031 C 
ATOM     48  C   UNL A   1      43.496  23.646  30.483  1.00  0.00     0.029 A 
ATOM     49  C   UNL A   1      44.573  24.393  29.997  1.00  0.00     0.049 A 
ATOM     50  H   UNL A   1      45.749  23.644  28.403  1.00  0.00     0.167 HD
ATOM     51  C   UNL A   1      45.899  26.463  29.645  1.00  0.00     0.074 A 
ATOM     52  C   UNL A   1      46.161  26.419  28.206  1.00  0.00     0.031 C 
ATOM     53  C   UNL A   1      45.230  25.596  30.469  1.00  0.00     0.034 A 
BRANCH  40  54
ATOM     54  C   UNL A   1      44.119  23.176  25.776  1.00  0.00     0.023 A 
ATOM     55  C   UNL A   1      43.888  21.812  25.463  1.00  0.00     0.031 A 
ATOM     56  C   UNL A   1      45.237  23.750  25.142  1.00  0.00     0.131 A 
ATOM     57  C   UNL A   1      44.789  21.065  24.681  1.00  0.00     0.055 A 
ATOM     58  C   UNL A   1      46.095  23.020  24.303  1.00  0.00     0.041 A 
ATOM     59  F   UNL A   1      45.613  25.015  25.355  1.00  0.00    -0.206 F 
ATOM     60  C   UNL A   1      45.897  21.663  24.097  1.00  0.00     0.022 A 
BRANCH  57  61
ATOM     61  S   UNL A   1      44.592  19.260  24.613  1.00  0.00     0.124 S 
ATOM     62  O   UNL A   1      45.523  18.816  25.644  1.00  0.00    -0.237 OA
ATOM     63  O   UNL A   1      43.173  19.098  24.915  1.00  0.00    -0.237 OA
ATOM     64  O   UNL A   1      44.980  18.928  23.243  1.00  0.00    -0.744 OA
ENDBRANCH  57  61
ENDBRANCH  40  54
BRANCH  41  65
ATOM     65  C   UNL A   1      46.090  30.964  28.050  1.00  0.00     0.023 A 
ATOM     66  C   UNL A   1      45.366  31.720  27.116  1.00  0.00     0.031 A 
ATOM     67  C   UNL A   1      47.361  31.461  28.433  1.00  0.00     0.131 A 
ATOM     68  C   UNL A   1      45.927  32.901  26.579  1.00  0.00     0.055 A 
ATOM     69  C   UNL A   1      47.915  32.622  27.893  1.00  0.00     0.041 A 
ATOM     70  F   UNL A   1      48.081  30.861  29.395  1.00  0.00    -0.206 F 
ATOM     71  C   UNL A   1      47.196  33.351  26.961  1.00  0.00     0.022 A 
BRANCH  68  72
ATOM     72  S   UNL A   1      44.962  33.918  25.423  1.00  0.00     0.124 S 
ATOM     73  O   UNL A   1      46.005  34.642  24.705  1.00  0.00    -0.237 OA
ATOM     74  O   UNL A   1      44.227  32.915  24.661  1.00  0.00    -0.237 OA
ATOM     75  O   UNL A   1      44.134  34.742  26.305  1.00  0.00    -0.744 OA
ENDBRANCH  68  72
ENDBRANCH  41  65
BRANCH  53  76
ATOM     76  C   UNL A   1      44.878  26.024  31.882  1.00  0.00     0.023 A 
ATOM     77  C   UNL A   1      43.757  26.822  32.203  1.00  0.00     0.031 A 
ATOM     78  C   UNL A   1      45.560  25.412  32.948  1.00  0.00     0.131 A 
ATOM     79  C   UNL A   1      43.347  26.974  33.541  1.00  0.00     0.055 A 
ATOM     80  C   UNL A   1      45.146  25.553  34.274  1.00  0.00     0.041 A 
ATOM     81  F   UNL A   1      46.608  24.604  32.711  1.00  0.00    -0.206 F 
ATOM     82  C   UNL A   1      44.037  26.336  34.575  1.00  0.00     0.022 A 
BRANCH  79  83
ATOM     83  S   UNL A   1      41.892  27.992  33.955  1.00  0.00     0.124 S 
ATOM     84  O   UNL A   1      41.151  27.167  34.902  1.00  0.00    -0.237 OA
ATOM     85  O   UNL A   1      42.495  29.206  34.497  1.00  0.00    -0.237 OA
ATOM     86  O   UNL A   1      41.228  28.171  32.661  1.00  0.00    -0.744 OA
ENDBRANCH  79  83
ENDBRANCH  53  76
ENDBRANCH  27  28
ENDBRANCH  20  22
ENDBRANCH  19  20
ENDBRANCH   1  19
TORSDOF 16
ENDMDL
MODEL 2
REMARK VINA RESULT:     -11.2      3.479     11.943
REMARK SMILES Cc1ccc(C)c(S(=O)(=O)[C@H](C)C(=O)OCCOC(=O)c2ccc(-c3c4nc(c(-c5cc(S(=O)(=O)[O-])ccc5F)c5ccc([nH]5)c(-c5cc(S(=O)(=O)[O-])ccc5F)c5nc(c(-c6cc(S(=O)(=O)[O-])ccc6F)c6ccc3[nH]6)C=C5)C=C4)cc2)c1
REMARK SMILES IDX 17 1 16 2 15 3 13 4 14 5 11 6 12 7 8 8 9 9 10 10 7 11 1 12
REMARK SMILES IDX 2 13 3 14 84 15 4 16 5 17 6 18 18 19 19 20 20 21 21 22 22 23
REMARK SMILES IDX 83 24 23 25 82 26 24 27 25 28 26 29 76 30 27 31 81 32 75 33
REMARK SMILES IDX 77 34 28 35 80 36 74 37 73 38 29 40 61 41 41 42 60 43 42 44
REMARK SMILES IDX 45 45 59 46 78 47 43 48 44 49 58 51 79 52 46 53 30 54 31 55
REMARK SMILES IDX 39 56 32 57 38 58 40 59 37 60 33 61 34 62 35 63 36 64 62 65
REMARK SMILES IDX 63 66 71 67 64 68 70 69 72 70 69 71 65 72 66 73 67 74 68 75
REMARK SMILES IDX 47 76 48 77 56 78 49 79 55 80 57 81 54 82 50 83 51 84 52 85
REMARK SMILES IDX 53 86
REMARK H PARENT 77 39 45 50
REMARK Flexibility Score: inf
ROOT
ATOM      1  C   UNL A   1      41.101  22.549  26.571  1.00  0.00     0.275 C 
ENDROOT
BRANCH   1   2
ATOM      2  C   UNL A   1      42.417  21.973  27.106  1.00  0.00     0.274 C 
BRANCH   2   3
ATOM      3  O   UNL A   1      43.097  21.276  26.056  1.00  0.00    -0.461 OA
BRANCH   3   4
ATOM      4  C   UNL A   1      43.879  22.013  25.207  1.00  0.00     0.324 C 
ATOM      5  O   UNL A   1      43.434  22.653  24.268  1.00  0.00    -0.251 OA
BRANCH   4   6
ATOM      6  C   UNL A   1      45.295  22.045  25.709  1.00  0.00     0.219 C 
ATOM      7  C   UNL A   1      46.165  21.050  24.933  1.00  0.00     0.038 C 
BRANCH   6   8
ATOM      8  S   UNL A   1      45.984  23.686  25.583  1.00  0.00     0.192 S 
ATOM      9  O   UNL A   1      46.089  24.002  24.171  1.00  0.00    -0.223 OA
ATOM     10  O   UNL A   1      47.197  23.699  26.391  1.00  0.00    -0.223 OA
BRANCH   8  11
ATOM     11  C   UNL A   1      44.918  24.871  26.420  1.00  0.00     0.071 A 
ATOM     12  C   UNL A   1      42.568  27.697  25.308  1.00  0.00     0.044 C 
ATOM     13  C   UNL A   1      43.293  26.700  26.165  1.00  0.00    -0.050 A 
ATOM     14  C   UNL A   1      42.972  26.593  27.515  1.00  0.00     0.004 A 
ATOM     15  C   UNL A   1      44.247  25.824  25.622  1.00  0.00     0.024 A 
ATOM     16  C   UNL A   1      43.606  25.639  28.308  1.00  0.00     0.005 A 
ATOM     17  C   UNL A   1      44.582  24.762  27.785  1.00  0.00    -0.032 A 
ATOM     18  C   UNL A   1      45.080  23.727  28.756  1.00  0.00     0.046 C 
ENDBRANCH   8  11
ENDBRANCH   6   8
ENDBRANCH   4   6
ENDBRANCH   3   4
ENDBRANCH   2   3
ENDBRANCH   1   2
BRANCH   1  19
ATOM     19  O   UNL A   1      40.677  23.856  27.073  1.00  0.00    -0.458 OA
BRANCH  19  20
ATOM     20  C   UNL A   1      39.556  24.566  26.786  1.00  0.00     0.338 C 
ATOM     21  O   UNL A   1      38.736  24.153  25.974  1.00  0.00    -0.246 OA
BRANCH  20  22
ATOM     22  C   UNL A   1      39.299  25.809  27.538  1.00  0.00     0.060 A 
ATOM     23  C   UNL A   1      38.967  25.727  28.900  1.00  0.00     0.016 A 
ATOM     24  C   UNL A   1      39.505  27.045  26.939  1.00  0.00     0.016 A 
ATOM     25  C   UNL A   1      39.033  26.864  29.703  1.00  0.00     0.010 A 
ATOM     26  C   UNL A   1      39.673  28.148  27.751  1.00  0.00     0.010 A 
ATOM     27  C   UNL A   1      39.447  28.069  29.136  1.00  0.00    -0.014 A 
BRANCH  27  28
ATOM     28  C   UNL A   1      39.677  29.261  29.958  1.00  0.00     0.031 A 
ATOM     29  C   UNL A   1      38.524  30.142  30.358  1.00  0.00     0.074 A 
ATOM     30  C   UNL A   1      40.827  29.369  30.656  1.00  0.00     0.049 A 
ATOM     31  N   UNL A   1      38.416  31.431  30.252  1.00  0.00    -0.248 NA
ATOM     32  C   UNL A   1      37.349  29.526  30.984  1.00  0.00     0.031 C 
ATOM     33  C   UNL A   1      41.959  28.436  30.695  1.00  0.00     0.029 A 
ATOM     34  N   UNL A   1      41.118  30.247  31.647  1.00  0.00    -0.354 N 
ATOM     35  C   UNL A   1      37.228  31.817  30.894  1.00  0.00     0.074 A 
ATOM     36  C   UNL A   1      36.570  30.583  31.236  1.00  0.00     0.031 C 
ATOM     37  C   UNL A   1      42.640  28.619  31.845  1.00  0.00     0.029 A 
ATOM     38  C   UNL A   1      42.116  29.803  32.499  1.00  0.00     0.049 A 
ATOM     39  H   UNL A   1      40.663  31.114  31.752  1.00  0.00     0.167 HD
ATOM     40  C   UNL A   1      36.947  33.125  31.201  1.00  0.00     0.034 A 
ATOM     41  C   UNL A   1      42.452  30.338  33.694  1.00  0.00     0.034 A 
ATOM     42  C   UNL A   1      37.866  34.015  30.532  1.00  0.00     0.049 A 
ATOM     43  C   UNL A   1      42.020  31.758  33.660  1.00  0.00     0.074 A 
ATOM     44  C   UNL A   1      38.187  34.276  29.214  1.00  0.00     0.029 A 
ATOM     45  N   UNL A   1      38.893  34.572  31.262  1.00  0.00    -0.354 N 
ATOM     46  N   UNL A   1      42.488  32.617  32.790  1.00  0.00    -0.248 NA
ATOM     47  C   UNL A   1      40.739  32.119  34.249  1.00  0.00     0.031 C 
ATOM     48  C   UNL A   1      39.606  34.425  29.220  1.00  0.00     0.029 A 
ATOM     49  C   UNL A   1      40.034  34.312  30.547  1.00  0.00     0.049 A 
ATOM     50  H   UNL A   1      38.823  35.054  32.118  1.00  0.00     0.167 HD
ATOM     51  C   UNL A   1      41.392  33.370  32.400  1.00  0.00     0.074 A 
ATOM     52  C   UNL A   1      40.376  33.104  33.420  1.00  0.00     0.031 C 
ATOM     53  C   UNL A   1      41.292  33.911  31.144  1.00  0.00     0.034 A 
BRANCH  40  54
ATOM     54  C   UNL A   1      36.022  33.676  32.279  1.00  0.00     0.023 A 
ATOM     55  C   UNL A   1      35.027  34.602  31.873  1.00  0.00     0.031 A 
ATOM     56  C   UNL A   1      36.194  33.561  33.671  1.00  0.00     0.131 A 
ATOM     57  C   UNL A   1      34.361  35.432  32.795  1.00  0.00     0.055 A 
ATOM     58  C   UNL A   1      35.477  34.339  34.595  1.00  0.00     0.041 A 
ATOM     59  F   UNL A   1      37.112  32.758  34.218  1.00  0.00    -0.206 F 
ATOM     60  C   UNL A   1      34.582  35.306  34.160  1.00  0.00     0.022 A 
BRANCH  57  61
ATOM     61  S   UNL A   1      33.360  36.809  32.162  1.00  0.00     0.124 S 
ATOM     62  O   UNL A   1      33.505  36.648  30.720  1.00  0.00    -0.237 OA
ATOM     63  O   UNL A   1      32.044  36.505  32.714  1.00  0.00    -0.237 OA
ATOM     64  O   UNL A   1      34.014  37.989  32.723  1.00  0.00    -0.744 OA
ENDBRANCH  57  61
ENDBRANCH  40  54
BRANCH  41  65
ATOM     65  C   UNL A   1      42.786  29.542  34.898  1.00  0.00     0.023 A 
ATOM     66  C   UNL A   1      42.068  28.399  35.281  1.00  0.00     0.031 A 
ATOM     67  C   UNL A   1      43.965  29.835  35.628  1.00  0.00     0.131 A 
ATOM     68  C   UNL A   1      42.515  27.619  36.372  1.00  0.00     0.055 A 
ATOM     69  C   UNL A   1      44.397  29.067  36.710  1.00  0.00     0.041 A 
ATOM     70  F   UNL A   1      44.771  30.847  35.269  1.00  0.00    -0.206 F 
ATOM     71  C   UNL A   1      43.671  27.950  37.087  1.00  0.00     0.022 A 
BRANCH  68  72
ATOM     72  S   UNL A   1      41.625  26.100  36.824  1.00  0.00     0.124 S 
ATOM     73  O   UNL A   1      42.676  25.301  37.444  1.00  0.00    -0.237 OA
ATOM     74  O   UNL A   1      40.581  26.600  37.711  1.00  0.00    -0.237 OA
ATOM     75  O   UNL A   1      41.143  25.593  35.538  1.00  0.00    -0.744 OA
ENDBRANCH  68  72
ENDBRANCH  41  65
BRANCH  53  76
ATOM     76  C   UNL A   1      42.471  33.823  30.194  1.00  0.00     0.023 A 
ATOM     77  C   UNL A   1      42.799  32.663  29.455  1.00  0.00     0.031 A 
ATOM     78  C   UNL A   1      43.135  35.013  29.851  1.00  0.00     0.131 A 
ATOM     79  C   UNL A   1      43.743  32.722  28.413  1.00  0.00     0.055 A 
ATOM     80  C   UNL A   1      44.063  35.074  28.810  1.00  0.00     0.041 A 
ATOM     81  F   UNL A   1      42.840  36.163  30.482  1.00  0.00    -0.206 F 
ATOM     82  C   UNL A   1      44.370  33.927  28.086  1.00  0.00     0.022 A 
BRANCH  79  83
ATOM     83  S   UNL A   1      44.156  31.230  27.451  1.00  0.00     0.124 S 
ATOM     84  O   UNL A   1      43.113  30.280  27.821  1.00  0.00    -0.237 OA
ATOM     85  O   UNL A   1      44.121  31.716  26.075  1.00  0.00    -0.237 OA
ATOM     86  O   UNL A   1      45.494  30.877  27.934  1.00  0.00    -0.744 OA
ENDBRANCH  79  83
ENDBRANCH  53  76
ENDBRANCH  27  28
ENDBRANCH  20  22
ENDBRANCH  19  20
ENDBRANCH   1  19
TORSDOF 16
ENDMDL
MODEL 3
REMARK VINA RESULT:     -11.2      2.607      7.181
REMARK SMILES Cc1ccc(C)c(S(=O)(=O)[C@H](C)C(=O)OCCOC(=O)c2ccc(-c3c4nc(c(-c5cc(S(=O)(=O)[O-])ccc5F)c5ccc([nH]5)c(-c5cc(S(=O)(=O)[O-])ccc5F)c5nc(c(-c6cc(S(=O)(=O)[O-])ccc6F)c6ccc3[nH]6)C=C5)C=C4)cc2)c1
REMARK SMILES IDX 17 1 16 2 15 3 13 4 14 5 11 6 12 7 8 8 9 9 10 10 7 11 1 12
REMARK SMILES IDX 2 13 3 14 84 15 4 16 5 17 6 18 18 19 19 20 20 21 21 22 22 23
REMARK SMILES IDX 83 24 23 25 82 26 24 27 25 28 26 29 76 30 27 31 81 32 75 33
REMARK SMILES IDX 77 34 28 35 80 36 74 37 73 38 29 40 61 41 41 42 60 43 42 44
REMARK SMILES IDX 45 45 59 46 78 47 43 48 44 49 58 51 79 52 46 53 30 54 31 55
REMARK SMILES IDX 39 56 32 57 38 58 40 59 37 60 33 61 34 62 35 63 36 64 62 65
REMARK SMILES IDX 63 66 71 67 64 68 70 69 72 70 69 71 65 72 66 73 67 74 68 75
REMARK SMILES IDX 47 76 48 77 56 78 49 79 55 80 57 81 54 82 50 83 51 84 52 85
REMARK SMILES IDX 53 86
REMARK H PARENT 77 39 45 50
REMARK Flexibility Score: inf
ROOT
ATOM      1  C   UNL A   1      33.877  33.468  28.476  1.00  0.00     0.275 C 
ENDROOT
BRANCH   1   2
ATOM      2  C   UNL A   1      34.430  34.036  29.788  1.00  0.00     0.274 C 
BRANCH   2   3
ATOM      3  O   UNL A   1      34.489  32.996  30.772  1.00  0.00    -0.461 OA
BRANCH   3   4
ATOM      4  C   UNL A   1      34.355  33.356  32.086  1.00  0.00     0.324 C 
ATOM      5  O   UNL A   1      33.420  34.013  32.512  1.00  0.00    -0.251 OA
BRANCH   4   6
ATOM      6  C   UNL A   1      35.415  32.684  32.914  1.00  0.00     0.219 C 
ATOM      7  C   UNL A   1      36.003  31.484  32.165  1.00  0.00     0.038 C 
BRANCH   6   8
ATOM      8  S   UNL A   1      36.713  33.828  33.350  1.00  0.00     0.192 S 
ATOM      9  O   UNL A   1      36.979  33.659  34.765  1.00  0.00    -0.223 OA
ATOM     10  O   UNL A   1      36.299  35.141  32.871  1.00  0.00    -0.223 OA
BRANCH   8  11
ATOM     11  C   UNL A   1      38.192  33.483  32.382  1.00  0.00     0.071 A 
ATOM     12  C   UNL A   1      39.878  35.052  29.310  1.00  0.00     0.044 C 
ATOM     13  C   UNL A   1      39.621  34.182  30.506  1.00  0.00    -0.050 A 
ATOM     14  C   UNL A   1      40.606  33.298  30.936  1.00  0.00     0.004 A 
ATOM     15  C   UNL A   1      38.431  34.284  31.245  1.00  0.00     0.024 A 
ATOM     16  C   UNL A   1      40.395  32.520  32.073  1.00  0.00     0.005 A 
ATOM     17  C   UNL A   1      39.197  32.594  32.818  1.00  0.00    -0.032 A 
ATOM     18  C   UNL A   1      39.186  31.767  34.074  1.00  0.00     0.046 C 
ENDBRANCH   8  11
ENDBRANCH   6   8
ENDBRANCH   4   6
ENDBRANCH   3   4
ENDBRANCH   2   3
ENDBRANCH   1   2
BRANCH   1  19
ATOM     19  O   UNL A   1      34.783  32.680  27.641  1.00  0.00    -0.458 OA
BRANCH  19  20
ATOM     20  C   UNL A   1      35.036  31.346  27.668  1.00  0.00     0.338 C 
ATOM     21  O   UNL A   1      34.380  30.564  26.989  1.00  0.00    -0.246 OA
BRANCH  20  22
ATOM     22  C   UNL A   1      36.177  30.863  28.467  1.00  0.00     0.060 A 
ATOM     23  C   UNL A   1      36.277  29.492  28.754  1.00  0.00     0.016 A 
ATOM     24  C   UNL A   1      37.201  31.731  28.822  1.00  0.00     0.016 A 
ATOM     25  C   UNL A   1      37.481  28.964  29.219  1.00  0.00     0.010 A 
ATOM     26  C   UNL A   1      38.422  31.195  29.180  1.00  0.00     0.010 A 
ATOM     27  C   UNL A   1      38.576  29.812  29.375  1.00  0.00    -0.014 A 
BRANCH  27  28
ATOM     28  C   UNL A   1      39.904  29.291  29.717  1.00  0.00     0.031 A 
ATOM     29  C   UNL A   1      40.224  28.901  31.135  1.00  0.00     0.074 A 
ATOM     30  C   UNL A   1      40.699  28.817  28.736  1.00  0.00     0.049 A 
ATOM     31  N   UNL A   1      41.246  29.245  31.857  1.00  0.00    -0.248 NA
ATOM     32  C   UNL A   1      39.315  27.990  31.839  1.00  0.00     0.031 C 
ATOM     33  C   UNL A   1      40.435  28.768  27.293  1.00  0.00     0.029 A 
ATOM     34  N   UNL A   1      41.828  28.079  28.866  1.00  0.00    -0.354 N 
ATOM     35  C   UNL A   1      41.190  28.516  33.057  1.00  0.00     0.074 A 
ATOM     36  C   UNL A   1      39.921  27.837  33.021  1.00  0.00     0.031 C 
ATOM     37  C   UNL A   1      41.191  27.799  26.739  1.00  0.00     0.029 A 
ATOM     38  C   UNL A   1      42.123  27.322  27.744  1.00  0.00     0.049 A 
ATOM     39  H   UNL A   1      42.384  28.080  29.678  1.00  0.00     0.167 HD
ATOM     40  C   UNL A   1      42.251  28.438  33.922  1.00  0.00     0.034 A 
ATOM     41  C   UNL A   1      43.032  26.324  27.660  1.00  0.00     0.034 A 
ATOM     42  C   UNL A   1      43.264  29.406  33.576  1.00  0.00     0.049 A 
ATOM     43  C   UNL A   1      44.034  26.575  28.727  1.00  0.00     0.074 A 
ATOM     44  C   UNL A   1      43.305  30.783  33.477  1.00  0.00     0.029 A 
ATOM     45  N   UNL A   1      44.394  28.970  32.919  1.00  0.00    -0.354 N 
ATOM     46  N   UNL A   1      44.764  27.661  28.769  1.00  0.00    -0.248 NA
ATOM     47  C   UNL A   1      43.901  25.878  29.997  1.00  0.00     0.031 C 
ATOM     48  C   UNL A   1      44.086  31.027  32.307  1.00  0.00     0.029 A 
ATOM     49  C   UNL A   1      44.518  29.788  31.825  1.00  0.00     0.049 A 
ATOM     50  H   UNL A   1      44.987  28.228  33.179  1.00  0.00     0.167 HD
ATOM     51  C   UNL A   1      44.804  28.018  30.107  1.00  0.00     0.074 A 
ATOM     52  C   UNL A   1      44.366  26.820  30.825  1.00  0.00     0.031 C 
ATOM     53  C   UNL A   1      44.904  29.325  30.507  1.00  0.00     0.034 A 
BRANCH  40  54
ATOM     54  C   UNL A   1      42.565  27.361  34.955  1.00  0.00     0.023 A 
ATOM     55  C   UNL A   1      43.444  26.319  34.563  1.00  0.00     0.031 A 
ATOM     56  C   UNL A   1      41.892  27.146  36.172  1.00  0.00     0.131 A 
ATOM     57  C   UNL A   1      43.530  25.110  35.279  1.00  0.00     0.055 A 
ATOM     58  C   UNL A   1      42.035  25.967  36.923  1.00  0.00     0.041 A 
ATOM     59  F   UNL A   1      41.004  28.014  36.666  1.00  0.00    -0.206 F 
ATOM     60  C   UNL A   1      42.827  24.926  36.462  1.00  0.00     0.022 A 
BRANCH  57  61
ATOM     61  S   UNL A   1      44.418  23.715  34.527  1.00  0.00     0.124 S 
ATOM     62  O   UNL A   1      45.775  24.240  34.428  1.00  0.00    -0.237 OA
ATOM     63  O   UNL A   1      44.207  22.657  35.509  1.00  0.00    -0.237 OA
ATOM     64  O   UNL A   1      43.732  23.526  33.250  1.00  0.00    -0.744 OA
ENDBRANCH  57  61
ENDBRANCH  40  54
BRANCH  41  65
ATOM     65  C   UNL A   1      42.808  25.053  26.935  1.00  0.00     0.023 A 
ATOM     66  C   UNL A   1      43.809  24.414  26.187  1.00  0.00     0.031 A 
ATOM     67  C   UNL A   1      41.589  24.352  27.108  1.00  0.00     0.131 A 
ATOM     68  C   UNL A   1      43.561  23.143  25.621  1.00  0.00     0.055 A 
ATOM     69  C   UNL A   1      41.345  23.102  26.539  1.00  0.00     0.041 A 
ATOM     70  F   UNL A   1      40.613  24.838  27.892  1.00  0.00    -0.206 F 
ATOM     71  C   UNL A   1      42.336  22.488  25.791  1.00  0.00     0.022 A 
BRANCH  68  72
ATOM     72  S   UNL A   1      44.880  22.284  24.712  1.00  0.00     0.124 S 
ATOM     73  O   UNL A   1      45.915  22.145  25.730  1.00  0.00    -0.237 OA
ATOM     74  O   UNL A   1      44.219  21.055  24.287  1.00  0.00    -0.237 OA
ATOM     75  O   UNL A   1      45.203  23.210  23.626  1.00  0.00    -0.744 OA
ENDBRANCH  68  72
ENDBRANCH  41  65
BRANCH  53  76
ATOM     76  C   UNL A   1      45.134  30.411  29.472  1.00  0.00     0.023 A 
ATOM     77  C   UNL A   1      46.396  30.700  28.905  1.00  0.00     0.031 A 
ATOM     78  C   UNL A   1      44.009  31.006  28.876  1.00  0.00     0.131 A 
ATOM     79  C   UNL A   1      46.499  31.539  27.779  1.00  0.00     0.055 A 
ATOM     80  C   UNL A   1      44.110  31.828  27.752  1.00  0.00     0.041 A 
ATOM     81  F   UNL A   1      42.774  30.740  29.336  1.00  0.00    -0.206 F 
ATOM     82  C   UNL A   1      45.357  32.098  27.200  1.00  0.00     0.022 A 
BRANCH  79  83
ATOM     83  S   UNL A   1      48.125  31.900  27.039  1.00  0.00     0.124 S 
ATOM     84  O   UNL A   1      47.831  32.921  26.040  1.00  0.00    -0.237 OA
ATOM     85  O   UNL A   1      48.912  32.336  28.189  1.00  0.00    -0.237 OA
ATOM     86  O   UNL A   1      48.535  30.609  26.480  1.00  0.00    -0.744 OA
ENDBRANCH  79  83
ENDBRANCH  53  76
ENDBRANCH  27  28
ENDBRANCH  20  22
ENDBRANCH  19  20
ENDBRANCH   1  19
TORSDOF 16
ENDMDL
