MODEL 1
REMARK VINA RESULT:     -11.2      0.000      0.000
REMARK SMILES CC(C)CS(=O)(=O)Cc1c(C(=O)OCCOC(=O)c2ccc(-c3c4nc(c(-c5cc(S(=O)(=O)[O-])ccc5F)c5ccc([nH]5)c(-c5cc(S(=O)(=O)[O-])ccc5F)c5nc(c(-c6cc(S(=O)(=O)[O-])ccc6F)c6ccc3[nH]6)C=C5)C=C4)cc2)oc2ccccc12
REMARK SMILES IDX 14 1 13 2 11 3 12 4 10 5 9 6 88 7 82 8 83 9 87 10 84 11
REMARK SMILES IDX 86 12 85 13 8 14 5 15 6 16 7 17 4 18 2 19 1 20 3 21 15 22
REMARK SMILES IDX 16 23 17 24 18 25 19 26 20 27 81 28 21 29 80 30 22 31 23 32
REMARK SMILES IDX 24 33 74 34 25 35 79 36 73 37 75 38 26 39 78 40 72 41 71 42
REMARK SMILES IDX 27 44 59 45 39 46 58 47 40 48 43 49 57 50 76 51 41 52 42 53
REMARK SMILES IDX 56 55 77 56 44 57 28 58 29 59 37 60 30 61 36 62 38 63 35 64
REMARK SMILES IDX 31 65 32 66 33 67 34 68 60 69 61 70 69 71 62 72 68 73 70 74
REMARK SMILES IDX 67 75 63 76 64 77 65 78 66 79 45 80 46 81 54 82 47 83 53 84
REMARK SMILES IDX 55 85 52 86 48 87 49 88 50 89 51 90
REMARK H PARENT 75 43 43 54
REMARK Flexibility Score: inf
ROOT
ATOM      1  C   UNL A   1      31.857  28.163  24.999  1.00  0.00     0.275 C 
ENDROOT
BRANCH   1   2
ATOM      2  O   UNL A   1      33.044  27.463  24.561  1.00  0.00    -0.456 OA
BRANCH   2   3
ATOM      3  C   UNL A   1      32.853  26.510  23.603  1.00  0.00     0.374 C 
ATOM      4  O   UNL A   1      32.273  26.701  22.542  1.00  0.00    -0.242 OA
BRANCH   3   5
ATOM      5  C   UNL A   1      33.498  25.274  23.988  1.00  0.00     0.217 A 
ATOM      6  C   UNL A   1      33.455  24.518  25.161  1.00  0.00     0.028 A 
ATOM      7  C   UNL A   1      34.678  23.775  25.156  1.00  0.00     0.025 A 
ATOM      8  O   UNL A   1      34.462  24.777  23.150  1.00  0.00    -0.449 OA
ATOM      9  C   UNL A   1      35.190  23.884  23.871  1.00  0.00     0.135 A 
ATOM     10  C   UNL A   1      35.417  23.045  26.106  1.00  0.00     0.012 A 
ATOM     11  C   UNL A   1      36.322  23.212  23.420  1.00  0.00     0.048 A 
ATOM     12  C   UNL A   1      36.596  22.404  25.700  1.00  0.00     0.001 A 
ATOM     13  C   UNL A   1      37.017  22.455  24.369  1.00  0.00     0.004 A 
BRANCH   6  14
ATOM     14  C   UNL A   1      32.510  24.628  26.314  1.00  0.00     0.177 C 
BRANCH  14  15
ATOM     15  S   UNL A   1      31.557  23.178  26.877  1.00  0.00     0.154 S 
ATOM     16  O   UNL A   1      30.252  23.691  27.253  1.00  0.00    -0.228 OA
ATOM     17  O   UNL A   1      32.382  22.579  27.918  1.00  0.00    -0.228 OA
BRANCH  15  18
ATOM     18  C   UNL A   1      31.260  21.833  25.656  1.00  0.00     0.140 C 
BRANCH  18  19
ATOM     19  C   UNL A   1      32.490  21.049  25.041  1.00  0.00    -0.002 C 
ATOM     20  C   UNL A   1      32.591  19.516  25.182  1.00  0.00     0.008 C 
ATOM     21  C   UNL A   1      32.445  21.216  23.510  1.00  0.00     0.008 C 
ENDBRANCH  18  19
ENDBRANCH  15  18
ENDBRANCH  14  15
ENDBRANCH   6  14
ENDBRANCH   3   5
ENDBRANCH   2   3
ENDBRANCH   1   2
BRANCH   1  22
ATOM     22  C   UNL A   1      32.135  29.063  26.216  1.00  0.00     0.275 C 
BRANCH  22  23
ATOM     23  O   UNL A   1      32.706  30.365  25.873  1.00  0.00    -0.458 OA
BRANCH  23  24
ATOM     24  C   UNL A   1      33.349  30.924  26.917  1.00  0.00     0.338 C 
ATOM     25  O   UNL A   1      32.815  31.753  27.644  1.00  0.00    -0.246 OA
BRANCH  24  26
ATOM     26  C   UNL A   1      34.778  30.663  27.190  1.00  0.00     0.060 A 
ATOM     27  C   UNL A   1      35.017  29.368  27.640  1.00  0.00     0.016 A 
ATOM     28  C   UNL A   1      35.589  31.707  27.666  1.00  0.00     0.016 A 
ATOM     29  C   UNL A   1      35.891  29.164  28.711  1.00  0.00     0.010 A 
ATOM     30  C   UNL A   1      36.567  31.472  28.650  1.00  0.00     0.010 A 
ATOM     31  C   UNL A   1      36.713  30.200  29.208  1.00  0.00    -0.014 A 
BRANCH  31  32
ATOM     32  C   UNL A   1      37.866  29.851  30.093  1.00  0.00     0.031 A 
ATOM     33  C   UNL A   1      38.105  30.405  31.482  1.00  0.00     0.074 A 
ATOM     34  C   UNL A   1      38.750  28.991  29.543  1.00  0.00     0.049 A 
ATOM     35  N   UNL A   1      39.102  30.161  32.304  1.00  0.00    -0.248 NA
ATOM     36  C   UNL A   1      37.134  31.364  32.020  1.00  0.00     0.031 C 
ATOM     37  C   UNL A   1      38.640  28.450  28.181  1.00  0.00     0.029 A 
ATOM     38  N   UNL A   1      39.887  28.408  30.027  1.00  0.00    -0.354 N 
ATOM     39  C   UNL A   1      38.878  30.934  33.446  1.00  0.00     0.074 A 
ATOM     40  C   UNL A   1      37.646  31.653  33.213  1.00  0.00     0.031 C 
ATOM     41  C   UNL A   1      39.594  27.545  27.978  1.00  0.00     0.029 A 
ATOM     42  C   UNL A   1      40.491  27.571  29.118  1.00  0.00     0.049 A 
ATOM     43  H   UNL A   1      40.237  28.569  30.932  1.00  0.00     0.167 HD
ATOM     44  C   UNL A   1      39.651  31.050  34.559  1.00  0.00     0.034 A 
ATOM     45  C   UNL A   1      41.676  26.944  29.143  1.00  0.00     0.034 A 
ATOM     46  C   UNL A   1      40.917  30.359  34.718  1.00  0.00     0.049 A 
ATOM     47  C   UNL A   1      42.523  27.121  30.358  1.00  0.00     0.074 A 
ATOM     48  C   UNL A   1      41.787  30.375  35.797  1.00  0.00     0.029 A 
ATOM     49  N   UNL A   1      41.509  29.549  33.753  1.00  0.00    -0.354 N 
ATOM     50  N   UNL A   1      42.277  27.839  31.429  1.00  0.00    -0.248 NA
ATOM     51  C   UNL A   1      43.801  26.411  30.370  1.00  0.00     0.031 C 
ATOM     52  C   UNL A   1      42.936  29.656  35.449  1.00  0.00     0.029 A 
ATOM     53  C   UNL A   1      42.748  29.102  34.192  1.00  0.00     0.049 A 
ATOM     54  H   UNL A   1      41.108  29.326  32.882  1.00  0.00     0.167 HD
ATOM     55  C   UNL A   1      43.376  27.667  32.253  1.00  0.00     0.074 A 
ATOM     56  C   UNL A   1      44.265  26.747  31.564  1.00  0.00     0.031 C 
ATOM     57  C   UNL A   1      43.633  28.220  33.466  1.00  0.00     0.034 A 
BRANCH  44  58
ATOM     58  C   UNL A   1      39.218  32.010  35.661  1.00  0.00     0.023 A 
ATOM     59  C   UNL A   1      39.681  33.337  35.741  1.00  0.00     0.031 A 
ATOM     60  C   UNL A   1      38.277  31.596  36.627  1.00  0.00     0.131 A 
ATOM     61  C   UNL A   1      39.228  34.185  36.773  1.00  0.00     0.055 A 
ATOM     62  C   UNL A   1      37.784  32.460  37.611  1.00  0.00     0.041 A 
ATOM     63  F   UNL A   1      37.806  30.339  36.626  1.00  0.00    -0.206 F 
ATOM     64  C   UNL A   1      38.266  33.761  37.692  1.00  0.00     0.022 A 
BRANCH  61  65
ATOM     65  S   UNL A   1      39.975  35.831  36.965  1.00  0.00     0.124 S 
ATOM     66  O   UNL A   1      39.654  36.455  35.685  1.00  0.00    -0.237 OA
ATOM     67  O   UNL A   1      39.279  36.360  38.132  1.00  0.00    -0.237 OA
ATOM     68  O   UNL A   1      41.395  35.544  37.168  1.00  0.00    -0.744 OA
ENDBRANCH  61  65
ENDBRANCH  44  58
BRANCH  45  69
ATOM     69  C   UNL A   1      42.109  26.162  27.953  1.00  0.00     0.023 A 
ATOM     70  C   UNL A   1      41.775  24.810  27.821  1.00  0.00     0.031 A 
ATOM     71  C   UNL A   1      42.787  26.786  26.884  1.00  0.00     0.131 A 
ATOM     72  C   UNL A   1      42.118  24.122  26.648  1.00  0.00     0.055 A 
ATOM     73  C   UNL A   1      43.063  26.116  25.693  1.00  0.00     0.041 A 
ATOM     74  F   UNL A   1      43.118  28.086  26.955  1.00  0.00    -0.206 F 
ATOM     75  C   UNL A   1      42.734  24.771  25.574  1.00  0.00     0.022 A 
BRANCH  72  76
ATOM     76  S   UNL A   1      41.799  22.341  26.568  1.00  0.00     0.124 S 
ATOM     77  O   UNL A   1      42.542  21.959  25.373  1.00  0.00    -0.237 OA
ATOM     78  O   UNL A   1      42.345  21.879  27.839  1.00  0.00    -0.237 OA
ATOM     79  O   UNL A   1      40.344  22.263  26.449  1.00  0.00    -0.744 OA
ENDBRANCH  72  76
ENDBRANCH  45  69
BRANCH  57  80
ATOM     80  C   UNL A   1      44.929  27.807  34.109  1.00  0.00     0.023 A 
ATOM     81  C   UNL A   1      45.004  26.673  34.935  1.00  0.00     0.031 A 
ATOM     82  C   UNL A   1      46.079  28.600  33.958  1.00  0.00     0.131 A 
ATOM     83  C   UNL A   1      46.179  26.413  35.653  1.00  0.00     0.055 A 
ATOM     84  C   UNL A   1      47.270  28.291  34.613  1.00  0.00     0.041 A 
ATOM     85  F   UNL A   1      46.055  29.699  33.187  1.00  0.00    -0.206 F 
ATOM     86  C   UNL A   1      47.319  27.204  35.483  1.00  0.00     0.022 A 
BRANCH  83  87
ATOM     87  S   UNL A   1      46.148  25.117  36.920  1.00  0.00     0.124 S 
ATOM     88  O   UNL A   1      46.688  23.972  36.192  1.00  0.00    -0.237 OA
ATOM     89  O   UNL A   1      47.009  25.675  37.958  1.00  0.00    -0.237 OA
ATOM     90  O   UNL A   1      44.734  25.017  37.274  1.00  0.00    -0.744 OA
ENDBRANCH  83  87
ENDBRANCH  57  80
ENDBRANCH  31  32
ENDBRANCH  24  26
ENDBRANCH  23  24
ENDBRANCH  22  23
ENDBRANCH   1  22
TORSDOF 18
ENDMDL
MODEL 2
REMARK VINA RESULT:     -11.1      1.186      8.053
REMARK SMILES CC(C)CS(=O)(=O)Cc1c(C(=O)OCCOC(=O)c2ccc(-c3c4nc(c(-c5cc(S(=O)(=O)[O-])ccc5F)c5ccc([nH]5)c(-c5cc(S(=O)(=O)[O-])ccc5F)c5nc(c(-c6cc(S(=O)(=O)[O-])ccc6F)c6ccc3[nH]6)C=C5)C=C4)cc2)oc2ccccc12
REMARK SMILES IDX 14 1 13 2 11 3 12 4 10 5 9 6 88 7 82 8 83 9 87 10 84 11
REMARK SMILES IDX 86 12 85 13 8 14 5 15 6 16 7 17 4 18 2 19 1 20 3 21 15 22
REMARK SMILES IDX 16 23 17 24 18 25 19 26 20 27 81 28 21 29 80 30 22 31 23 32
REMARK SMILES IDX 24 33 74 34 25 35 79 36 73 37 75 38 26 39 78 40 72 41 71 42
REMARK SMILES IDX 27 44 59 45 39 46 58 47 40 48 43 49 57 50 76 51 41 52 42 53
REMARK SMILES IDX 56 55 77 56 44 57 28 58 29 59 37 60 30 61 36 62 38 63 35 64
REMARK SMILES IDX 31 65 32 66 33 67 34 68 60 69 61 70 69 71 62 72 68 73 70 74
REMARK SMILES IDX 67 75 63 76 64 77 65 78 66 79 45 80 46 81 54 82 47 83 53 84
REMARK SMILES IDX 55 85 52 86 48 87 49 88 50 89 51 90
REMARK H PARENT 75 43 43 54
REMARK Flexibility Score: inf
ROOT
ATOM      1  C   UNL A   1      31.656  29.866  25.546  1.00  0.00     0.275 C 
ENDROOT
BRANCH   1   2
ATOM      2  O   UNL A   1      32.382  28.817  26.226  1.00  0.00    -0.456 OA
BRANCH   2   3
ATOM      3  C   UNL A   1      31.673  27.683  26.499  1.00  0.00     0.374 C 
ATOM      4  O   UNL A   1      31.029  27.499  27.523  1.00  0.00    -0.242 OA
BRANCH   3   5
ATOM      5  C   UNL A   1      31.732  26.771  25.377  1.00  0.00     0.217 A 
ATOM      6  C   UNL A   1      32.366  25.540  25.201  1.00  0.00     0.028 A 
ATOM      7  C   UNL A   1      32.535  25.422  23.784  1.00  0.00     0.025 A 
ATOM      8  O   UNL A   1      31.217  27.205  24.184  1.00  0.00    -0.449 OA
ATOM      9  C   UNL A   1      31.726  26.396  23.217  1.00  0.00     0.135 A 
ATOM     10  C   UNL A   1      33.304  24.613  22.926  1.00  0.00     0.012 A 
ATOM     11  C   UNL A   1      31.522  26.544  21.848  1.00  0.00     0.048 A 
ATOM     12  C   UNL A   1      33.168  24.777  21.540  1.00  0.00     0.001 A 
ATOM     13  C   UNL A   1      32.262  25.700  21.013  1.00  0.00     0.004 A 
BRANCH   6  14
ATOM     14  C   UNL A   1      32.987  24.648  26.227  1.00  0.00     0.177 C 
BRANCH  14  15
ATOM     15  S   UNL A   1      32.075  23.213  26.888  1.00  0.00     0.154 S 
ATOM     16  O   UNL A   1      30.750  23.710  27.213  1.00  0.00    -0.228 OA
ATOM     17  O   UNL A   1      32.906  22.720  27.978  1.00  0.00    -0.228 OA
BRANCH  15  18
ATOM     18  C   UNL A   1      31.835  21.772  25.767  1.00  0.00     0.140 C 
BRANCH  18  19
ATOM     19  C   UNL A   1      32.938  21.430  24.686  1.00  0.00    -0.002 C 
ATOM     20  C   UNL A   1      33.733  20.110  24.770  1.00  0.00     0.008 C 
ATOM     21  C   UNL A   1      32.240  21.283  23.321  1.00  0.00     0.008 C 
ENDBRANCH  18  19
ENDBRANCH  15  18
ENDBRANCH  14  15
ENDBRANCH   6  14
ENDBRANCH   3   5
ENDBRANCH   2   3
ENDBRANCH   1   2
BRANCH   1  22
ATOM     22  C   UNL A   1      31.706  31.196  26.318  1.00  0.00     0.275 C 
BRANCH  22  23
ATOM     23  O   UNL A   1      32.449  31.125  27.576  1.00  0.00    -0.458 OA
BRANCH  23  24
ATOM     24  C   UNL A   1      33.443  32.034  27.626  1.00  0.00     0.338 C 
ATOM     25  O   UNL A   1      33.226  33.239  27.592  1.00  0.00    -0.246 OA
BRANCH  24  26
ATOM     26  C   UNL A   1      34.867  31.641  27.608  1.00  0.00     0.060 A 
ATOM     27  C   UNL A   1      35.066  30.306  27.947  1.00  0.00     0.016 A 
ATOM     28  C   UNL A   1      35.845  32.584  27.964  1.00  0.00     0.016 A 
ATOM     29  C   UNL A   1      36.103  29.967  28.820  1.00  0.00     0.010 A 
ATOM     30  C   UNL A   1      36.964  32.211  28.732  1.00  0.00     0.010 A 
ATOM     31  C   UNL A   1      37.095  30.900  29.195  1.00  0.00    -0.014 A 
BRANCH  31  32
ATOM     32  C   UNL A   1      38.356  30.405  29.826  1.00  0.00     0.031 A 
ATOM     33  C   UNL A   1      39.333  29.438  29.190  1.00  0.00     0.074 A 
ATOM     34  C   UNL A   1      38.573  30.867  31.076  1.00  0.00     0.049 A 
ATOM     35  N   UNL A   1      40.445  28.945  29.691  1.00  0.00    -0.248 NA
ATOM     36  C   UNL A   1      39.033  28.936  27.845  1.00  0.00     0.031 C 
ATOM     37  C   UNL A   1      37.653  31.755  31.800  1.00  0.00     0.029 A 
ATOM     38  N   UNL A   1      39.604  30.688  31.955  1.00  0.00    -0.354 N 
ATOM     39  C   UNL A   1      40.970  28.081  28.727  1.00  0.00     0.074 A 
ATOM     40  C   UNL A   1      40.055  28.119  27.607  1.00  0.00     0.031 C 
ATOM     41  C   UNL A   1      38.202  32.125  32.956  1.00  0.00     0.029 A 
ATOM     42  C   UNL A   1      39.423  31.363  33.140  1.00  0.00     0.049 A 
ATOM     43  H   UNL A   1      40.394  30.135  31.761  1.00  0.00     0.167 HD
ATOM     44  C   UNL A   1      42.087  27.308  28.795  1.00  0.00     0.034 A 
ATOM     45  C   UNL A   1      40.107  31.327  34.293  1.00  0.00     0.034 A 
ATOM     46  C   UNL A   1      42.938  27.251  29.969  1.00  0.00     0.049 A 
ATOM     47  C   UNL A   1      41.305  30.441  34.355  1.00  0.00     0.074 A 
ATOM     48  C   UNL A   1      44.103  26.527  30.164  1.00  0.00     0.029 A 
ATOM     49  N   UNL A   1      42.694  27.925  31.163  1.00  0.00    -0.354 N 
ATOM     50  N   UNL A   1      41.789  29.653  33.423  1.00  0.00    -0.248 NA
ATOM     51  C   UNL A   1      42.046  30.435  35.615  1.00  0.00     0.031 C 
ATOM     52  C   UNL A   1      44.508  26.690  31.494  1.00  0.00     0.029 A 
ATOM     53  C   UNL A   1      43.658  27.596  32.107  1.00  0.00     0.049 A 
ATOM     54  H   UNL A   1      41.945  28.544  31.317  1.00  0.00     0.167 HD
ATOM     55  C   UNL A   1      42.902  29.051  33.985  1.00  0.00     0.074 A 
ATOM     56  C   UNL A   1      43.033  29.601  35.325  1.00  0.00     0.031 C 
ATOM     57  C   UNL A   1      43.739  28.126  33.449  1.00  0.00     0.034 A 
BRANCH  44  58
ATOM     58  C   UNL A   1      42.427  26.396  27.623  1.00  0.00     0.023 A 
ATOM     59  C   UNL A   1      42.009  25.053  27.556  1.00  0.00     0.031 A 
ATOM     60  C   UNL A   1      43.145  26.904  26.520  1.00  0.00     0.131 A 
ATOM     61  C   UNL A   1      42.337  24.264  26.434  1.00  0.00     0.055 A 
ATOM     62  C   UNL A   1      43.412  26.134  25.382  1.00  0.00     0.041 A 
ATOM     63  F   UNL A   1      43.592  28.169  26.520  1.00  0.00    -0.206 F 
ATOM     64  C   UNL A   1      43.014  24.804  25.338  1.00  0.00     0.022 A 
BRANCH  61  65
ATOM     65  S   UNL A   1      41.949  22.488  26.451  1.00  0.00     0.124 S 
ATOM     66  O   UNL A   1      42.723  22.002  25.313  1.00  0.00    -0.237 OA
ATOM     67  O   UNL A   1      42.414  22.075  27.770  1.00  0.00    -0.237 OA
ATOM     68  O   UNL A   1      40.498  22.451  26.266  1.00  0.00    -0.744 OA
ENDBRANCH  61  65
ENDBRANCH  44  58
BRANCH  45  69
ATOM     69  C   UNL A   1      39.613  32.115  35.455  1.00  0.00     0.023 A 
ATOM     70  C   UNL A   1      40.009  33.444  35.643  1.00  0.00     0.031 A 
ATOM     71  C   UNL A   1      38.662  31.573  36.345  1.00  0.00     0.131 A 
ATOM     72  C   UNL A   1      39.457  34.190  36.694  1.00  0.00     0.055 A 
ATOM     73  C   UNL A   1      38.066  32.340  37.345  1.00  0.00     0.041 A 
ATOM     74  F   UNL A   1      38.238  30.307  36.200  1.00  0.00    -0.206 F 
ATOM     75  C   UNL A   1      38.470  33.657  37.528  1.00  0.00     0.022 A 
BRANCH  72  76
ATOM     76  S   UNL A   1      40.095  35.858  36.996  1.00  0.00     0.124 S 
ATOM     77  O   UNL A   1      41.516  35.601  37.202  1.00  0.00    -0.237 OA
ATOM     78  O   UNL A   1      39.739  36.546  35.760  1.00  0.00    -0.237 OA
ATOM     79  O   UNL A   1      39.361  36.291  38.184  1.00  0.00    -0.744 OA
ENDBRANCH  72  76
ENDBRANCH  45  69
BRANCH  57  80
ATOM     80  C   UNL A   1      44.874  27.686  34.333  1.00  0.00     0.023 A 
ATOM     81  C   UNL A   1      44.752  26.564  35.171  1.00  0.00     0.031 A 
ATOM     82  C   UNL A   1      46.055  28.442  34.398  1.00  0.00     0.131 A 
ATOM     83  C   UNL A   1      45.758  26.282  36.104  1.00  0.00     0.055 A 
ATOM     84  C   UNL A   1      47.088  28.109  35.273  1.00  0.00     0.041 A 
ATOM     85  F   UNL A   1      46.215  29.528  33.624  1.00  0.00    -0.206 F 
ATOM     86  C   UNL A   1      46.935  27.037  36.148  1.00  0.00     0.022 A 
BRANCH  83  87
ATOM     87  S   UNL A   1      45.444  25.010  37.356  1.00  0.00     0.124 S 
ATOM     88  O   UNL A   1      45.805  25.705  38.589  1.00  0.00    -0.237 OA
ATOM     89  O   UNL A   1      44.023  24.735  37.173  1.00  0.00    -0.237 OA
ATOM     90  O   UNL A   1      46.341  23.922  36.971  1.00  0.00    -0.744 OA
ENDBRANCH  83  87
ENDBRANCH  57  80
ENDBRANCH  31  32
ENDBRANCH  24  26
ENDBRANCH  23  24
ENDBRANCH  22  23
ENDBRANCH   1  22
TORSDOF 18
ENDMDL
MODEL 3
REMARK VINA RESULT:     -10.9      1.918      7.969
REMARK SMILES CC(C)CS(=O)(=O)Cc1c(C(=O)OCCOC(=O)c2ccc(-c3c4nc(c(-c5cc(S(=O)(=O)[O-])ccc5F)c5ccc([nH]5)c(-c5cc(S(=O)(=O)[O-])ccc5F)c5nc(c(-c6cc(S(=O)(=O)[O-])ccc6F)c6ccc3[nH]6)C=C5)C=C4)cc2)oc2ccccc12
REMARK SMILES IDX 14 1 13 2 11 3 12 4 10 5 9 6 88 7 82 8 83 9 87 10 84 11
REMARK SMILES IDX 86 12 85 13 8 14 5 15 6 16 7 17 4 18 2 19 1 20 3 21 15 22
REMARK SMILES IDX 16 23 17 24 18 25 19 26 20 27 81 28 21 29 80 30 22 31 23 32
REMARK SMILES IDX 24 33 74 34 25 35 79 36 73 37 75 38 26 39 78 40 72 41 71 42
REMARK SMILES IDX 27 44 59 45 39 46 58 47 40 48 43 49 57 50 76 51 41 52 42 53
REMARK SMILES IDX 56 55 77 56 44 57 28 58 29 59 37 60 30 61 36 62 38 63 35 64
REMARK SMILES IDX 31 65 32 66 33 67 34 68 60 69 61 70 69 71 62 72 68 73 70 74
REMARK SMILES IDX 67 75 63 76 64 77 65 78 66 79 45 80 46 81 54 82 47 83 53 84
REMARK SMILES IDX 55 85 52 86 48 87 49 88 50 89 51 90
REMARK H PARENT 75 43 43 54
REMARK Flexibility Score: inf
ROOT
ATOM      1  C   UNL A   1      31.649  28.627  26.431  1.00  0.00     0.275 C 
ENDROOT
BRANCH   1   2
ATOM      2  O   UNL A   1      32.605  27.608  26.801  1.00  0.00    -0.456 OA
BRANCH   2   3
ATOM      3  C   UNL A   1      33.489  27.240  25.829  1.00  0.00     0.374 C 
ATOM      4  O   UNL A   1      34.208  28.019  25.216  1.00  0.00    -0.242 OA
BRANCH   3   5
ATOM      5  C   UNL A   1      33.506  25.801  25.684  1.00  0.00     0.217 A 
ATOM      6  C   UNL A   1      32.486  24.848  25.657  1.00  0.00     0.028 A 
ATOM      7  C   UNL A   1      33.122  23.630  26.059  1.00  0.00     0.025 A 
ATOM      8  O   UNL A   1      34.725  25.177  25.728  1.00  0.00    -0.449 OA
ATOM      9  C   UNL A   1      34.487  23.863  25.979  1.00  0.00     0.135 A 
ATOM     10  C   UNL A   1      32.687  22.367  26.506  1.00  0.00     0.012 A 
ATOM     11  C   UNL A   1      35.460  22.889  26.185  1.00  0.00     0.048 A 
ATOM     12  C   UNL A   1      33.645  21.381  26.780  1.00  0.00     0.001 A 
ATOM     13  C   UNL A   1      35.006  21.628  26.584  1.00  0.00     0.004 A 
BRANCH   6  14
ATOM     14  C   UNL A   1      31.012  25.054  25.517  1.00  0.00     0.177 C 
BRANCH  14  15
ATOM     15  S   UNL A   1      30.292  25.565  23.921  1.00  0.00     0.154 S 
ATOM     16  O   UNL A   1      29.080  26.291  24.255  1.00  0.00    -0.228 OA
ATOM     17  O   UNL A   1      30.161  24.327  23.164  1.00  0.00    -0.228 OA
BRANCH  15  18
ATOM     18  C   UNL A   1      31.297  26.682  22.857  1.00  0.00     0.140 C 
BRANCH  18  19
ATOM     19  C   UNL A   1      32.601  26.128  22.153  1.00  0.00    -0.002 C 
ATOM     20  C   UNL A   1      32.540  25.579  20.712  1.00  0.00     0.008 C 
ATOM     21  C   UNL A   1      33.593  27.296  21.997  1.00  0.00     0.008 C 
ENDBRANCH  18  19
ENDBRANCH  15  18
ENDBRANCH  14  15
ENDBRANCH   6  14
ENDBRANCH   3   5
ENDBRANCH   2   3
ENDBRANCH   1   2
BRANCH   1  22
ATOM     22  C   UNL A   1      31.841  29.921  27.242  1.00  0.00     0.275 C 
BRANCH  22  23
ATOM     23  O   UNL A   1      32.680  30.919  26.579  1.00  0.00    -0.458 OA
BRANCH  23  24
ATOM     24  C   UNL A   1      33.539  31.504  27.437  1.00  0.00     0.338 C 
ATOM     25  O   UNL A   1      33.215  32.457  28.136  1.00  0.00    -0.246 OA
BRANCH  24  26
ATOM     26  C   UNL A   1      34.962  31.114  27.511  1.00  0.00     0.060 A 
ATOM     27  C   UNL A   1      35.146  29.824  28.001  1.00  0.00     0.016 A 
ATOM     28  C   UNL A   1      35.930  32.092  27.795  1.00  0.00     0.016 A 
ATOM     29  C   UNL A   1      36.152  29.584  28.941  1.00  0.00     0.010 A 
ATOM     30  C   UNL A   1      37.021  31.807  28.636  1.00  0.00     0.010 A 
ATOM     31  C   UNL A   1      37.133  30.555  29.245  1.00  0.00    -0.014 A 
BRANCH  31  32
ATOM     32  C   UNL A   1      38.371  30.133  29.969  1.00  0.00     0.031 A 
ATOM     33  C   UNL A   1      39.400  29.153  29.448  1.00  0.00     0.074 A 
ATOM     34  C   UNL A   1      38.513  30.680  31.195  1.00  0.00     0.049 A 
ATOM     35  N   UNL A   1      40.495  28.722  30.034  1.00  0.00    -0.248 NA
ATOM     36  C   UNL A   1      39.181  28.558  28.125  1.00  0.00     0.031 C 
ATOM     37  C   UNL A   1      37.538  31.590  31.813  1.00  0.00     0.029 A 
ATOM     38  N   UNL A   1      39.501  30.585  32.134  1.00  0.00    -0.354 N 
ATOM     39  C   UNL A   1      41.088  27.810  29.156  1.00  0.00     0.074 A 
ATOM     40  C   UNL A   1      40.232  27.753  27.992  1.00  0.00     0.031 C 
ATOM     41  C   UNL A   1      38.018  32.047  32.967  1.00  0.00     0.029 A 
ATOM     42  C   UNL A   1      39.244  31.330  33.261  1.00  0.00     0.049 A 
ATOM     43  H   UNL A   1      40.312  30.040  32.017  1.00  0.00     0.167 HD
ATOM     44  C   UNL A   1      42.217  27.072  29.330  1.00  0.00     0.034 A 
ATOM     45  C   UNL A   1      39.869  31.386  34.447  1.00  0.00     0.034 A 
ATOM     46  C   UNL A   1      43.008  27.113  30.547  1.00  0.00     0.049 A 
ATOM     47  C   UNL A   1      41.082  30.537  34.627  1.00  0.00     0.074 A 
ATOM     48  C   UNL A   1      44.177  26.433  30.846  1.00  0.00     0.029 A 
ATOM     49  N   UNL A   1      42.688  27.856  31.680  1.00  0.00    -0.354 N 
ATOM     50  N   UNL A   1      41.630  29.702  33.774  1.00  0.00    -0.248 NA
ATOM     51  C   UNL A   1      41.757  30.630  35.920  1.00  0.00     0.031 C 
ATOM     52  C   UNL A   1      44.510  26.692  32.181  1.00  0.00     0.029 A 
ATOM     53  C   UNL A   1      43.609  27.614  32.691  1.00  0.00     0.049 A 
ATOM     54  H   UNL A   1      41.918  28.464  31.755  1.00  0.00     0.167 HD
ATOM     55  C   UNL A   1      42.726  29.167  34.429  1.00  0.00     0.074 A 
ATOM     56  C   UNL A   1      42.776  29.805  35.734  1.00  0.00     0.031 C 
ATOM     57  C   UNL A   1      43.610  28.230  33.997  1.00  0.00     0.034 A 
BRANCH  44  58
ATOM     58  C   UNL A   1      42.637  26.096  28.239  1.00  0.00     0.023 A 
ATOM     59  C   UNL A   1      42.025  24.840  28.063  1.00  0.00     0.031 A 
ATOM     60  C   UNL A   1      43.642  26.457  27.318  1.00  0.00     0.131 A 
ATOM     61  C   UNL A   1      42.443  23.986  27.021  1.00  0.00     0.055 A 
ATOM     62  C   UNL A   1      44.009  25.633  26.248  1.00  0.00     0.041 A 
ATOM     63  F   UNL A   1      44.284  27.630  27.434  1.00  0.00    -0.206 F 
ATOM     64  C   UNL A   1      43.413  24.387  26.100  1.00  0.00     0.022 A 
BRANCH  61  65
ATOM     65  S   UNL A   1      41.769  22.301  26.926  1.00  0.00     0.124 S 
ATOM     66  O   UNL A   1      41.941  21.990  25.510  1.00  0.00    -0.237 OA
ATOM     67  O   UNL A   1      42.621  21.567  27.854  1.00  0.00    -0.237 OA
ATOM     68  O   UNL A   1      40.379  22.461  27.354  1.00  0.00    -0.744 OA
ENDBRANCH  61  65
ENDBRANCH  44  58
BRANCH  45  69
ATOM     69  C   UNL A   1      39.299  32.234  35.529  1.00  0.00     0.023 A 
ATOM     70  C   UNL A   1      38.578  31.665  36.584  1.00  0.00     0.031 A 
ATOM     71  C   UNL A   1      39.549  33.622  35.569  1.00  0.00     0.131 A 
ATOM     72  C   UNL A   1      38.131  32.476  37.636  1.00  0.00     0.055 A 
ATOM     73  C   UNL A   1      39.163  34.411  36.650  1.00  0.00     0.041 A 
ATOM     74  F   UNL A   1      40.249  34.216  34.588  1.00  0.00    -0.206 F 
ATOM     75  C   UNL A   1      38.441  33.838  37.691  1.00  0.00     0.022 A 
BRANCH  72  76
ATOM     76  S   UNL A   1      37.079  31.735  38.911  1.00  0.00     0.124 S 
ATOM     77  O   UNL A   1      35.893  32.581  38.849  1.00  0.00    -0.237 OA
ATOM     78  O   UNL A   1      36.922  30.371  38.418  1.00  0.00    -0.237 OA
ATOM     79  O   UNL A   1      37.878  31.869  40.128  1.00  0.00    -0.744 OA
ENDBRANCH  72  76
ENDBRANCH  45  69
BRANCH  57  80
ATOM     80  C   UNL A   1      44.707  27.877  34.964  1.00  0.00     0.023 A 
ATOM     81  C   UNL A   1      44.491  26.963  36.010  1.00  0.00     0.031 A 
ATOM     82  C   UNL A   1      45.953  28.521  34.887  1.00  0.00     0.131 A 
ATOM     83  C   UNL A   1      45.475  26.786  36.991  1.00  0.00     0.055 A 
ATOM     84  C   UNL A   1      46.959  28.280  35.821  1.00  0.00     0.041 A 
ATOM     85  F   UNL A   1      46.204  29.409  33.911  1.00  0.00    -0.206 F 
ATOM     86  C   UNL A   1      46.716  27.425  36.893  1.00  0.00     0.022 A 
BRANCH  83  87
ATOM     87  S   UNL A   1      45.057  25.826  38.470  1.00  0.00     0.124 S 
ATOM     88  O   UNL A   1      44.497  26.852  39.345  1.00  0.00    -0.237 OA
ATOM     89  O   UNL A   1      44.110  24.846  37.950  1.00  0.00    -0.237 OA
ATOM     90  O   UNL A   1      46.343  25.280  38.899  1.00  0.00    -0.744 OA
ENDBRANCH  83  87
ENDBRANCH  57  80
ENDBRANCH  31  32
ENDBRANCH  24  26
ENDBRANCH  23  24
ENDBRANCH  22  23
ENDBRANCH   1  22
TORSDOF 18
ENDMDL
