MODEL 1
REMARK VINA RESULT:     -11.6      0.000      0.000
REMARK SMILES CCCCc1nc(C[N@H+]2CC[NH2+][C@H](C(=O)OCCOC(=O)c3ccc(-c4c5nc(c(-c6cc(S(=O)(=O)[O-])ccc6F)c6ccc([nH]6)c(-c6cc(S(=O)(=O)[O-])ccc6F)c6nc(c(-c7cc(S(=O)(=O)[O-])ccc7F)c7ccc4[nH]7)C=C6)C=C5)cc3)C2)c(Cl)[nH]1
REMARK SMILES IDX 17 1 16 2 14 3 15 4 13 5 9 6 10 7 85 8 11 10 12 11 8 14 7 15
REMARK SMILES IDX 5 16 6 17 88 18 86 19 87 21 4 22 3 23 2 24 1 25 18 26 19 27
REMARK SMILES IDX 20 28 21 29 22 30 23 31 84 32 24 33 83 34 25 35 26 36 27 37
REMARK SMILES IDX 77 38 28 39 82 40 76 41 78 42 29 43 81 44 75 45 74 46 30 48
REMARK SMILES IDX 62 49 42 50 61 51 43 52 46 53 60 54 79 55 44 56 45 57 59 59
REMARK SMILES IDX 80 60 47 61 31 62 32 63 40 64 33 65 39 66 41 67 38 68 34 69
REMARK SMILES IDX 35 70 36 71 37 72 63 73 64 74 72 75 65 76 71 77 73 78 70 79
REMARK SMILES IDX 66 80 67 81 68 82 69 83 48 84 49 85 57 86 50 87 56 88 58 89
REMARK SMILES IDX 55 90 51 91 52 92 53 93 54 94
REMARK H PARENT 9 9 12 12 12 13 88 20 78 47 46 58
REMARK Flexibility Score: inf
ROOT
ATOM      1  C   UNL A   1      33.157  29.706  26.889  1.00  0.00     0.274 C 
ENDROOT
BRANCH   1   2
ATOM      2  O   UNL A   1      32.448  28.717  26.132  1.00  0.00    -0.457 OA
BRANCH   2   3
ATOM      3  C   UNL A   1      31.768  27.737  26.802  1.00  0.00     0.371 C 
ATOM      4  O   UNL A   1      31.391  27.815  27.964  1.00  0.00    -0.245 OA
BRANCH   3   5
ATOM      5  C   UNL A   1      31.564  26.543  25.855  1.00  0.00     0.348 C 
ATOM      6  N   UNL A   1      32.599  24.339  25.082  1.00  0.00    -0.320 N 
ATOM      7  C   UNL A   1      32.289  24.772  23.715  1.00  0.00     0.324 C 
ATOM      8  C   UNL A   1      32.671  25.479  26.020  1.00  0.00     0.341 C 
ATOM      9  H   UNL A   1      33.539  23.951  25.026  1.00  0.00     0.348 HD
ATOM     10  C   UNL A   1      31.192  25.854  23.588  1.00  0.00     0.323 C 
ATOM     11  N   UNL A   1      31.438  27.028  24.444  1.00  0.00    -0.325 N 
ATOM     12  H   UNL A   1      30.659  27.682  24.369  1.00  0.00     0.347 HD
ATOM     13  H   UNL A   1      32.288  27.511  24.155  1.00  0.00     0.347 HD
BRANCH   6  14
ATOM     14  C   UNL A   1      31.832  23.180  25.578  1.00  0.00     0.323 C 
BRANCH  14  15
ATOM     15  C   UNL A   1      32.504  21.840  25.542  1.00  0.00     0.132 A 
ATOM     16  C   UNL A   1      32.727  19.697  25.247  1.00  0.00     0.107 A 
ATOM     17  N   UNL A   1      31.847  20.682  25.151  1.00  0.00    -0.231 NA
ATOM     18  N   UNL A   1      33.906  20.161  25.778  1.00  0.00    -0.333 N 
ATOM     19  C   UNL A   1      33.781  21.506  25.921  1.00  0.00     0.135 A 
ATOM     20  H   UNL A   1      34.695  19.620  26.011  1.00  0.00     0.169 HD
ATOM     21  Cl  UNL A   1      35.113  22.385  26.484  1.00  0.00    -0.062 Cl
BRANCH  16  22
ATOM     22  C   UNL A   1      32.586  18.267  24.820  1.00  0.00     0.075 C 
BRANCH  22  23
ATOM     23  C   UNL A   1      33.299  17.934  23.508  1.00  0.00     0.008 C 
BRANCH  23  24
ATOM     24  C   UNL A   1      34.084  16.623  23.499  1.00  0.00    -0.003 C 
ATOM     25  C   UNL A   1      34.703  16.209  24.814  1.00  0.00     0.004 C 
ENDBRANCH  23  24
ENDBRANCH  22  23
ENDBRANCH  16  22
ENDBRANCH  14  15
ENDBRANCH   6  14
ENDBRANCH   3   5
ENDBRANCH   2   3
ENDBRANCH   1   2
BRANCH   1  26
ATOM     26  C   UNL A   1      34.520  29.144  27.302  1.00  0.00     0.275 C 
BRANCH  26  27
ATOM     27  O   UNL A   1      35.523  30.161  27.462  1.00  0.00    -0.458 OA
BRANCH  27  28
ATOM     28  C   UNL A   1      36.153  30.170  28.666  1.00  0.00     0.338 C 
ATOM     29  O   UNL A   1      35.691  30.628  29.683  1.00  0.00    -0.246 OA
BRANCH  28  30
ATOM     30  C   UNL A   1      37.459  29.482  28.614  1.00  0.00     0.060 A 
ATOM     31  C   UNL A   1      38.271  29.686  27.487  1.00  0.00     0.016 A 
ATOM     32  C   UNL A   1      37.859  28.623  29.640  1.00  0.00     0.016 A 
ATOM     33  C   UNL A   1      39.479  29.016  27.381  1.00  0.00     0.010 A 
ATOM     34  C   UNL A   1      39.059  27.950  29.533  1.00  0.00     0.010 A 
ATOM     35  C   UNL A   1      39.862  28.145  28.404  1.00  0.00    -0.014 A 
BRANCH  35  36
ATOM     36  C   UNL A   1      41.252  27.697  28.469  1.00  0.00     0.031 A 
ATOM     37  C   UNL A   1      41.398  26.338  27.857  1.00  0.00     0.074 A 
ATOM     38  C   UNL A   1      42.261  28.535  28.797  1.00  0.00     0.049 A 
ATOM     39  N   UNL A   1      41.710  25.222  28.433  1.00  0.00    -0.248 NA
ATOM     40  C   UNL A   1      40.891  26.148  26.478  1.00  0.00     0.031 C 
ATOM     41  C   UNL A   1      42.135  29.962  29.117  1.00  0.00     0.029 A 
ATOM     42  N   UNL A   1      43.613  28.354  28.799  1.00  0.00    -0.354 N 
ATOM     43  C   UNL A   1      41.733  24.276  27.404  1.00  0.00     0.074 A 
ATOM     44  C   UNL A   1      40.938  24.822  26.349  1.00  0.00     0.031 C 
ATOM     45  C   UNL A   1      43.347  30.557  29.030  1.00  0.00     0.029 A 
ATOM     46  C   UNL A   1      44.357  29.541  28.782  1.00  0.00     0.049 A 
ATOM     47  H   UNL A   1      44.032  27.463  28.813  1.00  0.00     0.167 HD
ATOM     48  C   UNL A   1      42.728  23.345  27.346  1.00  0.00     0.034 A 
ATOM     49  C   UNL A   1      45.691  29.683  28.530  1.00  0.00     0.034 A 
ATOM     50  C   UNL A   1      43.383  23.256  28.628  1.00  0.00     0.049 A 
ATOM     51  C   UNL A   1      46.298  28.347  28.733  1.00  0.00     0.074 A 
ATOM     52  C   UNL A   1      43.071  22.775  29.879  1.00  0.00     0.029 A 
ATOM     53  N   UNL A   1      44.419  24.145  28.773  1.00  0.00    -0.354 N 
ATOM     54  N   UNL A   1      46.321  27.751  29.895  1.00  0.00    -0.248 NA
ATOM     55  C   UNL A   1      46.487  27.468  27.583  1.00  0.00     0.031 C 
ATOM     56  C   UNL A   1      43.816  23.573  30.799  1.00  0.00     0.029 A 
ATOM     57  C   UNL A   1      44.626  24.459  30.088  1.00  0.00     0.049 A 
ATOM     58  H   UNL A   1      44.946  24.510  28.026  1.00  0.00     0.167 HD
ATOM     59  C   UNL A   1      46.096  26.417  29.610  1.00  0.00     0.074 A 
ATOM     60  C   UNL A   1      46.372  26.279  28.183  1.00  0.00     0.031 C 
ATOM     61  C   UNL A   1      45.396  25.628  30.480  1.00  0.00     0.034 A 
BRANCH  48  62
ATOM     62  C   UNL A   1      43.470  22.943  26.070  1.00  0.00     0.023 A 
ATOM     63  C   UNL A   1      43.644  21.560  25.839  1.00  0.00     0.031 A 
ATOM     64  C   UNL A   1      44.259  23.790  25.255  1.00  0.00     0.131 A 
ATOM     65  C   UNL A   1      44.610  21.086  24.929  1.00  0.00     0.055 A 
ATOM     66  C   UNL A   1      45.185  23.314  24.320  1.00  0.00     0.041 A 
ATOM     67  F   UNL A   1      44.258  25.121  25.359  1.00  0.00    -0.206 F 
ATOM     68  C   UNL A   1      45.385  21.956  24.172  1.00  0.00     0.022 A 
BRANCH  65  69
ATOM     69  S   UNL A   1      44.947  19.307  24.854  1.00  0.00     0.124 S 
ATOM     70  O   UNL A   1      43.853  18.762  25.649  1.00  0.00    -0.237 OA
ATOM     71  O   UNL A   1      44.896  19.053  23.418  1.00  0.00    -0.237 OA
ATOM     72  O   UNL A   1      46.273  19.189  25.458  1.00  0.00    -0.744 OA
ENDBRANCH  65  69
ENDBRANCH  48  62
BRANCH  49  73
ATOM     73  C   UNL A   1      46.377  30.787  27.783  1.00  0.00     0.023 A 
ATOM     74  C   UNL A   1      45.713  31.740  26.969  1.00  0.00     0.031 A 
ATOM     75  C   UNL A   1      47.732  31.057  28.080  1.00  0.00     0.131 A 
ATOM     76  C   UNL A   1      46.406  32.889  26.496  1.00  0.00     0.055 A 
ATOM     77  C   UNL A   1      48.405  32.192  27.619  1.00  0.00     0.041 A 
ATOM     78  F   UNL A   1      48.430  30.260  28.905  1.00  0.00    -0.206 F 
ATOM     79  C   UNL A   1      47.742  33.117  26.832  1.00  0.00     0.022 A 
BRANCH  76  80
ATOM     80  S   UNL A   1      45.572  34.150  25.465  1.00  0.00     0.124 S 
ATOM     81  O   UNL A   1      46.693  34.806  24.801  1.00  0.00    -0.237 OA
ATOM     82  O   UNL A   1      44.700  33.340  24.622  1.00  0.00    -0.237 OA
ATOM     83  O   UNL A   1      44.871  34.985  26.443  1.00  0.00    -0.744 OA
ENDBRANCH  76  80
ENDBRANCH  49  73
BRANCH  61  84
ATOM     84  C   UNL A   1      45.354  26.040  31.930  1.00  0.00     0.023 A 
ATOM     85  C   UNL A   1      44.242  26.573  32.618  1.00  0.00     0.031 A 
ATOM     86  C   UNL A   1      46.527  25.790  32.666  1.00  0.00     0.131 A 
ATOM     87  C   UNL A   1      44.339  26.830  34.003  1.00  0.00     0.055 A 
ATOM     88  C   UNL A   1      46.609  26.023  34.033  1.00  0.00     0.041 A 
ATOM     89  F   UNL A   1      47.611  25.275  32.062  1.00  0.00    -0.206 F 
ATOM     90  C   UNL A   1      45.517  26.549  34.707  1.00  0.00     0.022 A 
BRANCH  87  91
ATOM     91  S   UNL A   1      42.946  27.568  34.922  1.00  0.00     0.124 S 
ATOM     92  O   UNL A   1      41.785  26.835  34.429  1.00  0.00    -0.237 OA
ATOM     93  O   UNL A   1      43.313  27.320  36.314  1.00  0.00    -0.237 OA
ATOM     94  O   UNL A   1      42.986  28.978  34.529  1.00  0.00    -0.744 OA
ENDBRANCH  87  91
ENDBRANCH  61  84
ENDBRANCH  35  36
ENDBRANCH  28  30
ENDBRANCH  27  28
ENDBRANCH  26  27
ENDBRANCH   1  26
TORSDOF 19
ENDMDL
MODEL 2
REMARK VINA RESULT:     -11.6      2.853      7.831
REMARK SMILES CCCCc1nc(C[N@H+]2CC[NH2+][C@H](C(=O)OCCOC(=O)c3ccc(-c4c5nc(c(-c6cc(S(=O)(=O)[O-])ccc6F)c6ccc([nH]6)c(-c6cc(S(=O)(=O)[O-])ccc6F)c6nc(c(-c7cc(S(=O)(=O)[O-])ccc7F)c7ccc4[nH]7)C=C6)C=C5)cc3)C2)c(Cl)[nH]1
REMARK SMILES IDX 17 1 16 2 14 3 15 4 13 5 9 6 10 7 85 8 11 10 12 11 8 14 7 15
REMARK SMILES IDX 5 16 6 17 88 18 86 19 87 21 4 22 3 23 2 24 1 25 18 26 19 27
REMARK SMILES IDX 20 28 21 29 22 30 23 31 84 32 24 33 83 34 25 35 26 36 27 37
REMARK SMILES IDX 77 38 28 39 82 40 76 41 78 42 29 43 81 44 75 45 74 46 30 48
REMARK SMILES IDX 62 49 42 50 61 51 43 52 46 53 60 54 79 55 44 56 45 57 59 59
REMARK SMILES IDX 80 60 47 61 31 62 32 63 40 64 33 65 39 66 41 67 38 68 34 69
REMARK SMILES IDX 35 70 36 71 37 72 63 73 64 74 72 75 65 76 71 77 73 78 70 79
REMARK SMILES IDX 66 80 67 81 68 82 69 83 48 84 49 85 57 86 50 87 56 88 58 89
REMARK SMILES IDX 55 90 51 91 52 92 53 93 54 94
REMARK H PARENT 9 9 12 12 12 13 88 20 78 47 46 58
REMARK Flexibility Score: inf
ROOT
ATOM      1  C   UNL A   1      32.595  30.190  26.617  1.00  0.00     0.274 C 
ENDROOT
BRANCH   1   2
ATOM      2  O   UNL A   1      33.012  28.834  26.814  1.00  0.00    -0.457 OA
BRANCH   2   3
ATOM      3  C   UNL A   1      32.064  27.884  27.079  1.00  0.00     0.371 C 
ATOM      4  O   UNL A   1      31.294  27.910  28.031  1.00  0.00    -0.245 OA
BRANCH   3   5
ATOM      5  C   UNL A   1      32.134  26.800  25.991  1.00  0.00     0.348 C 
ATOM      6  N   UNL A   1      30.740  25.536  24.264  1.00  0.00    -0.320 N 
ATOM      7  C   UNL A   1      31.402  24.320  24.746  1.00  0.00     0.324 C 
ATOM      8  C   UNL A   1      30.783  26.623  25.265  1.00  0.00     0.341 C 
ATOM      9  H   UNL A   1      29.760  25.277  24.161  1.00  0.00     0.348 HD
ATOM     10  C   UNL A   1      32.740  24.535  25.488  1.00  0.00     0.323 C 
ATOM     11  N   UNL A   1      32.643  25.521  26.579  1.00  0.00    -0.325 N 
ATOM     12  H   UNL A   1      33.562  25.671  26.995  1.00  0.00     0.347 HD
ATOM     13  H   UNL A   1      32.014  25.187  27.308  1.00  0.00     0.347 HD
BRANCH   6  14
ATOM     14  C   UNL A   1      31.079  25.951  22.888  1.00  0.00     0.323 C 
BRANCH  14  15
ATOM     15  C   UNL A   1      31.074  27.420  22.589  1.00  0.00     0.132 A 
ATOM     16  C   UNL A   1      30.299  29.354  21.967  1.00  0.00     0.107 A 
ATOM     17  N   UNL A   1      29.947  28.089  22.136  1.00  0.00    -0.231 NA
ATOM     18  N   UNL A   1      31.643  29.510  22.204  1.00  0.00    -0.333 N 
ATOM     19  C   UNL A   1      32.117  28.312  22.634  1.00  0.00     0.135 A 
ATOM     20  H   UNL A   1      32.166  30.336  22.085  1.00  0.00     0.169 HD
ATOM     21  Cl  UNL A   1      33.744  28.204  23.089  1.00  0.00    -0.062 Cl
BRANCH  16  22
ATOM     22  C   UNL A   1      29.437  30.532  21.625  1.00  0.00     0.075 C 
BRANCH  22  23
ATOM     23  C   UNL A   1      28.277  30.760  22.595  1.00  0.00     0.008 C 
BRANCH  23  24
ATOM     24  C   UNL A   1      28.458  31.915  23.578  1.00  0.00    -0.003 C 
ATOM     25  C   UNL A   1      28.680  33.280  22.969  1.00  0.00     0.004 C 
ENDBRANCH  23  24
ENDBRANCH  22  23
ENDBRANCH  16  22
ENDBRANCH  14  15
ENDBRANCH   6  14
ENDBRANCH   3   5
ENDBRANCH   2   3
ENDBRANCH   1   2
BRANCH   1  26
ATOM     26  C   UNL A   1      33.409  31.106  27.535  1.00  0.00     0.275 C 
BRANCH  26  27
ATOM     27  O   UNL A   1      34.800  30.748  27.598  1.00  0.00    -0.458 OA
BRANCH  27  28
ATOM     28  C   UNL A   1      35.581  31.581  28.334  1.00  0.00     0.338 C 
ATOM     29  O   UNL A   1      35.280  32.704  28.658  1.00  0.00    -0.246 OA
BRANCH  28  30
ATOM     30  C   UNL A   1      36.832  30.927  28.768  1.00  0.00     0.060 A 
ATOM     31  C   UNL A   1      36.900  29.526  28.719  1.00  0.00     0.016 A 
ATOM     32  C   UNL A   1      37.906  31.681  29.248  1.00  0.00     0.016 A 
ATOM     33  C   UNL A   1      38.039  28.877  29.167  1.00  0.00     0.010 A 
ATOM     34  C   UNL A   1      39.040  31.035  29.701  1.00  0.00     0.010 A 
ATOM     35  C   UNL A   1      39.101  29.639  29.663  1.00  0.00    -0.014 A 
BRANCH  35  36
ATOM     36  C   UNL A   1      40.410  29.008  29.823  1.00  0.00     0.031 A 
ATOM     37  C   UNL A   1      40.725  28.806  31.274  1.00  0.00     0.074 A 
ATOM     38  C   UNL A   1      41.076  28.462  28.781  1.00  0.00     0.049 A 
ATOM     39  N   UNL A   1      41.649  29.365  31.985  1.00  0.00    -0.248 NA
ATOM     40  C   UNL A   1      39.731  28.078  32.097  1.00  0.00     0.031 C 
ATOM     41  C   UNL A   1      40.614  28.408  27.389  1.00  0.00     0.029 A 
ATOM     42  N   UNL A   1      42.229  27.734  28.734  1.00  0.00    -0.354 N 
ATOM     43  C   UNL A   1      41.519  28.803  33.258  1.00  0.00     0.074 A 
ATOM     44  C   UNL A   1      40.183  28.299  33.331  1.00  0.00     0.031 C 
ATOM     45  C   UNL A   1      41.334  27.488  26.706  1.00  0.00     0.029 A 
ATOM     46  C   UNL A   1      42.392  26.982  27.564  1.00  0.00     0.049 A 
ATOM     47  H   UNL A   1      42.891  27.738  29.462  1.00  0.00     0.167 HD
ATOM     48  C   UNL A   1      42.625  28.431  33.964  1.00  0.00     0.034 A 
ATOM     49  C   UNL A   1      43.294  25.982  27.337  1.00  0.00     0.034 A 
ATOM     50  C   UNL A   1      43.792  29.072  33.408  1.00  0.00     0.049 A 
ATOM     51  C   UNL A   1      44.358  26.142  28.355  1.00  0.00     0.074 A 
ATOM     52  C   UNL A   1      44.307  30.347  33.364  1.00  0.00     0.029 A 
ATOM     53  N   UNL A   1      44.374  28.355  32.391  1.00  0.00    -0.354 N 
ATOM     54  N   UNL A   1      45.141  27.186  28.401  1.00  0.00    -0.248 NA
ATOM     55  C   UNL A   1      44.280  25.372  29.593  1.00  0.00     0.031 C 
ATOM     56  C   UNL A   1      45.056  30.422  32.151  1.00  0.00     0.029 A 
ATOM     57  C   UNL A   1      45.052  29.173  31.529  1.00  0.00     0.049 A 
ATOM     58  H   UNL A   1      44.312  27.378  32.295  1.00  0.00     0.167 HD
ATOM     59  C   UNL A   1      45.304  27.444  29.750  1.00  0.00     0.074 A 
ATOM     60  C   UNL A   1      44.898  26.215  30.426  1.00  0.00     0.031 C 
ATOM     61  C   UNL A   1      45.437  28.727  30.201  1.00  0.00     0.034 A 
BRANCH  48  62
ATOM     62  C   UNL A   1      42.760  27.121  34.742  1.00  0.00     0.023 A 
ATOM     63  C   UNL A   1      43.566  26.114  34.165  1.00  0.00     0.031 A 
ATOM     64  C   UNL A   1      41.938  26.691  35.812  1.00  0.00     0.131 A 
ATOM     65  C   UNL A   1      43.466  24.771  34.580  1.00  0.00     0.055 A 
ATOM     66  C   UNL A   1      41.877  25.364  36.249  1.00  0.00     0.041 A 
ATOM     67  F   UNL A   1      41.082  27.492  36.451  1.00  0.00    -0.206 F 
ATOM     68  C   UNL A   1      42.621  24.389  35.615  1.00  0.00     0.022 A 
BRANCH  65  69
ATOM     69  S   UNL A   1      44.349  23.496  33.643  1.00  0.00     0.124 S 
ATOM     70  O   UNL A   1      45.614  24.161  33.352  1.00  0.00    -0.237 OA
ATOM     71  O   UNL A   1      44.399  22.398  34.603  1.00  0.00    -0.237 OA
ATOM     72  O   UNL A   1      43.486  23.268  32.485  1.00  0.00    -0.744 OA
ENDBRANCH  65  69
ENDBRANCH  48  62
BRANCH  49  73
ATOM     73  C   UNL A   1      43.095  24.719  26.554  1.00  0.00     0.023 A 
ATOM     74  C   UNL A   1      43.986  24.241  25.560  1.00  0.00     0.031 A 
ATOM     75  C   UNL A   1      42.094  23.818  26.980  1.00  0.00     0.131 A 
ATOM     76  C   UNL A   1      43.845  22.924  25.042  1.00  0.00     0.055 A 
ATOM     77  C   UNL A   1      41.966  22.521  26.473  1.00  0.00     0.041 A 
ATOM     78  F   UNL A   1      41.248  24.143  27.971  1.00  0.00    -0.206 F 
ATOM     79  C   UNL A   1      42.847  22.065  25.508  1.00  0.00     0.022 A 
BRANCH  76  80
ATOM     80  S   UNL A   1      44.993  22.267  23.776  1.00  0.00     0.124 S 
ATOM     81  O   UNL A   1      44.134  22.147  22.604  1.00  0.00    -0.237 OA
ATOM     82  O   UNL A   1      46.025  23.296  23.725  1.00  0.00    -0.237 OA
ATOM     83  O   UNL A   1      45.434  20.990  24.342  1.00  0.00    -0.744 OA
ENDBRANCH  76  80
ENDBRANCH  49  73
BRANCH  61  84
ATOM     84  C   UNL A   1      45.944  29.768  29.233  1.00  0.00     0.023 A 
ATOM     85  C   UNL A   1      45.155  30.630  28.440  1.00  0.00     0.031 A 
ATOM     86  C   UNL A   1      47.341  29.926  29.189  1.00  0.00     0.131 A 
ATOM     87  C   UNL A   1      45.783  31.612  27.644  1.00  0.00     0.055 A 
ATOM     88  C   UNL A   1      47.953  30.909  28.422  1.00  0.00     0.041 A 
ATOM     89  F   UNL A   1      48.137  29.137  29.930  1.00  0.00    -0.206 F 
ATOM     90  C   UNL A   1      47.177  31.754  27.641  1.00  0.00     0.022 A 
BRANCH  87  91
ATOM     91  S   UNL A   1      44.808  32.712  26.564  1.00  0.00     0.124 S 
ATOM     92  O   UNL A   1      45.823  33.431  25.803  1.00  0.00    -0.237 OA
ATOM     93  O   UNL A   1      43.987  31.773  25.804  1.00  0.00    -0.237 OA
ATOM     94  O   UNL A   1      44.057  33.541  27.510  1.00  0.00    -0.744 OA
ENDBRANCH  87  91
ENDBRANCH  61  84
ENDBRANCH  35  36
ENDBRANCH  28  30
ENDBRANCH  27  28
ENDBRANCH  26  27
ENDBRANCH   1  26
TORSDOF 19
ENDMDL
MODEL 3
REMARK VINA RESULT:     -11.5      2.293      6.927
REMARK SMILES CCCCc1nc(C[N@H+]2CC[NH2+][C@H](C(=O)OCCOC(=O)c3ccc(-c4c5nc(c(-c6cc(S(=O)(=O)[O-])ccc6F)c6ccc([nH]6)c(-c6cc(S(=O)(=O)[O-])ccc6F)c6nc(c(-c7cc(S(=O)(=O)[O-])ccc7F)c7ccc4[nH]7)C=C6)C=C5)cc3)C2)c(Cl)[nH]1
REMARK SMILES IDX 17 1 16 2 14 3 15 4 13 5 9 6 10 7 85 8 11 10 12 11 8 14 7 15
REMARK SMILES IDX 5 16 6 17 88 18 86 19 87 21 4 22 3 23 2 24 1 25 18 26 19 27
REMARK SMILES IDX 20 28 21 29 22 30 23 31 84 32 24 33 83 34 25 35 26 36 27 37
REMARK SMILES IDX 77 38 28 39 82 40 76 41 78 42 29 43 81 44 75 45 74 46 30 48
REMARK SMILES IDX 62 49 42 50 61 51 43 52 46 53 60 54 79 55 44 56 45 57 59 59
REMARK SMILES IDX 80 60 47 61 31 62 32 63 40 64 33 65 39 66 41 67 38 68 34 69
REMARK SMILES IDX 35 70 36 71 37 72 63 73 64 74 72 75 65 76 71 77 73 78 70 79
REMARK SMILES IDX 66 80 67 81 68 82 69 83 48 84 49 85 57 86 50 87 56 88 58 89
REMARK SMILES IDX 55 90 51 91 52 92 53 93 54 94
REMARK H PARENT 9 9 12 12 12 13 88 20 78 47 46 58
REMARK Flexibility Score: inf
ROOT
ATOM      1  C   UNL A   1      32.277  30.076  26.944  1.00  0.00     0.274 C 
ENDROOT
BRANCH   1   2
ATOM      2  O   UNL A   1      31.883  28.927  26.183  1.00  0.00    -0.457 OA
BRANCH   2   3
ATOM      3  C   UNL A   1      31.482  27.802  26.849  1.00  0.00     0.371 C 
ATOM      4  O   UNL A   1      31.247  27.744  28.050  1.00  0.00    -0.245 OA
BRANCH   3   5
ATOM      5  C   UNL A   1      31.379  26.643  25.843  1.00  0.00     0.348 C 
ATOM      6  N   UNL A   1      32.452  24.434  25.144  1.00  0.00    -0.320 N 
ATOM      7  C   UNL A   1      32.344  24.917  23.763  1.00  0.00     0.324 C 
ATOM      8  C   UNL A   1      32.425  25.542  26.122  1.00  0.00     0.341 C 
ATOM      9  H   UNL A   1      33.381  24.019  25.204  1.00  0.00     0.348 HD
ATOM     10  C   UNL A   1      31.304  26.035  23.525  1.00  0.00     0.323 C 
ATOM     11  N   UNL A   1      31.461  27.174  24.446  1.00  0.00    -0.325 N 
ATOM     12  H   UNL A   1      30.716  27.854  24.288  1.00  0.00     0.347 HD
ATOM     13  H   UNL A   1      32.354  27.640  24.291  1.00  0.00     0.347 HD
BRANCH   6  14
ATOM     14  C   UNL A   1      31.595  23.284  25.491  1.00  0.00     0.323 C 
BRANCH  14  15
ATOM     15  C   UNL A   1      32.272  21.972  25.753  1.00  0.00     0.132 A 
ATOM     16  C   UNL A   1      32.678  19.841  25.603  1.00  0.00     0.107 A 
ATOM     17  N   UNL A   1      31.882  20.791  25.137  1.00  0.00    -0.231 NA
ATOM     18  N   UNL A   1      33.510  20.348  26.571  1.00  0.00    -0.333 N 
ATOM     19  C   UNL A   1      33.286  21.685  26.634  1.00  0.00     0.135 A 
ATOM     20  H   UNL A   1      34.150  19.837  27.119  1.00  0.00     0.169 HD
ATOM     21  Cl  UNL A   1      34.227  22.614  27.691  1.00  0.00    -0.062 Cl
BRANCH  16  22
ATOM     22  C   UNL A   1      32.784  18.409  25.172  1.00  0.00     0.075 C 
BRANCH  22  23
ATOM     23  C   UNL A   1      33.719  18.181  23.983  1.00  0.00     0.008 C 
BRANCH  23  24
ATOM     24  C   UNL A   1      34.346  16.790  23.896  1.00  0.00    -0.003 C 
ATOM     25  C   UNL A   1      34.346  15.978  25.171  1.00  0.00     0.004 C 
ENDBRANCH  23  24
ENDBRANCH  22  23
ENDBRANCH  16  22
ENDBRANCH  14  15
ENDBRANCH   6  14
ENDBRANCH   3   5
ENDBRANCH   2   3
ENDBRANCH   1   2
BRANCH   1  26
ATOM     26  C   UNL A   1      33.766  30.348  26.711  1.00  0.00     0.275 C 
BRANCH  26  27
ATOM     27  O   UNL A   1      34.511  30.485  27.932  1.00  0.00    -0.458 OA
BRANCH  27  28
ATOM     28  C   UNL A   1      35.546  31.364  27.885  1.00  0.00     0.338 C 
ATOM     29  O   UNL A   1      35.457  32.517  27.540  1.00  0.00    -0.246 OA
BRANCH  28  30
ATOM     30  C   UNL A   1      36.802  30.768  28.382  1.00  0.00     0.060 A 
ATOM     31  C   UNL A   1      36.956  29.375  28.290  1.00  0.00     0.016 A 
ATOM     32  C   UNL A   1      37.795  31.562  28.960  1.00  0.00     0.016 A 
ATOM     33  C   UNL A   1      38.100  28.776  28.793  1.00  0.00     0.010 A 
ATOM     34  C   UNL A   1      38.932  30.967  29.467  1.00  0.00     0.010 A 
ATOM     35  C   UNL A   1      39.079  29.578  29.386  1.00  0.00    -0.014 A 
BRANCH  35  36
ATOM     36  C   UNL A   1      40.410  29.018  29.614  1.00  0.00     0.031 A 
ATOM     37  C   UNL A   1      40.704  28.936  31.081  1.00  0.00     0.074 A 
ATOM     38  C   UNL A   1      41.119  28.427  28.627  1.00  0.00     0.049 A 
ATOM     39  N   UNL A   1      41.590  29.586  31.764  1.00  0.00    -0.248 NA
ATOM     40  C   UNL A   1      39.726  28.228  31.939  1.00  0.00     0.031 C 
ATOM     41  C   UNL A   1      40.688  28.251  27.235  1.00  0.00     0.029 A 
ATOM     42  N   UNL A   1      42.302  27.747  28.653  1.00  0.00    -0.354 N 
ATOM     43  C   UNL A   1      41.458  29.113  33.073  1.00  0.00     0.074 A 
ATOM     44  C   UNL A   1      40.143  28.558  33.161  1.00  0.00     0.031 C 
ATOM     45  C   UNL A   1      41.459  27.316  26.634  1.00  0.00     0.029 A 
ATOM     46  C   UNL A   1      42.520  26.920  27.544  1.00  0.00     0.049 A 
ATOM     47  H   UNL A   1      42.949  27.833  29.390  1.00  0.00     0.167 HD
ATOM     48  C   UNL A   1      42.565  28.842  33.823  1.00  0.00     0.034 A 
ATOM     49  C   UNL A   1      43.468  25.946  27.407  1.00  0.00     0.034 A 
ATOM     50  C   UNL A   1      43.714  29.490  33.241  1.00  0.00     0.049 A 
ATOM     51  C   UNL A   1      44.503  26.226  28.429  1.00  0.00     0.074 A 
ATOM     52  C   UNL A   1      44.176  30.780  33.112  1.00  0.00     0.029 A 
ATOM     53  N   UNL A   1      44.346  28.727  32.290  1.00  0.00    -0.354 N 
ATOM     54  N   UNL A   1      45.241  27.303  28.411  1.00  0.00    -0.248 NA
ATOM     55  C   UNL A   1      44.432  25.546  29.718  1.00  0.00     0.031 C 
ATOM     56  C   UNL A   1      44.946  30.798  31.909  1.00  0.00     0.029 A 
ATOM     57  C   UNL A   1      45.006  29.508  31.381  1.00  0.00     0.049 A 
ATOM     58  H   UNL A   1      44.327  27.743  32.265  1.00  0.00     0.167 HD
ATOM     59  C   UNL A   1      45.366  27.666  29.739  1.00  0.00     0.074 A 
ATOM     60  C   UNL A   1      44.998  26.473  30.497  1.00  0.00     0.031 C 
ATOM     61  C   UNL A   1      45.436  28.983  30.096  1.00  0.00     0.034 A 
BRANCH  48  62
ATOM     62  C   UNL A   1      42.739  27.599  34.698  1.00  0.00     0.023 A 
ATOM     63  C   UNL A   1      43.495  26.535  34.156  1.00  0.00     0.031 A 
ATOM     64  C   UNL A   1      41.986  27.272  35.852  1.00  0.00     0.131 A 
ATOM     65  C   UNL A   1      43.410  25.233  34.688  1.00  0.00     0.055 A 
ATOM     66  C   UNL A   1      41.941  25.986  36.402  1.00  0.00     0.041 A 
ATOM     67  F   UNL A   1      41.182  28.137  36.476  1.00  0.00    -0.206 F 
ATOM     68  C   UNL A   1      42.632  24.951  35.805  1.00  0.00     0.022 A 
BRANCH  65  69
ATOM     69  S   UNL A   1      44.217  23.871  33.805  1.00  0.00     0.124 S 
ATOM     70  O   UNL A   1      45.628  24.171  34.019  1.00  0.00    -0.237 OA
ATOM     71  O   UNL A   1      43.688  22.706  34.506  1.00  0.00    -0.237 OA
ATOM     72  O   UNL A   1      43.747  24.034  32.431  1.00  0.00    -0.744 OA
ENDBRANCH  65  69
ENDBRANCH  48  62
BRANCH  49  73
ATOM     73  C   UNL A   1      43.337  24.622  26.716  1.00  0.00     0.023 A 
ATOM     74  C   UNL A   1      42.392  23.624  27.065  1.00  0.00     0.031 A 
ATOM     75  C   UNL A   1      44.023  24.432  25.496  1.00  0.00     0.131 A 
ATOM     76  C   UNL A   1      42.177  22.507  26.211  1.00  0.00     0.055 A 
ATOM     77  C   UNL A   1      43.801  23.336  24.656  1.00  0.00     0.041 A 
ATOM     78  F   UNL A   1      44.881  25.356  25.035  1.00  0.00    -0.206 F 
ATOM     79  C   UNL A   1      42.871  22.373  25.006  1.00  0.00     0.022 A 
BRANCH  76  80
ATOM     80  S   UNL A   1      40.949  21.213  26.620  1.00  0.00     0.124 S 
ATOM     81  O   UNL A   1      40.805  21.359  28.063  1.00  0.00    -0.237 OA
ATOM     82  O   UNL A   1      39.801  21.604  25.808  1.00  0.00    -0.237 OA
ATOM     83  O   UNL A   1      41.602  19.973  26.195  1.00  0.00    -0.744 OA
ENDBRANCH  76  80
ENDBRANCH  49  73
BRANCH  61  84
ATOM     84  C   UNL A   1      45.918  29.971  29.063  1.00  0.00     0.023 A 
ATOM     85  C   UNL A   1      45.109  30.806  28.260  1.00  0.00     0.031 A 
ATOM     86  C   UNL A   1      47.314  30.109  28.959  1.00  0.00     0.131 A 
ATOM     87  C   UNL A   1      45.719  31.741  27.396  1.00  0.00     0.055 A 
ATOM     88  C   UNL A   1      47.908  31.048  28.125  1.00  0.00     0.041 A 
ATOM     89  F   UNL A   1      48.129  29.345  29.707  1.00  0.00    -0.206 F 
ATOM     90  C   UNL A   1      47.113  31.865  27.335  1.00  0.00     0.022 A 
BRANCH  87  91
ATOM     91  S   UNL A   1      44.716  32.803  26.303  1.00  0.00     0.124 S 
ATOM     92  O   UNL A   1      45.703  33.410  25.417  1.00  0.00    -0.237 OA
ATOM     93  O   UNL A   1      43.801  31.850  25.680  1.00  0.00    -0.237 OA
ATOM     94  O   UNL A   1      44.075  33.738  27.230  1.00  0.00    -0.744 OA
ENDBRANCH  87  91
ENDBRANCH  61  84
ENDBRANCH  35  36
ENDBRANCH  28  30
ENDBRANCH  27  28
ENDBRANCH  26  27
ENDBRANCH   1  26
TORSDOF 19
ENDMDL
