MODEL 1
REMARK VINA RESULT:     -13.1      0.000      0.000
REMARK SMILES NS(=O)(=O)c1ccc(-n2nc(C(F)F)cc2-c2ccc(C(=O)OCCOC(=O)c3ccc(-c4c5nc(c(-c6cc(S(=O)(=O)[O-])ccc6F)c6ccc([nH]6)c(-c6cc(S(=O)(=O)[O-])ccc6F)c6nc(c(-c7cc(S(=O)(=O)[O-])ccc7F)c7ccc4[nH]7)C=C6)C=C5)cc3)cc2)cc1
REMARK SMILES IDX 24 1 23 2 21 3 22 4 20 5 17 6 18 7 93 8 19 9 92 10 16 11
REMARK SMILES IDX 9 12 10 13 11 14 15 15 8 16 5 17 6 18 95 19 7 20 94 21 2 22
REMARK SMILES IDX 3 23 4 24 1 25 12 28 13 29 14 30 25 31 26 32 27 33 28 34
REMARK SMILES IDX 29 35 30 36 91 37 31 38 90 39 32 40 33 41 34 42 84 43 35 44
REMARK SMILES IDX 89 45 83 46 85 47 36 48 88 49 82 50 81 51 37 53 69 54 49 55
REMARK SMILES IDX 68 56 50 57 53 58 67 59 86 60 51 61 52 62 66 64 87 65 54 66
REMARK SMILES IDX 38 67 39 68 47 69 40 70 46 71 48 72 45 73 41 74 42 75 43 76
REMARK SMILES IDX 44 77 70 78 71 79 79 80 72 81 78 82 80 83 77 84 73 85 74 86
REMARK SMILES IDX 75 87 76 88 55 89 56 90 64 91 57 92 63 93 65 94 62 95 58 96
REMARK SMILES IDX 59 97 60 98 61 99
REMARK H PARENT 1 26 1 27 85 52 53 63
REMARK Flexibility Score: inf
ROOT
ATOM      1  C   UNL A   1      35.539  32.349  28.359  1.00  0.00     0.275 C 
ENDROOT
BRANCH   1   2
ATOM      2  O   UNL A   1      34.996  31.436  27.395  1.00  0.00    -0.458 OA
BRANCH   2   3
ATOM      3  C   UNL A   1      33.651  31.253  27.451  1.00  0.00     0.338 C 
ATOM      4  O   UNL A   1      32.814  32.108  27.699  1.00  0.00    -0.246 OA
BRANCH   3   5
ATOM      5  C   UNL A   1      33.303  29.855  27.099  1.00  0.00     0.060 A 
ATOM      6  C   UNL A   1      32.656  27.285  26.187  1.00  0.00     0.000 A 
ATOM      7  C   UNL A   1      33.969  27.762  26.072  1.00  0.00     0.011 A 
ATOM      8  C   UNL A   1      31.696  28.070  26.840  1.00  0.00     0.011 A 
ATOM      9  C   UNL A   1      34.291  29.043  26.526  1.00  0.00     0.016 A 
ATOM     10  C   UNL A   1      32.017  29.346  27.299  1.00  0.00     0.016 A 
BRANCH   6  11
ATOM     11  C   UNL A   1      32.234  26.073  25.490  1.00  0.00     0.075 A 
ATOM     12  N   UNL A   1      31.211  25.944  24.561  1.00  0.00    -0.233 N 
ATOM     13  N   UNL A   1      30.873  24.639  24.363  1.00  0.00    -0.166 NA
ATOM     14  C   UNL A   1      31.801  23.933  25.027  1.00  0.00     0.129 A 
ATOM     15  C   UNL A   1      32.645  24.783  25.769  1.00  0.00     0.060 A 
BRANCH  12  16
ATOM     16  C   UNL A   1      30.520  26.971  23.868  1.00  0.00     0.065 A 
ATOM     17  C   UNL A   1      29.140  29.055  22.652  1.00  0.00     0.082 A 
ATOM     18  C   UNL A   1      30.538  29.035  22.608  1.00  0.00     0.024 A 
ATOM     19  C   UNL A   1      28.427  28.029  23.279  1.00  0.00     0.024 A 
ATOM     20  C   UNL A   1      31.231  27.997  23.230  1.00  0.00     0.030 A 
ATOM     21  C   UNL A   1      29.118  26.963  23.860  1.00  0.00     0.030 A 
BRANCH  17  22
ATOM     22  S   UNL A   1      28.261  30.437  21.984  1.00  0.00     0.238 S 
ATOM     23  O   UNL A   1      27.283  30.882  22.953  1.00  0.00    -0.207 OA
ATOM     24  O   UNL A   1      27.938  30.149  20.612  1.00  0.00    -0.207 OA
BRANCH  22  25
ATOM     25  N   UNL A   1      29.444  31.633  21.954  1.00  0.00    -0.225 NA
ATOM     26  H   UNL A   1      29.135  32.432  22.508  1.00  0.00     0.137 HD
ATOM     27  H   UNL A   1      29.605  31.928  20.991  1.00  0.00     0.137 HD
ENDBRANCH  22  25
ENDBRANCH  17  22
ENDBRANCH  12  16
BRANCH  14  28
ATOM     28  C   UNL A   1      31.878  22.437  24.996  1.00  0.00     0.393 C 
ATOM     29  F   UNL A   1      30.937  21.837  25.774  1.00  0.00    -0.203 F 
ATOM     30  F   UNL A   1      31.708  21.953  23.733  1.00  0.00    -0.203 F 
ENDBRANCH  14  28
ENDBRANCH   6  11
ENDBRANCH   3   5
ENDBRANCH   2   3
ENDBRANCH   1   2
BRANCH   1  31
ATOM     31  C   UNL A   1      36.006  31.614  29.606  1.00  0.00     0.275 C 
BRANCH  31  32
ATOM     32  O   UNL A   1      36.094  30.211  29.373  1.00  0.00    -0.458 OA
BRANCH  32  33
ATOM     33  C   UNL A   1      36.603  29.495  30.403  1.00  0.00     0.338 C 
ATOM     34  O   UNL A   1      36.346  29.620  31.589  1.00  0.00    -0.246 OA
BRANCH  33  35
ATOM     35  C   UNL A   1      37.728  28.701  29.912  1.00  0.00     0.060 A 
ATOM     36  C   UNL A   1      38.366  27.843  30.815  1.00  0.00     0.016 A 
ATOM     37  C   UNL A   1      38.312  29.073  28.695  1.00  0.00     0.016 A 
ATOM     38  C   UNL A   1      39.679  27.499  30.570  1.00  0.00     0.010 A 
ATOM     39  C   UNL A   1      39.625  28.755  28.470  1.00  0.00     0.010 A 
ATOM     40  C   UNL A   1      40.313  28.035  29.444  1.00  0.00    -0.014 A 
BRANCH  40  41
ATOM     41  C   UNL A   1      41.683  27.671  29.151  1.00  0.00     0.031 A 
ATOM     42  C   UNL A   1      41.752  26.397  28.395  1.00  0.00     0.074 A 
ATOM     43  C   UNL A   1      42.710  28.517  29.374  1.00  0.00     0.049 A 
ATOM     44  N   UNL A   1      42.263  25.286  28.802  1.00  0.00    -0.248 NA
ATOM     45  C   UNL A   1      40.959  26.263  27.157  1.00  0.00     0.031 C 
ATOM     46  C   UNL A   1      42.668  29.871  29.930  1.00  0.00     0.029 A 
ATOM     47  N   UNL A   1      44.020  28.381  29.039  1.00  0.00    -0.354 N 
ATOM     48  C   UNL A   1      42.101  24.396  27.749  1.00  0.00     0.074 A 
ATOM     49  C   UNL A   1      41.091  24.962  26.900  1.00  0.00     0.031 C 
ATOM     50  C   UNL A   1      43.836  30.504  29.665  1.00  0.00     0.029 A 
ATOM     51  C   UNL A   1      44.745  29.575  29.013  1.00  0.00     0.049 A 
ATOM     52  H   UNL A   1      44.427  27.509  28.831  1.00  0.00     0.167 HD
ATOM     53  C   UNL A   1      43.032  23.434  27.517  1.00  0.00     0.034 A 
ATOM     54  C   UNL A   1      45.958  29.779  28.417  1.00  0.00     0.034 A 
ATOM     55  C   UNL A   1      43.854  23.228  28.691  1.00  0.00     0.049 A 
ATOM     56  C   UNL A   1      46.590  28.433  28.308  1.00  0.00     0.074 A 
ATOM     57  C   UNL A   1      43.573  22.894  30.004  1.00  0.00     0.029 A 
ATOM     58  N   UNL A   1      45.111  23.795  28.711  1.00  0.00    -0.354 N 
ATOM     59  N   UNL A   1      46.939  27.735  29.358  1.00  0.00    -0.248 NA
ATOM     60  C   UNL A   1      46.311  27.646  27.112  1.00  0.00     0.031 C 
ATOM     61  C   UNL A   1      44.420  23.737  30.781  1.00  0.00     0.029 A 
ATOM     62  C   UNL A   1      45.256  24.445  29.914  1.00  0.00     0.049 A 
ATOM     63  H   UNL A   1      45.782  23.745  27.993  1.00  0.00     0.167 HD
ATOM     64  C   UNL A   1      46.489  26.448  29.099  1.00  0.00     0.074 A 
ATOM     65  C   UNL A   1      46.175  26.436  27.668  1.00  0.00     0.031 C 
ATOM     66  C   UNL A   1      46.101  25.610  30.110  1.00  0.00     0.034 A 
BRANCH  53  67
ATOM     67  C   UNL A   1      43.471  22.999  26.137  1.00  0.00     0.023 A 
ATOM     68  C   UNL A   1      43.440  21.618  25.876  1.00  0.00     0.031 A 
ATOM     69  C   UNL A   1      44.189  23.786  25.206  1.00  0.00     0.131 A 
ATOM     70  C   UNL A   1      44.196  21.066  24.830  1.00  0.00     0.055 A 
ATOM     71  C   UNL A   1      44.881  23.238  24.124  1.00  0.00     0.041 A 
ATOM     72  F   UNL A   1      44.348  25.107  25.331  1.00  0.00    -0.206 F 
ATOM     73  C   UNL A   1      44.919  21.867  23.952  1.00  0.00     0.022 A 
BRANCH  70  74
ATOM     74  S   UNL A   1      44.367  19.268  24.764  1.00  0.00     0.124 S 
ATOM     75  O   UNL A   1      45.539  19.056  25.609  1.00  0.00    -0.237 OA
ATOM     76  O   UNL A   1      43.090  18.824  25.312  1.00  0.00    -0.237 OA
ATOM     77  O   UNL A   1      44.564  18.999  23.342  1.00  0.00    -0.744 OA
ENDBRANCH  70  74
ENDBRANCH  53  67
BRANCH  54  78
ATOM     78  C   UNL A   1      46.390  30.978  27.619  1.00  0.00     0.023 A 
ATOM     79  C   UNL A   1      45.507  31.781  26.851  1.00  0.00     0.031 A 
ATOM     80  C   UNL A   1      47.695  31.499  27.795  1.00  0.00     0.131 A 
ATOM     81  C   UNL A   1      45.943  33.022  26.308  1.00  0.00     0.055 A 
ATOM     82  C   UNL A   1      48.116  32.719  27.262  1.00  0.00     0.041 A 
ATOM     83  F   UNL A   1      48.597  30.880  28.571  1.00  0.00    -0.206 F 
ATOM     84  C   UNL A   1      47.239  33.493  26.524  1.00  0.00     0.022 A 
BRANCH  81  85
ATOM     85  S   UNL A   1      44.812  34.108  25.365  1.00  0.00     0.124 S 
ATOM     86  O   UNL A   1      43.746  34.359  26.329  1.00  0.00    -0.237 OA
ATOM     87  O   UNL A   1      45.664  35.242  25.027  1.00  0.00    -0.237 OA
ATOM     88  O   UNL A   1      44.419  33.281  24.221  1.00  0.00    -0.744 OA
ENDBRANCH  81  85
ENDBRANCH  54  78
BRANCH  66  89
ATOM     89  C   UNL A   1      46.396  26.002  31.549  1.00  0.00     0.023 A 
ATOM     90  C   UNL A   1      45.447  26.483  32.482  1.00  0.00     0.031 A 
ATOM     91  C   UNL A   1      47.692  25.731  32.024  1.00  0.00     0.131 A 
ATOM     92  C   UNL A   1      45.819  26.683  33.829  1.00  0.00     0.055 A 
ATOM     93  C   UNL A   1      48.047  25.902  33.360  1.00  0.00     0.041 A 
ATOM     94  F   UNL A   1      48.634  25.251  31.196  1.00  0.00    -0.206 F 
ATOM     95  C   UNL A   1      47.113  26.384  34.268  1.00  0.00     0.022 A 
BRANCH  92  96
ATOM     96  S   UNL A   1      44.640  27.369  35.042  1.00  0.00     0.124 S 
ATOM     97  O   UNL A   1      45.420  27.437  36.273  1.00  0.00    -0.237 OA
ATOM     98  O   UNL A   1      44.275  28.650  34.445  1.00  0.00    -0.237 OA
ATOM     99  O   UNL A   1      43.559  26.381  35.062  1.00  0.00    -0.744 OA
ENDBRANCH  92  96
ENDBRANCH  66  89
ENDBRANCH  40  41
ENDBRANCH  33  35
ENDBRANCH  32  33
ENDBRANCH  31  32
ENDBRANCH   1  31
TORSDOF 19
ENDMDL
MODEL 2
REMARK VINA RESULT:     -12.6      2.203      6.732
REMARK SMILES NS(=O)(=O)c1ccc(-n2nc(C(F)F)cc2-c2ccc(C(=O)OCCOC(=O)c3ccc(-c4c5nc(c(-c6cc(S(=O)(=O)[O-])ccc6F)c6ccc([nH]6)c(-c6cc(S(=O)(=O)[O-])ccc6F)c6nc(c(-c7cc(S(=O)(=O)[O-])ccc7F)c7ccc4[nH]7)C=C6)C=C5)cc3)cc2)cc1
REMARK SMILES IDX 24 1 23 2 21 3 22 4 20 5 17 6 18 7 93 8 19 9 92 10 16 11
REMARK SMILES IDX 9 12 10 13 11 14 15 15 8 16 5 17 6 18 95 19 7 20 94 21 2 22
REMARK SMILES IDX 3 23 4 24 1 25 12 28 13 29 14 30 25 31 26 32 27 33 28 34
REMARK SMILES IDX 29 35 30 36 91 37 31 38 90 39 32 40 33 41 34 42 84 43 35 44
REMARK SMILES IDX 89 45 83 46 85 47 36 48 88 49 82 50 81 51 37 53 69 54 49 55
REMARK SMILES IDX 68 56 50 57 53 58 67 59 86 60 51 61 52 62 66 64 87 65 54 66
REMARK SMILES IDX 38 67 39 68 47 69 40 70 46 71 48 72 45 73 41 74 42 75 43 76
REMARK SMILES IDX 44 77 70 78 71 79 79 80 72 81 78 82 80 83 77 84 73 85 74 86
REMARK SMILES IDX 75 87 76 88 55 89 56 90 64 91 57 92 63 93 65 94 62 95 58 96
REMARK SMILES IDX 59 97 60 98 61 99
REMARK H PARENT 1 26 1 27 85 52 53 63
REMARK Flexibility Score: inf
ROOT
ATOM      1  C   UNL A   1      35.307  32.274  28.357  1.00  0.00     0.275 C 
ENDROOT
BRANCH   1   2
ATOM      2  O   UNL A   1      34.881  30.959  27.973  1.00  0.00    -0.458 OA
BRANCH   2   3
ATOM      3  C   UNL A   1      33.613  30.869  27.493  1.00  0.00     0.338 C 
ATOM      4  O   UNL A   1      32.824  31.791  27.356  1.00  0.00    -0.246 OA
BRANCH   3   5
ATOM      5  C   UNL A   1      33.312  29.476  27.082  1.00  0.00     0.060 A 
ATOM      6  C   UNL A   1      32.739  26.930  26.062  1.00  0.00     0.000 A 
ATOM      7  C   UNL A   1      34.022  27.475  25.913  1.00  0.00     0.011 A 
ATOM      8  C   UNL A   1      31.777  27.632  26.800  1.00  0.00     0.011 A 
ATOM      9  C   UNL A   1      34.307  28.744  26.421  1.00  0.00     0.016 A 
ATOM     10  C   UNL A   1      32.062  28.896  27.313  1.00  0.00     0.016 A 
BRANCH   6  11
ATOM     11  C   UNL A   1      32.340  25.736  25.319  1.00  0.00     0.075 A 
ATOM     12  N   UNL A   1      31.290  25.613  24.419  1.00  0.00    -0.233 N 
ATOM     13  N   UNL A   1      30.995  24.306  24.168  1.00  0.00    -0.166 NA
ATOM     14  C   UNL A   1      31.972  23.606  24.766  1.00  0.00     0.129 A 
ATOM     15  C   UNL A   1      32.808  24.452  25.521  1.00  0.00     0.060 A 
BRANCH  12  16
ATOM     16  C   UNL A   1      30.537  26.643  23.801  1.00  0.00     0.065 A 
ATOM     17  C   UNL A   1      29.064  28.743  22.731  1.00  0.00     0.082 A 
ATOM     18  C   UNL A   1      30.431  28.646  22.450  1.00  0.00     0.024 A 
ATOM     19  C   UNL A   1      28.424  27.786  23.523  1.00  0.00     0.024 A 
ATOM     20  C   UNL A   1      31.173  27.601  22.999  1.00  0.00     0.030 A 
ATOM     21  C   UNL A   1      29.156  26.711  24.033  1.00  0.00     0.030 A 
BRANCH  17  22
ATOM     22  S   UNL A   1      28.146  30.140  22.151  1.00  0.00     0.238 S 
ATOM     23  O   UNL A   1      27.003  30.341  23.015  1.00  0.00    -0.207 OA
ATOM     24  O   UNL A   1      28.047  30.055  20.718  1.00  0.00    -0.207 OA
BRANCH  22  25
ATOM     25  N   UNL A   1      29.191  31.416  22.480  1.00  0.00    -0.225 NA
ATOM     26  H   UNL A   1      28.830  31.959  23.265  1.00  0.00     0.137 HD
ATOM     27  H   UNL A   1      29.266  32.016  21.659  1.00  0.00     0.137 HD
ENDBRANCH  22  25
ENDBRANCH  17  22
ENDBRANCH  12  16
BRANCH  14  28
ATOM     28  C   UNL A   1      32.104  22.118  24.657  1.00  0.00     0.393 C 
ATOM     29  F   UNL A   1      31.242  21.445  25.466  1.00  0.00    -0.203 F 
ATOM     30  F   UNL A   1      31.869  21.685  23.387  1.00  0.00    -0.203 F 
ENDBRANCH  14  28
ENDBRANCH   6  11
ENDBRANCH   3   5
ENDBRANCH   2   3
ENDBRANCH   1   2
BRANCH   1  31
ATOM     31  C   UNL A   1      35.193  32.467  29.861  1.00  0.00     0.275 C 
BRANCH  31  32
ATOM     32  O   UNL A   1      35.271  31.221  30.548  1.00  0.00    -0.458 OA
BRANCH  32  33
ATOM     33  C   UNL A   1      36.233  31.156  31.499  1.00  0.00     0.338 C 
ATOM     34  O   UNL A   1      36.233  31.702  32.589  1.00  0.00    -0.246 OA
BRANCH  33  35
ATOM     35  C   UNL A   1      37.422  30.531  30.922  1.00  0.00     0.060 A 
ATOM     36  C   UNL A   1      37.438  29.137  30.805  1.00  0.00     0.016 A 
ATOM     37  C   UNL A   1      38.588  31.302  30.830  1.00  0.00     0.016 A 
ATOM     38  C   UNL A   1      38.661  28.500  30.774  1.00  0.00     0.010 A 
ATOM     39  C   UNL A   1      39.800  30.665  30.829  1.00  0.00     0.010 A 
ATOM     40  C   UNL A   1      39.822  29.273  30.875  1.00  0.00    -0.014 A 
BRANCH  40  41
ATOM     41  C   UNL A   1      41.118  28.631  30.821  1.00  0.00     0.031 A 
ATOM     42  C   UNL A   1      41.692  28.461  32.178  1.00  0.00     0.074 A 
ATOM     43  C   UNL A   1      41.600  28.089  29.684  1.00  0.00     0.049 A 
ATOM     44  N   UNL A   1      42.752  29.028  32.644  1.00  0.00    -0.248 NA
ATOM     45  C   UNL A   1      40.880  27.790  33.214  1.00  0.00     0.031 C 
ATOM     46  C   UNL A   1      40.975  28.050  28.360  1.00  0.00     0.029 A 
ATOM     47  N   UNL A   1      42.723  27.347  29.497  1.00  0.00    -0.354 N 
ATOM     48  C   UNL A   1      42.887  28.553  33.941  1.00  0.00     0.074 A 
ATOM     49  C   UNL A   1      41.605  28.023  34.308  1.00  0.00     0.031 C 
ATOM     50  C   UNL A   1      41.603  27.127  27.593  1.00  0.00     0.029 A 
ATOM     51  C   UNL A   1      42.732  26.582  28.329  1.00  0.00     0.049 A 
ATOM     52  H   UNL A   1      43.473  27.348  30.135  1.00  0.00     0.167 HD
ATOM     53  C   UNL A   1      44.122  28.363  34.475  1.00  0.00     0.034 A 
ATOM     54  C   UNL A   1      43.558  25.529  28.050  1.00  0.00     0.034 A 
ATOM     55  C   UNL A   1      45.119  29.101  33.727  1.00  0.00     0.049 A 
ATOM     56  C   UNL A   1      44.754  25.707  28.924  1.00  0.00     0.074 A 
ATOM     57  C   UNL A   1      45.267  30.436  33.398  1.00  0.00     0.029 A 
ATOM     58  N   UNL A   1      45.902  28.406  32.829  1.00  0.00    -0.354 N 
ATOM     59  N   UNL A   1      45.576  26.715  28.790  1.00  0.00    -0.248 NA
ATOM     60  C   UNL A   1      44.714  25.119  30.258  1.00  0.00     0.031 C 
ATOM     61  C   UNL A   1      45.691  30.429  32.037  1.00  0.00     0.029 A 
ATOM     62  C   UNL A   1      45.899  29.105  31.645  1.00  0.00     0.049 A 
ATOM     63  H   UNL A   1      46.377  27.562  33.005  1.00  0.00     0.167 HD
ATOM     64  C   UNL A   1      45.800  27.171  30.082  1.00  0.00     0.074 A 
ATOM     65  C   UNL A   1      45.300  26.102  30.952  1.00  0.00     0.031 C 
ATOM     66  C   UNL A   1      46.061  28.489  30.339  1.00  0.00     0.034 A 
BRANCH  53  67
ATOM     67  C   UNL A   1      44.483  27.205  35.377  1.00  0.00     0.023 A 
ATOM     68  C   UNL A   1      44.505  25.932  34.784  1.00  0.00     0.031 A 
ATOM     69  C   UNL A   1      44.497  27.226  36.792  1.00  0.00     0.131 A 
ATOM     70  C   UNL A   1      44.407  24.771  35.567  1.00  0.00     0.055 A 
ATOM     71  C   UNL A   1      44.472  26.066  37.569  1.00  0.00     0.041 A 
ATOM     72  F   UNL A   1      44.439  28.352  37.510  1.00  0.00    -0.206 F 
ATOM     73  C   UNL A   1      44.388  24.829  36.957  1.00  0.00     0.022 A 
BRANCH  70  74
ATOM     74  S   UNL A   1      44.107  23.200  34.723  1.00  0.00     0.124 S 
ATOM     75  O   UNL A   1      44.700  22.249  35.658  1.00  0.00    -0.237 OA
ATOM     76  O   UNL A   1      42.652  23.185  34.625  1.00  0.00    -0.237 OA
ATOM     77  O   UNL A   1      44.818  23.358  33.456  1.00  0.00    -0.744 OA
ENDBRANCH  70  74
ENDBRANCH  53  67
BRANCH  54  78
ATOM     78  C   UNL A   1      43.188  24.232  27.386  1.00  0.00     0.023 A 
ATOM     79  C   UNL A   1      43.989  23.583  26.410  1.00  0.00     0.031 A 
ATOM     80  C   UNL A   1      42.106  23.472  27.893  1.00  0.00     0.131 A 
ATOM     81  C   UNL A   1      43.690  22.256  25.993  1.00  0.00     0.055 A 
ATOM     82  C   UNL A   1      41.820  22.168  27.482  1.00  0.00     0.041 A 
ATOM     83  F   UNL A   1      41.327  23.937  28.882  1.00  0.00    -0.206 F 
ATOM     84  C   UNL A   1      42.617  21.549  26.537  1.00  0.00     0.022 A 
BRANCH  81  85
ATOM     85  S   UNL A   1      44.739  21.372  24.782  1.00  0.00     0.124 S 
ATOM     86  O   UNL A   1      44.097  20.064  24.710  1.00  0.00    -0.237 OA
ATOM     87  O   UNL A   1      44.636  22.213  23.595  1.00  0.00    -0.237 OA
ATOM     88  O   UNL A   1      46.061  21.370  25.412  1.00  0.00    -0.744 OA
ENDBRANCH  81  85
ENDBRANCH  54  78
BRANCH  66  89
ATOM     89  C   UNL A   1      46.354  29.425  29.178  1.00  0.00     0.023 A 
ATOM     90  C   UNL A   1      45.389  30.166  28.454  1.00  0.00     0.031 A 
ATOM     91  C   UNL A   1      47.708  29.677  28.896  1.00  0.00     0.131 A 
ATOM     92  C   UNL A   1      45.801  31.106  27.485  1.00  0.00     0.055 A 
ATOM     93  C   UNL A   1      48.111  30.626  27.959  1.00  0.00     0.041 A 
ATOM     94  F   UNL A   1      48.675  29.025  29.563  1.00  0.00    -0.206 F 
ATOM     95  C   UNL A   1      47.159  31.341  27.245  1.00  0.00     0.022 A 
BRANCH  92  96
ATOM     96  S   UNL A   1      44.583  32.025  26.483  1.00  0.00     0.124 S 
ATOM     97  O   UNL A   1      43.596  31.011  26.133  1.00  0.00    -0.237 OA
ATOM     98  O   UNL A   1      44.132  33.065  27.403  1.00  0.00    -0.237 OA
ATOM     99  O   UNL A   1      45.374  32.518  25.354  1.00  0.00    -0.744 OA
ENDBRANCH  92  96
ENDBRANCH  66  89
ENDBRANCH  40  41
ENDBRANCH  33  35
ENDBRANCH  32  33
ENDBRANCH  31  32
ENDBRANCH   1  31
TORSDOF 19
ENDMDL
MODEL 3
REMARK VINA RESULT:     -12.2      3.790      9.211
REMARK SMILES NS(=O)(=O)c1ccc(-n2nc(C(F)F)cc2-c2ccc(C(=O)OCCOC(=O)c3ccc(-c4c5nc(c(-c6cc(S(=O)(=O)[O-])ccc6F)c6ccc([nH]6)c(-c6cc(S(=O)(=O)[O-])ccc6F)c6nc(c(-c7cc(S(=O)(=O)[O-])ccc7F)c7ccc4[nH]7)C=C6)C=C5)cc3)cc2)cc1
REMARK SMILES IDX 24 1 23 2 21 3 22 4 20 5 17 6 18 7 93 8 19 9 92 10 16 11
REMARK SMILES IDX 9 12 10 13 11 14 15 15 8 16 5 17 6 18 95 19 7 20 94 21 2 22
REMARK SMILES IDX 3 23 4 24 1 25 12 28 13 29 14 30 25 31 26 32 27 33 28 34
REMARK SMILES IDX 29 35 30 36 91 37 31 38 90 39 32 40 33 41 34 42 84 43 35 44
REMARK SMILES IDX 89 45 83 46 85 47 36 48 88 49 82 50 81 51 37 53 69 54 49 55
REMARK SMILES IDX 68 56 50 57 53 58 67 59 86 60 51 61 52 62 66 64 87 65 54 66
REMARK SMILES IDX 38 67 39 68 47 69 40 70 46 71 48 72 45 73 41 74 42 75 43 76
REMARK SMILES IDX 44 77 70 78 71 79 79 80 72 81 78 82 80 83 77 84 73 85 74 86
REMARK SMILES IDX 75 87 76 88 55 89 56 90 64 91 57 92 63 93 65 94 62 95 58 96
REMARK SMILES IDX 59 97 60 98 61 99
REMARK H PARENT 1 26 1 27 85 52 53 63
REMARK Flexibility Score: inf
ROOT
ATOM      1  C   UNL A   1      38.564  20.493  24.928  1.00  0.00     0.275 C 
ENDROOT
BRANCH   1   2
ATOM      2  O   UNL A   1      38.147  21.350  26.001  1.00  0.00    -0.458 OA
BRANCH   2   3
ATOM      3  C   UNL A   1      38.227  22.682  25.753  1.00  0.00     0.338 C 
ATOM      4  O   UNL A   1      39.241  23.364  25.777  1.00  0.00    -0.246 OA
BRANCH   3   5
ATOM      5  C   UNL A   1      36.897  23.219  25.373  1.00  0.00     0.060 A 
ATOM      6  C   UNL A   1      34.284  24.021  24.757  1.00  0.00     0.000 A 
ATOM      7  C   UNL A   1      34.744  24.078  26.080  1.00  0.00     0.011 A 
ATOM      8  C   UNL A   1      35.170  23.645  23.738  1.00  0.00     0.011 A 
ATOM      9  C   UNL A   1      36.046  23.678  26.386  1.00  0.00     0.016 A 
ATOM     10  C   UNL A   1      36.472  23.251  24.042  1.00  0.00     0.016 A 
BRANCH   6  11
ATOM     11  C   UNL A   1      32.865  24.176  24.448  1.00  0.00     0.075 A 
ATOM     12  N   UNL A   1      31.976  23.192  24.037  1.00  0.00    -0.233 N 
ATOM     13  N   UNL A   1      30.834  23.729  23.523  1.00  0.00    -0.166 NA
ATOM     14  C   UNL A   1      30.922  25.045  23.774  1.00  0.00     0.129 A 
ATOM     15  C   UNL A   1      32.181  25.370  24.316  1.00  0.00     0.060 A 
BRANCH  12  16
ATOM     16  C   UNL A   1      32.145  21.785  24.078  1.00  0.00     0.065 A 
ATOM     17  C   UNL A   1      32.630  19.048  24.119  1.00  0.00     0.082 A 
ATOM     18  C   UNL A   1      32.557  19.753  25.324  1.00  0.00     0.024 A 
ATOM     19  C   UNL A   1      32.440  19.697  22.895  1.00  0.00     0.024 A 
ATOM     20  C   UNL A   1      32.328  21.129  25.303  1.00  0.00     0.030 A 
ATOM     21  C   UNL A   1      32.161  21.065  22.875  1.00  0.00     0.030 A 
BRANCH  17  22
ATOM     22  S   UNL A   1      33.056  17.331  24.131  1.00  0.00     0.238 S 
ATOM     23  O   UNL A   1      33.231  16.882  22.767  1.00  0.00    -0.207 OA
ATOM     24  O   UNL A   1      32.207  16.660  25.080  1.00  0.00    -0.207 OA
BRANCH  22  25
ATOM     25  N   UNL A   1      34.598  17.349  24.802  1.00  0.00    -0.225 NA
ATOM     26  H   UNL A   1      35.240  16.840  24.195  1.00  0.00     0.137 HD
ATOM     27  H   UNL A   1      34.575  16.906  25.720  1.00  0.00     0.137 HD
ENDBRANCH  22  25
ENDBRANCH  17  22
ENDBRANCH  12  16
BRANCH  14  28
ATOM     28  C   UNL A   1      29.824  26.017  23.469  1.00  0.00     0.393 C 
ATOM     29  F   UNL A   1      28.900  26.109  24.463  1.00  0.00    -0.203 F 
ATOM     30  F   UNL A   1      30.310  27.274  23.268  1.00  0.00    -0.203 F 
ENDBRANCH  14  28
ENDBRANCH   6  11
ENDBRANCH   3   5
ENDBRANCH   2   3
ENDBRANCH   1   2
BRANCH   1  31
ATOM     31  C   UNL A   1      39.272  19.256  25.459  1.00  0.00     0.275 C 
BRANCH  31  32
ATOM     32  O   UNL A   1      40.278  19.607  26.405  1.00  0.00    -0.458 OA
BRANCH  32  33
ATOM     33  C   UNL A   1      41.498  19.852  25.871  1.00  0.00     0.338 C 
ATOM     34  O   UNL A   1      42.119  19.151  25.090  1.00  0.00    -0.246 OA
BRANCH  33  35
ATOM     35  C   UNL A   1      42.100  20.982  26.578  1.00  0.00     0.060 A 
ATOM     36  C   UNL A   1      41.950  21.039  27.968  1.00  0.00     0.016 A 
ATOM     37  C   UNL A   1      42.493  22.094  25.823  1.00  0.00     0.016 A 
ATOM     38  C   UNL A   1      42.024  22.273  28.581  1.00  0.00     0.010 A 
ATOM     39  C   UNL A   1      42.536  23.321  26.429  1.00  0.00     0.010 A 
ATOM     40  C   UNL A   1      42.229  23.405  27.785  1.00  0.00    -0.014 A 
BRANCH  40  41
ATOM     41  C   UNL A   1      42.334  24.709  28.406  1.00  0.00     0.031 A 
ATOM     42  C   UNL A   1      41.052  25.450  28.320  1.00  0.00     0.074 A 
ATOM     43  C   UNL A   1      43.409  25.067  29.136  1.00  0.00     0.049 A 
ATOM     44  N   UNL A   1      40.833  26.537  27.662  1.00  0.00    -0.248 NA
ATOM     45  C   UNL A   1      39.820  24.798  28.807  1.00  0.00     0.031 C 
ATOM     46  C   UNL A   1      44.616  24.287  29.422  1.00  0.00     0.029 A 
ATOM     47  N   UNL A   1      43.604  26.187  29.882  1.00  0.00    -0.354 N 
ATOM     48  C   UNL A   1      39.500  26.848  27.894  1.00  0.00     0.074 A 
ATOM     49  C   UNL A   1      38.886  25.642  28.370  1.00  0.00     0.031 C 
ATOM     50  C   UNL A   1      45.282  24.851  30.458  1.00  0.00     0.029 A 
ATOM     51  C   UNL A   1      44.611  26.082  30.844  1.00  0.00     0.049 A 
ATOM     52  H   UNL A   1      43.077  27.008  29.754  1.00  0.00     0.167 HD
ATOM     53  C   UNL A   1      39.103  28.146  27.965  1.00  0.00     0.034 A 
ATOM     54  C   UNL A   1      44.803  26.907  31.916  1.00  0.00     0.034 A 
ATOM     55  C   UNL A   1      40.090  29.014  27.358  1.00  0.00     0.049 A 
ATOM     56  C   UNL A   1      44.134  28.193  31.566  1.00  0.00     0.074 A 
ATOM     57  C   UNL A   1      40.666  29.070  26.102  1.00  0.00     0.029 A 
ATOM     58  N   UNL A   1      40.944  29.707  28.191  1.00  0.00    -0.354 N 
ATOM     59  N   UNL A   1      44.547  28.954  30.584  1.00  0.00    -0.248 NA
ATOM     60  C   UNL A   1      42.723  28.340  31.904  1.00  0.00     0.031 C 
ATOM     61  C   UNL A   1      42.047  29.323  26.346  1.00  0.00     0.029 A 
ATOM     62  C   UNL A   1      42.223  29.532  27.716  1.00  0.00     0.049 A 
ATOM     63  H   UNL A   1      40.685  30.232  28.982  1.00  0.00     0.167 HD
ATOM     64  C   UNL A   1      43.395  29.317  29.901  1.00  0.00     0.074 A 
ATOM     65  C   UNL A   1      42.294  28.969  30.803  1.00  0.00     0.031 C 
ATOM     66  C   UNL A   1      43.409  29.556  28.554  1.00  0.00     0.034 A 
BRANCH  53  67
ATOM     67  C   UNL A   1      38.065  28.659  28.936  1.00  0.00     0.023 A 
ATOM     68  C   UNL A   1      37.117  29.560  28.421  1.00  0.00     0.031 A 
ATOM     69  C   UNL A   1      38.131  28.574  30.347  1.00  0.00     0.131 A 
ATOM     70  C   UNL A   1      36.392  30.408  29.275  1.00  0.00     0.055 A 
ATOM     71  C   UNL A   1      37.356  29.370  31.193  1.00  0.00     0.041 A 
ATOM     72  F   UNL A   1      39.004  27.796  30.995  1.00  0.00    -0.206 F 
ATOM     73  C   UNL A   1      36.507  30.320  30.658  1.00  0.00     0.022 A 
BRANCH  70  74
ATOM     74  S   UNL A   1      35.447  31.756  28.528  1.00  0.00     0.124 S 
ATOM     75  O   UNL A   1      34.825  31.082  27.393  1.00  0.00    -0.237 OA
ATOM     76  O   UNL A   1      34.556  32.138  29.618  1.00  0.00    -0.237 OA
ATOM     77  O   UNL A   1      36.473  32.738  28.186  1.00  0.00    -0.744 OA
ENDBRANCH  70  74
ENDBRANCH  53  67
BRANCH  54  78
ATOM     78  C   UNL A   1      45.176  26.509  33.318  1.00  0.00     0.023 A 
ATOM     79  C   UNL A   1      44.869  25.248  33.892  1.00  0.00     0.031 A 
ATOM     80  C   UNL A   1      46.074  27.317  34.057  1.00  0.00     0.131 A 
ATOM     81  C   UNL A   1      45.445  24.858  35.134  1.00  0.00     0.055 A 
ATOM     82  C   UNL A   1      46.638  26.927  35.273  1.00  0.00     0.041 A 
ATOM     83  F   UNL A   1      46.511  28.493  33.581  1.00  0.00    -0.206 F 
ATOM     84  C   UNL A   1      46.335  25.691  35.814  1.00  0.00     0.022 A 
BRANCH  81  85
ATOM     85  S   UNL A   1      45.116  23.216  35.870  1.00  0.00     0.124 S 
ATOM     86  O   UNL A   1      45.222  23.488  37.299  1.00  0.00    -0.237 OA
ATOM     87  O   UNL A   1      43.785  22.899  35.365  1.00  0.00    -0.237 OA
ATOM     88  O   UNL A   1      46.187  22.377  35.326  1.00  0.00    -0.744 OA
ENDBRANCH  81  85
ENDBRANCH  54  78
BRANCH  66  89
ATOM     89  C   UNL A   1      44.745  29.669  27.837  1.00  0.00     0.023 A 
ATOM     90  C   UNL A   1      45.320  28.676  27.008  1.00  0.00     0.031 A 
ATOM     91  C   UNL A   1      45.391  30.917  27.896  1.00  0.00     0.131 A 
ATOM     92  C   UNL A   1      46.503  28.954  26.289  1.00  0.00     0.055 A 
ATOM     93  C   UNL A   1      46.541  31.197  27.162  1.00  0.00     0.041 A 
ATOM     94  F   UNL A   1      44.884  31.910  28.646  1.00  0.00    -0.206 F 
ATOM     95  C   UNL A   1      47.106  30.215  26.359  1.00  0.00     0.022 A 
BRANCH  92  96
ATOM     96  S   UNL A   1      47.310  27.675  25.268  1.00  0.00     0.124 S 
ATOM     97  O   UNL A   1      46.556  26.466  25.578  1.00  0.00    -0.237 OA
ATOM     98  O   UNL A   1      47.150  28.198  23.914  1.00  0.00    -0.237 OA
ATOM     99  O   UNL A   1      48.691  27.672  25.755  1.00  0.00    -0.744 OA
ENDBRANCH  92  96
ENDBRANCH  66  89
ENDBRANCH  40  41
ENDBRANCH  33  35
ENDBRANCH  32  33
ENDBRANCH  31  32
ENDBRANCH   1  31
TORSDOF 19
ENDMDL
