MODEL 1
REMARK VINA RESULT:     -10.8      0.000      0.000
REMARK SMILES NS(=O)(=O)c1ccc(-n2nc(C(=O)OCCOC(=O)c3ccc(-c4c5nc(c(-c6cc(S(=O)(=O)[O-])ccc6F)c6ccc([nH]6)c(-c6cc(S(=O)(=O)[O-])ccc6F)c6nc(c(-c7cc(S(=O)(=O)[O-])ccc7F)c7ccc4[nH]7)C=C6)C=C5)cc3)cc2-c2ccc(Cl)s2)cc1
REMARK SMILES IDX 15 1 14 2 12 3 13 4 11 5 9 6 10 7 84 8 83 9 8 10 5 11 6 12
REMARK SMILES IDX 92 13 7 14 91 15 2 16 3 17 4 18 1 19 85 22 86 23 90 24 87 25
REMARK SMILES IDX 88 26 89 27 16 28 17 29 18 30 19 31 20 32 21 33 82 34 22 35
REMARK SMILES IDX 81 36 23 37 24 38 25 39 75 40 26 41 80 42 74 43 76 44 27 45
REMARK SMILES IDX 79 46 73 47 72 48 28 50 60 51 40 52 59 53 41 54 44 55 58 56
REMARK SMILES IDX 77 57 42 58 43 59 57 61 78 62 45 63 29 64 30 65 38 66 31 67
REMARK SMILES IDX 37 68 39 69 36 70 32 71 33 72 34 73 35 74 61 75 62 76 70 77
REMARK SMILES IDX 63 78 69 79 71 80 68 81 64 82 65 83 66 84 67 85 46 86 47 87
REMARK SMILES IDX 55 88 48 89 54 90 56 91 53 92 49 93 50 94 51 95 52 96
REMARK H PARENT 1 20 1 21 76 49 44 60
REMARK Flexibility Score: inf
ROOT
ATOM      1  C   UNL A   1      33.954  30.796  27.610  1.00  0.00     0.275 C 
ENDROOT
BRANCH   1   2
ATOM      2  O   UNL A   1      34.416  32.111  27.262  1.00  0.00    -0.457 OA
BRANCH   2   3
ATOM      3  C   UNL A   1      34.095  33.113  28.146  1.00  0.00     0.358 C 
ATOM      4  O   UNL A   1      33.048  33.750  28.104  1.00  0.00    -0.244 OA
BRANCH   3   5
ATOM      5  C   UNL A   1      35.155  33.319  29.144  1.00  0.00     0.171 A 
ATOM      6  N   UNL A   1      37.101  33.633  29.989  1.00  0.00    -0.231 N 
ATOM      7  N   UNL A   1      36.433  33.590  28.811  1.00  0.00    -0.160 NA
ATOM      8  C   UNL A   1      36.267  33.414  31.072  1.00  0.00     0.085 A 
ATOM      9  C   UNL A   1      35.002  33.270  30.551  1.00  0.00     0.068 A 
BRANCH   6  10
ATOM     10  C   UNL A   1      38.515  33.661  29.981  1.00  0.00     0.065 A 
ATOM     11  C   UNL A   1      41.292  33.705  30.035  1.00  0.00     0.082 A 
ATOM     12  C   UNL A   1      40.618  32.497  30.229  1.00  0.00     0.024 A 
ATOM     13  C   UNL A   1      40.584  34.891  29.802  1.00  0.00     0.024 A 
ATOM     14  C   UNL A   1      39.225  32.478  30.219  1.00  0.00     0.030 A 
ATOM     15  C   UNL A   1      39.187  34.867  29.742  1.00  0.00     0.030 A 
BRANCH  11  16
ATOM     16  S   UNL A   1      43.056  33.767  30.111  1.00  0.00     0.238 S 
ATOM     17  O   UNL A   1      43.599  33.486  28.808  1.00  0.00    -0.207 OA
ATOM     18  O   UNL A   1      43.492  33.094  31.315  1.00  0.00    -0.207 OA
BRANCH  16  19
ATOM     19  N   UNL A   1      43.407  35.398  30.372  1.00  0.00    -0.225 NA
ATOM     20  H   UNL A   1      42.545  35.942  30.329  1.00  0.00     0.137 HD
ATOM     21  H   UNL A   1      44.053  35.726  29.655  1.00  0.00     0.137 HD
ENDBRANCH  16  19
ENDBRANCH  11  16
ENDBRANCH   6  10
BRANCH   8  22
ATOM     22  C   UNL A   1      36.662  33.358  32.448  1.00  0.00     0.054 A 
ATOM     23  C   UNL A   1      36.753  34.437  33.307  1.00  0.00     0.024 A 
ATOM     24  S   UNL A   1      37.100  31.894  33.224  1.00  0.00    -0.122 S 
ATOM     25  C   UNL A   1      37.130  34.046  34.625  1.00  0.00     0.033 A 
ATOM     26  C   UNL A   1      37.341  32.693  34.695  1.00  0.00     0.094 A 
ATOM     27  Cl  UNL A   1      37.801  31.805  36.089  1.00  0.00    -0.072 Cl
ENDBRANCH   8  22
ENDBRANCH   3   5
ENDBRANCH   2   3
ENDBRANCH   1   2
BRANCH   1  28
ATOM     28  C   UNL A   1      35.042  29.751  27.404  1.00  0.00     0.275 C 
BRANCH  28  29
ATOM     29  O   UNL A   1      36.329  30.277  27.715  1.00  0.00    -0.458 OA
BRANCH  29  30
ATOM     30  C   UNL A   1      36.893  29.785  28.845  1.00  0.00     0.338 C 
ATOM     31  O   UNL A   1      36.614  30.103  29.990  1.00  0.00    -0.246 OA
BRANCH  30  32
ATOM     32  C   UNL A   1      38.062  28.980  28.479  1.00  0.00     0.060 A 
ATOM     33  C   UNL A   1      38.492  28.019  29.396  1.00  0.00     0.016 A 
ATOM     34  C   UNL A   1      38.867  29.392  27.407  1.00  0.00     0.016 A 
ATOM     35  C   UNL A   1      39.812  27.618  29.347  1.00  0.00     0.010 A 
ATOM     36  C   UNL A   1      40.185  29.004  27.371  1.00  0.00     0.010 A 
ATOM     37  C   UNL A   1      40.664  28.186  28.387  1.00  0.00    -0.014 A 
BRANCH  37  38
ATOM     38  C   UNL A   1      42.046  27.750  28.341  1.00  0.00     0.031 A 
ATOM     39  C   UNL A   1      42.169  26.507  27.553  1.00  0.00     0.074 A 
ATOM     40  C   UNL A   1      43.085  28.444  28.846  1.00  0.00     0.049 A 
ATOM     41  N   UNL A   1      42.200  25.302  28.016  1.00  0.00    -0.248 NA
ATOM     42  C   UNL A   1      41.946  26.578  26.098  1.00  0.00     0.031 C 
ATOM     43  C   UNL A   1      43.077  29.807  29.384  1.00  0.00     0.029 A 
ATOM     44  N   UNL A   1      44.402  28.097  28.924  1.00  0.00    -0.354 N 
ATOM     45  C   UNL A   1      42.347  24.496  26.895  1.00  0.00     0.074 A 
ATOM     46  C   UNL A   1      41.883  25.281  25.788  1.00  0.00     0.031 C 
ATOM     47  C   UNL A   1      44.352  30.246  29.525  1.00  0.00     0.029 A 
ATOM     48  C   UNL A   1      45.264  29.148  29.238  1.00  0.00     0.049 A 
ATOM     49  H   UNL A   1      44.719  27.178  28.769  1.00  0.00     0.167 HD
ATOM     50  C   UNL A   1      43.199  23.435  26.940  1.00  0.00     0.034 A 
ATOM     51  C   UNL A   1      46.626  29.114  29.253  1.00  0.00     0.034 A 
ATOM     52  C   UNL A   1      43.565  23.154  28.313  1.00  0.00     0.049 A 
ATOM     53  C   UNL A   1      47.005  27.697  29.464  1.00  0.00     0.074 A 
ATOM     54  C   UNL A   1      42.965  22.599  29.421  1.00  0.00     0.029 A 
ATOM     55  N   UNL A   1      44.634  23.894  28.755  1.00  0.00    -0.354 N 
ATOM     56  N   UNL A   1      46.718  27.047  30.561  1.00  0.00    -0.248 NA
ATOM     57  C   UNL A   1      47.331  26.859  28.317  1.00  0.00     0.031 C 
ATOM     58  C   UNL A   1      43.615  23.179  30.555  1.00  0.00     0.029 A 
ATOM     59  C   UNL A   1      44.635  24.023  30.118  1.00  0.00     0.049 A 
ATOM     60  H   UNL A   1      45.317  24.285  28.163  1.00  0.00     0.167 HD
ATOM     61  C   UNL A   1      46.404  25.770  30.139  1.00  0.00     0.074 A 
ATOM     62  C   UNL A   1      46.962  25.666  28.794  1.00  0.00     0.031 C 
ATOM     63  C   UNL A   1      45.446  25.035  30.777  1.00  0.00     0.034 A 
BRANCH  50  64
ATOM     64  C   UNL A   1      44.117  23.010  25.803  1.00  0.00     0.023 A 
ATOM     65  C   UNL A   1      44.216  21.627  25.549  1.00  0.00     0.031 A 
ATOM     66  C   UNL A   1      45.098  23.815  25.176  1.00  0.00     0.131 A 
ATOM     67  C   UNL A   1      45.282  21.101  24.797  1.00  0.00     0.055 A 
ATOM     68  C   UNL A   1      46.128  23.291  24.391  1.00  0.00     0.041 A 
ATOM     69  F   UNL A   1      45.185  25.137  25.351  1.00  0.00    -0.206 F 
ATOM     70  C   UNL A   1      46.242  21.925  24.218  1.00  0.00     0.022 A 
BRANCH  67  71
ATOM     71  S   UNL A   1      45.479  19.303  24.703  1.00  0.00     0.124 S 
ATOM     72  O   UNL A   1      46.830  19.122  25.221  1.00  0.00    -0.237 OA
ATOM     73  O   UNL A   1      44.390  18.837  25.555  1.00  0.00    -0.237 OA
ATOM     74  O   UNL A   1      45.315  19.021  23.278  1.00  0.00    -0.744 OA
ENDBRANCH  67  71
ENDBRANCH  50  64
BRANCH  51  75
ATOM     75  C   UNL A   1      47.576  30.144  28.733  1.00  0.00     0.023 A 
ATOM     76  C   UNL A   1      47.215  31.151  27.804  1.00  0.00     0.031 A 
ATOM     77  C   UNL A   1      48.822  30.306  29.379  1.00  0.00     0.131 A 
ATOM     78  C   UNL A   1      48.075  32.255  27.571  1.00  0.00     0.055 A 
ATOM     79  C   UNL A   1      49.660  31.402  29.153  1.00  0.00     0.041 A 
ATOM     80  F   UNL A   1      49.230  29.443  30.324  1.00  0.00    -0.206 F 
ATOM     81  C   UNL A   1      49.284  32.387  28.255  1.00  0.00     0.022 A 
BRANCH  78  82
ATOM     82  S   UNL A   1      47.607  33.593  26.414  1.00  0.00     0.124 S 
ATOM     83  O   UNL A   1      47.503  34.747  27.298  1.00  0.00    -0.237 OA
ATOM     84  O   UNL A   1      48.717  33.594  25.469  1.00  0.00    -0.237 OA
ATOM     85  O   UNL A   1      46.333  33.133  25.858  1.00  0.00    -0.744 OA
ENDBRANCH  78  82
ENDBRANCH  51  75
BRANCH  63  86
ATOM     86  C   UNL A   1      45.168  25.347  32.228  1.00  0.00     0.023 A 
ATOM     87  C   UNL A   1      45.902  24.871  33.337  1.00  0.00     0.031 A 
ATOM     88  C   UNL A   1      44.099  26.227  32.477  1.00  0.00     0.131 A 
ATOM     89  C   UNL A   1      45.545  25.284  34.639  1.00  0.00     0.055 A 
ATOM     90  C   UNL A   1      43.766  26.650  33.761  1.00  0.00     0.041 A 
ATOM     91  F   UNL A   1      43.366  26.712  31.461  1.00  0.00    -0.206 F 
ATOM     92  C   UNL A   1      44.485  26.174  34.848  1.00  0.00     0.022 A 
BRANCH  89  93
ATOM     93  S   UNL A   1      46.426  24.642  36.101  1.00  0.00     0.124 S 
ATOM     94  O   UNL A   1      47.775  25.173  35.947  1.00  0.00    -0.237 OA
ATOM     95  O   UNL A   1      45.646  25.190  37.206  1.00  0.00    -0.237 OA
ATOM     96  O   UNL A   1      46.324  23.188  35.949  1.00  0.00    -0.744 OA
ENDBRANCH  89  93
ENDBRANCH  63  86
ENDBRANCH  37  38
ENDBRANCH  30  32
ENDBRANCH  29  30
ENDBRANCH  28  29
ENDBRANCH   1  28
TORSDOF 18
ENDMDL
MODEL 2
REMARK VINA RESULT:     -10.8      2.179      3.280
REMARK SMILES NS(=O)(=O)c1ccc(-n2nc(C(=O)OCCOC(=O)c3ccc(-c4c5nc(c(-c6cc(S(=O)(=O)[O-])ccc6F)c6ccc([nH]6)c(-c6cc(S(=O)(=O)[O-])ccc6F)c6nc(c(-c7cc(S(=O)(=O)[O-])ccc7F)c7ccc4[nH]7)C=C6)C=C5)cc3)cc2-c2ccc(Cl)s2)cc1
REMARK SMILES IDX 15 1 14 2 12 3 13 4 11 5 9 6 10 7 84 8 83 9 8 10 5 11 6 12
REMARK SMILES IDX 92 13 7 14 91 15 2 16 3 17 4 18 1 19 85 22 86 23 90 24 87 25
REMARK SMILES IDX 88 26 89 27 16 28 17 29 18 30 19 31 20 32 21 33 82 34 22 35
REMARK SMILES IDX 81 36 23 37 24 38 25 39 75 40 26 41 80 42 74 43 76 44 27 45
REMARK SMILES IDX 79 46 73 47 72 48 28 50 60 51 40 52 59 53 41 54 44 55 58 56
REMARK SMILES IDX 77 57 42 58 43 59 57 61 78 62 45 63 29 64 30 65 38 66 31 67
REMARK SMILES IDX 37 68 39 69 36 70 32 71 33 72 34 73 35 74 61 75 62 76 70 77
REMARK SMILES IDX 63 78 69 79 71 80 68 81 64 82 65 83 66 84 67 85 46 86 47 87
REMARK SMILES IDX 55 88 48 89 54 90 56 91 53 92 49 93 50 94 51 95 52 96
REMARK H PARENT 1 20 1 21 76 49 44 60
REMARK Flexibility Score: inf
ROOT
ATOM      1  C   UNL A   1      34.131  31.344  27.968  1.00  0.00     0.275 C 
ENDROOT
BRANCH   1   2
ATOM      2  O   UNL A   1      34.479  32.665  27.522  1.00  0.00    -0.457 OA
BRANCH   2   3
ATOM      3  C   UNL A   1      34.630  33.610  28.507  1.00  0.00     0.358 C 
ATOM      4  O   UNL A   1      33.880  34.570  28.652  1.00  0.00    -0.244 OA
BRANCH   3   5
ATOM      5  C   UNL A   1      35.792  33.326  29.361  1.00  0.00     0.171 A 
ATOM      6  N   UNL A   1      36.951  32.819  31.093  1.00  0.00    -0.231 N 
ATOM      7  N   UNL A   1      35.680  32.884  30.629  1.00  0.00    -0.160 NA
ATOM      8  C   UNL A   1      37.877  33.193  30.134  1.00  0.00     0.085 A 
ATOM      9  C   UNL A   1      37.154  33.465  28.996  1.00  0.00     0.068 A 
BRANCH   6  10
ATOM     10  C   UNL A   1      37.174  32.616  32.475  1.00  0.00     0.065 A 
ATOM     11  C   UNL A   1      37.672  32.254  35.183  1.00  0.00     0.082 A 
ATOM     12  C   UNL A   1      37.339  33.525  34.708  1.00  0.00     0.024 A 
ATOM     13  C   UNL A   1      37.746  31.159  34.313  1.00  0.00     0.024 A 
ATOM     14  C   UNL A   1      37.106  33.710  33.347  1.00  0.00     0.030 A 
ATOM     15  C   UNL A   1      37.464  31.332  32.954  1.00  0.00     0.030 A 
BRANCH  11  16
ATOM     16  S   UNL A   1      38.039  32.008  36.894  1.00  0.00     0.238 S 
ATOM     17  O   UNL A   1      37.121  32.777  37.693  1.00  0.00    -0.207 OA
ATOM     18  O   UNL A   1      39.474  32.049  37.071  1.00  0.00    -0.207 OA
BRANCH  16  19
ATOM     19  N   UNL A   1      37.610  30.401  37.187  1.00  0.00    -0.225 NA
ATOM     20  H   UNL A   1      37.135  30.334  38.087  1.00  0.00     0.137 HD
ATOM     21  H   UNL A   1      38.450  29.823  37.202  1.00  0.00     0.137 HD
ENDBRANCH  16  19
ENDBRANCH  11  16
ENDBRANCH   6  10
BRANCH   8  22
ATOM     22  C   UNL A   1      39.296  33.271  30.312  1.00  0.00     0.054 A 
ATOM     23  C   UNL A   1      40.103  32.270  30.821  1.00  0.00     0.024 A 
ATOM     24  S   UNL A   1      40.202  34.671  29.915  1.00  0.00    -0.122 S 
ATOM     25  C   UNL A   1      41.480  32.639  30.828  1.00  0.00     0.033 A 
ATOM     26  C   UNL A   1      41.649  33.915  30.358  1.00  0.00     0.094 A 
ATOM     27  Cl  UNL A   1      43.140  34.750  30.192  1.00  0.00    -0.072 Cl
ENDBRANCH   8  22
ENDBRANCH   3   5
ENDBRANCH   2   3
ENDBRANCH   1   2
BRANCH   1  28
ATOM     28  C   UNL A   1      35.063  30.294  27.380  1.00  0.00     0.275 C 
BRANCH  28  29
ATOM     29  O   UNL A   1      36.396  30.461  27.855  1.00  0.00    -0.458 OA
BRANCH  29  30
ATOM     30  C   UNL A   1      36.750  29.636  28.870  1.00  0.00     0.338 C 
ATOM     31  O   UNL A   1      36.287  29.638  29.999  1.00  0.00    -0.246 OA
BRANCH  30  32
ATOM     32  C   UNL A   1      37.950  28.891  28.478  1.00  0.00     0.060 A 
ATOM     33  C   UNL A   1      38.495  28.010  29.414  1.00  0.00     0.016 A 
ATOM     34  C   UNL A   1      38.666  29.298  27.342  1.00  0.00     0.016 A 
ATOM     35  C   UNL A   1      39.834  27.694  29.309  1.00  0.00     0.010 A 
ATOM     36  C   UNL A   1      40.004  28.997  27.249  1.00  0.00     0.010 A 
ATOM     37  C   UNL A   1      40.592  28.266  28.275  1.00  0.00    -0.014 A 
BRANCH  37  38
ATOM     38  C   UNL A   1      41.996  27.919  28.171  1.00  0.00     0.031 A 
ATOM     39  C   UNL A   1      42.158  26.626  27.477  1.00  0.00     0.074 A 
ATOM     40  C   UNL A   1      43.012  28.720  28.549  1.00  0.00     0.049 A 
ATOM     41  N   UNL A   1      42.304  25.468  28.031  1.00  0.00    -0.248 NA
ATOM     42  C   UNL A   1      41.842  26.560  26.039  1.00  0.00     0.031 C 
ATOM     43  C   UNL A   1      42.940  30.120  28.977  1.00  0.00     0.029 A 
ATOM     44  N   UNL A   1      44.353  28.468  28.565  1.00  0.00    -0.354 N 
ATOM     45  C   UNL A   1      42.439  24.584  26.969  1.00  0.00     0.074 A 
ATOM     46  C   UNL A   1      41.853  25.241  25.838  1.00  0.00     0.031 C 
ATOM     47  C   UNL A   1      44.187  30.652  28.996  1.00  0.00     0.029 A 
ATOM     48  C   UNL A   1      45.155  29.597  28.736  1.00  0.00     0.049 A 
ATOM     49  H   UNL A   1      44.725  27.563  28.462  1.00  0.00     0.167 HD
ATOM     50  C   UNL A   1      43.365  23.588  27.041  1.00  0.00     0.034 A 
ATOM     51  C   UNL A   1      46.515  29.654  28.662  1.00  0.00     0.034 A 
ATOM     52  C   UNL A   1      43.833  23.447  28.404  1.00  0.00     0.049 A 
ATOM     53  C   UNL A   1      47.006  28.287  28.959  1.00  0.00     0.074 A 
ATOM     54  C   UNL A   1      43.344  22.948  29.591  1.00  0.00     0.029 A 
ATOM     55  N   UNL A   1      44.873  24.290  28.713  1.00  0.00    -0.354 N 
ATOM     56  N   UNL A   1      46.834  27.714  30.121  1.00  0.00    -0.248 NA
ATOM     57  C   UNL A   1      47.319  27.379  27.862  1.00  0.00     0.031 C 
ATOM     58  C   UNL A   1      44.019  23.662  30.628  1.00  0.00     0.029 A 
ATOM     59  C   UNL A   1      44.948  24.533  30.059  1.00  0.00     0.049 A 
ATOM     60  H   UNL A   1      45.488  24.674  28.048  1.00  0.00     0.167 HD
ATOM     61  C   UNL A   1      46.586  26.388  29.823  1.00  0.00     0.074 A 
ATOM     62  C   UNL A   1      47.066  26.208  28.456  1.00  0.00     0.031 C 
ATOM     63  C   UNL A   1      45.724  25.647  30.580  1.00  0.00     0.034 A 
BRANCH  50  64
ATOM     64  C   UNL A   1      44.238  23.131  25.882  1.00  0.00     0.023 A 
ATOM     65  C   UNL A   1      44.160  21.769  25.525  1.00  0.00     0.031 A 
ATOM     66  C   UNL A   1      45.328  23.844  25.326  1.00  0.00     0.131 A 
ATOM     67  C   UNL A   1      45.161  21.165  24.743  1.00  0.00     0.055 A 
ATOM     68  C   UNL A   1      46.294  23.247  24.511  1.00  0.00     0.041 A 
ATOM     69  F   UNL A   1      45.584  25.125  25.601  1.00  0.00    -0.206 F 
ATOM     70  C   UNL A   1      46.230  21.896  24.236  1.00  0.00     0.022 A 
BRANCH  67  71
ATOM     71  S   UNL A   1      45.122  19.368  24.514  1.00  0.00     0.124 S 
ATOM     72  O   UNL A   1      44.706  19.253  23.122  1.00  0.00    -0.237 OA
ATOM     73  O   UNL A   1      46.502  18.998  24.812  1.00  0.00    -0.237 OA
ATOM     74  O   UNL A   1      44.136  18.925  25.499  1.00  0.00    -0.744 OA
ENDBRANCH  67  71
ENDBRANCH  50  64
BRANCH  51  75
ATOM     75  C   UNL A   1      47.356  30.697  28.000  1.00  0.00     0.023 A 
ATOM     76  C   UNL A   1      46.826  31.762  27.229  1.00  0.00     0.031 A 
ATOM     77  C   UNL A   1      48.718  30.802  28.361  1.00  0.00     0.131 A 
ATOM     78  C   UNL A   1      47.645  32.864  26.870  1.00  0.00     0.055 A 
ATOM     79  C   UNL A   1      49.516  31.896  28.013  1.00  0.00     0.041 A 
ATOM     80  F   UNL A   1      49.299  29.879  29.145  1.00  0.00    -0.206 F 
ATOM     81  C   UNL A   1      48.978  32.937  27.275  1.00  0.00     0.022 A 
BRANCH  78  82
ATOM     82  S   UNL A   1      46.971  34.273  25.919  1.00  0.00     0.124 S 
ATOM     83  O   UNL A   1      48.066  34.587  25.008  1.00  0.00    -0.237 OA
ATOM     84  O   UNL A   1      45.769  33.703  25.320  1.00  0.00    -0.237 OA
ATOM     85  O   UNL A   1      46.719  35.288  26.944  1.00  0.00    -0.744 OA
ENDBRANCH  78  82
ENDBRANCH  51  75
BRANCH  63  86
ATOM     86  C   UNL A   1      45.515  26.061  32.017  1.00  0.00     0.023 A 
ATOM     87  C   UNL A   1      44.385  26.733  32.533  1.00  0.00     0.031 A 
ATOM     88  C   UNL A   1      46.533  25.701  32.919  1.00  0.00     0.131 A 
ATOM     89  C   UNL A   1      44.313  27.019  33.914  1.00  0.00     0.055 A 
ATOM     90  C   UNL A   1      46.448  25.965  34.283  1.00  0.00     0.041 A 
ATOM     91  F   UNL A   1      47.631  25.061  32.485  1.00  0.00    -0.206 F 
ATOM     92  C   UNL A   1      45.338  26.631  34.785  1.00  0.00     0.022 A 
BRANCH  89  93
ATOM     93  S   UNL A   1      42.901  27.941  34.608  1.00  0.00     0.124 S 
ATOM     94  O   UNL A   1      41.791  27.002  34.494  1.00  0.00    -0.237 OA
ATOM     95  O   UNL A   1      43.353  28.234  35.965  1.00  0.00    -0.237 OA
ATOM     96  O   UNL A   1      42.798  29.114  33.736  1.00  0.00    -0.744 OA
ENDBRANCH  89  93
ENDBRANCH  63  86
ENDBRANCH  37  38
ENDBRANCH  30  32
ENDBRANCH  29  30
ENDBRANCH  28  29
ENDBRANCH   1  28
TORSDOF 18
ENDMDL
MODEL 3
REMARK VINA RESULT:     -10.7      3.903      6.583
REMARK SMILES NS(=O)(=O)c1ccc(-n2nc(C(=O)OCCOC(=O)c3ccc(-c4c5nc(c(-c6cc(S(=O)(=O)[O-])ccc6F)c6ccc([nH]6)c(-c6cc(S(=O)(=O)[O-])ccc6F)c6nc(c(-c7cc(S(=O)(=O)[O-])ccc7F)c7ccc4[nH]7)C=C6)C=C5)cc3)cc2-c2ccc(Cl)s2)cc1
REMARK SMILES IDX 15 1 14 2 12 3 13 4 11 5 9 6 10 7 84 8 83 9 8 10 5 11 6 12
REMARK SMILES IDX 92 13 7 14 91 15 2 16 3 17 4 18 1 19 85 22 86 23 90 24 87 25
REMARK SMILES IDX 88 26 89 27 16 28 17 29 18 30 19 31 20 32 21 33 82 34 22 35
REMARK SMILES IDX 81 36 23 37 24 38 25 39 75 40 26 41 80 42 74 43 76 44 27 45
REMARK SMILES IDX 79 46 73 47 72 48 28 50 60 51 40 52 59 53 41 54 44 55 58 56
REMARK SMILES IDX 77 57 42 58 43 59 57 61 78 62 45 63 29 64 30 65 38 66 31 67
REMARK SMILES IDX 37 68 39 69 36 70 32 71 33 72 34 73 35 74 61 75 62 76 70 77
REMARK SMILES IDX 63 78 69 79 71 80 68 81 64 82 65 83 66 84 67 85 46 86 47 87
REMARK SMILES IDX 55 88 48 89 54 90 56 91 53 92 49 93 50 94 51 95 52 96
REMARK H PARENT 1 20 1 21 76 49 44 60
REMARK Flexibility Score: inf
ROOT
ATOM      1  C   UNL A   1      33.782  29.114  26.569  1.00  0.00     0.275 C 
ENDROOT
BRANCH   1   2
ATOM      2  O   UNL A   1      34.406  27.892  26.146  1.00  0.00    -0.457 OA
BRANCH   2   3
ATOM      3  C   UNL A   1      33.657  27.092  25.316  1.00  0.00     0.358 C 
ATOM      4  O   UNL A   1      32.786  27.516  24.564  1.00  0.00    -0.244 OA
BRANCH   3   5
ATOM      5  C   UNL A   1      34.034  25.676  25.439  1.00  0.00     0.171 A 
ATOM      6  N   UNL A   1      35.234  23.922  25.728  1.00  0.00    -0.231 N 
ATOM      7  N   UNL A   1      35.266  25.274  25.808  1.00  0.00    -0.160 NA
ATOM      8  C   UNL A   1      33.993  23.452  25.333  1.00  0.00     0.085 A 
ATOM      9  C   UNL A   1      33.192  24.562  25.200  1.00  0.00     0.068 A 
BRANCH   6  10
ATOM     10  C   UNL A   1      36.443  23.194  25.822  1.00  0.00     0.065 A 
ATOM     11  C   UNL A   1      38.789  21.728  26.056  1.00  0.00     0.082 A 
ATOM     12  C   UNL A   1      37.644  21.117  25.539  1.00  0.00     0.024 A 
ATOM     13  C   UNL A   1      38.771  23.072  26.447  1.00  0.00     0.024 A 
ATOM     14  C   UNL A   1      36.463  21.848  25.437  1.00  0.00     0.030 A 
ATOM     15  C   UNL A   1      37.600  23.823  26.300  1.00  0.00     0.030 A 
BRANCH  11  16
ATOM     16  S   UNL A   1      40.281  20.802  26.260  1.00  0.00     0.238 S 
ATOM     17  O   UNL A   1      40.545  20.628  27.664  1.00  0.00    -0.207 OA
ATOM     18  O   UNL A   1      41.265  21.297  25.322  1.00  0.00    -0.207 OA
BRANCH  16  19
ATOM     19  N   UNL A   1      39.892  19.255  25.707  1.00  0.00    -0.225 NA
ATOM     20  H   UNL A   1      40.463  18.565  26.197  1.00  0.00     0.137 HD
ATOM     21  H   UNL A   1      40.073  19.197  24.705  1.00  0.00     0.137 HD
ENDBRANCH  16  19
ENDBRANCH  11  16
ENDBRANCH   6  10
BRANCH   8  22
ATOM     22  C   UNL A   1      33.637  22.081  25.116  1.00  0.00     0.054 A 
ATOM     23  C   UNL A   1      33.453  21.480  23.885  1.00  0.00     0.024 A 
ATOM     24  S   UNL A   1      33.371  20.981  26.403  1.00  0.00    -0.122 S 
ATOM     25  C   UNL A   1      33.149  20.092  24.003  1.00  0.00     0.033 A 
ATOM     26  C   UNL A   1      33.082  19.714  25.319  1.00  0.00     0.094 A 
ATOM     27  Cl  UNL A   1      32.748  18.138  25.911  1.00  0.00    -0.072 Cl
ENDBRANCH   8  22
ENDBRANCH   3   5
ENDBRANCH   2   3
ENDBRANCH   1   2
BRANCH   1  28
ATOM     28  C   UNL A   1      34.758  30.006  27.323  1.00  0.00     0.275 C 
BRANCH  28  29
ATOM     29  O   UNL A   1      35.685  29.233  28.081  1.00  0.00    -0.458 OA
BRANCH  29  30
ATOM     30  C   UNL A   1      36.783  29.905  28.503  1.00  0.00     0.338 C 
ATOM     31  O   UNL A   1      36.826  31.073  28.854  1.00  0.00    -0.246 OA
BRANCH  30  32
ATOM     32  C   UNL A   1      37.969  29.081  28.250  1.00  0.00     0.060 A 
ATOM     33  C   UNL A   1      38.407  28.251  29.283  1.00  0.00     0.016 A 
ATOM     34  C   UNL A   1      38.777  29.369  27.140  1.00  0.00     0.016 A 
ATOM     35  C   UNL A   1      39.734  27.871  29.295  1.00  0.00     0.010 A 
ATOM     36  C   UNL A   1      40.102  29.004  27.163  1.00  0.00     0.010 A 
ATOM     37  C   UNL A   1      40.585  28.329  28.278  1.00  0.00    -0.014 A 
BRANCH  37  38
ATOM     38  C   UNL A   1      41.975  27.915  28.296  1.00  0.00     0.031 A 
ATOM     39  C   UNL A   1      42.160  26.693  27.489  1.00  0.00     0.074 A 
ATOM     40  C   UNL A   1      42.973  28.613  28.872  1.00  0.00     0.049 A 
ATOM     41  N   UNL A   1      42.187  25.478  27.926  1.00  0.00    -0.248 NA
ATOM     42  C   UNL A   1      42.014  26.793  26.026  1.00  0.00     0.031 C 
ATOM     43  C   UNL A   1      42.914  29.964  29.439  1.00  0.00     0.029 A 
ATOM     44  N   UNL A   1      44.290  28.285  29.013  1.00  0.00    -0.354 N 
ATOM     45  C   UNL A   1      42.407  24.701  26.797  1.00  0.00     0.074 A 
ATOM     46  C   UNL A   1      41.990  25.503  25.684  1.00  0.00     0.031 C 
ATOM     47  C   UNL A   1      44.172  30.419  29.657  1.00  0.00     0.029 A 
ATOM     48  C   UNL A   1      45.116  29.342  29.396  1.00  0.00     0.049 A 
ATOM     49  H   UNL A   1      44.630  27.375  28.855  1.00  0.00     0.167 HD
ATOM     50  C   UNL A   1      43.273  23.652  26.865  1.00  0.00     0.034 A 
ATOM     51  C   UNL A   1      46.476  29.328  29.484  1.00  0.00     0.034 A 
ATOM     52  C   UNL A   1      43.568  23.345  28.249  1.00  0.00     0.049 A 
ATOM     53  C   UNL A   1      46.867  27.913  29.684  1.00  0.00     0.074 A 
ATOM     54  C   UNL A   1      42.920  22.755  29.311  1.00  0.00     0.029 A 
ATOM     55  N   UNL A   1      44.600  24.091  28.764  1.00  0.00    -0.354 N 
ATOM     56  N   UNL A   1      46.532  27.234  30.749  1.00  0.00    -0.248 NA
ATOM     57  C   UNL A   1      47.267  27.106  28.538  1.00  0.00     0.031 C 
ATOM     58  C   UNL A   1      43.498  23.319  30.490  1.00  0.00     0.029 A 
ATOM     59  C   UNL A   1      44.526  24.189  30.128  1.00  0.00     0.049 A 
ATOM     60  H   UNL A   1      45.307  24.506  28.219  1.00  0.00     0.167 HD
ATOM     61  C   UNL A   1      46.262  25.962  30.282  1.00  0.00     0.074 A 
ATOM     62  C   UNL A   1      46.893  25.897  28.968  1.00  0.00     0.031 C 
ATOM     63  C   UNL A   1      45.284  25.198  30.852  1.00  0.00     0.034 A 
BRANCH  50  64
ATOM     64  C   UNL A   1      44.256  23.267  25.770  1.00  0.00     0.023 A 
ATOM     65  C   UNL A   1      44.378  21.893  25.478  1.00  0.00     0.031 A 
ATOM     66  C   UNL A   1      45.269  24.096  25.228  1.00  0.00     0.131 A 
ATOM     67  C   UNL A   1      45.488  21.395  24.772  1.00  0.00     0.055 A 
ATOM     68  C   UNL A   1      46.345  23.600  24.487  1.00  0.00     0.041 A 
ATOM     69  F   UNL A   1      45.338  25.411  25.450  1.00  0.00    -0.206 F 
ATOM     70  C   UNL A   1      46.475  22.241  24.278  1.00  0.00     0.022 A 
BRANCH  67  71
ATOM     71  S   UNL A   1      45.700  19.602  24.632  1.00  0.00     0.124 S 
ATOM     72  O   UNL A   1      44.731  19.110  25.605  1.00  0.00    -0.237 OA
ATOM     73  O   UNL A   1      45.382  19.372  23.226  1.00  0.00    -0.237 OA
ATOM     74  O   UNL A   1      47.103  19.400  24.991  1.00  0.00    -0.744 OA
ENDBRANCH  67  71
ENDBRANCH  50  64
BRANCH  51  75
ATOM     75  C   UNL A   1      47.435  30.385  29.039  1.00  0.00     0.023 A 
ATOM     76  C   UNL A   1      47.174  31.290  27.980  1.00  0.00     0.031 A 
ATOM     77  C   UNL A   1      48.543  30.687  29.861  1.00  0.00     0.131 A 
ATOM     78  C   UNL A   1      47.993  32.434  27.796  1.00  0.00     0.055 A 
ATOM     79  C   UNL A   1      49.339  31.821  29.682  1.00  0.00     0.041 A 
ATOM     80  F   UNL A   1      48.838  29.929  30.931  1.00  0.00    -0.206 F 
ATOM     81  C   UNL A   1      49.060  32.706  28.654  1.00  0.00     0.022 A 
BRANCH  78  82
ATOM     82  S   UNL A   1      47.645  33.643  26.468  1.00  0.00     0.124 S 
ATOM     83  O   UNL A   1      46.343  33.205  25.982  1.00  0.00    -0.237 OA
ATOM     84  O   UNL A   1      47.679  34.914  27.183  1.00  0.00    -0.237 OA
ATOM     85  O   UNL A   1      48.748  33.443  25.526  1.00  0.00    -0.744 OA
ENDBRANCH  78  82
ENDBRANCH  51  75
BRANCH  63  86
ATOM     86  C   UNL A   1      44.923  25.473  32.292  1.00  0.00     0.023 A 
ATOM     87  C   UNL A   1      45.575  24.945  33.428  1.00  0.00     0.031 A 
ATOM     88  C   UNL A   1      43.862  26.371  32.503  1.00  0.00     0.131 A 
ATOM     89  C   UNL A   1      45.147  25.326  34.719  1.00  0.00     0.055 A 
ATOM     90  C   UNL A   1      43.458  26.763  33.777  1.00  0.00     0.041 A 
ATOM     91  F   UNL A   1      43.205  26.905  31.460  1.00  0.00    -0.206 F 
ATOM     92  C   UNL A   1      44.098  26.237  34.890  1.00  0.00     0.022 A 
BRANCH  89  93
ATOM     93  S   UNL A   1      45.921  24.618  36.210  1.00  0.00     0.124 S 
ATOM     94  O   UNL A   1      44.922  23.675  36.698  1.00  0.00    -0.237 OA
ATOM     95  O   UNL A   1      47.148  24.031  35.681  1.00  0.00    -0.237 OA
ATOM     96  O   UNL A   1      46.129  25.784  37.072  1.00  0.00    -0.744 OA
ENDBRANCH  89  93
ENDBRANCH  63  86
ENDBRANCH  37  38
ENDBRANCH  30  32
ENDBRANCH  29  30
ENDBRANCH  28  29
ENDBRANCH   1  28
TORSDOF 18
ENDMDL
