MODEL 1
REMARK VINA RESULT:     -11.8      0.000      0.000
REMARK SMILES O=C(OCCOC(=O)c1ccc(S(=O)(=O)NCC[NH+]2CCCC2)c(F)c1)c1ccc(-c2c3nc(c(-c4cc(S(=O)(=O)[O-])ccc4F)c4ccc([nH]4)c(-c4cc(S(=O)(=O)[O-])ccc4F)c4nc(c(-c5cc(S(=O)(=O)[O-])ccc5F)c5ccc2[nH]5)C=C4)C=C3)cc1
REMARK SMILES IDX 5 1 4 2 3 3 2 4 1 5 27 6 28 7 89 8 29 9 88 10 30 11 31 12
REMARK SMILES IDX 32 13 82 14 33 15 87 16 81 17 83 18 34 19 86 20 80 21 79 22
REMARK SMILES IDX 35 24 67 25 47 26 66 27 48 28 51 29 65 30 84 31 49 32 50 33
REMARK SMILES IDX 64 35 85 36 52 37 36 38 37 39 45 40 38 41 44 42 46 43 43 44
REMARK SMILES IDX 39 45 40 46 41 47 42 48 68 49 69 50 77 51 70 52 76 53 78 54
REMARK SMILES IDX 75 55 71 56 72 57 73 58 74 59 53 60 54 61 62 62 55 63 61 64
REMARK SMILES IDX 63 65 60 66 56 67 57 68 58 69 59 70 6 71 7 72 8 73 9 74
REMARK SMILES IDX 10 75 26 76 11 77 24 78 12 79 25 80 13 81 14 82 15 83 16 84
REMARK SMILES IDX 17 86 18 87 19 88 20 89 23 90 21 92 22 93
REMARK H PARENT 83 23 51 34 16 85 19 91
REMARK Flexibility Score: inf
ROOT
ATOM      1  C   UNL A   1      33.500  31.683  27.533  1.00  0.00     0.275 C 
ENDROOT
BRANCH   1   2
ATOM      2  C   UNL A   1      32.346  32.656  27.278  1.00  0.00     0.275 C 
BRANCH   2   3
ATOM      3  O   UNL A   1      32.637  34.032  27.583  1.00  0.00    -0.458 OA
BRANCH   3   4
ATOM      4  C   UNL A   1      33.162  34.589  28.700  1.00  0.00     0.338 C 
ATOM      5  O   UNL A   1      32.683  35.649  29.104  1.00  0.00    -0.246 OA
BRANCH   4   6
ATOM      6  C   UNL A   1      34.381  34.072  29.399  1.00  0.00     0.060 A 
ATOM      7  C   UNL A   1      35.703  34.226  28.975  1.00  0.00     0.016 A 
ATOM      8  C   UNL A   1      34.154  33.337  30.580  1.00  0.00     0.016 A 
ATOM      9  C   UNL A   1      36.769  33.736  29.736  1.00  0.00     0.010 A 
ATOM     10  C   UNL A   1      35.216  32.843  31.341  1.00  0.00     0.010 A 
ATOM     11  C   UNL A   1      36.532  33.044  30.924  1.00  0.00    -0.014 A 
BRANCH  11  12
ATOM     12  C   UNL A   1      37.657  32.416  31.650  1.00  0.00     0.031 A 
ATOM     13  C   UNL A   1      38.309  31.206  31.055  1.00  0.00     0.074 A 
ATOM     14  C   UNL A   1      38.115  32.953  32.796  1.00  0.00     0.049 A 
ATOM     15  N   UNL A   1      39.318  30.510  31.503  1.00  0.00    -0.248 NA
ATOM     16  C   UNL A   1      37.771  30.735  29.767  1.00  0.00     0.031 C 
ATOM     17  C   UNL A   1      37.610  34.177  33.410  1.00  0.00     0.029 A 
ATOM     18  N   UNL A   1      39.099  32.535  33.653  1.00  0.00    -0.354 N 
ATOM     19  C   UNL A   1      39.577  29.558  30.525  1.00  0.00     0.074 A 
ATOM     20  C   UNL A   1      38.568  29.711  29.501  1.00  0.00     0.031 C 
ATOM     21  C   UNL A   1      38.232  34.374  34.584  1.00  0.00     0.029 A 
ATOM     22  C   UNL A   1      39.192  33.296  34.795  1.00  0.00     0.049 A 
ATOM     23  H   UNL A   1      39.683  31.763  33.471  1.00  0.00     0.167 HD
ATOM     24  C   UNL A   1      40.594  28.668  30.472  1.00  0.00     0.034 A 
ATOM     25  C   UNL A   1      39.960  33.135  35.889  1.00  0.00     0.034 A 
ATOM     26  C   UNL A   1      41.567  28.510  31.519  1.00  0.00     0.049 A 
ATOM     27  C   UNL A   1      40.969  32.019  35.895  1.00  0.00     0.074 A 
ATOM     28  C   UNL A   1      42.630  27.628  31.583  1.00  0.00     0.029 A 
ATOM     29  N   UNL A   1      41.583  29.245  32.698  1.00  0.00    -0.354 N 
ATOM     30  N   UNL A   1      41.211  31.128  34.960  1.00  0.00    -0.248 NA
ATOM     31  C   UNL A   1      41.830  31.905  37.078  1.00  0.00     0.031 C 
ATOM     32  C   UNL A   1      43.253  27.791  32.826  1.00  0.00     0.029 A 
ATOM     33  C   UNL A   1      42.616  28.815  33.511  1.00  0.00     0.049 A 
ATOM     34  H   UNL A   1      40.950  29.966  32.922  1.00  0.00     0.167 HD
ATOM     35  C   UNL A   1      42.282  30.375  35.422  1.00  0.00     0.074 A 
ATOM     36  C   UNL A   1      42.629  30.904  36.728  1.00  0.00     0.031 C 
ATOM     37  C   UNL A   1      42.935  29.354  34.812  1.00  0.00     0.034 A 
BRANCH  24  38
ATOM     38  C   UNL A   1      40.672  27.799  29.247  1.00  0.00     0.023 A 
ATOM     39  C   UNL A   1      41.592  28.073  28.220  1.00  0.00     0.031 A 
ATOM     40  C   UNL A   1      39.792  26.718  29.082  1.00  0.00     0.131 A 
ATOM     41  C   UNL A   1      41.572  27.308  27.045  1.00  0.00     0.055 A 
ATOM     42  C   UNL A   1      39.820  25.921  27.936  1.00  0.00     0.041 A 
ATOM     43  F   UNL A   1      38.877  26.433  30.022  1.00  0.00    -0.206 F 
ATOM     44  C   UNL A   1      40.707  26.220  26.905  1.00  0.00     0.022 A 
BRANCH  41  45
ATOM     45  S   UNL A   1      42.629  27.813  25.659  1.00  0.00     0.124 S 
ATOM     46  O   UNL A   1      43.885  28.115  26.342  1.00  0.00    -0.237 OA
ATOM     47  O   UNL A   1      42.633  26.626  24.811  1.00  0.00    -0.237 OA
ATOM     48  O   UNL A   1      41.932  28.972  25.103  1.00  0.00    -0.744 OA
ENDBRANCH  41  45
ENDBRANCH  24  38
BRANCH  25  49
ATOM     49  C   UNL A   1      39.794  34.043  37.056  1.00  0.00     0.023 A 
ATOM     50  C   UNL A   1      39.111  33.637  38.211  1.00  0.00     0.031 A 
ATOM     51  C   UNL A   1      40.339  35.339  37.029  1.00  0.00     0.131 A 
ATOM     52  C   UNL A   1      38.977  34.526  39.291  1.00  0.00     0.055 A 
ATOM     53  C   UNL A   1      40.223  36.212  38.113  1.00  0.00     0.041 A 
ATOM     54  F   UNL A   1      41.014  35.768  35.951  1.00  0.00    -0.206 F 
ATOM     55  C   UNL A   1      39.534  35.808  39.252  1.00  0.00     0.022 A 
BRANCH  52  56
ATOM     56  S   UNL A   1      38.055  33.986  40.757  1.00  0.00     0.124 S 
ATOM     57  O   UNL A   1      39.059  33.209  41.473  1.00  0.00    -0.237 OA
ATOM     58  O   UNL A   1      37.675  35.259  41.362  1.00  0.00    -0.237 OA
ATOM     59  O   UNL A   1      36.947  33.213  40.198  1.00  0.00    -0.744 OA
ENDBRANCH  52  56
ENDBRANCH  25  49
BRANCH  37  60
ATOM     60  C   UNL A   1      44.117  28.768  35.530  1.00  0.00     0.023 A 
ATOM     61  C   UNL A   1      43.963  27.748  36.481  1.00  0.00     0.031 A 
ATOM     62  C   UNL A   1      45.416  29.203  35.215  1.00  0.00     0.131 A 
ATOM     63  C   UNL A   1      45.095  27.207  37.105  1.00  0.00     0.055 A 
ATOM     64  C   UNL A   1      46.542  28.630  35.806  1.00  0.00     0.041 A 
ATOM     65  F   UNL A   1      45.610  30.174  34.309  1.00  0.00    -0.206 F 
ATOM     66  C   UNL A   1      46.384  27.627  36.759  1.00  0.00     0.022 A 
BRANCH  63  67
ATOM     67  S   UNL A   1      44.864  25.954  38.394  1.00  0.00     0.124 S 
ATOM     68  O   UNL A   1      44.103  26.692  39.397  1.00  0.00    -0.237 OA
ATOM     69  O   UNL A   1      44.136  24.904  37.687  1.00  0.00    -0.237 OA
ATOM     70  O   UNL A   1      46.229  25.604  38.781  1.00  0.00    -0.744 OA
ENDBRANCH  63  67
ENDBRANCH  37  60
ENDBRANCH  11  12
ENDBRANCH   4   6
ENDBRANCH   3   4
ENDBRANCH   2   3
ENDBRANCH   1   2
BRANCH   1  71
ATOM     71  O   UNL A   1      33.109  30.305  27.477  1.00  0.00    -0.458 OA
BRANCH  71  72
ATOM     72  C   UNL A   1      34.107  29.429  27.188  1.00  0.00     0.338 C 
ATOM     73  O   UNL A   1      35.084  29.176  27.872  1.00  0.00    -0.246 OA
BRANCH  72  74
ATOM     74  C   UNL A   1      33.770  28.702  25.947  1.00  0.00     0.063 A 
ATOM     75  C   UNL A   1      33.371  29.381  24.795  1.00  0.00     0.017 A 
ATOM     76  C   UNL A   1      33.822  27.303  25.955  1.00  0.00     0.056 A 
ATOM     77  C   UNL A   1      32.977  28.650  23.673  1.00  0.00     0.026 A 
ATOM     78  C   UNL A   1      33.398  26.580  24.837  1.00  0.00     0.144 A 
ATOM     79  C   UNL A   1      32.955  27.246  23.706  1.00  0.00     0.118 A 
ATOM     80  F   UNL A   1      33.408  25.244  24.919  1.00  0.00    -0.205 F 
BRANCH  79  81
ATOM     81  S   UNL A   1      32.271  26.438  22.298  1.00  0.00     0.243 S 
ATOM     82  O   UNL A   1      33.356  26.265  21.364  1.00  0.00    -0.207 OA
ATOM     83  O   UNL A   1      31.525  25.310  22.816  1.00  0.00    -0.207 OA
BRANCH  81  84
ATOM     84  N   UNL A   1      31.133  27.428  21.583  1.00  0.00    -0.205 NA
ATOM     85  H   UNL A   1      30.577  26.830  20.973  1.00  0.00     0.141 HD
BRANCH  84  86
ATOM     86  C   UNL A   1      30.174  28.214  22.369  1.00  0.00     0.160 C 
BRANCH  86  87
ATOM     87  C   UNL A   1      29.988  29.693  21.957  1.00  0.00     0.278 C 
BRANCH  87  88
ATOM     88  N   UNL A   1      28.595  30.085  21.638  1.00  0.00    -0.334 N 
ATOM     89  C   UNL A   1      28.443  31.548  21.498  1.00  0.00     0.262 C 
ATOM     90  C   UNL A   1      27.699  29.761  22.777  1.00  0.00     0.262 C 
ATOM     91  H   UNL A   1      28.367  29.591  20.774  1.00  0.00     0.348 HD
ATOM     92  C   UNL A   1      28.315  32.092  22.908  1.00  0.00     0.067 C 
ATOM     93  C   UNL A   1      27.516  31.020  23.621  1.00  0.00     0.067 C 
ENDBRANCH  87  88
ENDBRANCH  86  87
ENDBRANCH  84  86
ENDBRANCH  81  84
ENDBRANCH  79  81
ENDBRANCH  72  74
ENDBRANCH  71  72
ENDBRANCH   1  71
TORSDOF 19
ENDMDL
MODEL 2
REMARK VINA RESULT:     -11.5      3.420      8.674
REMARK SMILES O=C(OCCOC(=O)c1ccc(S(=O)(=O)NCC[NH+]2CCCC2)c(F)c1)c1ccc(-c2c3nc(c(-c4cc(S(=O)(=O)[O-])ccc4F)c4ccc([nH]4)c(-c4cc(S(=O)(=O)[O-])ccc4F)c4nc(c(-c5cc(S(=O)(=O)[O-])ccc5F)c5ccc2[nH]5)C=C4)C=C3)cc1
REMARK SMILES IDX 5 1 4 2 3 3 2 4 1 5 27 6 28 7 89 8 29 9 88 10 30 11 31 12
REMARK SMILES IDX 32 13 82 14 33 15 87 16 81 17 83 18 34 19 86 20 80 21 79 22
REMARK SMILES IDX 35 24 67 25 47 26 66 27 48 28 51 29 65 30 84 31 49 32 50 33
REMARK SMILES IDX 64 35 85 36 52 37 36 38 37 39 45 40 38 41 44 42 46 43 43 44
REMARK SMILES IDX 39 45 40 46 41 47 42 48 68 49 69 50 77 51 70 52 76 53 78 54
REMARK SMILES IDX 75 55 71 56 72 57 73 58 74 59 53 60 54 61 62 62 55 63 61 64
REMARK SMILES IDX 63 65 60 66 56 67 57 68 58 69 59 70 6 71 7 72 8 73 9 74
REMARK SMILES IDX 10 75 26 76 11 77 24 78 12 79 25 80 13 81 14 82 15 83 16 84
REMARK SMILES IDX 17 86 18 87 19 88 20 89 23 90 21 92 22 93
REMARK H PARENT 83 23 51 34 16 85 19 91
REMARK Flexibility Score: inf
ROOT
ATOM      1  C   UNL A   1      32.180  30.611  26.842  1.00  0.00     0.275 C 
ENDROOT
BRANCH   1   2
ATOM      2  C   UNL A   1      31.485  31.975  26.844  1.00  0.00     0.275 C 
BRANCH   2   3
ATOM      3  O   UNL A   1      32.372  33.106  26.847  1.00  0.00    -0.458 OA
BRANCH   3   4
ATOM      4  C   UNL A   1      33.030  33.701  27.870  1.00  0.00     0.338 C 
ATOM      5  O   UNL A   1      32.641  34.804  28.252  1.00  0.00    -0.246 OA
BRANCH   4   6
ATOM      6  C   UNL A   1      34.290  33.165  28.478  1.00  0.00     0.060 A 
ATOM      7  C   UNL A   1      35.588  33.376  28.005  1.00  0.00     0.016 A 
ATOM      8  C   UNL A   1      34.132  32.350  29.615  1.00  0.00     0.016 A 
ATOM      9  C   UNL A   1      36.697  32.861  28.683  1.00  0.00     0.010 A 
ATOM     10  C   UNL A   1      35.238  31.830  30.293  1.00  0.00     0.010 A 
ATOM     11  C   UNL A   1      36.529  32.087  29.831  1.00  0.00    -0.014 A 
BRANCH  11  12
ATOM     12  C   UNL A   1      37.699  31.438  30.463  1.00  0.00     0.031 A 
ATOM     13  C   UNL A   1      38.122  31.892  31.826  1.00  0.00     0.074 A 
ATOM     14  C   UNL A   1      38.336  30.428  29.844  1.00  0.00     0.049 A 
ATOM     15  N   UNL A   1      39.097  31.453  32.574  1.00  0.00    -0.248 NA
ATOM     16  C   UNL A   1      37.319  32.962  32.442  1.00  0.00     0.031 C 
ATOM     17  C   UNL A   1      37.949  29.853  28.558  1.00  0.00     0.029 A 
ATOM     18  N   UNL A   1      39.448  29.712  30.204  1.00  0.00    -0.354 N 
ATOM     19  C   UNL A   1      38.989  32.148  33.771  1.00  0.00     0.074 A 
ATOM     20  C   UNL A   1      37.908  33.096  33.620  1.00  0.00     0.031 C 
ATOM     21  C   UNL A   1      38.850  28.925  28.198  1.00  0.00     0.029 A 
ATOM     22  C   UNL A   1      39.870  28.829  29.237  1.00  0.00     0.049 A 
ATOM     23  H   UNL A   1      39.902  29.820  31.071  1.00  0.00     0.167 HD
ATOM     24  C   UNL A   1      39.703  31.975  34.907  1.00  0.00     0.034 A 
ATOM     25  C   UNL A   1      40.960  28.040  29.194  1.00  0.00     0.034 A 
ATOM     26  C   UNL A   1      40.798  31.050  35.024  1.00  0.00     0.049 A 
ATOM     27  C   UNL A   1      41.856  27.994  30.402  1.00  0.00     0.074 A 
ATOM     28  C   UNL A   1      41.605  30.803  36.119  1.00  0.00     0.029 A 
ATOM     29  N   UNL A   1      41.248  30.228  33.999  1.00  0.00    -0.354 N 
ATOM     30  N   UNL A   1      41.741  28.651  31.534  1.00  0.00    -0.248 NA
ATOM     31  C   UNL A   1      43.004  27.082  30.346  1.00  0.00     0.031 C 
ATOM     32  C   UNL A   1      42.580  29.874  35.736  1.00  0.00     0.029 A 
ATOM     33  C   UNL A   1      42.344  29.497  34.423  1.00  0.00     0.049 A 
ATOM     34  H   UNL A   1      40.847  30.174  33.100  1.00  0.00     0.167 HD
ATOM     35  C   UNL A   1      42.774  28.199  32.342  1.00  0.00     0.074 A 
ATOM     36  C   UNL A   1      43.516  27.225  31.562  1.00  0.00     0.031 C 
ATOM     37  C   UNL A   1      43.069  28.540  33.622  1.00  0.00     0.034 A 
BRANCH  24  38
ATOM     38  C   UNL A   1      39.319  32.825  36.087  1.00  0.00     0.023 A 
ATOM     39  C   UNL A   1      39.852  34.115  36.256  1.00  0.00     0.031 A 
ATOM     40  C   UNL A   1      38.451  32.328  37.072  1.00  0.00     0.131 A 
ATOM     41  C   UNL A   1      39.556  34.844  37.416  1.00  0.00     0.055 A 
ATOM     42  C   UNL A   1      38.111  33.085  38.195  1.00  0.00     0.041 A 
ATOM     43  F   UNL A   1      37.939  31.092  36.969  1.00  0.00    -0.206 F 
ATOM     44  C   UNL A   1      38.672  34.346  38.377  1.00  0.00     0.022 A 
BRANCH  41  45
ATOM     45  S   UNL A   1      40.418  36.415  37.702  1.00  0.00     0.124 S 
ATOM     46  O   UNL A   1      41.595  35.973  38.446  1.00  0.00    -0.237 OA
ATOM     47  O   UNL A   1      40.663  36.896  36.347  1.00  0.00    -0.237 OA
ATOM     48  O   UNL A   1      39.455  37.197  38.475  1.00  0.00    -0.744 OA
ENDBRANCH  41  45
ENDBRANCH  24  38
BRANCH  25  49
ATOM     49  C   UNL A   1      41.258  27.248  27.971  1.00  0.00     0.023 A 
ATOM     50  C   UNL A   1      41.077  25.857  27.934  1.00  0.00     0.031 A 
ATOM     51  C   UNL A   1      41.717  27.887  26.806  1.00  0.00     0.131 A 
ATOM     52  C   UNL A   1      41.370  25.146  26.758  1.00  0.00     0.055 A 
ATOM     53  C   UNL A   1      41.986  27.180  25.632  1.00  0.00     0.041 A 
ATOM     54  F   UNL A   1      41.892  29.218  26.787  1.00  0.00    -0.206 F 
ATOM     55  C   UNL A   1      41.817  25.799  25.606  1.00  0.00     0.022 A 
BRANCH  52  56
ATOM     56  S   UNL A   1      41.163  23.344  26.753  1.00  0.00     0.124 S 
ATOM     57  O   UNL A   1      42.109  22.937  25.721  1.00  0.00    -0.237 OA
ATOM     58  O   UNL A   1      41.518  22.995  28.125  1.00  0.00    -0.237 OA
ATOM     59  O   UNL A   1      39.752  23.163  26.415  1.00  0.00    -0.744 OA
ENDBRANCH  52  56
ENDBRANCH  25  49
BRANCH  37  60
ATOM     60  C   UNL A   1      44.218  27.825  34.275  1.00  0.00     0.023 A 
ATOM     61  C   UNL A   1      44.021  26.657  35.027  1.00  0.00     0.031 A 
ATOM     62  C   UNL A   1      45.532  28.293  34.092  1.00  0.00     0.131 A 
ATOM     63  C   UNL A   1      45.125  26.004  35.592  1.00  0.00     0.055 A 
ATOM     64  C   UNL A   1      46.629  27.614  34.619  1.00  0.00     0.041 A 
ATOM     65  F   UNL A   1      45.767  29.405  33.377  1.00  0.00    -0.206 F 
ATOM     66  C   UNL A   1      46.428  26.463  35.377  1.00  0.00     0.022 A 
BRANCH  63  67
ATOM     67  S   UNL A   1      44.835  24.548  36.633  1.00  0.00     0.124 S 
ATOM     68  O   UNL A   1      46.137  24.370  37.267  1.00  0.00    -0.237 OA
ATOM     69  O   UNL A   1      43.755  24.994  37.508  1.00  0.00    -0.237 OA
ATOM     70  O   UNL A   1      44.462  23.510  35.674  1.00  0.00    -0.744 OA
ENDBRANCH  63  67
ENDBRANCH  37  60
ENDBRANCH  11  12
ENDBRANCH   4   6
ENDBRANCH   3   4
ENDBRANCH   2   3
ENDBRANCH   1   2
BRANCH   1  71
ATOM     71  O   UNL A   1      31.674  29.712  25.846  1.00  0.00    -0.458 OA
BRANCH  71  72
ATOM     72  C   UNL A   1      32.612  28.953  25.220  1.00  0.00     0.338 C 
ATOM     73  O   UNL A   1      33.611  29.344  24.644  1.00  0.00    -0.246 OA
BRANCH  72  74
ATOM     74  C   UNL A   1      32.313  27.525  25.454  1.00  0.00     0.063 A 
ATOM     75  C   UNL A   1      31.017  27.094  25.740  1.00  0.00     0.017 A 
ATOM     76  C   UNL A   1      33.367  26.604  25.420  1.00  0.00     0.056 A 
ATOM     77  C   UNL A   1      30.794  25.749  26.042  1.00  0.00     0.026 A 
ATOM     78  C   UNL A   1      33.140  25.266  25.751  1.00  0.00     0.144 A 
ATOM     79  C   UNL A   1      31.865  24.840  26.083  1.00  0.00     0.118 A 
ATOM     80  F   UNL A   1      34.194  24.441  25.764  1.00  0.00    -0.205 F 
BRANCH  79  81
ATOM     81  S   UNL A   1      31.492  23.213  26.648  1.00  0.00     0.243 S 
ATOM     82  O   UNL A   1      32.290  23.001  27.830  1.00  0.00    -0.207 OA
ATOM     83  O   UNL A   1      30.047  23.130  26.680  1.00  0.00    -0.207 OA
BRANCH  81  84
ATOM     84  N   UNL A   1      31.971  22.100  25.499  1.00  0.00    -0.205 NA
ATOM     85  H   UNL A   1      32.345  22.639  24.719  1.00  0.00     0.141 HD
BRANCH  84  86
ATOM     86  C   UNL A   1      32.963  21.055  25.786  1.00  0.00     0.160 C 
BRANCH  86  87
ATOM     87  C   UNL A   1      32.862  19.757  24.953  1.00  0.00     0.278 C 
BRANCH  87  88
ATOM     88  N   UNL A   1      33.713  18.640  25.426  1.00  0.00    -0.334 N 
ATOM     89  C   UNL A   1      34.650  18.170  24.385  1.00  0.00     0.262 C 
ATOM     90  C   UNL A   1      32.880  17.440  25.695  1.00  0.00     0.262 C 
ATOM     91  H   UNL A   1      34.201  19.002  26.247  1.00  0.00     0.348 HD
ATOM     92  C   UNL A   1      33.852  17.237  23.495  1.00  0.00     0.067 C 
ATOM     93  C   UNL A   1      32.932  16.532  24.470  1.00  0.00     0.067 C 
ENDBRANCH  87  88
ENDBRANCH  86  87
ENDBRANCH  84  86
ENDBRANCH  81  84
ENDBRANCH  79  81
ENDBRANCH  72  74
ENDBRANCH  71  72
ENDBRANCH   1  71
TORSDOF 19
ENDMDL
MODEL 3
REMARK VINA RESULT:     -11.5      2.382      8.047
REMARK SMILES O=C(OCCOC(=O)c1ccc(S(=O)(=O)NCC[NH+]2CCCC2)c(F)c1)c1ccc(-c2c3nc(c(-c4cc(S(=O)(=O)[O-])ccc4F)c4ccc([nH]4)c(-c4cc(S(=O)(=O)[O-])ccc4F)c4nc(c(-c5cc(S(=O)(=O)[O-])ccc5F)c5ccc2[nH]5)C=C4)C=C3)cc1
REMARK SMILES IDX 5 1 4 2 3 3 2 4 1 5 27 6 28 7 89 8 29 9 88 10 30 11 31 12
REMARK SMILES IDX 32 13 82 14 33 15 87 16 81 17 83 18 34 19 86 20 80 21 79 22
REMARK SMILES IDX 35 24 67 25 47 26 66 27 48 28 51 29 65 30 84 31 49 32 50 33
REMARK SMILES IDX 64 35 85 36 52 37 36 38 37 39 45 40 38 41 44 42 46 43 43 44
REMARK SMILES IDX 39 45 40 46 41 47 42 48 68 49 69 50 77 51 70 52 76 53 78 54
REMARK SMILES IDX 75 55 71 56 72 57 73 58 74 59 53 60 54 61 62 62 55 63 61 64
REMARK SMILES IDX 63 65 60 66 56 67 57 68 58 69 59 70 6 71 7 72 8 73 9 74
REMARK SMILES IDX 10 75 26 76 11 77 24 78 12 79 25 80 13 81 14 82 15 83 16 84
REMARK SMILES IDX 17 86 18 87 19 88 20 89 23 90 21 92 22 93
REMARK H PARENT 83 23 51 34 16 85 19 91
REMARK Flexibility Score: inf
ROOT
ATOM      1  C   UNL A   1      33.268  31.754  27.240  1.00  0.00     0.275 C 
ENDROOT
BRANCH   1   2
ATOM      2  C   UNL A   1      32.196  32.842  27.341  1.00  0.00     0.275 C 
BRANCH   2   3
ATOM      3  O   UNL A   1      32.678  34.129  27.763  1.00  0.00    -0.458 OA
BRANCH   3   4
ATOM      4  C   UNL A   1      33.384  34.483  28.863  1.00  0.00     0.338 C 
ATOM      5  O   UNL A   1      33.185  35.594  29.353  1.00  0.00    -0.246 OA
BRANCH   4   6
ATOM      6  C   UNL A   1      34.494  33.662  29.444  1.00  0.00     0.060 A 
ATOM      7  C   UNL A   1      34.373  32.712  30.461  1.00  0.00     0.016 A 
ATOM      8  C   UNL A   1      35.782  33.905  28.926  1.00  0.00     0.016 A 
ATOM      9  C   UNL A   1      35.477  31.971  30.895  1.00  0.00     0.010 A 
ATOM     10  C   UNL A   1      36.888  33.170  29.359  1.00  0.00     0.010 A 
ATOM     11  C   UNL A   1      36.739  32.193  30.346  1.00  0.00    -0.014 A 
BRANCH  11  12
ATOM     12  C   UNL A   1      37.921  31.500  30.904  1.00  0.00     0.031 A 
ATOM     13  C   UNL A   1      38.426  31.916  32.251  1.00  0.00     0.074 A 
ATOM     14  C   UNL A   1      38.496  30.484  30.235  1.00  0.00     0.049 A 
ATOM     15  N   UNL A   1      39.426  31.437  32.939  1.00  0.00    -0.248 NA
ATOM     16  C   UNL A   1      37.688  32.997  32.926  1.00  0.00     0.031 C 
ATOM     17  C   UNL A   1      38.027  29.945  28.962  1.00  0.00     0.029 A 
ATOM     18  N   UNL A   1      39.604  29.731  30.524  1.00  0.00    -0.354 N 
ATOM     19  C   UNL A   1      39.400  32.112  34.153  1.00  0.00     0.074 A 
ATOM     20  C   UNL A   1      38.340  33.092  34.074  1.00  0.00     0.031 C 
ATOM     21  C   UNL A   1      38.881  28.998  28.539  1.00  0.00     0.029 A 
ATOM     22  C   UNL A   1      39.949  28.855  29.522  1.00  0.00     0.049 A 
ATOM     23  H   UNL A   1      40.105  29.810  31.368  1.00  0.00     0.167 HD
ATOM     24  C   UNL A   1      40.167  31.898  35.246  1.00  0.00     0.034 A 
ATOM     25  C   UNL A   1      41.012  28.037  29.409  1.00  0.00     0.034 A 
ATOM     26  C   UNL A   1      41.238  30.940  35.290  1.00  0.00     0.049 A 
ATOM     27  C   UNL A   1      41.968  27.943  30.567  1.00  0.00     0.074 A 
ATOM     28  C   UNL A   1      42.094  30.650  36.337  1.00  0.00     0.029 A 
ATOM     29  N   UNL A   1      41.612  30.125  34.228  1.00  0.00    -0.354 N 
ATOM     30  N   UNL A   1      41.930  28.582  31.714  1.00  0.00    -0.248 NA
ATOM     31  C   UNL A   1      43.085  27.000  30.435  1.00  0.00     0.031 C 
ATOM     32  C   UNL A   1      43.020  29.702  35.888  1.00  0.00     0.029 A 
ATOM     33  C   UNL A   1      42.706  29.357  34.582  1.00  0.00     0.049 A 
ATOM     34  H   UNL A   1      41.163  30.100  33.352  1.00  0.00     0.167 HD
ATOM     35  C   UNL A   1      42.991  28.086  32.460  1.00  0.00     0.074 A 
ATOM     36  C   UNL A   1      43.662  27.107  31.626  1.00  0.00     0.031 C 
ATOM     37  C   UNL A   1      43.361  28.394  33.728  1.00  0.00     0.034 A 
BRANCH  24  38
ATOM     38  C   UNL A   1      39.868  32.736  36.459  1.00  0.00     0.023 A 
ATOM     39  C   UNL A   1      38.956  32.301  37.436  1.00  0.00     0.031 A 
ATOM     40  C   UNL A   1      40.463  33.997  36.618  1.00  0.00     0.131 A 
ATOM     41  C   UNL A   1      38.621  33.147  38.502  1.00  0.00     0.055 A 
ATOM     42  C   UNL A   1      40.172  34.810  37.715  1.00  0.00     0.041 A 
ATOM     43  F   UNL A   1      41.320  34.469  35.698  1.00  0.00    -0.206 F 
ATOM     44  C   UNL A   1      39.239  34.391  38.660  1.00  0.00     0.022 A 
BRANCH  41  45
ATOM     45  S   UNL A   1      37.293  32.643  39.631  1.00  0.00     0.124 S 
ATOM     46  O   UNL A   1      36.129  32.679  38.749  1.00  0.00    -0.237 OA
ATOM     47  O   UNL A   1      37.726  31.319  40.062  1.00  0.00    -0.237 OA
ATOM     48  O   UNL A   1      37.316  33.673  40.668  1.00  0.00    -0.744 OA
ENDBRANCH  41  45
ENDBRANCH  24  38
BRANCH  25  49
ATOM     49  C   UNL A   1      41.223  27.259  28.158  1.00  0.00     0.023 A 
ATOM     50  C   UNL A   1      40.995  25.876  28.105  1.00  0.00     0.031 A 
ATOM     51  C   UNL A   1      41.647  27.906  26.983  1.00  0.00     0.131 A 
ATOM     52  C   UNL A   1      41.206  25.180  26.903  1.00  0.00     0.055 A 
ATOM     53  C   UNL A   1      41.834  27.214  25.785  1.00  0.00     0.041 A 
ATOM     54  F   UNL A   1      41.864  29.231  26.980  1.00  0.00    -0.206 F 
ATOM     55  C   UNL A   1      41.618  25.840  25.742  1.00  0.00     0.022 A 
BRANCH  52  56
ATOM     56  S   UNL A   1      40.940  23.385  26.876  1.00  0.00     0.124 S 
ATOM     57  O   UNL A   1      41.320  23.006  28.231  1.00  0.00    -0.237 OA
ATOM     58  O   UNL A   1      39.518  23.295  26.558  1.00  0.00    -0.237 OA
ATOM     59  O   UNL A   1      41.839  22.923  25.821  1.00  0.00    -0.744 OA
ENDBRANCH  52  56
ENDBRANCH  25  49
BRANCH  37  60
ATOM     60  C   UNL A   1      44.521  27.636  34.308  1.00  0.00     0.023 A 
ATOM     61  C   UNL A   1      44.337  26.417  34.978  1.00  0.00     0.031 A 
ATOM     62  C   UNL A   1      45.831  28.117  34.136  1.00  0.00     0.131 A 
ATOM     63  C   UNL A   1      45.450  25.726  35.476  1.00  0.00     0.055 A 
ATOM     64  C   UNL A   1      46.938  27.402  34.593  1.00  0.00     0.041 A 
ATOM     65  F   UNL A   1      46.054  29.277  33.497  1.00  0.00    -0.206 F 
ATOM     66  C   UNL A   1      46.749  26.201  35.270  1.00  0.00     0.022 A 
BRANCH  63  67
ATOM     67  S   UNL A   1      45.178  24.200  36.415  1.00  0.00     0.124 S 
ATOM     68  O   UNL A   1      44.090  23.578  35.667  1.00  0.00    -0.237 OA
ATOM     69  O   UNL A   1      46.475  23.537  36.324  1.00  0.00    -0.237 OA
ATOM     70  O   UNL A   1      44.822  24.678  37.750  1.00  0.00    -0.744 OA
ENDBRANCH  63  67
ENDBRANCH  37  60
ENDBRANCH  11  12
ENDBRANCH   4   6
ENDBRANCH   3   4
ENDBRANCH   2   3
ENDBRANCH   1   2
BRANCH   1  71
ATOM     71  O   UNL A   1      32.766  30.498  26.765  1.00  0.00    -0.458 OA
BRANCH  71  72
ATOM     72  C   UNL A   1      33.671  29.484  26.738  1.00  0.00     0.338 C 
ATOM     73  O   UNL A   1      34.871  29.564  26.927  1.00  0.00    -0.246 OA
BRANCH  72  74
ATOM     74  C   UNL A   1      32.956  28.202  26.571  1.00  0.00     0.063 A 
ATOM     75  C   UNL A   1      31.602  28.080  26.889  1.00  0.00     0.017 A 
ATOM     76  C   UNL A   1      33.673  27.088  26.117  1.00  0.00     0.056 A 
ATOM     77  C   UNL A   1      30.989  26.829  26.800  1.00  0.00     0.026 A 
ATOM     78  C   UNL A   1      33.058  25.835  26.059  1.00  0.00     0.144 A 
ATOM     79  C   UNL A   1      31.728  25.697  26.419  1.00  0.00     0.118 A 
ATOM     80  F   UNL A   1      33.805  24.792  25.678  1.00  0.00    -0.205 F 
BRANCH  79  81
ATOM     81  S   UNL A   1      30.895  24.147  26.514  1.00  0.00     0.243 S 
ATOM     82  O   UNL A   1      31.720  23.292  27.331  1.00  0.00    -0.207 OA
ATOM     83  O   UNL A   1      29.527  24.458  26.876  1.00  0.00    -0.207 OA
BRANCH  81  84
ATOM     84  N   UNL A   1      30.803  23.468  24.992  1.00  0.00    -0.205 NA
ATOM     85  H   UNL A   1      30.035  22.798  25.025  1.00  0.00     0.141 HD
BRANCH  84  86
ATOM     86  C   UNL A   1      30.589  24.276  23.785  1.00  0.00     0.160 C 
BRANCH  86  87
ATOM     87  C   UNL A   1      31.780  24.387  22.806  1.00  0.00     0.278 C 
BRANCH  87  88
ATOM     88  N   UNL A   1      31.674  25.480  21.810  1.00  0.00    -0.334 N 
ATOM     89  C   UNL A   1      32.997  25.979  21.383  1.00  0.00     0.262 C 
ATOM     90  C   UNL A   1      31.046  26.676  22.427  1.00  0.00     0.262 C 
ATOM     91  H   UNL A   1      31.143  25.085  21.032  1.00  0.00     0.348 HD
ATOM     92  C   UNL A   1      33.445  26.950  22.458  1.00  0.00     0.067 C 
ATOM     93  C   UNL A   1      32.154  27.627  22.872  1.00  0.00     0.067 C 
ENDBRANCH  87  88
ENDBRANCH  86  87
ENDBRANCH  84  86
ENDBRANCH  81  84
ENDBRANCH  79  81
ENDBRANCH  72  74
ENDBRANCH  71  72
ENDBRANCH   1  71
TORSDOF 19
ENDMDL
