MODEL 1
REMARK VINA RESULT:     -12.3      0.000      0.000
REMARK SMILES CC(=O)Nc1ccc(/C(=C\c2ccc(S(C)(=O)=O)cc2)C(=O)OCCOC(=O)c2ccc(-c3c4nc(c(-c5cc(S(=O)(=O)[O-])ccc5F)c5ccc([nH]5)c(-c5cc(S(=O)(=O)[O-])ccc5F)c5nc(c(-c6cc(S(=O)(=O)[O-])ccc6F)c6ccc3[nH]6)C=C5)C=C4)cc2)cc1
REMARK SMILES IDX 25 1 24 2 23 3 21 4 22 5 9 6 10 7 8 8 5 9 6 10 93 11 7 12
REMARK SMILES IDX 92 13 4 14 1 15 2 16 3 17 11 19 12 20 20 21 13 22 19 23
REMARK SMILES IDX 14 24 15 25 16 26 17 27 18 28 26 29 27 30 28 31 29 32 30 33
REMARK SMILES IDX 91 34 31 35 90 36 32 37 33 38 34 39 84 40 35 41 89 42 83 43
REMARK SMILES IDX 85 44 36 45 88 46 82 47 81 48 37 50 69 51 49 52 68 53 50 54
REMARK SMILES IDX 53 55 67 56 86 57 51 58 52 59 66 61 87 62 54 63 38 64 39 65
REMARK SMILES IDX 47 66 40 67 46 68 48 69 45 70 41 71 42 72 43 73 44 74 70 75
REMARK SMILES IDX 71 76 79 77 72 78 78 79 80 80 77 81 73 82 74 83 75 84 76 85
REMARK SMILES IDX 55 86 56 87 64 88 57 89 63 90 65 91 62 92 58 93 59 94 60 95
REMARK SMILES IDX 61 96
REMARK H PARENT 4 18 85 49 53 60
REMARK Flexibility Score: inf
ROOT
ATOM      1  C   UNL A   1      32.893  29.253  24.807  1.00  0.00     0.275 C 
ENDROOT
BRANCH   1   2
ATOM      2  C   UNL A   1      32.078  28.076  24.262  1.00  0.00     0.275 C 
BRANCH   2   3
ATOM      3  O   UNL A   1      32.786  26.830  24.441  1.00  0.00    -0.458 OA
BRANCH   3   4
ATOM      4  C   UNL A   1      33.193  26.161  23.322  1.00  0.00     0.338 C 
ATOM      5  O   UNL A   1      33.383  26.690  22.236  1.00  0.00    -0.246 OA
BRANCH   4   6
ATOM      6  C   UNL A   1      33.376  24.673  23.589  1.00  0.00     0.067 C 
ATOM      7  C   UNL A   1      32.212  23.972  23.471  1.00  0.00     0.024 C 
BRANCH   6   8
ATOM      8  C   UNL A   1      34.745  24.120  23.980  1.00  0.00    -0.011 A 
ATOM      9  C   UNL A   1      36.988  22.565  24.870  1.00  0.00     0.041 A 
ATOM     10  C   UNL A   1      36.622  22.568  23.540  1.00  0.00     0.027 A 
ATOM     11  C   UNL A   1      36.381  23.480  25.718  1.00  0.00     0.027 A 
ATOM     12  C   UNL A   1      35.545  23.358  23.112  1.00  0.00     0.011 A 
ATOM     13  C   UNL A   1      35.274  24.245  25.277  1.00  0.00     0.011 A 
BRANCH   9  14
ATOM     14  N   UNL A   1      38.042  21.740  25.270  1.00  0.00    -0.326 N 
ATOM     15  C   UNL A   1      39.265  23.442  26.619  1.00  0.00     0.114 C 
ATOM     16  C   UNL A   1      39.065  22.035  26.135  1.00  0.00     0.221 C 
ATOM     17  O   UNL A   1      39.776  21.114  26.540  1.00  0.00    -0.275 OA
ATOM     18  H   UNL A   1      38.052  20.835  24.883  1.00  0.00     0.169 HD
ENDBRANCH   9  14
ENDBRANCH   6   8
BRANCH   7  19
ATOM     19  C   UNL A   1      31.995  22.528  23.624  1.00  0.00    -0.025 A 
ATOM     20  C   UNL A   1      31.998  21.737  22.466  1.00  0.00     0.009 A 
ATOM     21  C   UNL A   1      31.995  21.922  24.889  1.00  0.00     0.009 A 
ATOM     22  C   UNL A   1      32.163  20.357  22.567  1.00  0.00     0.021 A 
ATOM     23  C   UNL A   1      32.177  20.539  24.994  1.00  0.00     0.021 A 
ATOM     24  C   UNL A   1      32.303  19.773  23.830  1.00  0.00     0.067 A 
BRANCH  24  25
ATOM     25  S   UNL A   1      32.886  18.094  23.929  1.00  0.00     0.175 S 
ATOM     26  C   UNL A   1      34.565  18.257  24.454  1.00  0.00     0.163 C 
ATOM     27  O   UNL A   1      32.147  17.450  25.002  1.00  0.00    -0.224 OA
ATOM     28  O   UNL A   1      32.885  17.541  22.592  1.00  0.00    -0.224 OA
ENDBRANCH  24  25
ENDBRANCH   7  19
ENDBRANCH   4   6
ENDBRANCH   3   4
ENDBRANCH   2   3
ENDBRANCH   1   2
BRANCH   1  29
ATOM     29  O   UNL A   1      32.595  29.476  26.197  1.00  0.00    -0.458 OA
BRANCH  29  30
ATOM     30  C   UNL A   1      32.937  30.706  26.658  1.00  0.00     0.338 C 
ATOM     31  O   UNL A   1      32.247  31.707  26.658  1.00  0.00    -0.246 OA
BRANCH  30  32
ATOM     32  C   UNL A   1      34.204  30.595  27.401  1.00  0.00     0.060 A 
ATOM     33  C   UNL A   1      34.512  29.329  27.873  1.00  0.00     0.016 A 
ATOM     34  C   UNL A   1      35.060  31.667  27.672  1.00  0.00     0.016 A 
ATOM     35  C   UNL A   1      35.690  29.123  28.577  1.00  0.00     0.010 A 
ATOM     36  C   UNL A   1      36.244  31.450  28.409  1.00  0.00     0.010 A 
ATOM     37  C   UNL A   1      36.579  30.164  28.858  1.00  0.00    -0.014 A 
BRANCH  37  38
ATOM     38  C   UNL A   1      37.748  29.851  29.735  1.00  0.00     0.031 A 
ATOM     39  C   UNL A   1      38.871  29.008  29.186  1.00  0.00     0.074 A 
ATOM     40  C   UNL A   1      37.947  30.503  30.902  1.00  0.00     0.049 A 
ATOM     41  N   UNL A   1      40.006  28.671  29.743  1.00  0.00    -0.248 NA
ATOM     42  C   UNL A   1      38.717  28.540  27.800  1.00  0.00     0.031 C 
ATOM     43  C   UNL A   1      37.055  31.519  31.461  1.00  0.00     0.029 A 
ATOM     44  N   UNL A   1      38.990  30.452  31.800  1.00  0.00    -0.354 N 
ATOM     45  C   UNL A   1      40.709  27.959  28.778  1.00  0.00     0.074 A 
ATOM     46  C   UNL A   1      39.862  27.904  27.602  1.00  0.00     0.031 C 
ATOM     47  C   UNL A   1      37.592  31.997  32.599  1.00  0.00     0.029 A 
ATOM     48  C   UNL A   1      38.826  31.270  32.899  1.00  0.00     0.049 A 
ATOM     49  H   UNL A   1      39.783  29.883  31.670  1.00  0.00     0.167 HD
ATOM     50  C   UNL A   1      41.941  27.401  28.859  1.00  0.00     0.034 A 
ATOM     51  C   UNL A   1      39.549  31.384  34.037  1.00  0.00     0.034 A 
ATOM     52  C   UNL A   1      42.776  27.430  30.036  1.00  0.00     0.049 A 
ATOM     53  C   UNL A   1      40.800  30.544  34.203  1.00  0.00     0.074 A 
ATOM     54  C   UNL A   1      43.997  26.809  30.239  1.00  0.00     0.029 A 
ATOM     55  N   UNL A   1      42.479  28.104  31.213  1.00  0.00    -0.354 N 
ATOM     56  N   UNL A   1      41.396  29.768  33.327  1.00  0.00    -0.248 NA
ATOM     57  C   UNL A   1      41.465  30.582  35.514  1.00  0.00     0.031 C 
ATOM     58  C   UNL A   1      44.388  27.025  31.564  1.00  0.00     0.029 A 
ATOM     59  C   UNL A   1      43.463  27.863  32.162  1.00  0.00     0.049 A 
ATOM     60  H   UNL A   1      41.686  28.671  31.353  1.00  0.00     0.167 HD
ATOM     61  C   UNL A   1      42.525  29.262  33.972  1.00  0.00     0.074 A 
ATOM     62  C   UNL A   1      42.532  29.825  35.305  1.00  0.00     0.031 C 
ATOM     63  C   UNL A   1      43.472  28.411  33.499  1.00  0.00     0.034 A 
BRANCH  50  64
ATOM     64  C   UNL A   1      42.415  26.603  27.670  1.00  0.00     0.023 A 
ATOM     65  C   UNL A   1      42.395  25.198  27.649  1.00  0.00     0.031 A 
ATOM     66  C   UNL A   1      42.916  27.276  26.541  1.00  0.00     0.131 A 
ATOM     67  C   UNL A   1      42.912  24.513  26.537  1.00  0.00     0.055 A 
ATOM     68  C   UNL A   1      43.359  26.591  25.411  1.00  0.00     0.041 A 
ATOM     69  F   UNL A   1      42.987  28.617  26.523  1.00  0.00    -0.206 F 
ATOM     70  C   UNL A   1      43.369  25.200  25.409  1.00  0.00     0.022 A 
BRANCH  67  71
ATOM     71  S   UNL A   1      43.111  22.711  26.632  1.00  0.00     0.124 S 
ATOM     72  O   UNL A   1      44.564  22.577  26.721  1.00  0.00    -0.237 OA
ATOM     73  O   UNL A   1      42.362  22.372  27.835  1.00  0.00    -0.237 OA
ATOM     74  O   UNL A   1      42.529  22.236  25.379  1.00  0.00    -0.744 OA
ENDBRANCH  67  71
ENDBRANCH  50  64
BRANCH  51  75
ATOM     75  C   UNL A   1      39.058  32.220  35.183  1.00  0.00     0.023 A 
ATOM     76  C   UNL A   1      39.504  33.536  35.399  1.00  0.00     0.031 A 
ATOM     77  C   UNL A   1      38.224  31.648  36.165  1.00  0.00     0.131 A 
ATOM     78  C   UNL A   1      39.163  34.207  36.589  1.00  0.00     0.055 A 
ATOM     79  C   UNL A   1      37.827  32.346  37.306  1.00  0.00     0.041 A 
ATOM     80  F   UNL A   1      37.790  30.385  36.039  1.00  0.00    -0.206 F 
ATOM     81  C   UNL A   1      38.314  33.628  37.532  1.00  0.00     0.022 A 
BRANCH  78  82
ATOM     82  S   UNL A   1      39.960  35.797  36.963  1.00  0.00     0.124 S 
ATOM     83  O   UNL A   1      41.350  35.397  37.140  1.00  0.00    -0.237 OA
ATOM     84  O   UNL A   1      39.660  36.576  35.768  1.00  0.00    -0.237 OA
ATOM     85  O   UNL A   1      39.279  36.239  38.179  1.00  0.00    -0.744 OA
ENDBRANCH  78  82
ENDBRANCH  51  75
BRANCH  63  86
ATOM     86  C   UNL A   1      44.629  28.066  34.411  1.00  0.00     0.023 A 
ATOM     87  C   UNL A   1      44.607  26.939  35.255  1.00  0.00     0.031 A 
ATOM     88  C   UNL A   1      45.781  28.875  34.429  1.00  0.00     0.131 A 
ATOM     89  C   UNL A   1      45.689  26.682  36.111  1.00  0.00     0.055 A 
ATOM     90  C   UNL A   1      46.881  28.579  35.237  1.00  0.00     0.041 A 
ATOM     91  F   UNL A   1      45.863  29.967  33.652  1.00  0.00    -0.206 F 
ATOM     92  C   UNL A   1      46.835  27.483  36.093  1.00  0.00     0.022 A 
BRANCH  89  93
ATOM     93  S   UNL A   1      45.552  25.334  37.320  1.00  0.00     0.124 S 
ATOM     94  O   UNL A   1      44.117  25.308  37.585  1.00  0.00    -0.237 OA
ATOM     95  O   UNL A   1      46.083  24.195  36.578  1.00  0.00    -0.237 OA
ATOM     96  O   UNL A   1      46.380  25.785  38.435  1.00  0.00    -0.744 OA
ENDBRANCH  89  93
ENDBRANCH  63  86
ENDBRANCH  37  38
ENDBRANCH  30  32
ENDBRANCH  29  30
ENDBRANCH   1  29
TORSDOF 18
ENDMDL
MODEL 2
REMARK VINA RESULT:     -12.1      4.621     10.005
REMARK SMILES CC(=O)Nc1ccc(/C(=C\c2ccc(S(C)(=O)=O)cc2)C(=O)OCCOC(=O)c2ccc(-c3c4nc(c(-c5cc(S(=O)(=O)[O-])ccc5F)c5ccc([nH]5)c(-c5cc(S(=O)(=O)[O-])ccc5F)c5nc(c(-c6cc(S(=O)(=O)[O-])ccc6F)c6ccc3[nH]6)C=C5)C=C4)cc2)cc1
REMARK SMILES IDX 25 1 24 2 23 3 21 4 22 5 9 6 10 7 8 8 5 9 6 10 93 11 7 12
REMARK SMILES IDX 92 13 4 14 1 15 2 16 3 17 11 19 12 20 20 21 13 22 19 23
REMARK SMILES IDX 14 24 15 25 16 26 17 27 18 28 26 29 27 30 28 31 29 32 30 33
REMARK SMILES IDX 91 34 31 35 90 36 32 37 33 38 34 39 84 40 35 41 89 42 83 43
REMARK SMILES IDX 85 44 36 45 88 46 82 47 81 48 37 50 69 51 49 52 68 53 50 54
REMARK SMILES IDX 53 55 67 56 86 57 51 58 52 59 66 61 87 62 54 63 38 64 39 65
REMARK SMILES IDX 47 66 40 67 46 68 48 69 45 70 41 71 42 72 43 73 44 74 70 75
REMARK SMILES IDX 71 76 79 77 72 78 78 79 80 80 77 81 73 82 74 83 75 84 76 85
REMARK SMILES IDX 55 86 56 87 64 88 57 89 63 90 65 91 62 92 58 93 59 94 60 95
REMARK SMILES IDX 61 96
REMARK H PARENT 4 18 85 49 53 60
REMARK Flexibility Score: inf
ROOT
ATOM      1  C   UNL A   1      35.409  21.649  25.781  1.00  0.00     0.275 C 
ENDROOT
BRANCH   1   2
ATOM      2  C   UNL A   1      34.162  22.201  25.083  1.00  0.00     0.275 C 
BRANCH   2   3
ATOM      3  O   UNL A   1      33.879  23.548  25.522  1.00  0.00    -0.458 OA
BRANCH   3   4
ATOM      4  C   UNL A   1      32.634  23.809  26.019  1.00  0.00     0.338 C 
ATOM      5  O   UNL A   1      32.027  23.065  26.775  1.00  0.00    -0.246 OA
BRANCH   4   6
ATOM      6  C   UNL A   1      32.091  25.138  25.511  1.00  0.00     0.067 C 
ATOM      7  C   UNL A   1      31.198  24.984  24.492  1.00  0.00     0.024 C 
BRANCH   6   8
ATOM      8  C   UNL A   1      32.579  26.454  26.112  1.00  0.00    -0.011 A 
ATOM      9  C   UNL A   1      33.230  29.181  26.731  1.00  0.00     0.041 A 
ATOM     10  C   UNL A   1      32.076  28.608  27.222  1.00  0.00     0.027 A 
ATOM     11  C   UNL A   1      34.158  28.356  26.110  1.00  0.00     0.027 A 
ATOM     12  C   UNL A   1      31.786  27.265  26.941  1.00  0.00     0.011 A 
ATOM     13  C   UNL A   1      33.833  27.012  25.805  1.00  0.00     0.011 A 
BRANCH   9  14
ATOM     14  N   UNL A   1      33.472  30.530  26.999  1.00  0.00    -0.326 N 
ATOM     15  C   UNL A   1      35.577  30.211  28.294  1.00  0.00     0.114 C 
ATOM     16  C   UNL A   1      34.560  31.086  27.622  1.00  0.00     0.221 C 
ATOM     17  O   UNL A   1      34.705  32.309  27.572  1.00  0.00    -0.275 OA
ATOM     18  H   UNL A   1      32.776  31.160  26.704  1.00  0.00     0.169 HD
ENDBRANCH   9  14
ENDBRANCH   6   8
BRANCH   7  19
ATOM     19  C   UNL A   1      30.447  26.020  23.771  1.00  0.00    -0.025 A 
ATOM     20  C   UNL A   1      29.095  26.200  24.098  1.00  0.00     0.009 A 
ATOM     21  C   UNL A   1      31.096  26.941  22.936  1.00  0.00     0.009 A 
ATOM     22  C   UNL A   1      28.440  27.374  23.729  1.00  0.00     0.021 A 
ATOM     23  C   UNL A   1      30.447  28.128  22.577  1.00  0.00     0.021 A 
ATOM     24  C   UNL A   1      29.138  28.353  23.015  1.00  0.00     0.067 A 
BRANCH  24  25
ATOM     25  S   UNL A   1      28.422  29.978  22.884  1.00  0.00     0.175 S 
ATOM     26  C   UNL A   1      28.836  30.493  21.245  1.00  0.00     0.163 C 
ATOM     27  O   UNL A   1      26.980  29.813  22.945  1.00  0.00    -0.224 OA
ATOM     28  O   UNL A   1      29.111  30.846  23.814  1.00  0.00    -0.224 OA
ENDBRANCH  24  25
ENDBRANCH   7  19
ENDBRANCH   4   6
ENDBRANCH   3   4
ENDBRANCH   2   3
ENDBRANCH   1   2
BRANCH   1  29
ATOM     29  O   UNL A   1      36.604  22.147  25.153  1.00  0.00    -0.458 OA
BRANCH  29  30
ATOM     30  C   UNL A   1      37.749  21.538  25.555  1.00  0.00     0.338 C 
ATOM     31  O   UNL A   1      38.090  20.393  25.326  1.00  0.00    -0.246 OA
BRANCH  30  32
ATOM     32  C   UNL A   1      38.655  22.558  26.110  1.00  0.00     0.060 A 
ATOM     33  C   UNL A   1      38.312  23.874  25.840  1.00  0.00     0.016 A 
ATOM     34  C   UNL A   1      39.815  22.276  26.838  1.00  0.00     0.016 A 
ATOM     35  C   UNL A   1      39.100  24.905  26.329  1.00  0.00     0.010 A 
ATOM     36  C   UNL A   1      40.621  23.332  27.311  1.00  0.00     0.010 A 
ATOM     37  C   UNL A   1      40.259  24.667  27.072  1.00  0.00    -0.014 A 
BRANCH  37  38
ATOM     38  C   UNL A   1      41.099  25.850  27.433  1.00  0.00     0.031 A 
ATOM     39  C   UNL A   1      40.536  26.889  28.370  1.00  0.00     0.074 A 
ATOM     40  C   UNL A   1      42.421  25.885  27.156  1.00  0.00     0.049 A 
ATOM     41  N   UNL A   1      41.108  27.954  28.869  1.00  0.00    -0.248 NA
ATOM     42  C   UNL A   1      39.167  26.656  28.855  1.00  0.00     0.031 C 
ATOM     43  C   UNL A   1      43.161  24.841  26.448  1.00  0.00     0.029 A 
ATOM     44  N   UNL A   1      43.389  26.809  27.483  1.00  0.00    -0.354 N 
ATOM     45  C   UNL A   1      40.177  28.518  29.734  1.00  0.00     0.074 A 
ATOM     46  C   UNL A   1      38.996  27.678  29.680  1.00  0.00     0.031 C 
ATOM     47  C   UNL A   1      44.463  25.179  26.402  1.00  0.00     0.029 A 
ATOM     48  C   UNL A   1      44.645  26.501  27.003  1.00  0.00     0.049 A 
ATOM     49  H   UNL A   1      43.202  27.617  28.014  1.00  0.00     0.167 HD
ATOM     50  C   UNL A   1      40.290  29.629  30.502  1.00  0.00     0.034 A 
ATOM     51  C   UNL A   1      45.794  27.216  26.998  1.00  0.00     0.034 A 
ATOM     52  C   UNL A   1      41.453  30.482  30.538  1.00  0.00     0.049 A 
ATOM     53  C   UNL A   1      45.814  28.583  27.651  1.00  0.00     0.074 A 
ATOM     54  C   UNL A   1      41.619  31.681  31.213  1.00  0.00     0.029 A 
ATOM     55  N   UNL A   1      42.645  30.242  29.870  1.00  0.00    -0.354 N 
ATOM     56  N   UNL A   1      44.883  29.171  28.366  1.00  0.00    -0.248 NA
ATOM     57  C   UNL A   1      47.034  29.389  27.485  1.00  0.00     0.031 C 
ATOM     58  C   UNL A   1      42.868  32.210  30.874  1.00  0.00     0.029 A 
ATOM     59  C   UNL A   1      43.525  31.297  30.067  1.00  0.00     0.049 A 
ATOM     60  H   UNL A   1      42.839  29.439  29.333  1.00  0.00     0.167 HD
ATOM     61  C   UNL A   1      45.422  30.395  28.763  1.00  0.00     0.074 A 
ATOM     62  C   UNL A   1      46.761  30.458  28.218  1.00  0.00     0.031 C 
ATOM     63  C   UNL A   1      44.859  31.375  29.517  1.00  0.00     0.034 A 
BRANCH  50  64
ATOM     64  C   UNL A   1      39.070  30.054  31.281  1.00  0.00     0.023 A 
ATOM     65  C   UNL A   1      38.180  31.035  30.812  1.00  0.00     0.031 A 
ATOM     66  C   UNL A   1      38.812  29.470  32.535  1.00  0.00     0.131 A 
ATOM     67  C   UNL A   1      37.099  31.432  31.616  1.00  0.00     0.055 A 
ATOM     68  C   UNL A   1      37.697  29.817  33.294  1.00  0.00     0.041 A 
ATOM     69  F   UNL A   1      39.649  28.551  33.043  1.00  0.00    -0.206 F 
ATOM     70  C   UNL A   1      36.838  30.812  32.840  1.00  0.00     0.022 A 
BRANCH  67  71
ATOM     71  S   UNL A   1      36.112  32.870  31.109  1.00  0.00     0.124 S 
ATOM     72  O   UNL A   1      36.728  33.217  29.830  1.00  0.00    -0.237 OA
ATOM     73  O   UNL A   1      34.764  32.322  31.043  1.00  0.00    -0.237 OA
ATOM     74  O   UNL A   1      36.342  33.837  32.181  1.00  0.00    -0.744 OA
ENDBRANCH  67  71
ENDBRANCH  50  64
BRANCH  51  75
ATOM     75  C   UNL A   1      46.998  26.737  26.240  1.00  0.00     0.023 A 
ATOM     76  C   UNL A   1      48.085  26.109  26.873  1.00  0.00     0.031 A 
ATOM     77  C   UNL A   1      47.128  27.032  24.867  1.00  0.00     0.131 A 
ATOM     78  C   UNL A   1      49.266  25.853  26.151  1.00  0.00     0.055 A 
ATOM     79  C   UNL A   1      48.274  26.707  24.139  1.00  0.00     0.041 A 
ATOM     80  F   UNL A   1      46.143  27.661  24.208  1.00  0.00    -0.206 F 
ATOM     81  C   UNL A   1      49.359  26.130  24.787  1.00  0.00     0.022 A 
BRANCH  78  82
ATOM     82  S   UNL A   1      50.741  25.284  27.048  1.00  0.00     0.124 S 
ATOM     83  O   UNL A   1      50.179  24.262  27.922  1.00  0.00    -0.237 OA
ATOM     84  O   UNL A   1      51.592  24.810  25.964  1.00  0.00    -0.237 OA
ATOM     85  O   UNL A   1      51.213  26.491  27.725  1.00  0.00    -0.744 OA
ENDBRANCH  78  82
ENDBRANCH  51  75
BRANCH  63  86
ATOM     86  C   UNL A   1      45.703  32.588  29.841  1.00  0.00     0.023 A 
ATOM     87  C   UNL A   1      45.708  33.735  29.026  1.00  0.00     0.031 A 
ATOM     88  C   UNL A   1      46.510  32.601  30.995  1.00  0.00     0.131 A 
ATOM     89  C   UNL A   1      46.538  34.821  29.348  1.00  0.00     0.055 A 
ATOM     90  C   UNL A   1      47.284  33.709  31.345  1.00  0.00     0.041 A 
ATOM     91  F   UNL A   1      46.552  31.536  31.812  1.00  0.00    -0.206 F 
ATOM     92  C   UNL A   1      47.310  34.824  30.513  1.00  0.00     0.022 A 
BRANCH  89  93
ATOM     93  S   UNL A   1      46.666  36.205  28.179  1.00  0.00     0.124 S 
ATOM     94  O   UNL A   1      46.958  35.518  26.925  1.00  0.00    -0.237 OA
ATOM     95  O   UNL A   1      45.345  36.819  28.276  1.00  0.00    -0.237 OA
ATOM     96  O   UNL A   1      47.761  37.009  28.715  1.00  0.00    -0.744 OA
ENDBRANCH  89  93
ENDBRANCH  63  86
ENDBRANCH  37  38
ENDBRANCH  30  32
ENDBRANCH  29  30
ENDBRANCH   1  29
TORSDOF 18
ENDMDL
MODEL 3
REMARK VINA RESULT:     -12.0      0.898      7.611
REMARK SMILES CC(=O)Nc1ccc(/C(=C\c2ccc(S(C)(=O)=O)cc2)C(=O)OCCOC(=O)c2ccc(-c3c4nc(c(-c5cc(S(=O)(=O)[O-])ccc5F)c5ccc([nH]5)c(-c5cc(S(=O)(=O)[O-])ccc5F)c5nc(c(-c6cc(S(=O)(=O)[O-])ccc6F)c6ccc3[nH]6)C=C5)C=C4)cc2)cc1
REMARK SMILES IDX 25 1 24 2 23 3 21 4 22 5 9 6 10 7 8 8 5 9 6 10 93 11 7 12
REMARK SMILES IDX 92 13 4 14 1 15 2 16 3 17 11 19 12 20 20 21 13 22 19 23
REMARK SMILES IDX 14 24 15 25 16 26 17 27 18 28 26 29 27 30 28 31 29 32 30 33
REMARK SMILES IDX 91 34 31 35 90 36 32 37 33 38 34 39 84 40 35 41 89 42 83 43
REMARK SMILES IDX 85 44 36 45 88 46 82 47 81 48 37 50 69 51 49 52 68 53 50 54
REMARK SMILES IDX 53 55 67 56 86 57 51 58 52 59 66 61 87 62 54 63 38 64 39 65
REMARK SMILES IDX 47 66 40 67 46 68 48 69 45 70 41 71 42 72 43 73 44 74 70 75
REMARK SMILES IDX 71 76 79 77 72 78 78 79 80 80 77 81 73 82 74 83 75 84 76 85
REMARK SMILES IDX 55 86 56 87 64 88 57 89 63 90 65 91 62 92 58 93 59 94 60 95
REMARK SMILES IDX 61 96
REMARK H PARENT 4 18 85 49 53 60
REMARK Flexibility Score: inf
ROOT
ATOM      1  C   UNL A   1      32.888  29.374  25.477  1.00  0.00     0.275 C 
ENDROOT
BRANCH   1   2
ATOM      2  C   UNL A   1      32.295  27.982  25.237  1.00  0.00     0.275 C 
BRANCH   2   3
ATOM      3  O   UNL A   1      33.338  27.006  25.020  1.00  0.00    -0.458 OA
BRANCH   3   4
ATOM      4  C   UNL A   1      33.357  26.348  23.823  1.00  0.00     0.338 C 
ATOM      5  O   UNL A   1      33.266  26.898  22.735  1.00  0.00    -0.246 OA
BRANCH   4   6
ATOM      6  C   UNL A   1      33.500  24.843  24.009  1.00  0.00     0.067 C 
ATOM      7  C   UNL A   1      32.325  24.178  23.819  1.00  0.00     0.024 C 
BRANCH   6   8
ATOM      8  C   UNL A   1      34.845  24.237  24.402  1.00  0.00    -0.011 A 
ATOM      9  C   UNL A   1      37.040  22.563  25.190  1.00  0.00     0.041 A 
ATOM     10  C   UNL A   1      36.769  22.779  23.855  1.00  0.00     0.027 A 
ATOM     11  C   UNL A   1      36.364  23.329  26.129  1.00  0.00     0.027 A 
ATOM     12  C   UNL A   1      35.715  23.626  23.484  1.00  0.00     0.011 A 
ATOM     13  C   UNL A   1      35.280  24.153  25.737  1.00  0.00     0.011 A 
BRANCH   9  14
ATOM     14  N   UNL A   1      38.074  21.687  25.527  1.00  0.00    -0.326 N 
ATOM     15  C   UNL A   1      39.587  23.380  26.554  1.00  0.00     0.114 C 
ATOM     16  C   UNL A   1      39.221  21.961  26.227  1.00  0.00     0.221 C 
ATOM     17  O   UNL A   1      39.910  21.019  26.621  1.00  0.00    -0.275 OA
ATOM     18  H   UNL A   1      37.967  20.756  25.225  1.00  0.00     0.169 HD
ENDBRANCH   9  14
ENDBRANCH   6   8
BRANCH   7  19
ATOM     19  C   UNL A   1      32.073  22.733  23.882  1.00  0.00    -0.025 A 
ATOM     20  C   UNL A   1      32.063  22.014  22.678  1.00  0.00     0.009 A 
ATOM     21  C   UNL A   1      32.051  22.050  25.108  1.00  0.00     0.009 A 
ATOM     22  C   UNL A   1      32.195  20.627  22.695  1.00  0.00     0.021 A 
ATOM     23  C   UNL A   1      32.199  20.659  25.129  1.00  0.00     0.021 A 
ATOM     24  C   UNL A   1      32.313  19.963  23.921  1.00  0.00     0.067 A 
BRANCH  24  25
ATOM     25  S   UNL A   1      32.855  18.268  23.918  1.00  0.00     0.175 S 
ATOM     26  C   UNL A   1      34.541  18.360  24.439  1.00  0.00     0.163 C 
ATOM     27  O   UNL A   1      32.107  17.582  24.959  1.00  0.00    -0.224 OA
ATOM     28  O   UNL A   1      32.832  17.793  22.553  1.00  0.00    -0.224 OA
ENDBRANCH  24  25
ENDBRANCH   7  19
ENDBRANCH   4   6
ENDBRANCH   3   4
ENDBRANCH   2   3
ENDBRANCH   1   2
BRANCH   1  29
ATOM     29  O   UNL A   1      32.758  29.750  26.860  1.00  0.00    -0.458 OA
BRANCH  29  30
ATOM     30  C   UNL A   1      33.169  31.012  27.143  1.00  0.00     0.338 C 
ATOM     31  O   UNL A   1      32.483  32.016  27.178  1.00  0.00    -0.246 OA
BRANCH  30  32
ATOM     32  C   UNL A   1      34.549  30.954  27.655  1.00  0.00     0.060 A 
ATOM     33  C   UNL A   1      34.994  29.697  28.032  1.00  0.00     0.016 A 
ATOM     34  C   UNL A   1      35.385  32.064  27.805  1.00  0.00     0.016 A 
ATOM     35  C   UNL A   1      36.284  29.541  28.518  1.00  0.00     0.010 A 
ATOM     36  C   UNL A   1      36.687  31.896  28.322  1.00  0.00     0.010 A 
ATOM     37  C   UNL A   1      37.157  30.621  28.671  1.00  0.00    -0.014 A 
BRANCH  37  38
ATOM     38  C   UNL A   1      38.473  30.353  29.327  1.00  0.00     0.031 A 
ATOM     39  C   UNL A   1      38.709  30.858  30.728  1.00  0.00     0.074 A 
ATOM     40  C   UNL A   1      39.350  29.465  28.809  1.00  0.00     0.049 A 
ATOM     41  N   UNL A   1      39.743  30.685  31.511  1.00  0.00    -0.248 NA
ATOM     42  C   UNL A   1      37.602  31.602  31.348  1.00  0.00     0.031 C 
ATOM     43  C   UNL A   1      39.159  28.722  27.564  1.00  0.00     0.029 A 
ATOM     44  N   UNL A   1      40.552  28.994  29.291  1.00  0.00    -0.354 N 
ATOM     45  C   UNL A   1      39.413  31.287  32.719  1.00  0.00     0.074 A 
ATOM     46  C   UNL A   1      38.084  31.842  32.559  1.00  0.00     0.031 C 
ATOM     47  C   UNL A   1      40.199  27.887  27.387  1.00  0.00     0.029 A 
ATOM     48  C   UNL A   1      41.175  28.089  28.458  1.00  0.00     0.049 A 
ATOM     49  H   UNL A   1      40.932  29.278  30.154  1.00  0.00     0.167 HD
ATOM     50  C   UNL A   1      40.146  31.374  33.857  1.00  0.00     0.034 A 
ATOM     51  C   UNL A   1      42.404  27.527  28.518  1.00  0.00     0.034 A 
ATOM     52  C   UNL A   1      41.480  30.846  34.012  1.00  0.00     0.049 A 
ATOM     53  C   UNL A   1      43.307  27.852  29.692  1.00  0.00     0.074 A 
ATOM     54  C   UNL A   1      42.333  30.972  35.096  1.00  0.00     0.029 A 
ATOM     55  N   UNL A   1      42.164  30.103  33.060  1.00  0.00    -0.354 N 
ATOM     56  N   UNL A   1      43.032  28.533  30.781  1.00  0.00    -0.248 NA
ATOM     57  C   UNL A   1      44.688  27.348  29.638  1.00  0.00     0.031 C 
ATOM     58  C   UNL A   1      43.562  30.393  34.762  1.00  0.00     0.029 A 
ATOM     59  C   UNL A   1      43.446  29.817  33.508  1.00  0.00     0.049 A 
ATOM     60  H   UNL A   1      41.793  29.819  32.193  1.00  0.00     0.167 HD
ATOM     61  C   UNL A   1      44.194  28.501  31.553  1.00  0.00     0.074 A 
ATOM     62  C   UNL A   1      45.168  27.729  30.812  1.00  0.00     0.031 C 
ATOM     63  C   UNL A   1      44.429  29.058  32.770  1.00  0.00     0.034 A 
BRANCH  50  64
ATOM     64  C   UNL A   1      39.561  32.175  34.993  1.00  0.00     0.023 A 
ATOM     65  C   UNL A   1      39.925  33.509  35.241  1.00  0.00     0.031 A 
ATOM     66  C   UNL A   1      38.628  31.571  35.856  1.00  0.00     0.131 A 
ATOM     67  C   UNL A   1      39.392  34.179  36.355  1.00  0.00     0.055 A 
ATOM     68  C   UNL A   1      38.048  32.265  36.916  1.00  0.00     0.041 A 
ATOM     69  F   UNL A   1      38.269  30.289  35.682  1.00  0.00    -0.206 F 
ATOM     70  C   UNL A   1      38.438  33.574  37.177  1.00  0.00     0.022 A 
BRANCH  67  71
ATOM     71  S   UNL A   1      40.064  35.805  36.803  1.00  0.00     0.124 S 
ATOM     72  O   UNL A   1      39.698  36.609  35.639  1.00  0.00    -0.237 OA
ATOM     73  O   UNL A   1      39.356  36.110  38.041  1.00  0.00    -0.237 OA
ATOM     74  O   UNL A   1      41.496  35.555  36.949  1.00  0.00    -0.744 OA
ENDBRANCH  67  71
ENDBRANCH  50  64
BRANCH  51  75
ATOM     75  C   UNL A   1      42.934  26.704  27.380  1.00  0.00     0.023 A 
ATOM     76  C   UNL A   1      42.777  25.308  27.324  1.00  0.00     0.031 A 
ATOM     77  C   UNL A   1      43.733  27.308  26.388  1.00  0.00     0.131 A 
ATOM     78  C   UNL A   1      43.454  24.564  26.339  1.00  0.00     0.055 A 
ATOM     79  C   UNL A   1      44.340  26.573  25.369  1.00  0.00     0.041 A 
ATOM     80  F   UNL A   1      43.953  28.632  26.401  1.00  0.00    -0.206 F 
ATOM     81  C   UNL A   1      44.217  25.189  25.352  1.00  0.00     0.022 A 
BRANCH  78  82
ATOM     82  S   UNL A   1      43.446  22.749  26.445  1.00  0.00     0.124 S 
ATOM     83  O   UNL A   1      42.737  22.529  27.699  1.00  0.00    -0.237 OA
ATOM     84  O   UNL A   1      42.736  22.377  25.228  1.00  0.00    -0.237 OA
ATOM     85  O   UNL A   1      44.867  22.405  26.464  1.00  0.00    -0.744 OA
ENDBRANCH  78  82
ENDBRANCH  51  75
BRANCH  63  86
ATOM     86  C   UNL A   1      45.781  28.817  33.406  1.00  0.00     0.023 A 
ATOM     87  C   UNL A   1      46.029  27.711  34.241  1.00  0.00     0.031 A 
ATOM     88  C   UNL A   1      46.845  29.707  33.165  1.00  0.00     0.131 A 
ATOM     89  C   UNL A   1      47.288  27.552  34.840  1.00  0.00     0.055 A 
ATOM     90  C   UNL A   1      48.114  29.508  33.712  1.00  0.00     0.041 A 
ATOM     91  F   UNL A   1      46.672  30.784  32.382  1.00  0.00    -0.206 F 
ATOM     92  C   UNL A   1      48.339  28.432  34.565  1.00  0.00     0.022 A 
BRANCH  89  93
ATOM     93  S   UNL A   1      47.520  26.225  36.057  1.00  0.00     0.124 S 
ATOM     94  O   UNL A   1      46.366  26.408  36.931  1.00  0.00    -0.237 OA
ATOM     95  O   UNL A   1      47.502  25.028  35.221  1.00  0.00    -0.237 OA
ATOM     96  O   UNL A   1      48.812  26.535  36.663  1.00  0.00    -0.744 OA
ENDBRANCH  89  93
ENDBRANCH  63  86
ENDBRANCH  37  38
ENDBRANCH  30  32
ENDBRANCH  29  30
ENDBRANCH   1  29
TORSDOF 18
ENDMDL
