MODEL 1
REMARK VINA RESULT:     -13.4      0.000      0.000
REMARK SMILES Cc1c(-c2nn(-c3ccccc3)cc2/C=N/O)nnn1-c1ccc(C(=O)OCCOC(=O)c2ccc(-c3c4nc(c(-c5cc(S(=O)(=O)[O-])ccc5F)c5ccc([nH]5)c(-c5cc(S(=O)(=O)[O-])ccc5F)c5nc(c(-c6cc(S(=O)(=O)[O-])ccc6F)c6ccc3[nH]6)C=C5)C=C4)cc2)cc1
REMARK SMILES IDX 28 1 27 2 25 3 26 4 24 5 21 6 22 7 97 8 23 9 96 10 20 11
REMARK SMILES IDX 1 12 2 13 3 14 18 15 19 16 4 17 5 18 14 19 6 20 13 21 15 22
REMARK SMILES IDX 16 23 17 24 7 26 8 27 12 28 9 29 11 30 10 31 29 32 30 33
REMARK SMILES IDX 31 34 32 35 33 36 34 37 95 38 35 39 94 40 36 41 37 42 38 43
REMARK SMILES IDX 88 44 39 45 93 46 87 47 89 48 40 49 92 50 86 51 85 52 41 54
REMARK SMILES IDX 73 55 53 56 72 57 54 58 57 59 71 60 90 61 55 62 56 63 70 65
REMARK SMILES IDX 91 66 58 67 42 68 43 69 51 70 44 71 50 72 52 73 49 74 45 75
REMARK SMILES IDX 46 76 47 77 48 78 74 79 75 80 83 81 76 82 82 83 84 84 81 85
REMARK SMILES IDX 77 86 78 87 79 88 80 89 59 90 60 91 68 92 61 93 67 94 69 95
REMARK SMILES IDX 66 96 62 97 63 98 64 99 65 100
REMARK H PARENT 17 25 89 53 57 64
REMARK Flexibility Score: inf
ROOT
ATOM      1  C   UNL A   1      34.372  30.888  27.362  1.00  0.00     0.275 C 
ENDROOT
BRANCH   1   2
ATOM      2  O   UNL A   1      32.983  30.621  27.619  1.00  0.00    -0.458 OA
BRANCH   2   3
ATOM      3  C   UNL A   1      32.206  30.459  26.518  1.00  0.00     0.338 C 
ATOM      4  O   UNL A   1      31.411  31.272  26.065  1.00  0.00    -0.246 OA
BRANCH   3   5
ATOM      5  C   UNL A   1      32.483  29.155  25.865  1.00  0.00     0.060 A 
ATOM      6  C   UNL A   1      33.182  26.669  24.798  1.00  0.00     0.067 A 
ATOM      7  C   UNL A   1      32.533  26.733  26.037  1.00  0.00     0.029 A 
ATOM      8  C   UNL A   1      33.385  27.839  24.050  1.00  0.00     0.029 A 
ATOM      9  C   UNL A   1      32.215  27.979  26.580  1.00  0.00     0.018 A 
ATOM     10  C   UNL A   1      33.021  29.080  24.577  1.00  0.00     0.018 A 
BRANCH   6  11
ATOM     11  N   UNL A   1      33.676  25.424  24.340  1.00  0.00    -0.217 N 
ATOM     12  C   UNL A   1      33.494  24.046  26.477  1.00  0.00     0.069 C 
ATOM     13  C   UNL A   1      33.893  24.264  25.068  1.00  0.00     0.071 A 
ATOM     14  C   UNL A   1      34.427  23.399  24.135  1.00  0.00     0.137 A 
ATOM     15  N   UNL A   1      34.426  23.975  22.900  1.00  0.00    -0.128 NA
ATOM     16  N   UNL A   1      33.894  25.186  23.023  1.00  0.00    -0.061 NA
BRANCH  14  17
ATOM     17  C   UNL A   1      34.861  22.021  24.332  1.00  0.00     0.124 A 
ATOM     18  N   UNL A   1      34.018  20.987  24.220  1.00  0.00    -0.165 NA
ATOM     19  C   UNL A   1      36.160  21.620  24.723  1.00  0.00     0.044 A 
ATOM     20  N   UNL A   1      34.734  19.923  24.641  1.00  0.00    -0.240 N 
ATOM     21  C   UNL A   1      36.029  20.264  24.954  1.00  0.00     0.125 A 
BRANCH  19  22
ATOM     22  C   UNL A   1      37.381  22.368  24.886  1.00  0.00     0.166 C 
ATOM     23  N   UNL A   1      38.104  22.203  25.943  1.00  0.00    -0.097 NA
BRANCH  23  24
ATOM     24  O   UNL A   1      39.209  23.062  25.888  1.00  0.00    -0.411 OA
ATOM     25  H   UNL A   1      39.350  23.687  26.572  1.00  0.00     0.330 HD
ENDBRANCH  23  24
ENDBRANCH  19  22
BRANCH  20  26
ATOM     26  C   UNL A   1      34.129  18.650  24.770  1.00  0.00     0.065 A 
ATOM     27  C   UNL A   1      34.776  17.526  24.243  1.00  0.00     0.028 A 
ATOM     28  C   UNL A   1      32.883  18.519  25.396  1.00  0.00     0.028 A 
ATOM     29  C   UNL A   1      34.187  16.267  24.367  1.00  0.00     0.002 A 
ATOM     30  C   UNL A   1      32.277  17.262  25.467  1.00  0.00     0.002 A 
ATOM     31  C   UNL A   1      32.933  16.138  24.965  1.00  0.00     0.000 A 
ENDBRANCH  20  26
ENDBRANCH  14  17
ENDBRANCH   6  11
ENDBRANCH   3   5
ENDBRANCH   2   3
ENDBRANCH   1   2
BRANCH   1  32
ATOM     32  C   UNL A   1      35.135  31.175  28.650  1.00  0.00     0.275 C 
BRANCH  32  33
ATOM     33  O   UNL A   1      36.478  30.699  28.585  1.00  0.00    -0.458 OA
BRANCH  33  34
ATOM     34  C   UNL A   1      36.743  29.648  29.396  1.00  0.00     0.338 C 
ATOM     35  O   UNL A   1      36.228  29.409  30.475  1.00  0.00    -0.246 OA
BRANCH  34  36
ATOM     36  C   UNL A   1      37.927  28.939  28.899  1.00  0.00     0.060 A 
ATOM     37  C   UNL A   1      38.500  27.987  29.746  1.00  0.00     0.016 A 
ATOM     38  C   UNL A   1      38.600  29.419  27.764  1.00  0.00     0.016 A 
ATOM     39  C   UNL A   1      39.822  27.649  29.551  1.00  0.00     0.010 A 
ATOM     40  C   UNL A   1      39.923  29.089  27.580  1.00  0.00     0.010 A 
ATOM     41  C   UNL A   1      40.539  28.266  28.518  1.00  0.00    -0.014 A 
BRANCH  41  42
ATOM     42  C   UNL A   1      41.942  27.941  28.376  1.00  0.00     0.031 A 
ATOM     43  C   UNL A   1      42.173  26.679  27.648  1.00  0.00     0.074 A 
ATOM     44  C   UNL A   1      42.943  28.743  28.782  1.00  0.00     0.049 A 
ATOM     45  N   UNL A   1      42.579  25.558  28.138  1.00  0.00    -0.248 NA
ATOM     46  C   UNL A   1      41.722  26.598  26.251  1.00  0.00     0.031 C 
ATOM     47  C   UNL A   1      42.867  30.116  29.283  1.00  0.00     0.029 A 
ATOM     48  N   UNL A   1      44.280  28.499  28.743  1.00  0.00    -0.354 N 
ATOM     49  C   UNL A   1      42.652  24.682  27.065  1.00  0.00     0.074 A 
ATOM     50  C   UNL A   1      41.927  25.307  25.992  1.00  0.00     0.031 C 
ATOM     51  C   UNL A   1      44.110  30.652  29.294  1.00  0.00     0.029 A 
ATOM     52  C   UNL A   1      45.074  29.622  28.938  1.00  0.00     0.049 A 
ATOM     53  H   UNL A   1      44.654  27.603  28.588  1.00  0.00     0.167 HD
ATOM     54  C   UNL A   1      43.507  23.624  27.087  1.00  0.00     0.034 A 
ATOM     55  C   UNL A   1      46.420  29.704  28.761  1.00  0.00     0.034 A 
ATOM     56  C   UNL A   1      43.954  23.345  28.436  1.00  0.00     0.049 A 
ATOM     57  C   UNL A   1      46.956  28.324  28.882  1.00  0.00     0.074 A 
ATOM     58  C   UNL A   1      43.316  23.003  29.613  1.00  0.00     0.029 A 
ATOM     59  N   UNL A   1      45.203  23.791  28.810  1.00  0.00    -0.354 N 
ATOM     60  N   UNL A   1      46.920  27.644  29.996  1.00  0.00    -0.248 NA
ATOM     61  C   UNL A   1      47.077  27.515  27.677  1.00  0.00     0.031 C 
ATOM     62  C   UNL A   1      44.010  23.721  30.631  1.00  0.00     0.029 A 
ATOM     63  C   UNL A   1      45.074  24.402  30.034  1.00  0.00     0.049 A 
ATOM     64  H   UNL A   1      46.035  23.689  28.294  1.00  0.00     0.167 HD
ATOM     65  C   UNL A   1      46.565  26.357  29.623  1.00  0.00     0.074 A 
ATOM     66  C   UNL A   1      46.785  26.310  28.179  1.00  0.00     0.031 C 
ATOM     67  C   UNL A   1      45.862  25.542  30.466  1.00  0.00     0.034 A 
BRANCH  54  68
ATOM     68  C   UNL A   1      44.223  23.080  25.872  1.00  0.00     0.023 A 
ATOM     69  C   UNL A   1      44.132  21.694  25.647  1.00  0.00     0.031 A 
ATOM     70  C   UNL A   1      45.205  23.762  25.116  1.00  0.00     0.131 A 
ATOM     71  C   UNL A   1      45.051  21.037  24.814  1.00  0.00     0.055 A 
ATOM     72  C   UNL A   1      46.069  23.112  24.232  1.00  0.00     0.041 A 
ATOM     73  F   UNL A   1      45.455  25.068  25.252  1.00  0.00    -0.206 F 
ATOM     74  C   UNL A   1      46.021  21.737  24.103  1.00  0.00     0.022 A 
BRANCH  71  75
ATOM     75  S   UNL A   1      45.076  19.227  24.831  1.00  0.00     0.124 S 
ATOM     76  O   UNL A   1      46.392  18.958  25.399  1.00  0.00    -0.237 OA
ATOM     77  O   UNL A   1      43.930  18.919  25.679  1.00  0.00    -0.237 OA
ATOM     78  O   UNL A   1      44.921  18.875  23.421  1.00  0.00    -0.744 OA
ENDBRANCH  71  75
ENDBRANCH  54  68
BRANCH  55  79
ATOM     79  C   UNL A   1      47.170  30.840  28.160  1.00  0.00     0.023 A 
ATOM     80  C   UNL A   1      46.568  31.822  27.346  1.00  0.00     0.031 A 
ATOM     81  C   UNL A   1      48.493  31.098  28.591  1.00  0.00     0.131 A 
ATOM     82  C   UNL A   1      47.285  32.992  26.995  1.00  0.00     0.055 A 
ATOM     83  C   UNL A   1      49.195  32.251  28.239  1.00  0.00     0.041 A 
ATOM     84  F   UNL A   1      49.118  30.272  29.444  1.00  0.00    -0.206 F 
ATOM     85  C   UNL A   1      48.591  33.209  27.444  1.00  0.00     0.022 A 
BRANCH  82  86
ATOM     86  S   UNL A   1      46.494  34.304  26.004  1.00  0.00     0.124 S 
ATOM     87  O   UNL A   1      46.139  35.290  27.017  1.00  0.00    -0.237 OA
ATOM     88  O   UNL A   1      47.553  34.677  25.075  1.00  0.00    -0.237 OA
ATOM     89  O   UNL A   1      45.353  33.624  25.386  1.00  0.00    -0.744 OA
ENDBRANCH  82  86
ENDBRANCH  55  79
BRANCH  67  90
ATOM     90  C   UNL A   1      45.712  25.971  31.915  1.00  0.00     0.023 A 
ATOM     91  C   UNL A   1      44.545  26.548  32.468  1.00  0.00     0.031 A 
ATOM     92  C   UNL A   1      46.765  25.665  32.794  1.00  0.00     0.131 A 
ATOM     93  C   UNL A   1      44.472  26.810  33.851  1.00  0.00     0.055 A 
ATOM     94  C   UNL A   1      46.681  25.903  34.165  1.00  0.00     0.041 A 
ATOM     95  F   UNL A   1      47.889  25.089  32.337  1.00  0.00    -0.206 F 
ATOM     96  C   UNL A   1      45.536  26.483  34.698  1.00  0.00     0.022 A 
BRANCH  93  97
ATOM     97  S   UNL A   1      42.993  27.592  34.574  1.00  0.00     0.124 S 
ATOM     98  O   UNL A   1      42.554  26.630  35.577  1.00  0.00    -0.237 OA
ATOM     99  O   UNL A   1      43.518  28.856  35.085  1.00  0.00    -0.237 OA
ATOM    100  O   UNL A   1      42.088  27.732  33.431  1.00  0.00    -0.744 OA
ENDBRANCH  93  97
ENDBRANCH  67  90
ENDBRANCH  41  42
ENDBRANCH  34  36
ENDBRANCH  33  34
ENDBRANCH  32  33
ENDBRANCH   1  32
TORSDOF 19
ENDMDL
MODEL 2
REMARK VINA RESULT:     -13.1      2.415      6.829
REMARK SMILES Cc1c(-c2nn(-c3ccccc3)cc2/C=N/O)nnn1-c1ccc(C(=O)OCCOC(=O)c2ccc(-c3c4nc(c(-c5cc(S(=O)(=O)[O-])ccc5F)c5ccc([nH]5)c(-c5cc(S(=O)(=O)[O-])ccc5F)c5nc(c(-c6cc(S(=O)(=O)[O-])ccc6F)c6ccc3[nH]6)C=C5)C=C4)cc2)cc1
REMARK SMILES IDX 28 1 27 2 25 3 26 4 24 5 21 6 22 7 97 8 23 9 96 10 20 11
REMARK SMILES IDX 1 12 2 13 3 14 18 15 19 16 4 17 5 18 14 19 6 20 13 21 15 22
REMARK SMILES IDX 16 23 17 24 7 26 8 27 12 28 9 29 11 30 10 31 29 32 30 33
REMARK SMILES IDX 31 34 32 35 33 36 34 37 95 38 35 39 94 40 36 41 37 42 38 43
REMARK SMILES IDX 88 44 39 45 93 46 87 47 89 48 40 49 92 50 86 51 85 52 41 54
REMARK SMILES IDX 73 55 53 56 72 57 54 58 57 59 71 60 90 61 55 62 56 63 70 65
REMARK SMILES IDX 91 66 58 67 42 68 43 69 51 70 44 71 50 72 52 73 49 74 45 75
REMARK SMILES IDX 46 76 47 77 48 78 74 79 75 80 83 81 76 82 82 83 84 84 81 85
REMARK SMILES IDX 77 86 78 87 79 88 80 89 59 90 60 91 68 92 61 93 67 94 69 95
REMARK SMILES IDX 66 96 62 97 63 98 64 99 65 100
REMARK H PARENT 17 25 89 53 57 64
REMARK Flexibility Score: inf
ROOT
ATOM      1  C   UNL A   1      33.254  30.724  27.219  1.00  0.00     0.275 C 
ENDROOT
BRANCH   1   2
ATOM      2  O   UNL A   1      31.856  30.439  27.045  1.00  0.00    -0.458 OA
BRANCH   2   3
ATOM      3  C   UNL A   1      31.427  30.381  25.758  1.00  0.00     0.338 C 
ATOM      4  O   UNL A   1      30.841  31.266  25.149  1.00  0.00    -0.246 OA
BRANCH   3   5
ATOM      5  C   UNL A   1      31.817  29.095  25.130  1.00  0.00     0.060 A 
ATOM      6  C   UNL A   1      32.583  26.585  24.170  1.00  0.00     0.067 A 
ATOM      7  C   UNL A   1      31.336  26.739  24.786  1.00  0.00     0.029 A 
ATOM      8  C   UNL A   1      33.397  27.705  23.942  1.00  0.00     0.029 A 
ATOM      9  C   UNL A   1      30.971  27.988  25.292  1.00  0.00     0.018 A 
ATOM     10  C   UNL A   1      33.006  28.962  24.408  1.00  0.00     0.018 A 
BRANCH   6  11
ATOM     11  N   UNL A   1      33.031  25.285  23.833  1.00  0.00    -0.217 N 
ATOM     12  C   UNL A   1      33.617  24.388  26.146  1.00  0.00     0.069 C 
ATOM     13  C   UNL A   1      33.559  24.313  24.668  1.00  0.00     0.071 A 
ATOM     14  C   UNL A   1      33.870  23.284  23.802  1.00  0.00     0.137 A 
ATOM     15  N   UNL A   1      33.451  23.585  22.541  1.00  0.00    -0.128 NA
ATOM     16  N   UNL A   1      32.871  24.779  22.585  1.00  0.00    -0.061 NA
BRANCH  14  17
ATOM     17  C   UNL A   1      34.467  21.993  24.119  1.00  0.00     0.124 A 
ATOM     18  N   UNL A   1      33.761  20.855  24.085  1.00  0.00    -0.165 NA
ATOM     19  C   UNL A   1      35.797  21.791  24.556  1.00  0.00     0.044 A 
ATOM     20  N   UNL A   1      34.594  19.927  24.603  1.00  0.00    -0.240 N 
ATOM     21  C   UNL A   1      35.830  20.453  24.899  1.00  0.00     0.125 A 
BRANCH  19  22
ATOM     22  C   UNL A   1      36.912  22.697  24.669  1.00  0.00     0.166 C 
ATOM     23  N   UNL A   1      37.689  22.642  25.698  1.00  0.00    -0.097 NA
BRANCH  23  24
ATOM     24  O   UNL A   1      38.666  23.639  25.598  1.00  0.00    -0.411 OA
ATOM     25  H   UNL A   1      38.437  24.536  25.742  1.00  0.00     0.330 HD
ENDBRANCH  23  24
ENDBRANCH  19  22
BRANCH  20  26
ATOM     26  C   UNL A   1      34.149  18.604  24.832  1.00  0.00     0.065 A 
ATOM     27  C   UNL A   1      34.995  17.532  24.523  1.00  0.00     0.028 A 
ATOM     28  C   UNL A   1      32.865  18.367  25.338  1.00  0.00     0.028 A 
ATOM     29  C   UNL A   1      34.565  16.224  24.747  1.00  0.00     0.002 A 
ATOM     30  C   UNL A   1      32.423  17.053  25.507  1.00  0.00     0.002 A 
ATOM     31  C   UNL A   1      33.276  15.985  25.225  1.00  0.00     0.000 A 
ENDBRANCH  20  26
ENDBRANCH  14  17
ENDBRANCH   6  11
ENDBRANCH   3   5
ENDBRANCH   2   3
ENDBRANCH   1   2
BRANCH   1  32
ATOM     32  C   UNL A   1      33.471  32.067  27.905  1.00  0.00     0.275 C 
BRANCH  32  33
ATOM     33  O   UNL A   1      34.477  31.988  28.914  1.00  0.00    -0.458 OA
BRANCH  33  34
ATOM     34  C   UNL A   1      35.732  32.249  28.478  1.00  0.00     0.338 C 
ATOM     35  O   UNL A   1      36.049  32.975  27.552  1.00  0.00    -0.246 OA
BRANCH  34  36
ATOM     36  C   UNL A   1      36.673  31.340  29.142  1.00  0.00     0.060 A 
ATOM     37  C   UNL A   1      37.792  31.916  29.748  1.00  0.00     0.016 A 
ATOM     38  C   UNL A   1      36.589  29.959  28.906  1.00  0.00     0.016 A 
ATOM     39  C   UNL A   1      38.903  31.125  29.958  1.00  0.00     0.010 A 
ATOM     40  C   UNL A   1      37.703  29.175  29.104  1.00  0.00     0.010 A 
ATOM     41  C   UNL A   1      38.869  29.783  29.558  1.00  0.00    -0.014 A 
BRANCH  41  42
ATOM     42  C   UNL A   1      40.070  28.993  29.731  1.00  0.00     0.031 A 
ATOM     43  C   UNL A   1      40.440  28.804  31.147  1.00  0.00     0.074 A 
ATOM     44  C   UNL A   1      40.738  28.412  28.718  1.00  0.00     0.049 A 
ATOM     45  N   UNL A   1      41.426  29.346  31.774  1.00  0.00    -0.248 NA
ATOM     46  C   UNL A   1      39.499  28.079  32.012  1.00  0.00     0.031 C 
ATOM     47  C   UNL A   1      40.350  28.305  27.311  1.00  0.00     0.029 A 
ATOM     48  N   UNL A   1      41.896  27.703  28.776  1.00  0.00    -0.354 N 
ATOM     49  C   UNL A   1      41.366  28.852  33.069  1.00  0.00     0.074 A 
ATOM     50  C   UNL A   1      40.064  28.256  33.206  1.00  0.00     0.031 C 
ATOM     51  C   UNL A   1      41.146  27.396  26.700  1.00  0.00     0.029 A 
ATOM     52  C   UNL A   1      42.177  26.967  27.632  1.00  0.00     0.049 A 
ATOM     53  H   UNL A   1      42.487  27.711  29.562  1.00  0.00     0.167 HD
ATOM     54  C   UNL A   1      42.485  28.772  33.838  1.00  0.00     0.034 A 
ATOM     55  C   UNL A   1      43.155  26.032  27.489  1.00  0.00     0.034 A 
ATOM     56  C   UNL A   1      43.544  29.598  33.299  1.00  0.00     0.049 A 
ATOM     57  C   UNL A   1      44.188  26.329  28.514  1.00  0.00     0.074 A 
ATOM     58  C   UNL A   1      43.678  30.949  33.040  1.00  0.00     0.029 A 
ATOM     59  N   UNL A   1      44.540  28.983  32.571  1.00  0.00    -0.354 N 
ATOM     60  N   UNL A   1      44.915  27.413  28.497  1.00  0.00    -0.248 NA
ATOM     61  C   UNL A   1      44.082  25.686  29.817  1.00  0.00     0.031 C 
ATOM     62  C   UNL A   1      44.399  31.020  31.811  1.00  0.00     0.029 A 
ATOM     63  C   UNL A   1      44.727  29.718  31.424  1.00  0.00     0.049 A 
ATOM     64  H   UNL A   1      45.028  28.167  32.825  1.00  0.00     0.167 HD
ATOM     65  C   UNL A   1      44.976  27.829  29.818  1.00  0.00     0.074 A 
ATOM     66  C   UNL A   1      44.543  26.670  30.596  1.00  0.00     0.031 C 
ATOM     67  C   UNL A   1      45.100  29.151  30.140  1.00  0.00     0.034 A 
BRANCH  54  68
ATOM     68  C   UNL A   1      42.750  27.680  34.848  1.00  0.00     0.023 A 
ATOM     69  C   UNL A   1      43.546  26.600  34.425  1.00  0.00     0.031 A 
ATOM     70  C   UNL A   1      42.049  27.487  36.062  1.00  0.00     0.131 A 
ATOM     71  C   UNL A   1      43.529  25.377  35.114  1.00  0.00     0.055 A 
ATOM     72  C   UNL A   1      42.094  26.292  36.784  1.00  0.00     0.041 A 
ATOM     73  F   UNL A   1      41.209  28.394  36.572  1.00  0.00    -0.206 F 
ATOM     74  C   UNL A   1      42.807  25.214  36.293  1.00  0.00     0.022 A 
BRANCH  71  75
ATOM     75  S   UNL A   1      44.314  23.946  34.332  1.00  0.00     0.124 S 
ATOM     76  O   UNL A   1      45.024  23.350  35.459  1.00  0.00    -0.237 OA
ATOM     77  O   UNL A   1      43.160  23.206  33.832  1.00  0.00    -0.237 OA
ATOM     78  O   UNL A   1      45.163  24.545  33.306  1.00  0.00    -0.744 OA
ENDBRANCH  71  75
ENDBRANCH  54  68
BRANCH  55  79
ATOM     79  C   UNL A   1      43.048  24.738  26.762  1.00  0.00     0.023 A 
ATOM     80  C   UNL A   1      44.042  24.255  25.887  1.00  0.00     0.031 A 
ATOM     81  C   UNL A   1      42.023  23.831  27.119  1.00  0.00     0.131 A 
ATOM     82  C   UNL A   1      43.982  22.924  25.407  1.00  0.00     0.055 A 
ATOM     83  C   UNL A   1      41.966  22.522  26.640  1.00  0.00     0.041 A 
ATOM     84  F   UNL A   1      41.083  24.163  28.018  1.00  0.00    -0.206 F 
ATOM     85  C   UNL A   1      42.953  22.059  25.785  1.00  0.00     0.022 A 
BRANCH  82  86
ATOM     86  S   UNL A   1      45.301  22.264  24.333  1.00  0.00     0.124 S 
ATOM     87  O   UNL A   1      45.970  23.477  23.878  1.00  0.00    -0.237 OA
ATOM     88  O   UNL A   1      46.051  21.410  25.247  1.00  0.00    -0.237 OA
ATOM     89  O   UNL A   1      44.566  21.543  23.291  1.00  0.00    -0.744 OA
ENDBRANCH  82  86
ENDBRANCH  55  79
BRANCH  67  90
ATOM     90  C   UNL A   1      45.440  30.129  29.031  1.00  0.00     0.023 A 
ATOM     91  C   UNL A   1      46.755  30.479  28.640  1.00  0.00     0.031 A 
ATOM     92  C   UNL A   1      44.377  30.632  28.261  1.00  0.00     0.131 A 
ATOM     93  C   UNL A   1      46.961  31.316  27.525  1.00  0.00     0.055 A 
ATOM     94  C   UNL A   1      44.587  31.440  27.144  1.00  0.00     0.041 A 
ATOM     95  F   UNL A   1      43.108  30.313  28.562  1.00  0.00    -0.206 F 
ATOM     96  C   UNL A   1      45.880  31.790  26.775  1.00  0.00     0.022 A 
BRANCH  93  97
ATOM     97  S   UNL A   1      48.645  31.812  27.033  1.00  0.00     0.124 S 
ATOM     98  O   UNL A   1      49.263  32.214  28.291  1.00  0.00    -0.237 OA
ATOM     99  O   UNL A   1      49.171  30.593  26.422  1.00  0.00    -0.237 OA
ATOM    100  O   UNL A   1      48.416  32.910  26.092  1.00  0.00    -0.744 OA
ENDBRANCH  93  97
ENDBRANCH  67  90
ENDBRANCH  41  42
ENDBRANCH  34  36
ENDBRANCH  33  34
ENDBRANCH  32  33
ENDBRANCH   1  32
TORSDOF 19
ENDMDL
MODEL 3
REMARK VINA RESULT:     -13.0      1.540      2.075
REMARK SMILES Cc1c(-c2nn(-c3ccccc3)cc2/C=N/O)nnn1-c1ccc(C(=O)OCCOC(=O)c2ccc(-c3c4nc(c(-c5cc(S(=O)(=O)[O-])ccc5F)c5ccc([nH]5)c(-c5cc(S(=O)(=O)[O-])ccc5F)c5nc(c(-c6cc(S(=O)(=O)[O-])ccc6F)c6ccc3[nH]6)C=C5)C=C4)cc2)cc1
REMARK SMILES IDX 28 1 27 2 25 3 26 4 24 5 21 6 22 7 97 8 23 9 96 10 20 11
REMARK SMILES IDX 1 12 2 13 3 14 18 15 19 16 4 17 5 18 14 19 6 20 13 21 15 22
REMARK SMILES IDX 16 23 17 24 7 26 8 27 12 28 9 29 11 30 10 31 29 32 30 33
REMARK SMILES IDX 31 34 32 35 33 36 34 37 95 38 35 39 94 40 36 41 37 42 38 43
REMARK SMILES IDX 88 44 39 45 93 46 87 47 89 48 40 49 92 50 86 51 85 52 41 54
REMARK SMILES IDX 73 55 53 56 72 57 54 58 57 59 71 60 90 61 55 62 56 63 70 65
REMARK SMILES IDX 91 66 58 67 42 68 43 69 51 70 44 71 50 72 52 73 49 74 45 75
REMARK SMILES IDX 46 76 47 77 48 78 74 79 75 80 83 81 76 82 82 83 84 84 81 85
REMARK SMILES IDX 77 86 78 87 79 88 80 89 59 90 60 91 68 92 61 93 67 94 69 95
REMARK SMILES IDX 66 96 62 97 63 98 64 99 65 100
REMARK H PARENT 17 25 89 53 57 64
REMARK Flexibility Score: inf
ROOT
ATOM      1  C   UNL A   1      34.556  32.311  28.479  1.00  0.00     0.275 C 
ENDROOT
BRANCH   1   2
ATOM      2  O   UNL A   1      34.127  31.371  27.480  1.00  0.00    -0.458 OA
BRANCH   2   3
ATOM      3  C   UNL A   1      32.809  31.419  27.160  1.00  0.00     0.338 C 
ATOM      4  O   UNL A   1      32.114  32.424  27.098  1.00  0.00    -0.246 OA
BRANCH   3   5
ATOM      5  C   UNL A   1      32.299  30.066  26.823  1.00  0.00     0.060 A 
ATOM      6  C   UNL A   1      31.570  27.449  26.170  1.00  0.00     0.067 A 
ATOM      7  C   UNL A   1      32.120  27.720  27.428  1.00  0.00     0.029 A 
ATOM      8  C   UNL A   1      31.290  28.500  25.283  1.00  0.00     0.029 A 
ATOM      9  C   UNL A   1      32.511  29.024  27.738  1.00  0.00     0.018 A 
ATOM     10  C   UNL A   1      31.640  29.810  25.617  1.00  0.00     0.018 A 
BRANCH   6  11
ATOM     11  N   UNL A   1      31.354  26.103  25.786  1.00  0.00    -0.217 N 
ATOM     12  C   UNL A   1      33.464  25.672  24.423  1.00  0.00     0.069 C 
ATOM     13  C   UNL A   1      32.133  25.308  24.960  1.00  0.00     0.071 A 
ATOM     14  C   UNL A   1      31.423  24.127  24.895  1.00  0.00     0.137 A 
ATOM     15  N   UNL A   1      30.341  24.178  25.722  1.00  0.00    -0.128 NA
ATOM     16  N   UNL A   1      30.351  25.364  26.320  1.00  0.00    -0.061 NA
BRANCH  14  17
ATOM     17  C   UNL A   1      31.760  22.916  24.156  1.00  0.00     0.124 A 
ATOM     18  N   UNL A   1      31.770  21.708  24.735  1.00  0.00    -0.165 NA
ATOM     19  C   UNL A   1      32.174  22.871  22.804  1.00  0.00     0.044 A 
ATOM     20  N   UNL A   1      32.293  20.890  23.797  1.00  0.00    -0.240 N 
ATOM     21  C   UNL A   1      32.550  21.554  22.620  1.00  0.00     0.125 A 
BRANCH  19  22
ATOM     22  C   UNL A   1      32.240  23.894  21.792  1.00  0.00     0.166 C 
ATOM     23  N   UNL A   1      33.348  24.118  21.169  1.00  0.00    -0.097 NA
BRANCH  23  24
ATOM     24  O   UNL A   1      33.171  25.176  20.270  1.00  0.00    -0.411 OA
ATOM     25  H   UNL A   1      33.891  25.475  19.750  1.00  0.00     0.330 HD
ENDBRANCH  23  24
ENDBRANCH  19  22
BRANCH  20  26
ATOM     26  C   UNL A   1      32.565  19.534  24.093  1.00  0.00     0.065 A 
ATOM     27  C   UNL A   1      32.697  19.135  25.429  1.00  0.00     0.028 A 
ATOM     28  C   UNL A   1      32.726  18.603  23.060  1.00  0.00     0.028 A 
ATOM     29  C   UNL A   1      32.964  17.799  25.730  1.00  0.00     0.002 A 
ATOM     30  C   UNL A   1      33.047  17.279  23.369  1.00  0.00     0.002 A 
ATOM     31  C   UNL A   1      33.152  16.876  24.701  1.00  0.00     0.000 A 
ENDBRANCH  20  26
ENDBRANCH  14  17
ENDBRANCH   6  11
ENDBRANCH   3   5
ENDBRANCH   2   3
ENDBRANCH   1   2
BRANCH   1  32
ATOM     32  C   UNL A   1      35.510  31.670  29.479  1.00  0.00     0.275 C 
BRANCH  32  33
ATOM     33  O   UNL A   1      36.294  30.642  28.877  1.00  0.00    -0.458 OA
BRANCH  33  34
ATOM     34  C   UNL A   1      36.640  29.635  29.713  1.00  0.00     0.338 C 
ATOM     35  O   UNL A   1      36.221  29.445  30.842  1.00  0.00    -0.246 OA
BRANCH  34  36
ATOM     36  C   UNL A   1      37.786  28.911  29.151  1.00  0.00     0.060 A 
ATOM     37  C   UNL A   1      38.447  28.015  29.995  1.00  0.00     0.016 A 
ATOM     38  C   UNL A   1      38.347  29.334  27.936  1.00  0.00     0.016 A 
ATOM     39  C   UNL A   1      39.752  27.680  29.701  1.00  0.00     0.010 A 
ATOM     40  C   UNL A   1      39.654  29.009  27.652  1.00  0.00     0.010 A 
ATOM     41  C   UNL A   1      40.364  28.246  28.575  1.00  0.00    -0.014 A 
BRANCH  41  42
ATOM     42  C   UNL A   1      41.754  27.929  28.325  1.00  0.00     0.031 A 
ATOM     43  C   UNL A   1      41.937  26.645  27.623  1.00  0.00     0.074 A 
ATOM     44  C   UNL A   1      42.776  28.753  28.619  1.00  0.00     0.049 A 
ATOM     45  N   UNL A   1      42.396  25.545  28.114  1.00  0.00    -0.248 NA
ATOM     46  C   UNL A   1      41.371  26.512  26.273  1.00  0.00     0.031 C 
ATOM     47  C   UNL A   1      42.727  30.141  29.079  1.00  0.00     0.029 A 
ATOM     48  N   UNL A   1      44.108  28.520  28.475  1.00  0.00    -0.354 N 
ATOM     49  C   UNL A   1      42.389  24.633  27.069  1.00  0.00     0.074 A 
ATOM     50  C   UNL A   1      41.569  25.215  26.040  1.00  0.00     0.031 C 
ATOM     51  C   UNL A   1      43.960  30.689  28.967  1.00  0.00     0.029 A 
ATOM     52  C   UNL A   1      44.902  29.656  28.564  1.00  0.00     0.049 A 
ATOM     53  H   UNL A   1      44.478  27.622  28.319  1.00  0.00     0.167 HD
ATOM     54  C   UNL A   1      43.254  23.584  27.053  1.00  0.00     0.034 A 
ATOM     55  C   UNL A   1      46.228  29.743  28.272  1.00  0.00     0.034 A 
ATOM     56  C   UNL A   1      43.817  23.356  28.367  1.00  0.00     0.049 A 
ATOM     57  C   UNL A   1      46.788  28.373  28.393  1.00  0.00     0.074 A 
ATOM     58  C   UNL A   1      43.284  23.048  29.605  1.00  0.00     0.029 A 
ATOM     59  N   UNL A   1      45.087  23.824  28.620  1.00  0.00    -0.354 N 
ATOM     60  N   UNL A   1      46.854  27.731  29.529  1.00  0.00    -0.248 NA
ATOM     61  C   UNL A   1      46.817  27.525  27.209  1.00  0.00     0.031 C 
ATOM     62  C   UNL A   1      44.054  23.807  30.537  1.00  0.00     0.029 A 
ATOM     63  C   UNL A   1      45.056  24.476  29.829  1.00  0.00     0.049 A 
ATOM     64  H   UNL A   1      45.875  23.713  28.039  1.00  0.00     0.167 HD
ATOM     65  C   UNL A   1      46.483  26.429  29.229  1.00  0.00     0.074 A 
ATOM     66  C   UNL A   1      46.582  26.335  27.774  1.00  0.00     0.031 C 
ATOM     67  C   UNL A   1      45.864  25.637  30.156  1.00  0.00     0.034 A 
BRANCH  54  68
ATOM     68  C   UNL A   1      43.872  23.006  25.801  1.00  0.00     0.023 A 
ATOM     69  C   UNL A   1      43.833  21.606  25.659  1.00  0.00     0.031 A 
ATOM     70  C   UNL A   1      44.735  23.689  24.912  1.00  0.00     0.131 A 
ATOM     71  C   UNL A   1      44.697  20.946  24.771  1.00  0.00     0.055 A 
ATOM     72  C   UNL A   1      45.539  23.031  23.978  1.00  0.00     0.041 A 
ATOM     73  F   UNL A   1      44.928  25.011  24.953  1.00  0.00    -0.206 F 
ATOM     74  C   UNL A   1      45.552  21.649  23.928  1.00  0.00     0.022 A 
BRANCH  71  75
ATOM     75  S   UNL A   1      44.819  19.144  24.880  1.00  0.00     0.124 S 
ATOM     76  O   UNL A   1      44.910  18.771  23.473  1.00  0.00    -0.237 OA
ATOM     77  O   UNL A   1      46.031  18.973  25.674  1.00  0.00    -0.237 OA
ATOM     78  O   UNL A   1      43.577  18.762  25.548  1.00  0.00    -0.744 OA
ENDBRANCH  71  75
ENDBRANCH  54  68
BRANCH  55  79
ATOM     79  C   UNL A   1      46.911  30.865  27.572  1.00  0.00     0.023 A 
ATOM     80  C   UNL A   1      46.231  31.994  27.069  1.00  0.00     0.031 A 
ATOM     81  C   UNL A   1      48.324  30.937  27.601  1.00  0.00     0.131 A 
ATOM     82  C   UNL A   1      46.961  33.121  26.619  1.00  0.00     0.055 A 
ATOM     83  C   UNL A   1      49.037  32.049  27.153  1.00  0.00     0.041 A 
ATOM     84  F   UNL A   1      49.058  29.955  28.148  1.00  0.00    -0.206 F 
ATOM     85  C   UNL A   1      48.357  33.152  26.666  1.00  0.00     0.022 A 
BRANCH  82  86
ATOM     86  S   UNL A   1      46.093  34.615  26.034  1.00  0.00     0.124 S 
ATOM     87  O   UNL A   1      44.820  34.534  26.740  1.00  0.00    -0.237 OA
ATOM     88  O   UNL A   1      46.997  35.683  26.442  1.00  0.00    -0.237 OA
ATOM     89  O   UNL A   1      46.003  34.414  24.586  1.00  0.00    -0.744 OA
ENDBRANCH  82  86
ENDBRANCH  55  79
BRANCH  67  90
ATOM     90  C   UNL A   1      45.831  26.114  31.597  1.00  0.00     0.023 A 
ATOM     91  C   UNL A   1      44.702  26.682  32.232  1.00  0.00     0.031 A 
ATOM     92  C   UNL A   1      46.966  25.864  32.388  1.00  0.00     0.131 A 
ATOM     93  C   UNL A   1      44.746  26.992  33.606  1.00  0.00     0.055 A 
ATOM     94  C   UNL A   1      46.997  26.149  33.752  1.00  0.00     0.041 A 
ATOM     95  F   UNL A   1      48.060  25.299  31.851  1.00  0.00    -0.206 F 
ATOM     96  C   UNL A   1      45.888  26.720  34.366  1.00  0.00     0.022 A 
BRANCH  93  97
ATOM     97  S   UNL A   1      43.316  27.764  34.432  1.00  0.00     0.124 S 
ATOM     98  O   UNL A   1      43.894  28.923  35.102  1.00  0.00    -0.237 OA
ATOM     99  O   UNL A   1      42.419  28.051  33.315  1.00  0.00    -0.237 OA
ATOM    100  O   UNL A   1      42.837  26.717  35.337  1.00  0.00    -0.744 OA
ENDBRANCH  93  97
ENDBRANCH  67  90
ENDBRANCH  41  42
ENDBRANCH  34  36
ENDBRANCH  33  34
ENDBRANCH  32  33
ENDBRANCH   1  32
TORSDOF 19
ENDMDL
