MODEL 1
REMARK VINA RESULT:     -11.7      0.000      0.000
REMARK SMILES Cc1cccc(C[N@H+]2CC[C@@](C)(C(=O)OCCOC(=O)c3ccc(-c4c5nc(c(-c6cc(S(=O)(=O)[O-])ccc6F)c6ccc([nH]6)c(-c6cc(S(=O)(=O)[O-])ccc6F)c6nc(c(-c7cc(S(=O)(=O)[O-])ccc7F)c7ccc4[nH]7)C=C6)C=C5)cc3)C2)n1
REMARK SMILES IDX 17 1 16 2 15 3 13 4 14 5 11 6 8 7 9 8 84 9 10 11 12 12 7 13
REMARK SMILES IDX 6 14 1 15 2 16 3 17 85 18 4 19 5 20 18 21 19 22 20 23 21 24
REMARK SMILES IDX 22 25 83 26 23 27 82 28 24 29 25 30 26 31 76 32 27 33 81 34
REMARK SMILES IDX 75 35 77 36 28 37 80 38 74 39 73 40 29 42 61 43 41 44 60 45
REMARK SMILES IDX 42 46 45 47 59 48 78 49 43 50 44 51 58 53 79 54 46 55 30 56
REMARK SMILES IDX 31 57 39 58 32 59 38 60 40 61 37 62 33 63 34 64 35 65 36 66
REMARK SMILES IDX 62 67 63 68 71 69 64 70 70 71 72 72 69 73 65 74 66 75 67 76
REMARK SMILES IDX 68 77 47 78 48 79 56 80 49 81 55 82 57 83 54 84 50 85 51 86
REMARK SMILES IDX 52 87 53 88
REMARK H PARENT 8 10 77 41 45 52
REMARK Flexibility Score: inf
ROOT
ATOM      1  C   UNL A   1      36.350  21.481  24.480  1.00  0.00     0.275 C 
ENDROOT
BRANCH   1   2
ATOM      2  C   UNL A   1      36.115  22.828  23.804  1.00  0.00     0.274 C 
BRANCH   2   3
ATOM      3  O   UNL A   1      34.707  23.142  23.776  1.00  0.00    -0.461 OA
BRANCH   3   4
ATOM      4  C   UNL A   1      34.146  23.588  24.928  1.00  0.00     0.317 C 
ATOM      5  O   UNL A   1      34.682  24.409  25.670  1.00  0.00    -0.251 OA
BRANCH   4   6
ATOM      6  C   UNL A   1      32.792  22.944  25.264  1.00  0.00     0.119 C 
ATOM      7  N   UNL A   1      32.286  20.635  24.867  1.00  0.00    -0.329 N 
ATOM      8  C   UNL A   1      33.269  20.699  25.938  1.00  0.00     0.263 C 
ATOM      9  C   UNL A   1      32.253  21.954  24.216  1.00  0.00     0.281 C 
ATOM     10  H   UNL A   1      31.376  20.427  25.278  1.00  0.00     0.348 HD
ATOM     11  C   UNL A   1      33.000  22.076  26.516  1.00  0.00     0.086 C 
ATOM     12  C   UNL A   1      31.760  24.043  25.530  1.00  0.00     0.030 C 
BRANCH   7  13
ATOM     13  C   UNL A   1      32.431  19.507  23.937  1.00  0.00     0.319 C 
BRANCH  13  14
ATOM     14  C   UNL A   1      33.099  18.260  24.492  1.00  0.00     0.095 A 
ATOM     15  C   UNL A   1      31.879  15.148  26.022  1.00  0.00     0.067 C 
ATOM     16  C   UNL A   1      32.827  16.152  25.445  1.00  0.00     0.038 A 
ATOM     17  C   UNL A   1      34.176  15.864  25.289  1.00  0.00     0.023 A 
ATOM     18  N   UNL A   1      32.299  17.342  25.089  1.00  0.00    -0.252 NA
ATOM     19  C   UNL A   1      35.004  16.826  24.715  1.00  0.00     0.004 A 
ATOM     20  C   UNL A   1      34.460  18.039  24.304  1.00  0.00     0.030 A 
ENDBRANCH  13  14
ENDBRANCH   7  13
ENDBRANCH   4   6
ENDBRANCH   3   4
ENDBRANCH   2   3
ENDBRANCH   1   2
BRANCH   1  21
ATOM     21  O   UNL A   1      36.974  21.710  25.751  1.00  0.00    -0.458 OA
BRANCH  21  22
ATOM     22  C   UNL A   1      38.291  21.416  25.831  1.00  0.00     0.338 C 
ATOM     23  O   UNL A   1      38.840  20.376  25.498  1.00  0.00    -0.246 OA
BRANCH  22  24
ATOM     24  C   UNL A   1      38.999  22.577  26.396  1.00  0.00     0.060 A 
ATOM     25  C   UNL A   1      38.539  23.865  26.130  1.00  0.00     0.016 A 
ATOM     26  C   UNL A   1      40.168  22.390  27.129  1.00  0.00     0.016 A 
ATOM     27  C   UNL A   1      39.286  24.973  26.521  1.00  0.00     0.010 A 
ATOM     28  C   UNL A   1      40.856  23.505  27.620  1.00  0.00     0.010 A 
ATOM     29  C   UNL A   1      40.438  24.811  27.300  1.00  0.00    -0.014 A 
BRANCH  29  30
ATOM     30  C   UNL A   1      41.216  25.995  27.762  1.00  0.00     0.031 A 
ATOM     31  C   UNL A   1      40.550  27.040  28.618  1.00  0.00     0.074 A 
ATOM     32  C   UNL A   1      42.512  26.137  27.416  1.00  0.00     0.049 A 
ATOM     33  N   UNL A   1      40.957  28.244  28.923  1.00  0.00    -0.248 NA
ATOM     34  C   UNL A   1      39.241  26.685  29.188  1.00  0.00     0.031 C 
ATOM     35  C   UNL A   1      43.296  25.172  26.640  1.00  0.00     0.029 A 
ATOM     36  N   UNL A   1      43.404  27.149  27.674  1.00  0.00    -0.354 N 
ATOM     37  C   UNL A   1      39.929  28.816  29.668  1.00  0.00     0.074 A 
ATOM     38  C   UNL A   1      38.879  27.823  29.763  1.00  0.00     0.031 C 
ATOM     39  C   UNL A   1      44.556  25.617  26.522  1.00  0.00     0.029 A 
ATOM     40  C   UNL A   1      44.646  26.944  27.117  1.00  0.00     0.049 A 
ATOM     41  H   UNL A   1      43.178  27.945  28.207  1.00  0.00     0.167 HD
ATOM     42  C   UNL A   1      39.868  30.058  30.211  1.00  0.00     0.034 A 
ATOM     43  C   UNL A   1      45.722  27.752  27.042  1.00  0.00     0.034 A 
ATOM     44  C   UNL A   1      40.948  31.014  30.140  1.00  0.00     0.049 A 
ATOM     45  C   UNL A   1      45.622  29.136  27.627  1.00  0.00     0.074 A 
ATOM     46  C   UNL A   1      40.995  32.306  30.635  1.00  0.00     0.029 A 
ATOM     47  N   UNL A   1      42.183  30.773  29.549  1.00  0.00    -0.354 N 
ATOM     48  N   UNL A   1      44.606  29.703  28.237  1.00  0.00    -0.248 NA
ATOM     49  C   UNL A   1      46.806  29.995  27.499  1.00  0.00     0.031 C 
ATOM     50  C   UNL A   1      42.239  32.859  30.306  1.00  0.00     0.029 A 
ATOM     51  C   UNL A   1      42.992  31.893  29.660  1.00  0.00     0.049 A 
ATOM     52  H   UNL A   1      42.445  29.929  29.114  1.00  0.00     0.167 HD
ATOM     53  C   UNL A   1      45.035  30.983  28.573  1.00  0.00     0.074 A 
ATOM     54  C   UNL A   1      46.407  31.094  28.122  1.00  0.00     0.031 C 
ATOM     55  C   UNL A   1      44.354  31.982  29.191  1.00  0.00     0.034 A 
BRANCH  42  56
ATOM     56  C   UNL A   1      38.572  30.469  30.866  1.00  0.00     0.023 A 
ATOM     57  C   UNL A   1      37.546  31.117  30.157  1.00  0.00     0.031 A 
ATOM     58  C   UNL A   1      38.376  30.235  32.240  1.00  0.00     0.131 A 
ATOM     59  C   UNL A   1      36.400  31.564  30.837  1.00  0.00     0.055 A 
ATOM     60  C   UNL A   1      37.202  30.616  32.894  1.00  0.00     0.041 A 
ATOM     61  F   UNL A   1      39.330  29.639  32.974  1.00  0.00    -0.206 F 
ATOM     62  C   UNL A   1      36.212  31.296  32.195  1.00  0.00     0.022 A 
BRANCH  59  63
ATOM     63  S   UNL A   1      35.215  32.611  29.949  1.00  0.00     0.124 S 
ATOM     64  O   UNL A   1      34.333  33.041  31.031  1.00  0.00    -0.237 OA
ATOM     65  O   UNL A   1      36.072  33.642  29.374  1.00  0.00    -0.237 OA
ATOM     66  O   UNL A   1      34.606  31.697  28.983  1.00  0.00    -0.744 OA
ENDBRANCH  59  63
ENDBRANCH  42  56
BRANCH  43  67
ATOM     67  C   UNL A   1      46.954  27.313  26.324  1.00  0.00     0.023 A 
ATOM     68  C   UNL A   1      47.184  27.678  24.988  1.00  0.00     0.031 A 
ATOM     69  C   UNL A   1      47.904  26.488  26.953  1.00  0.00     0.131 A 
ATOM     70  C   UNL A   1      48.315  27.192  24.314  1.00  0.00     0.055 A 
ATOM     71  C   UNL A   1      49.057  26.054  26.298  1.00  0.00     0.041 A 
ATOM     72  F   UNL A   1      47.733  26.104  28.228  1.00  0.00    -0.206 F 
ATOM     73  C   UNL A   1      49.262  26.395  24.965  1.00  0.00     0.022 A 
BRANCH  70  74
ATOM     74  S   UNL A   1      48.491  27.540  22.543  1.00  0.00     0.124 S 
ATOM     75  O   UNL A   1      48.575  26.197  21.981  1.00  0.00    -0.237 OA
ATOM     76  O   UNL A   1      47.266  28.279  22.258  1.00  0.00    -0.237 OA
ATOM     77  O   UNL A   1      49.722  28.324  22.471  1.00  0.00    -0.744 OA
ENDBRANCH  70  74
ENDBRANCH  43  67
BRANCH  55  78
ATOM     78  C   UNL A   1      45.117  33.256  29.443  1.00  0.00     0.023 A 
ATOM     79  C   UNL A   1      45.090  34.322  28.528  1.00  0.00     0.031 A 
ATOM     80  C   UNL A   1      45.909  33.387  30.597  1.00  0.00     0.131 A 
ATOM     81  C   UNL A   1      45.887  35.453  28.753  1.00  0.00     0.055 A 
ATOM     82  C   UNL A   1      46.660  34.537  30.842  1.00  0.00     0.041 A 
ATOM     83  F   UNL A   1      45.969  32.396  31.501  1.00  0.00    -0.206 F 
ATOM     84  C   UNL A   1      46.662  35.572  29.910  1.00  0.00     0.022 A 
BRANCH  81  85
ATOM     85  S   UNL A   1      45.968  36.732  27.470  1.00  0.00     0.124 S 
ATOM     86  O   UNL A   1      47.028  36.226  26.603  1.00  0.00    -0.237 OA
ATOM     87  O   UNL A   1      44.620  36.700  26.912  1.00  0.00    -0.237 OA
ATOM     88  O   UNL A   1      46.301  37.945  28.214  1.00  0.00    -0.744 OA
ENDBRANCH  81  85
ENDBRANCH  55  78
ENDBRANCH  29  30
ENDBRANCH  22  24
ENDBRANCH  21  22
ENDBRANCH   1  21
TORSDOF 16
ENDMDL
MODEL 2
REMARK VINA RESULT:     -11.7      5.822     10.593
REMARK SMILES Cc1cccc(C[N@H+]2CC[C@@](C)(C(=O)OCCOC(=O)c3ccc(-c4c5nc(c(-c6cc(S(=O)(=O)[O-])ccc6F)c6ccc([nH]6)c(-c6cc(S(=O)(=O)[O-])ccc6F)c6nc(c(-c7cc(S(=O)(=O)[O-])ccc7F)c7ccc4[nH]7)C=C6)C=C5)cc3)C2)n1
REMARK SMILES IDX 17 1 16 2 15 3 13 4 14 5 11 6 8 7 9 8 84 9 10 11 12 12 7 13
REMARK SMILES IDX 6 14 1 15 2 16 3 17 85 18 4 19 5 20 18 21 19 22 20 23 21 24
REMARK SMILES IDX 22 25 83 26 23 27 82 28 24 29 25 30 26 31 76 32 27 33 81 34
REMARK SMILES IDX 75 35 77 36 28 37 80 38 74 39 73 40 29 42 61 43 41 44 60 45
REMARK SMILES IDX 42 46 45 47 59 48 78 49 43 50 44 51 58 53 79 54 46 55 30 56
REMARK SMILES IDX 31 57 39 58 32 59 38 60 40 61 37 62 33 63 34 64 35 65 36 66
REMARK SMILES IDX 62 67 63 68 71 69 64 70 70 71 72 72 69 73 65 74 66 75 67 76
REMARK SMILES IDX 68 77 47 78 48 79 56 80 49 81 55 82 57 83 54 84 50 85 51 86
REMARK SMILES IDX 52 87 53 88
REMARK H PARENT 8 10 77 41 45 52
REMARK Flexibility Score: inf
ROOT
ATOM      1  C   UNL A   1      31.805  30.156  26.655  1.00  0.00     0.275 C 
ENDROOT
BRANCH   1   2
ATOM      2  C   UNL A   1      31.636  28.818  27.368  1.00  0.00     0.274 C 
BRANCH   2   3
ATOM      3  O   UNL A   1      32.701  27.914  27.009  1.00  0.00    -0.461 OA
BRANCH   3   4
ATOM      4  C   UNL A   1      32.351  26.746  26.415  1.00  0.00     0.317 C 
ATOM      5  O   UNL A   1      31.463  26.009  26.838  1.00  0.00    -0.251 OA
BRANCH   4   6
ATOM      6  C   UNL A   1      33.195  26.385  25.182  1.00  0.00     0.119 C 
ATOM      7  N   UNL A   1      32.548  26.905  22.933  1.00  0.00    -0.329 N 
ATOM      8  C   UNL A   1      32.867  28.155  23.607  1.00  0.00     0.263 C 
ATOM      9  C   UNL A   1      32.403  25.869  23.967  1.00  0.00     0.281 C 
ATOM     10  H   UNL A   1      33.321  26.670  22.310  1.00  0.00     0.348 HD
ATOM     11  C   UNL A   1      33.838  27.687  24.674  1.00  0.00     0.086 C 
ATOM     12  C   UNL A   1      34.268  25.368  25.581  1.00  0.00     0.030 C 
BRANCH   7  13
ATOM     13  C   UNL A   1      31.434  26.964  21.977  1.00  0.00     0.319 C 
BRANCH  13  14
ATOM     14  C   UNL A   1      30.208  27.745  22.420  1.00  0.00     0.095 A 
ATOM     15  C   UNL A   1      28.629  30.885  21.341  1.00  0.00     0.067 C 
ATOM     16  C   UNL A   1      28.840  29.599  22.078  1.00  0.00     0.038 A 
ATOM     17  C   UNL A   1      27.889  29.109  22.962  1.00  0.00     0.023 A 
ATOM     18  N   UNL A   1      29.999  28.952  21.836  1.00  0.00    -0.252 NA
ATOM     19  C   UNL A   1      28.126  27.891  23.593  1.00  0.00     0.004 A 
ATOM     20  C   UNL A   1      29.298  27.193  23.316  1.00  0.00     0.030 A 
ENDBRANCH  13  14
ENDBRANCH   7  13
ENDBRANCH   4   6
ENDBRANCH   3   4
ENDBRANCH   2   3
ENDBRANCH   1   2
BRANCH   1  21
ATOM     21  O   UNL A   1      33.206  30.448  26.558  1.00  0.00    -0.458 OA
BRANCH  21  22
ATOM     22  C   UNL A   1      33.652  31.485  27.301  1.00  0.00     0.338 C 
ATOM     23  O   UNL A   1      33.089  32.552  27.499  1.00  0.00    -0.246 OA
BRANCH  22  24
ATOM     24  C   UNL A   1      34.966  31.131  27.864  1.00  0.00     0.060 A 
ATOM     25  C   UNL A   1      35.211  29.823  28.279  1.00  0.00     0.016 A 
ATOM     26  C   UNL A   1      35.933  32.115  28.049  1.00  0.00     0.016 A 
ATOM     27  C   UNL A   1      36.386  29.509  28.957  1.00  0.00     0.010 A 
ATOM     28  C   UNL A   1      37.160  31.773  28.628  1.00  0.00     0.010 A 
ATOM     29  C   UNL A   1      37.391  30.471  29.113  1.00  0.00    -0.014 A 
BRANCH  29  30
ATOM     30  C   UNL A   1      38.671  30.129  29.796  1.00  0.00     0.031 A 
ATOM     31  C   UNL A   1      39.641  29.184  29.138  1.00  0.00     0.074 A 
ATOM     32  C   UNL A   1      38.963  30.659  31.002  1.00  0.00     0.049 A 
ATOM     33  N   UNL A   1      40.678  28.571  29.648  1.00  0.00    -0.248 NA
ATOM     34  C   UNL A   1      39.397  28.874  27.721  1.00  0.00     0.031 C 
ATOM     35  C   UNL A   1      38.140  31.632  31.725  1.00  0.00     0.029 A 
ATOM     36  N   UNL A   1      40.037  30.458  31.834  1.00  0.00    -0.354 N 
ATOM     37  C   UNL A   1      41.173  27.754  28.636  1.00  0.00     0.074 A 
ATOM     38  C   UNL A   1      40.318  27.951  27.483  1.00  0.00     0.031 C 
ATOM     39  C   UNL A   1      38.757  31.972  32.867  1.00  0.00     0.029 A 
ATOM     40  C   UNL A   1      39.962  31.166  33.012  1.00  0.00     0.049 A 
ATOM     41  H   UNL A   1      40.790  29.864  31.610  1.00  0.00     0.167 HD
ATOM     42  C   UNL A   1      42.237  26.913  28.672  1.00  0.00     0.034 A 
ATOM     43  C   UNL A   1      40.741  31.132  34.111  1.00  0.00     0.034 A 
ATOM     44  C   UNL A   1      43.101  26.769  29.820  1.00  0.00     0.049 A 
ATOM     45  C   UNL A   1      41.900  30.171  34.141  1.00  0.00     0.074 A 
ATOM     46  C   UNL A   1      44.196  25.937  29.981  1.00  0.00     0.029 A 
ATOM     47  N   UNL A   1      42.977  27.491  31.001  1.00  0.00    -0.354 N 
ATOM     48  N   UNL A   1      42.296  29.327  33.215  1.00  0.00    -0.248 NA
ATOM     49  C   UNL A   1      42.706  30.145  35.368  1.00  0.00     0.031 C 
ATOM     50  C   UNL A   1      44.707  26.125  31.272  1.00  0.00     0.029 A 
ATOM     51  C   UNL A   1      43.969  27.118  31.896  1.00  0.00     0.049 A 
ATOM     52  H   UNL A   1      42.286  28.170  31.178  1.00  0.00     0.167 HD
ATOM     53  C   UNL A   1      43.404  28.677  33.748  1.00  0.00     0.074 A 
ATOM     54  C   UNL A   1      43.628  29.244  35.062  1.00  0.00     0.031 C 
ATOM     55  C   UNL A   1      44.165  27.692  33.205  1.00  0.00     0.034 A 
BRANCH  42  56
ATOM     56  C   UNL A   1      42.479  26.043  27.463  1.00  0.00     0.023 A 
ATOM     57  C   UNL A   1      42.021  24.716  27.390  1.00  0.00     0.031 A 
ATOM     58  C   UNL A   1      43.214  26.545  26.373  1.00  0.00     0.131 A 
ATOM     59  C   UNL A   1      42.356  23.919  26.282  1.00  0.00     0.055 A 
ATOM     60  C   UNL A   1      43.481  25.771  25.242  1.00  0.00     0.041 A 
ATOM     61  F   UNL A   1      43.696  27.798  26.395  1.00  0.00    -0.206 F 
ATOM     62  C   UNL A   1      43.063  24.446  25.198  1.00  0.00     0.022 A 
BRANCH  59  63
ATOM     63  S   UNL A   1      41.966  22.149  26.333  1.00  0.00     0.124 S 
ATOM     64  O   UNL A   1      42.832  21.626  25.280  1.00  0.00    -0.237 OA
ATOM     65  O   UNL A   1      42.327  21.785  27.698  1.00  0.00    -0.237 OA
ATOM     66  O   UNL A   1      40.535  22.105  26.034  1.00  0.00    -0.744 OA
ENDBRANCH  59  63
ENDBRANCH  42  56
BRANCH  43  67
ATOM     67  C   UNL A   1      40.412  31.970  35.302  1.00  0.00     0.023 A 
ATOM     68  C   UNL A   1      39.403  31.590  36.200  1.00  0.00     0.031 A 
ATOM     69  C   UNL A   1      41.080  33.186  35.539  1.00  0.00     0.131 A 
ATOM     70  C   UNL A   1      39.065  32.433  37.271  1.00  0.00     0.055 A 
ATOM     71  C   UNL A   1      40.781  33.993  36.637  1.00  0.00     0.041 A 
ATOM     72  F   UNL A   1      42.051  33.601  34.709  1.00  0.00    -0.206 F 
ATOM     73  C   UNL A   1      39.759  33.624  37.505  1.00  0.00     0.022 A 
BRANCH  70  74
ATOM     74  S   UNL A   1      37.643  31.996  38.308  1.00  0.00     0.124 S 
ATOM     75  O   UNL A   1      37.350  30.640  37.859  1.00  0.00    -0.237 OA
ATOM     76  O   UNL A   1      38.200  32.120  39.651  1.00  0.00    -0.237 OA
ATOM     77  O   UNL A   1      36.643  33.000  37.955  1.00  0.00    -0.744 OA
ENDBRANCH  70  74
ENDBRANCH  43  67
BRANCH  55  78
ATOM     78  C   UNL A   1      45.329  27.212  34.031  1.00  0.00     0.023 A 
ATOM     79  C   UNL A   1      45.203  26.133  34.923  1.00  0.00     0.031 A 
ATOM     80  C   UNL A   1      46.569  27.869  33.949  1.00  0.00     0.131 A 
ATOM     81  C   UNL A   1      46.284  25.778  35.742  1.00  0.00     0.055 A 
ATOM     82  C   UNL A   1      47.657  27.477  34.730  1.00  0.00     0.041 A 
ATOM     83  F   UNL A   1      46.739  28.906  33.113  1.00  0.00    -0.206 F 
ATOM     84  C   UNL A   1      47.513  26.435  35.642  1.00  0.00     0.022 A 
BRANCH  81  85
ATOM     85  S   UNL A   1      46.036  24.501  37.005  1.00  0.00     0.124 S 
ATOM     86  O   UNL A   1      45.102  23.595  36.344  1.00  0.00    -0.237 OA
ATOM     87  O   UNL A   1      47.389  23.990  37.202  1.00  0.00    -0.237 OA
ATOM     88  O   UNL A   1      45.485  25.242  38.139  1.00  0.00    -0.744 OA
ENDBRANCH  81  85
ENDBRANCH  55  78
ENDBRANCH  29  30
ENDBRANCH  22  24
ENDBRANCH  21  22
ENDBRANCH   1  21
TORSDOF 16
ENDMDL
MODEL 3
REMARK VINA RESULT:     -11.6      6.093     10.975
REMARK SMILES Cc1cccc(C[N@H+]2CC[C@@](C)(C(=O)OCCOC(=O)c3ccc(-c4c5nc(c(-c6cc(S(=O)(=O)[O-])ccc6F)c6ccc([nH]6)c(-c6cc(S(=O)(=O)[O-])ccc6F)c6nc(c(-c7cc(S(=O)(=O)[O-])ccc7F)c7ccc4[nH]7)C=C6)C=C5)cc3)C2)n1
REMARK SMILES IDX 17 1 16 2 15 3 13 4 14 5 11 6 8 7 9 8 84 9 10 11 12 12 7 13
REMARK SMILES IDX 6 14 1 15 2 16 3 17 85 18 4 19 5 20 18 21 19 22 20 23 21 24
REMARK SMILES IDX 22 25 83 26 23 27 82 28 24 29 25 30 26 31 76 32 27 33 81 34
REMARK SMILES IDX 75 35 77 36 28 37 80 38 74 39 73 40 29 42 61 43 41 44 60 45
REMARK SMILES IDX 42 46 45 47 59 48 78 49 43 50 44 51 58 53 79 54 46 55 30 56
REMARK SMILES IDX 31 57 39 58 32 59 38 60 40 61 37 62 33 63 34 64 35 65 36 66
REMARK SMILES IDX 62 67 63 68 71 69 64 70 70 71 72 72 69 73 65 74 66 75 67 76
REMARK SMILES IDX 68 77 47 78 48 79 56 80 49 81 55 82 57 83 54 84 50 85 51 86
REMARK SMILES IDX 52 87 53 88
REMARK H PARENT 8 10 77 41 45 52
REMARK Flexibility Score: inf
ROOT
ATOM      1  C   UNL A   1      31.718  29.722  25.976  1.00  0.00     0.275 C 
ENDROOT
BRANCH   1   2
ATOM      2  C   UNL A   1      31.748  28.320  26.575  1.00  0.00     0.274 C 
BRANCH   2   3
ATOM      3  O   UNL A   1      31.767  27.323  25.533  1.00  0.00    -0.461 OA
BRANCH   3   4
ATOM      4  C   UNL A   1      30.714  26.468  25.470  1.00  0.00     0.317 C 
ATOM      5  O   UNL A   1      30.252  25.891  26.451  1.00  0.00    -0.251 OA
BRANCH   4   6
ATOM      6  C   UNL A   1      30.168  26.239  24.053  1.00  0.00     0.119 C 
ATOM      7  N   UNL A   1      28.808  27.827  22.881  1.00  0.00    -0.329 N 
ATOM      8  C   UNL A   1      30.150  28.381  22.989  1.00  0.00     0.263 C 
ATOM      9  C   UNL A   1      28.718  26.698  23.821  1.00  0.00     0.281 C 
ATOM     10  H   UNL A   1      28.672  27.496  21.925  1.00  0.00     0.348 HD
ATOM     11  C   UNL A   1      30.990  27.123  23.100  1.00  0.00     0.086 C 
ATOM     12  C   UNL A   1      30.317  24.759  23.686  1.00  0.00     0.030 C 
BRANCH   7  13
ATOM     13  C   UNL A   1      27.709  28.795  22.993  1.00  0.00     0.319 C 
BRANCH  13  14
ATOM     14  C   UNL A   1      28.051  30.240  22.670  1.00  0.00     0.095 A 
ATOM     15  C   UNL A   1      27.877  32.310  19.637  1.00  0.00     0.067 C 
ATOM     16  C   UNL A   1      28.082  31.934  21.071  1.00  0.00     0.038 A 
ATOM     17  C   UNL A   1      28.393  32.887  22.030  1.00  0.00     0.023 A 
ATOM     18  N   UNL A   1      27.949  30.625  21.373  1.00  0.00    -0.252 NA
ATOM     19  C   UNL A   1      28.539  32.482  23.354  1.00  0.00     0.004 A 
ATOM     20  C   UNL A   1      28.360  31.142  23.683  1.00  0.00     0.030 A 
ENDBRANCH  13  14
ENDBRANCH   7  13
ENDBRANCH   4   6
ENDBRANCH   3   4
ENDBRANCH   2   3
ENDBRANCH   1   2
BRANCH   1  21
ATOM     21  O   UNL A   1      33.046  30.262  26.011  1.00  0.00    -0.458 OA
BRANCH  21  22
ATOM     22  C   UNL A   1      33.265  31.250  26.907  1.00  0.00     0.338 C 
ATOM     23  O   UNL A   1      32.539  32.202  27.153  1.00  0.00    -0.246 OA
BRANCH  22  24
ATOM     24  C   UNL A   1      34.554  31.003  27.576  1.00  0.00     0.060 A 
ATOM     25  C   UNL A   1      34.872  29.717  28.011  1.00  0.00     0.016 A 
ATOM     26  C   UNL A   1      35.416  32.064  27.839  1.00  0.00     0.016 A 
ATOM     27  C   UNL A   1      36.010  29.499  28.783  1.00  0.00     0.010 A 
ATOM     28  C   UNL A   1      36.616  31.821  28.516  1.00  0.00     0.010 A 
ATOM     29  C   UNL A   1      36.916  30.540  29.019  1.00  0.00    -0.014 A 
BRANCH  29  30
ATOM     30  C   UNL A   1      38.159  30.302  29.805  1.00  0.00     0.031 A 
ATOM     31  C   UNL A   1      39.239  29.414  29.245  1.00  0.00     0.074 A 
ATOM     32  C   UNL A   1      38.322  30.874  31.016  1.00  0.00     0.049 A 
ATOM     33  N   UNL A   1      40.273  28.886  29.846  1.00  0.00    -0.248 NA
ATOM     34  C   UNL A   1      39.126  29.061  27.822  1.00  0.00     0.031 C 
ATOM     35  C   UNL A   1      37.381  31.802  31.650  1.00  0.00     0.029 A 
ATOM     36  N   UNL A   1      39.340  30.765  31.931  1.00  0.00    -0.354 N 
ATOM     37  C   UNL A   1      40.899  28.086  28.894  1.00  0.00     0.074 A 
ATOM     38  C   UNL A   1      40.123  28.199  27.677  1.00  0.00     0.031 C 
ATOM     39  C   UNL A   1      37.884  32.206  32.827  1.00  0.00     0.029 A 
ATOM     40  C   UNL A   1      39.127  31.489  33.082  1.00  0.00     0.049 A 
ATOM     41  H   UNL A   1      40.146  30.221  31.778  1.00  0.00     0.167 HD
ATOM     42  C   UNL A   1      42.012  27.322  29.032  1.00  0.00     0.034 A 
ATOM     43  C   UNL A   1      39.820  31.532  34.237  1.00  0.00     0.034 A 
ATOM     44  C   UNL A   1      42.794  27.261  30.244  1.00  0.00     0.049 A 
ATOM     45  C   UNL A   1      41.036  30.655  34.377  1.00  0.00     0.074 A 
ATOM     46  C   UNL A   1      43.927  26.511  30.508  1.00  0.00     0.029 A 
ATOM     47  N   UNL A   1      42.531  27.996  31.394  1.00  0.00    -0.354 N 
ATOM     48  N   UNL A   1      41.558  29.822  33.505  1.00  0.00    -0.248 NA
ATOM     49  C   UNL A   1      41.746  30.709  35.661  1.00  0.00     0.031 C 
ATOM     50  C   UNL A   1      44.324  26.759  31.828  1.00  0.00     0.029 A 
ATOM     51  C   UNL A   1      43.474  27.710  32.370  1.00  0.00     0.049 A 
ATOM     52  H   UNL A   1      41.784  28.628  31.502  1.00  0.00     0.167 HD
ATOM     53  C   UNL A   1      42.664  29.261  34.135  1.00  0.00     0.074 A 
ATOM     54  C   UNL A   1      42.748  29.869  35.448  1.00  0.00     0.031 C 
ATOM     55  C   UNL A   1      43.529  28.322  33.675  1.00  0.00     0.034 A 
BRANCH  42  56
ATOM     56  C   UNL A   1      42.405  26.447  27.866  1.00  0.00     0.023 A 
ATOM     57  C   UNL A   1      42.104  25.075  27.823  1.00  0.00     0.031 A 
ATOM     58  C   UNL A   1      43.126  26.996  26.789  1.00  0.00     0.131 A 
ATOM     59  C   UNL A   1      42.576  24.287  26.760  1.00  0.00     0.055 A 
ATOM     60  C   UNL A   1      43.529  26.222  25.699  1.00  0.00     0.041 A 
ATOM     61  F   UNL A   1      43.462  28.296  26.785  1.00  0.00    -0.206 F 
ATOM     62  C   UNL A   1      43.267  24.857  25.687  1.00  0.00     0.022 A 
BRANCH  59  63
ATOM     63  S   UNL A   1      42.386  22.487  26.860  1.00  0.00     0.124 S 
ATOM     64  O   UNL A   1      41.231  22.263  25.993  1.00  0.00    -0.237 OA
ATOM     65  O   UNL A   1      43.667  22.005  26.355  1.00  0.00    -0.237 OA
ATOM     66  O   UNL A   1      42.146  22.245  28.282  1.00  0.00    -0.744 OA
ENDBRANCH  59  63
ENDBRANCH  42  56
BRANCH  43  67
ATOM     67  C   UNL A   1      39.344  32.368  35.378  1.00  0.00     0.023 A 
ATOM     68  C   UNL A   1      39.788  33.689  35.544  1.00  0.00     0.031 A 
ATOM     69  C   UNL A   1      38.465  31.842  36.344  1.00  0.00     0.131 A 
ATOM     70  C   UNL A   1      39.381  34.428  36.666  1.00  0.00     0.055 A 
ATOM     71  C   UNL A   1      38.018  32.600  37.427  1.00  0.00     0.041 A 
ATOM     72  F   UNL A   1      38.014  30.583  36.238  1.00  0.00    -0.206 F 
ATOM     73  C   UNL A   1      38.486  33.898  37.600  1.00  0.00     0.022 A 
BRANCH  70  74
ATOM     74  S   UNL A   1      40.108  36.067  36.939  1.00  0.00     0.124 S 
ATOM     75  O   UNL A   1      41.511  35.738  37.163  1.00  0.00    -0.237 OA
ATOM     76  O   UNL A   1      39.801  36.747  35.685  1.00  0.00    -0.237 OA
ATOM     77  O   UNL A   1      39.390  36.567  38.109  1.00  0.00    -0.744 OA
ENDBRANCH  70  74
ENDBRANCH  43  67
BRANCH  55  78
ATOM     78  C   UNL A   1      44.657  27.941  34.598  1.00  0.00     0.023 A 
ATOM     79  C   UNL A   1      44.549  26.853  35.481  1.00  0.00     0.031 A 
ATOM     80  C   UNL A   1      45.839  28.702  34.618  1.00  0.00     0.131 A 
ATOM     81  C   UNL A   1      45.584  26.588  36.389  1.00  0.00     0.055 A 
ATOM     82  C   UNL A   1      46.887  28.402  35.489  1.00  0.00     0.041 A 
ATOM     83  F   UNL A   1      45.989  29.752  33.795  1.00  0.00    -0.206 F 
ATOM     84  C   UNL A   1      46.757  27.349  36.390  1.00  0.00     0.022 A 
BRANCH  81  85
ATOM     85  S   UNL A   1      45.341  25.292  37.633  1.00  0.00     0.124 S 
ATOM     86  O   UNL A   1      44.161  25.771  38.346  1.00  0.00    -0.237 OA
ATOM     87  O   UNL A   1      45.149  24.102  36.810  1.00  0.00    -0.237 OA
ATOM     88  O   UNL A   1      46.583  25.316  38.403  1.00  0.00    -0.744 OA
ENDBRANCH  81  85
ENDBRANCH  55  78
ENDBRANCH  29  30
ENDBRANCH  22  24
ENDBRANCH  21  22
ENDBRANCH   1  21
TORSDOF 16
ENDMDL
