MODEL 1
REMARK VINA RESULT:     -11.2      0.000      0.000
REMARK SMILES O=C(OCCOC(=O)c1ccc(-c2c3nc(c(-c4cc(S(=O)(=O)[O-])ccc4F)c4ccc([nH]4)c(-c4cc(S(=O)(=O)[O-])ccc4F)c4nc(c(-c5cc(S(=O)(=O)[O-])ccc5F)c5ccc2[nH]5)C=C4)C=C3)cc1)c1ccc(N[C@H]2OC[C@@H](O)[C@@H](O)[C@H]2O)cc1
REMARK SMILES IDX 4 1 3 2 2 3 1 4 72 5 73 6 87 7 74 8 86 9 75 10 76 11 77 13
REMARK SMILES IDX 78 14 84 15 79 16 82 17 80 18 85 19 83 21 81 23 5 25 6 26
REMARK SMILES IDX 7 27 8 28 9 29 10 30 71 31 11 32 70 33 12 34 13 35 14 36
REMARK SMILES IDX 64 37 15 38 69 39 63 40 65 41 16 42 68 43 62 44 61 45 17 47
REMARK SMILES IDX 49 48 29 49 48 50 30 51 33 52 47 53 66 54 31 55 32 56 46 58
REMARK SMILES IDX 67 59 34 60 18 61 19 62 27 63 20 64 26 65 28 66 25 67 21 68
REMARK SMILES IDX 22 69 23 70 24 71 50 72 51 73 59 74 52 75 58 76 60 77 57 78
REMARK SMILES IDX 53 79 54 80 55 81 56 82 35 83 36 84 44 85 37 86 43 87 45 88
REMARK SMILES IDX 42 89 38 90 39 91 40 92 41 93
REMARK H PARENT 76 12 85 20 83 22 81 24 65 46 33 57
REMARK Flexibility Score: inf
ROOT
ATOM      1  C   UNL A   1      42.644  20.977  25.955  1.00  0.00     0.275 C 
ENDROOT
BRANCH   1   2
ATOM      2  O   UNL A   1      41.308  21.429  25.677  1.00  0.00    -0.458 OA
BRANCH   2   3
ATOM      3  C   UNL A   1      40.269  21.641  26.518  1.00  0.00     0.338 C 
ATOM      4  O   UNL A   1      40.381  21.240  27.676  1.00  0.00    -0.246 OA
BRANCH   3   5
ATOM      5  C   UNL A   1      38.947  22.235  26.111  1.00  0.00     0.060 A 
ATOM      6  C   UNL A   1      38.455  23.496  26.439  1.00  0.00     0.018 A 
ATOM      7  C   UNL A   1      38.146  21.455  25.263  1.00  0.00     0.018 A 
ATOM      8  C   UNL A   1      37.305  24.017  25.828  1.00  0.00     0.026 A 
ATOM      9  C   UNL A   1      36.970  21.966  24.693  1.00  0.00     0.026 A 
ATOM     10  C   UNL A   1      36.588  23.293  24.882  1.00  0.00     0.036 A 
BRANCH  10  11
ATOM     11  N   UNL A   1      35.545  23.822  24.144  1.00  0.00    -0.358 N 
ATOM     12  H   UNL A   1      35.740  24.571  23.536  1.00  0.00     0.163 HD
BRANCH  11  13
ATOM     13  C   UNL A   1      34.179  23.336  24.216  1.00  0.00     0.244 C 
ATOM     14  O   UNL A   1      33.297  24.393  24.610  1.00  0.00    -0.353 OA
ATOM     15  C   UNL A   1      33.703  22.772  22.859  1.00  0.00     0.195 C 
ATOM     16  C   UNL A   1      31.959  23.943  24.851  1.00  0.00     0.197 C 
ATOM     17  C   UNL A   1      32.313  22.164  23.103  1.00  0.00     0.178 C 
ATOM     18  C   UNL A   1      31.343  23.230  23.642  1.00  0.00     0.171 C 
BRANCH  15  19
ATOM     19  O   UNL A   1      33.560  23.807  21.861  1.00  0.00    -0.386 OA
ATOM     20  H   UNL A   1      34.328  24.397  21.897  1.00  0.00     0.211 HD
ENDBRANCH  15  19
BRANCH  17  21
ATOM     21  O   UNL A   1      31.797  21.582  21.905  1.00  0.00    -0.387 OA
ATOM     22  H   UNL A   1      30.952  21.146  22.096  1.00  0.00     0.211 HD
ENDBRANCH  17  21
BRANCH  18  23
ATOM     23  O   UNL A   1      31.027  24.195  22.630  1.00  0.00    -0.388 OA
ATOM     24  H   UNL A   1      30.483  23.778  21.944  1.00  0.00     0.211 HD
ENDBRANCH  18  23
ENDBRANCH  11  13
ENDBRANCH  10  11
ENDBRANCH   3   5
ENDBRANCH   2   3
ENDBRANCH   1   2
BRANCH   1  25
ATOM     25  C   UNL A   1      43.719  21.845  25.289  1.00  0.00     0.275 C 
BRANCH  25  26
ATOM     26  O   UNL A   1      43.195  23.080  24.771  1.00  0.00    -0.458 OA
BRANCH  26  27
ATOM     27  C   UNL A   1      44.014  24.162  24.904  1.00  0.00     0.338 C 
ATOM     28  O   UNL A   1      44.937  24.447  24.169  1.00  0.00    -0.246 OA
BRANCH  27  29
ATOM     29  C   UNL A   1      43.543  25.043  26.007  1.00  0.00     0.060 A 
ATOM     30  C   UNL A   1      42.495  24.579  26.813  1.00  0.00     0.016 A 
ATOM     31  C   UNL A   1      44.103  26.296  26.266  1.00  0.00     0.016 A 
ATOM     32  C   UNL A   1      42.010  25.359  27.873  1.00  0.00     0.010 A 
ATOM     33  C   UNL A   1      43.619  27.072  27.332  1.00  0.00     0.010 A 
ATOM     34  C   UNL A   1      42.568  26.615  28.146  1.00  0.00    -0.014 A 
BRANCH  34  35
ATOM     35  C   UNL A   1      42.054  27.470  29.258  1.00  0.00     0.031 A 
ATOM     36  C   UNL A   1      42.693  27.406  30.617  1.00  0.00     0.074 A 
ATOM     37  C   UNL A   1      40.992  28.281  29.080  1.00  0.00     0.049 A 
ATOM     38  N   UNL A   1      42.355  28.038  31.712  1.00  0.00    -0.248 NA
ATOM     39  C   UNL A   1      43.872  26.541  30.755  1.00  0.00     0.031 C 
ATOM     40  C   UNL A   1      40.325  28.516  27.806  1.00  0.00     0.029 A 
ATOM     41  N   UNL A   1      40.271  29.042  29.970  1.00  0.00    -0.354 N 
ATOM     42  C   UNL A   1      43.293  27.667  32.668  1.00  0.00     0.074 A 
ATOM     43  C   UNL A   1      44.182  26.716  32.033  1.00  0.00     0.031 C 
ATOM     44  C   UNL A   1      39.247  29.294  28.002  1.00  0.00     0.029 A 
ATOM     45  C   UNL A   1      39.152  29.627  29.420  1.00  0.00     0.049 A 
ATOM     46  H   UNL A   1      40.530  29.158  30.912  1.00  0.00     0.167 HD
ATOM     47  C   UNL A   1      43.415  28.098  33.947  1.00  0.00     0.034 A 
ATOM     48  C   UNL A   1      38.154  30.339  29.987  1.00  0.00     0.034 A 
ATOM     49  C   UNL A   1      42.531  29.044  34.582  1.00  0.00     0.049 A 
ATOM     50  C   UNL A   1      38.231  30.682  31.456  1.00  0.00     0.074 A 
ATOM     51  C   UNL A   1      42.635  29.602  35.846  1.00  0.00     0.029 A 
ATOM     52  N   UNL A   1      41.365  29.548  34.025  1.00  0.00    -0.354 N 
ATOM     53  N   UNL A   1      39.179  30.393  32.317  1.00  0.00    -0.248 NA
ATOM     54  C   UNL A   1      37.124  31.467  32.022  1.00  0.00     0.031 C 
ATOM     55  C   UNL A   1      41.492  30.370  36.085  1.00  0.00     0.029 A 
ATOM     56  C   UNL A   1      40.709  30.356  34.944  1.00  0.00     0.049 A 
ATOM     57  H   UNL A   1      41.049  29.361  33.112  1.00  0.00     0.167 HD
ATOM     58  C   UNL A   1      38.802  31.005  33.512  1.00  0.00     0.074 A 
ATOM     59  C   UNL A   1      37.546  31.677  33.260  1.00  0.00     0.031 C 
ATOM     60  C   UNL A   1      39.449  31.018  34.704  1.00  0.00     0.034 A 
BRANCH  47  61
ATOM     61  C   UNL A   1      44.539  27.527  34.769  1.00  0.00     0.023 A 
ATOM     62  C   UNL A   1      44.425  26.284  35.414  1.00  0.00     0.031 A 
ATOM     63  C   UNL A   1      45.755  28.225  34.879  1.00  0.00     0.131 A 
ATOM     64  C   UNL A   1      45.496  25.794  36.175  1.00  0.00     0.055 A 
ATOM     65  C   UNL A   1      46.837  27.704  35.588  1.00  0.00     0.041 A 
ATOM     66  F   UNL A   1      45.908  29.423  34.295  1.00  0.00    -0.206 F 
ATOM     67  C   UNL A   1      46.709  26.485  36.247  1.00  0.00     0.022 A 
BRANCH  64  68
ATOM     68  S   UNL A   1      45.255  24.279  37.141  1.00  0.00     0.124 S 
ATOM     69  O   UNL A   1      46.632  23.899  37.446  1.00  0.00    -0.237 OA
ATOM     70  O   UNL A   1      44.457  24.747  38.269  1.00  0.00    -0.237 OA
ATOM     71  O   UNL A   1      44.561  23.388  36.215  1.00  0.00    -0.744 OA
ENDBRANCH  64  68
ENDBRANCH  47  61
BRANCH  48  72
ATOM     72  C   UNL A   1      36.956  30.740  29.192  1.00  0.00     0.023 A 
ATOM     73  C   UNL A   1      36.054  29.784  28.698  1.00  0.00     0.031 A 
ATOM     74  C   UNL A   1      36.766  32.083  28.817  1.00  0.00     0.131 A 
ATOM     75  C   UNL A   1      35.050  30.173  27.797  1.00  0.00     0.055 A 
ATOM     76  C   UNL A   1      35.733  32.472  27.964  1.00  0.00     0.041 A 
ATOM     77  F   UNL A   1      37.596  33.039  29.272  1.00  0.00    -0.206 F 
ATOM     78  C   UNL A   1      34.880  31.510  27.431  1.00  0.00     0.022 A 
BRANCH  75  79
ATOM     79  S   UNL A   1      34.049  28.882  27.006  1.00  0.00     0.124 S 
ATOM     80  O   UNL A   1      35.026  27.812  26.839  1.00  0.00    -0.237 OA
ATOM     81  O   UNL A   1      33.011  28.655  28.005  1.00  0.00    -0.237 OA
ATOM     82  O   UNL A   1      33.597  29.515  25.769  1.00  0.00    -0.744 OA
ENDBRANCH  75  79
ENDBRANCH  48  72
BRANCH  60  83
ATOM     83  C   UNL A   1      38.828  31.818  35.823  1.00  0.00     0.023 A 
ATOM     84  C   UNL A   1      38.149  31.200  36.887  1.00  0.00     0.031 A 
ATOM     85  C   UNL A   1      38.916  33.223  35.824  1.00  0.00     0.131 A 
ATOM     86  C   UNL A   1      37.547  31.984  37.884  1.00  0.00     0.055 A 
ATOM     87  C   UNL A   1      38.365  33.995  36.849  1.00  0.00     0.041 A 
ATOM     88  F   UNL A   1      39.547  33.869  34.830  1.00  0.00    -0.206 F 
ATOM     89  C   UNL A   1      37.668  33.376  37.882  1.00  0.00     0.022 A 
BRANCH  86  90
ATOM     90  S   UNL A   1      36.545  31.164  39.155  1.00  0.00     0.124 S 
ATOM     91  O   UNL A   1      37.452  31.157  40.298  1.00  0.00    -0.237 OA
ATOM     92  O   UNL A   1      35.390  32.048  39.263  1.00  0.00    -0.237 OA
ATOM     93  O   UNL A   1      36.266  29.850  38.578  1.00  0.00    -0.744 OA
ENDBRANCH  86  90
ENDBRANCH  60  83
ENDBRANCH  34  35
ENDBRANCH  27  29
ENDBRANCH  26  27
ENDBRANCH  25  26
ENDBRANCH   1  25
TORSDOF 19
ENDMDL
MODEL 2
REMARK VINA RESULT:     -11.0      5.164      9.355
REMARK SMILES O=C(OCCOC(=O)c1ccc(-c2c3nc(c(-c4cc(S(=O)(=O)[O-])ccc4F)c4ccc([nH]4)c(-c4cc(S(=O)(=O)[O-])ccc4F)c4nc(c(-c5cc(S(=O)(=O)[O-])ccc5F)c5ccc2[nH]5)C=C4)C=C3)cc1)c1ccc(N[C@H]2OC[C@@H](O)[C@@H](O)[C@H]2O)cc1
REMARK SMILES IDX 4 1 3 2 2 3 1 4 72 5 73 6 87 7 74 8 86 9 75 10 76 11 77 13
REMARK SMILES IDX 78 14 84 15 79 16 82 17 80 18 85 19 83 21 81 23 5 25 6 26
REMARK SMILES IDX 7 27 8 28 9 29 10 30 71 31 11 32 70 33 12 34 13 35 14 36
REMARK SMILES IDX 64 37 15 38 69 39 63 40 65 41 16 42 68 43 62 44 61 45 17 47
REMARK SMILES IDX 49 48 29 49 48 50 30 51 33 52 47 53 66 54 31 55 32 56 46 58
REMARK SMILES IDX 67 59 34 60 18 61 19 62 27 63 20 64 26 65 28 66 25 67 21 68
REMARK SMILES IDX 22 69 23 70 24 71 50 72 51 73 59 74 52 75 58 76 60 77 57 78
REMARK SMILES IDX 53 79 54 80 55 81 56 82 35 83 36 84 44 85 37 86 43 87 45 88
REMARK SMILES IDX 42 89 38 90 39 91 40 92 41 93
REMARK H PARENT 76 12 85 20 83 22 81 24 65 46 33 57
REMARK Flexibility Score: inf
ROOT
ATOM      1  C   UNL A   1      35.367  21.131  25.004  1.00  0.00     0.275 C 
ENDROOT
BRANCH   1   2
ATOM      2  O   UNL A   1      34.525  20.018  24.660  1.00  0.00    -0.458 OA
BRANCH   2   3
ATOM      3  C   UNL A   1      33.196  19.978  24.407  1.00  0.00     0.338 C 
ATOM      4  O   UNL A   1      32.690  18.878  24.184  1.00  0.00    -0.246 OA
BRANCH   3   5
ATOM      5  C   UNL A   1      32.314  21.190  24.272  1.00  0.00     0.060 A 
ATOM      6  C   UNL A   1      31.687  21.892  25.299  1.00  0.00     0.018 A 
ATOM      7  C   UNL A   1      32.150  21.703  22.976  1.00  0.00     0.018 A 
ATOM      8  C   UNL A   1      31.064  23.127  25.070  1.00  0.00     0.026 A 
ATOM      9  C   UNL A   1      31.483  22.917  22.750  1.00  0.00     0.026 A 
ATOM     10  C   UNL A   1      31.023  23.702  23.805  1.00  0.00     0.036 A 
BRANCH  10  11
ATOM     11  N   UNL A   1      30.560  24.982  23.562  1.00  0.00    -0.358 N 
ATOM     12  H   UNL A   1      29.620  25.092  23.291  1.00  0.00     0.163 HD
BRANCH  11  13
ATOM     13  C   UNL A   1      31.381  26.173  23.685  1.00  0.00     0.244 C 
ATOM     14  O   UNL A   1      32.766  25.835  23.563  1.00  0.00    -0.353 OA
ATOM     15  C   UNL A   1      31.029  27.221  22.605  1.00  0.00     0.195 C 
ATOM     16  C   UNL A   1      33.637  26.940  23.829  1.00  0.00     0.197 C 
ATOM     17  C   UNL A   1      31.855  28.476  22.930  1.00  0.00     0.178 C 
ATOM     18  C   UNL A   1      33.358  28.149  22.930  1.00  0.00     0.171 C 
BRANCH  15  19
ATOM     19  O   UNL A   1      31.402  26.781  21.280  1.00  0.00    -0.386 OA
ATOM     20  H   UNL A   1      31.254  25.826  21.204  1.00  0.00     0.211 HD
ENDBRANCH  15  19
BRANCH  17  21
ATOM     21  O   UNL A   1      31.573  29.523  22.000  1.00  0.00    -0.387 OA
ATOM     22  H   UNL A   1      32.179  29.456  21.246  1.00  0.00     0.211 HD
ENDBRANCH  17  21
BRANCH  18  23
ATOM     23  O   UNL A   1      33.824  27.872  21.602  1.00  0.00    -0.388 OA
ATOM     24  H   UNL A   1      34.659  27.383  21.648  1.00  0.00     0.211 HD
ENDBRANCH  18  23
ENDBRANCH  11  13
ENDBRANCH  10  11
ENDBRANCH   3   5
ENDBRANCH   2   3
ENDBRANCH   1   2
BRANCH   1  25
ATOM     25  C   UNL A   1      36.857  20.766  25.036  1.00  0.00     0.275 C 
BRANCH  25  26
ATOM     26  O   UNL A   1      37.558  21.390  26.126  1.00  0.00    -0.458 OA
BRANCH  26  27
ATOM     27  C   UNL A   1      38.910  21.211  26.127  1.00  0.00     0.338 C 
ATOM     28  O   UNL A   1      39.497  20.234  25.709  1.00  0.00    -0.246 OA
BRANCH  27  29
ATOM     29  C   UNL A   1      39.602  22.444  26.593  1.00  0.00     0.060 A 
ATOM     30  C   UNL A   1      39.153  23.674  26.092  1.00  0.00     0.016 A 
ATOM     31  C   UNL A   1      40.664  22.419  27.499  1.00  0.00     0.016 A 
ATOM     32  C   UNL A   1      39.759  24.873  26.497  1.00  0.00     0.010 A 
ATOM     33  C   UNL A   1      41.265  23.622  27.905  1.00  0.00     0.010 A 
ATOM     34  C   UNL A   1      40.822  24.861  27.410  1.00  0.00    -0.014 A 
BRANCH  34  35
ATOM     35  C   UNL A   1      41.494  26.124  27.839  1.00  0.00     0.031 A 
ATOM     36  C   UNL A   1      40.696  27.222  28.484  1.00  0.00     0.074 A 
ATOM     37  C   UNL A   1      42.810  26.321  27.624  1.00  0.00     0.049 A 
ATOM     38  N   UNL A   1      41.098  28.404  28.879  1.00  0.00    -0.248 NA
ATOM     39  C   UNL A   1      39.275  26.949  28.737  1.00  0.00     0.031 C 
ATOM     40  C   UNL A   1      43.728  25.323  27.092  1.00  0.00     0.029 A 
ATOM     41  N   UNL A   1      43.604  27.430  27.803  1.00  0.00    -0.354 N 
ATOM     42  C   UNL A   1      39.986  29.011  29.449  1.00  0.00     0.074 A 
ATOM     43  C   UNL A   1      38.883  28.083  29.303  1.00  0.00     0.031 C 
ATOM     44  C   UNL A   1      44.937  25.878  26.909  1.00  0.00     0.029 A 
ATOM     45  C   UNL A   1      44.887  27.277  27.326  1.00  0.00     0.049 A 
ATOM     46  H   UNL A   1      43.285  28.256  28.232  1.00  0.00     0.167 HD
ATOM     47  C   UNL A   1      39.899  30.217  30.061  1.00  0.00     0.034 A 
ATOM     48  C   UNL A   1      45.904  28.158  27.219  1.00  0.00     0.034 A 
ATOM     49  C   UNL A   1      40.995  31.143  30.208  1.00  0.00     0.049 A 
ATOM     50  C   UNL A   1      45.736  29.554  27.772  1.00  0.00     0.074 A 
ATOM     51  C   UNL A   1      41.014  32.348  30.892  1.00  0.00     0.029 A 
ATOM     52  N   UNL A   1      42.251  30.992  29.641  1.00  0.00    -0.354 N 
ATOM     53  N   UNL A   1      44.700  30.073  28.390  1.00  0.00    -0.248 NA
ATOM     54  C   UNL A   1      46.877  30.472  27.639  1.00  0.00     0.031 C 
ATOM     55  C   UNL A   1      42.249  32.964  30.665  1.00  0.00     0.029 A 
ATOM     56  C   UNL A   1      43.029  32.112  29.903  1.00  0.00     0.049 A 
ATOM     57  H   UNL A   1      42.548  30.207  29.127  1.00  0.00     0.167 HD
ATOM     58  C   UNL A   1      45.088  31.359  28.761  1.00  0.00     0.074 A 
ATOM     59  C   UNL A   1      46.448  31.536  28.301  1.00  0.00     0.031 C 
ATOM     60  C   UNL A   1      44.382  32.301  29.435  1.00  0.00     0.034 A 
BRANCH  47  61
ATOM     61  C   UNL A   1      38.555  30.629  30.600  1.00  0.00     0.023 A 
ATOM     62  C   UNL A   1      37.627  31.331  29.813  1.00  0.00     0.031 A 
ATOM     63  C   UNL A   1      38.188  30.283  31.912  1.00  0.00     0.131 A 
ATOM     64  C   UNL A   1      36.389  31.699  30.359  1.00  0.00     0.055 A 
ATOM     65  C   UNL A   1      36.932  30.600  32.429  1.00  0.00     0.041 A 
ATOM     66  F   UNL A   1      39.045  29.626  32.709  1.00  0.00    -0.206 F 
ATOM     67  C   UNL A   1      36.027  31.318  31.654  1.00  0.00     0.022 A 
BRANCH  64  68
ATOM     68  S   UNL A   1      35.288  32.759  29.382  1.00  0.00     0.124 S 
ATOM     69  O   UNL A   1      34.219  33.035  30.338  1.00  0.00    -0.237 OA
ATOM     70  O   UNL A   1      36.151  33.886  29.046  1.00  0.00    -0.237 OA
ATOM     71  O   UNL A   1      34.905  31.910  28.256  1.00  0.00    -0.744 OA
ENDBRANCH  64  68
ENDBRANCH  47  61
BRANCH  48  72
ATOM     72  C   UNL A   1      47.167  27.784  26.516  1.00  0.00     0.023 A 
ATOM     73  C   UNL A   1      47.312  27.964  25.131  1.00  0.00     0.031 A 
ATOM     74  C   UNL A   1      48.202  27.131  27.209  1.00  0.00     0.131 A 
ATOM     75  C   UNL A   1      48.429  27.428  24.471  1.00  0.00     0.055 A 
ATOM     76  C   UNL A   1      49.337  26.648  26.556  1.00  0.00     0.041 A 
ATOM     77  F   UNL A   1      48.117  26.943  28.538  1.00  0.00    -0.206 F 
ATOM     78  C   UNL A   1      49.445  26.777  25.175  1.00  0.00     0.022 A 
BRANCH  75  79
ATOM     79  S   UNL A   1      48.473  27.482  22.658  1.00  0.00     0.124 S 
ATOM     80  O   UNL A   1      47.242  28.203  22.354  1.00  0.00    -0.237 OA
ATOM     81  O   UNL A   1      49.717  28.201  22.409  1.00  0.00    -0.237 OA
ATOM     82  O   UNL A   1      48.481  26.071  22.277  1.00  0.00    -0.744 OA
ENDBRANCH  75  79
ENDBRANCH  48  72
BRANCH  60  83
ATOM     83  C   UNL A   1      45.082  33.599  29.752  1.00  0.00     0.023 A 
ATOM     84  C   UNL A   1      45.015  34.707  28.890  1.00  0.00     0.031 A 
ATOM     85  C   UNL A   1      45.830  33.731  30.937  1.00  0.00     0.131 A 
ATOM     86  C   UNL A   1      45.717  35.882  29.201  1.00  0.00     0.055 A 
ATOM     87  C   UNL A   1      46.480  34.921  31.270  1.00  0.00     0.041 A 
ATOM     88  F   UNL A   1      45.934  32.704  31.797  1.00  0.00    -0.206 F 
ATOM     89  C   UNL A   1      46.434  36.002  30.395  1.00  0.00     0.022 A 
BRANCH  86  90
ATOM     90  S   UNL A   1      45.739  37.234  27.991  1.00  0.00     0.124 S 
ATOM     91  O   UNL A   1      44.946  36.677  26.900  1.00  0.00    -0.237 OA
ATOM     92  O   UNL A   1      45.123  38.328  28.733  1.00  0.00    -0.237 OA
ATOM     93  O   UNL A   1      47.161  37.409  27.697  1.00  0.00    -0.744 OA
ENDBRANCH  86  90
ENDBRANCH  60  83
ENDBRANCH  34  35
ENDBRANCH  27  29
ENDBRANCH  26  27
ENDBRANCH  25  26
ENDBRANCH   1  25
TORSDOF 19
ENDMDL
MODEL 3
REMARK VINA RESULT:     -10.9      2.363      2.849
REMARK SMILES O=C(OCCOC(=O)c1ccc(-c2c3nc(c(-c4cc(S(=O)(=O)[O-])ccc4F)c4ccc([nH]4)c(-c4cc(S(=O)(=O)[O-])ccc4F)c4nc(c(-c5cc(S(=O)(=O)[O-])ccc5F)c5ccc2[nH]5)C=C4)C=C3)cc1)c1ccc(N[C@H]2OC[C@@H](O)[C@@H](O)[C@H]2O)cc1
REMARK SMILES IDX 4 1 3 2 2 3 1 4 72 5 73 6 87 7 74 8 86 9 75 10 76 11 77 13
REMARK SMILES IDX 78 14 84 15 79 16 82 17 80 18 85 19 83 21 81 23 5 25 6 26
REMARK SMILES IDX 7 27 8 28 9 29 10 30 71 31 11 32 70 33 12 34 13 35 14 36
REMARK SMILES IDX 64 37 15 38 69 39 63 40 65 41 16 42 68 43 62 44 61 45 17 47
REMARK SMILES IDX 49 48 29 49 48 50 30 51 33 52 47 53 66 54 31 55 32 56 46 58
REMARK SMILES IDX 67 59 34 60 18 61 19 62 27 63 20 64 26 65 28 66 25 67 21 68
REMARK SMILES IDX 22 69 23 70 24 71 50 72 51 73 59 74 52 75 58 76 60 77 57 78
REMARK SMILES IDX 53 79 54 80 55 81 56 82 35 83 36 84 44 85 37 86 43 87 45 88
REMARK SMILES IDX 42 89 38 90 39 91 40 92 41 93
REMARK H PARENT 76 12 85 20 83 22 81 24 65 46 33 57
REMARK Flexibility Score: inf
ROOT
ATOM      1  C   UNL A   1      42.981  20.034  25.688  1.00  0.00     0.275 C 
ENDROOT
BRANCH   1   2
ATOM      2  O   UNL A   1      42.067  20.031  26.796  1.00  0.00    -0.458 OA
BRANCH   2   3
ATOM      3  C   UNL A   1      40.967  20.789  27.019  1.00  0.00     0.338 C 
ATOM      4  O   UNL A   1      40.979  21.537  27.997  1.00  0.00    -0.246 OA
BRANCH   3   5
ATOM      5  C   UNL A   1      39.694  20.705  26.221  1.00  0.00     0.060 A 
ATOM      6  C   UNL A   1      39.194  19.591  25.550  1.00  0.00     0.018 A 
ATOM      7  C   UNL A   1      38.896  21.859  26.194  1.00  0.00     0.018 A 
ATOM      8  C   UNL A   1      37.896  19.577  25.019  1.00  0.00     0.026 A 
ATOM      9  C   UNL A   1      37.617  21.850  25.617  1.00  0.00     0.026 A 
ATOM     10  C   UNL A   1      37.054  20.678  25.115  1.00  0.00     0.036 A 
BRANCH  10  11
ATOM     11  N   UNL A   1      35.722  20.655  24.745  1.00  0.00    -0.358 N 
ATOM     12  H   UNL A   1      35.421  19.945  24.134  1.00  0.00     0.163 HD
BRANCH  11  13
ATOM     13  C   UNL A   1      34.741  21.621  25.207  1.00  0.00     0.244 C 
ATOM     14  O   UNL A   1      33.681  21.746  24.254  1.00  0.00    -0.353 OA
ATOM     15  C   UNL A   1      34.137  21.212  26.570  1.00  0.00     0.195 C 
ATOM     16  C   UNL A   1      32.761  22.796  24.575  1.00  0.00     0.197 C 
ATOM     17  C   UNL A   1      33.235  22.375  27.014  1.00  0.00     0.178 C 
ATOM     18  C   UNL A   1      32.138  22.638  25.967  1.00  0.00     0.171 C 
BRANCH  15  19
ATOM     19  O   UNL A   1      33.312  20.031  26.465  1.00  0.00    -0.386 OA
ATOM     20  H   UNL A   1      33.606  19.499  25.710  1.00  0.00     0.211 HD
ENDBRANCH  15  19
BRANCH  17  21
ATOM     21  O   UNL A   1      32.651  22.105  28.288  1.00  0.00    -0.387 OA
ATOM     22  H   UNL A   1      33.233  22.442  28.988  1.00  0.00     0.211 HD
ENDBRANCH  17  21
BRANCH  18  23
ATOM     23  O   UNL A   1      31.185  21.567  25.942  1.00  0.00    -0.388 OA
ATOM     24  H   UNL A   1      30.957  21.316  26.850  1.00  0.00     0.211 HD
ENDBRANCH  18  23
ENDBRANCH  11  13
ENDBRANCH  10  11
ENDBRANCH   3   5
ENDBRANCH   2   3
ENDBRANCH   1   2
BRANCH   1  25
ATOM     25  C   UNL A   1      43.823  21.314  25.611  1.00  0.00     0.275 C 
BRANCH  25  26
ATOM     26  O   UNL A   1      43.140  22.389  24.943  1.00  0.00    -0.458 OA
BRANCH  26  27
ATOM     27  C   UNL A   1      43.820  23.570  24.894  1.00  0.00     0.338 C 
ATOM     28  O   UNL A   1      44.621  23.894  24.041  1.00  0.00    -0.246 OA
BRANCH  27  29
ATOM     29  C   UNL A   1      43.351  24.490  25.967  1.00  0.00     0.060 A 
ATOM     30  C   UNL A   1      44.051  25.689  26.153  1.00  0.00     0.016 A 
ATOM     31  C   UNL A   1      42.252  24.204  26.781  1.00  0.00     0.016 A 
ATOM     32  C   UNL A   1      43.655  26.600  27.143  1.00  0.00     0.010 A 
ATOM     33  C   UNL A   1      41.856  25.122  27.768  1.00  0.00     0.010 A 
ATOM     34  C   UNL A   1      42.552  26.328  27.962  1.00  0.00    -0.014 A 
BRANCH  34  35
ATOM     35  C   UNL A   1      42.125  27.276  29.034  1.00  0.00     0.031 A 
ATOM     36  C   UNL A   1      42.811  27.261  30.372  1.00  0.00     0.074 A 
ATOM     37  C   UNL A   1      41.100  28.130  28.842  1.00  0.00     0.049 A 
ATOM     38  N   UNL A   1      42.547  27.976  31.436  1.00  0.00    -0.248 NA
ATOM     39  C   UNL A   1      43.948  26.345  30.524  1.00  0.00     0.031 C 
ATOM     40  C   UNL A   1      40.397  28.322  27.580  1.00  0.00     0.029 A 
ATOM     41  N   UNL A   1      40.452  28.981  29.707  1.00  0.00    -0.354 N 
ATOM     42  C   UNL A   1      43.499  27.615  32.380  1.00  0.00     0.074 A 
ATOM     43  C   UNL A   1      44.315  26.581  31.776  1.00  0.00     0.031 C 
ATOM     44  C   UNL A   1      39.369  29.166  27.763  1.00  0.00     0.029 A 
ATOM     45  C   UNL A   1      39.344  29.591  29.160  1.00  0.00     0.049 A 
ATOM     46  H   UNL A   1      40.752  29.140  30.631  1.00  0.00     0.167 HD
ATOM     47  C   UNL A   1      43.692  28.117  33.625  1.00  0.00     0.034 A 
ATOM     48  C   UNL A   1      38.406  30.387  29.715  1.00  0.00     0.034 A 
ATOM     49  C   UNL A   1      42.881  29.145  34.228  1.00  0.00     0.049 A 
ATOM     50  C   UNL A   1      38.557  30.815  31.156  1.00  0.00     0.074 A 
ATOM     51  C   UNL A   1      43.062  29.773  35.451  1.00  0.00     0.029 A 
ATOM     52  N   UNL A   1      41.723  29.675  33.681  1.00  0.00    -0.354 N 
ATOM     53  N   UNL A   1      39.520  30.530  32.001  1.00  0.00    -0.248 NA
ATOM     54  C   UNL A   1      37.513  31.691  31.710  1.00  0.00     0.031 C 
ATOM     55  C   UNL A   1      41.969  30.614  35.680  1.00  0.00     0.029 A 
ATOM     56  C   UNL A   1      41.144  30.572  34.570  1.00  0.00     0.049 A 
ATOM     57  H   UNL A   1      41.364  29.450  32.794  1.00  0.00     0.167 HD
ATOM     58  C   UNL A   1      39.220  31.232  33.166  1.00  0.00     0.074 A 
ATOM     59  C   UNL A   1      37.991  31.954  32.917  1.00  0.00     0.031 C 
ATOM     60  C   UNL A   1      39.911  31.284  34.332  1.00  0.00     0.034 A 
BRANCH  47  61
ATOM     61  C   UNL A   1      44.816  27.537  34.442  1.00  0.00     0.023 A 
ATOM     62  C   UNL A   1      44.671  26.330  35.146  1.00  0.00     0.031 A 
ATOM     63  C   UNL A   1      46.060  28.190  34.488  1.00  0.00     0.131 A 
ATOM     64  C   UNL A   1      45.743  25.831  35.899  1.00  0.00     0.055 A 
ATOM     65  C   UNL A   1      47.141  27.658  35.191  1.00  0.00     0.041 A 
ATOM     66  F   UNL A   1      46.243  29.354  33.846  1.00  0.00    -0.206 F 
ATOM     67  C   UNL A   1      46.984  26.476  35.908  1.00  0.00     0.022 A 
BRANCH  64  68
ATOM     68  S   UNL A   1      45.471  24.371  36.940  1.00  0.00     0.124 S 
ATOM     69  O   UNL A   1      44.441  24.849  37.858  1.00  0.00    -0.237 OA
ATOM     70  O   UNL A   1      45.046  23.367  35.970  1.00  0.00    -0.237 OA
ATOM     71  O   UNL A   1      46.778  24.136  37.548  1.00  0.00    -0.744 OA
ENDBRANCH  64  68
ENDBRANCH  47  61
BRANCH  48  72
ATOM     72  C   UNL A   1      37.201  30.802  28.938  1.00  0.00     0.023 A 
ATOM     73  C   UNL A   1      36.794  32.144  28.884  1.00  0.00     0.031 A 
ATOM     74  C   UNL A   1      36.375  29.836  28.335  1.00  0.00     0.131 A 
ATOM     75  C   UNL A   1      35.556  32.475  28.310  1.00  0.00     0.055 A 
ATOM     76  C   UNL A   1      35.171  30.177  27.716  1.00  0.00     0.041 A 
ATOM     77  F   UNL A   1      36.726  28.538  28.349  1.00  0.00    -0.206 F 
ATOM     78  C   UNL A   1      34.745  31.502  27.720  1.00  0.00     0.022 A 
BRANCH  75  79
ATOM     79  S   UNL A   1      34.960  34.182  28.459  1.00  0.00     0.124 S 
ATOM     80  O   UNL A   1      34.775  34.554  27.060  1.00  0.00    -0.237 OA
ATOM     81  O   UNL A   1      33.743  34.007  29.243  1.00  0.00    -0.237 OA
ATOM     82  O   UNL A   1      36.053  34.864  29.148  1.00  0.00    -0.744 OA
ENDBRANCH  75  79
ENDBRANCH  48  72
BRANCH  60  83
ATOM     83  C   UNL A   1      39.374  32.183  35.419  1.00  0.00     0.023 A 
ATOM     84  C   UNL A   1      39.817  33.509  35.570  1.00  0.00     0.031 A 
ATOM     85  C   UNL A   1      38.404  31.706  36.320  1.00  0.00     0.131 A 
ATOM     86  C   UNL A   1      39.324  34.297  36.621  1.00  0.00     0.055 A 
ATOM     87  C   UNL A   1      37.874  32.513  37.329  1.00  0.00     0.041 A 
ATOM     88  F   UNL A   1      37.947  30.446  36.228  1.00  0.00    -0.206 F 
ATOM     89  C   UNL A   1      38.342  33.814  37.490  1.00  0.00     0.022 A 
BRANCH  86  90
ATOM     90  S   UNL A   1      40.033  35.947  36.883  1.00  0.00     0.124 S 
ATOM     91  O   UNL A   1      39.693  36.623  35.636  1.00  0.00    -0.237 OA
ATOM     92  O   UNL A   1      39.323  36.408  38.071  1.00  0.00    -0.237 OA
ATOM     93  O   UNL A   1      41.457  35.682  37.077  1.00  0.00    -0.744 OA
ENDBRANCH  86  90
ENDBRANCH  60  83
ENDBRANCH  34  35
ENDBRANCH  27  29
ENDBRANCH  26  27
ENDBRANCH  25  26
ENDBRANCH   1  25
TORSDOF 19
ENDMDL
