MODEL 1
REMARK VINA RESULT:     -10.6      0.000      0.000
REMARK SMILES O=C(OCCOC(=O)[C@H]1C[NH2+]CCN1c1ncc(C(F)(F)F)cc1Cl)c1ccc(-c2c3nc(c(-c4cc(S(=O)(=O)[O-])ccc4F)c4ccc([nH]4)c(-c4cc(S(=O)(=O)[O-])ccc4F)c4nc(c(-c5cc(S(=O)(=O)[O-])ccc5F)c5ccc2[nH]5)C=C4)C=C3)cc1
REMARK SMILES IDX 4 1 3 2 2 3 1 4 26 5 27 6 88 7 28 8 87 9 29 10 30 11 31 12
REMARK SMILES IDX 81 13 32 14 86 15 80 16 82 17 33 18 85 19 79 20 78 21 34 23
REMARK SMILES IDX 66 24 46 25 65 26 47 27 50 28 64 29 83 30 48 31 49 32 63 34
REMARK SMILES IDX 84 35 51 36 35 37 36 38 44 39 37 40 43 41 45 42 42 43 38 44
REMARK SMILES IDX 39 45 40 46 41 47 67 48 68 49 76 50 69 51 75 52 77 53 74 54
REMARK SMILES IDX 70 55 71 56 72 57 73 58 52 59 53 60 61 61 54 62 60 63 62 64
REMARK SMILES IDX 59 65 55 66 56 67 57 68 58 69 5 70 6 71 7 72 8 73 9 74 10 75
REMARK SMILES IDX 14 76 11 77 13 78 12 79 15 82 16 83 24 84 17 85 23 86 25 87
REMARK SMILES IDX 18 88 19 89 20 90 21 91 22 92
REMARK H PARENT 82 22 50 33 11 80 11 81
REMARK Flexibility Score: inf
ROOT
ATOM      1  C   UNL A   1      33.521  33.952  28.079  1.00  0.00     0.275 C 
ENDROOT
BRANCH   1   2
ATOM      2  O   UNL A   1      34.552  33.012  27.759  1.00  0.00    -0.458 OA
BRANCH   2   3
ATOM      3  C   UNL A   1      34.514  31.660  27.797  1.00  0.00     0.338 C 
ATOM      4  O   UNL A   1      33.421  31.105  27.689  1.00  0.00    -0.246 OA
BRANCH   3   5
ATOM      5  C   UNL A   1      35.714  30.816  28.103  1.00  0.00     0.060 A 
ATOM      6  C   UNL A   1      36.920  30.764  27.393  1.00  0.00     0.016 A 
ATOM      7  C   UNL A   1      35.610  30.017  29.242  1.00  0.00     0.016 A 
ATOM      8  C   UNL A   1      38.038  30.077  27.889  1.00  0.00     0.010 A 
ATOM      9  C   UNL A   1      36.714  29.307  29.713  1.00  0.00     0.010 A 
ATOM     10  C   UNL A   1      37.965  29.379  29.090  1.00  0.00    -0.014 A 
BRANCH  10  11
ATOM     11  C   UNL A   1      39.147  28.686  29.678  1.00  0.00     0.031 A 
ATOM     12  C   UNL A   1      39.726  29.212  30.963  1.00  0.00     0.074 A 
ATOM     13  C   UNL A   1      39.763  27.673  29.029  1.00  0.00     0.049 A 
ATOM     14  N   UNL A   1      40.854  28.910  31.550  1.00  0.00    -0.248 NA
ATOM     15  C   UNL A   1      38.961  30.268  31.638  1.00  0.00     0.031 C 
ATOM     16  C   UNL A   1      39.341  27.095  27.750  1.00  0.00     0.029 A 
ATOM     17  N   UNL A   1      40.906  26.968  29.335  1.00  0.00    -0.354 N 
ATOM     18  C   UNL A   1      40.967  29.793  32.619  1.00  0.00     0.074 A 
ATOM     19  C   UNL A   1      39.822  30.675  32.555  1.00  0.00     0.031 C 
ATOM     20  C   UNL A   1      40.205  26.129  27.387  1.00  0.00     0.029 A 
ATOM     21  C   UNL A   1      41.260  26.028  28.388  1.00  0.00     0.049 A 
ATOM     22  H   UNL A   1      41.424  27.121  30.158  1.00  0.00     0.167 HD
ATOM     23  C   UNL A   1      41.924  29.848  33.578  1.00  0.00     0.034 A 
ATOM     24  C   UNL A   1      42.319  25.192  28.333  1.00  0.00     0.034 A 
ATOM     25  C   UNL A   1      42.998  28.896  33.685  1.00  0.00     0.049 A 
ATOM     26  C   UNL A   1      43.314  25.203  29.470  1.00  0.00     0.074 A 
ATOM     27  C   UNL A   1      43.946  28.774  34.686  1.00  0.00     0.029 A 
ATOM     28  N   UNL A   1      43.263  27.894  32.760  1.00  0.00    -0.354 N 
ATOM     29  N   UNL A   1      43.352  25.987  30.523  1.00  0.00    -0.248 NA
ATOM     30  C   UNL A   1      44.388  24.201  29.428  1.00  0.00     0.031 C 
ATOM     31  C   UNL A   1      44.810  27.730  34.345  1.00  0.00     0.029 A 
ATOM     32  C   UNL A   1      44.362  27.154  33.167  1.00  0.00     0.049 A 
ATOM     33  H   UNL A   1      42.747  27.733  31.939  1.00  0.00     0.167 HD
ATOM     34  C   UNL A   1      44.424  25.536  31.290  1.00  0.00     0.074 A 
ATOM     35  C   UNL A   1      44.994  24.407  30.587  1.00  0.00     0.031 C 
ATOM     36  C   UNL A   1      44.894  26.011  32.469  1.00  0.00     0.034 A 
BRANCH  23  37
ATOM     37  C   UNL A   1      41.857  30.993  34.560  1.00  0.00     0.023 A 
ATOM     38  C   UNL A   1      40.856  31.075  35.543  1.00  0.00     0.031 A 
ATOM     39  C   UNL A   1      42.768  32.059  34.458  1.00  0.00     0.131 A 
ATOM     40  C   UNL A   1      40.711  32.251  36.292  1.00  0.00     0.055 A 
ATOM     41  C   UNL A   1      42.684  33.180  35.287  1.00  0.00     0.041 A 
ATOM     42  F   UNL A   1      43.739  32.044  33.532  1.00  0.00    -0.206 F 
ATOM     43  C   UNL A   1      41.635  33.292  36.194  1.00  0.00     0.022 A 
BRANCH  40  44
ATOM     44  S   UNL A   1      39.196  32.466  37.266  1.00  0.00     0.124 S 
ATOM     45  O   UNL A   1      38.707  33.747  36.757  1.00  0.00    -0.237 OA
ATOM     46  O   UNL A   1      38.411  31.297  36.909  1.00  0.00    -0.237 OA
ATOM     47  O   UNL A   1      39.682  32.498  38.648  1.00  0.00    -0.744 OA
ENDBRANCH  40  44
ENDBRANCH  23  37
BRANCH  24  48
ATOM     48  C   UNL A   1      42.521  24.251  27.190  1.00  0.00     0.023 A 
ATOM     49  C   UNL A   1      41.916  22.984  27.189  1.00  0.00     0.031 A 
ATOM     50  C   UNL A   1      43.422  24.547  26.154  1.00  0.00     0.131 A 
ATOM     51  C   UNL A   1      42.279  22.030  26.226  1.00  0.00     0.055 A 
ATOM     52  C   UNL A   1      43.733  23.615  25.157  1.00  0.00     0.041 A 
ATOM     53  F   UNL A   1      44.041  25.737  26.114  1.00  0.00    -0.206 F 
ATOM     54  C   UNL A   1      43.177  22.340  25.203  1.00  0.00     0.022 A 
BRANCH  51  55
ATOM     55  S   UNL A   1      41.669  20.331  26.418  1.00  0.00     0.124 S 
ATOM     56  O   UNL A   1      42.374  19.640  25.344  1.00  0.00    -0.237 OA
ATOM     57  O   UNL A   1      42.098  20.011  27.776  1.00  0.00    -0.237 OA
ATOM     58  O   UNL A   1      40.225  20.464  26.236  1.00  0.00    -0.744 OA
ENDBRANCH  51  55
ENDBRANCH  24  48
BRANCH  36  59
ATOM     59  C   UNL A   1      46.025  25.254  33.117  1.00  0.00     0.023 A 
ATOM     60  C   UNL A   1      45.802  24.126  33.923  1.00  0.00     0.031 A 
ATOM     61  C   UNL A   1      47.354  25.669  32.909  1.00  0.00     0.131 A 
ATOM     62  C   UNL A   1      46.887  23.479  34.531  1.00  0.00     0.055 A 
ATOM     63  C   UNL A   1      48.433  24.985  33.467  1.00  0.00     0.041 A 
ATOM     64  F   UNL A   1      47.622  26.744  32.148  1.00  0.00    -0.206 F 
ATOM     65  C   UNL A   1      48.202  23.890  34.293  1.00  0.00     0.022 A 
BRANCH  62  66
ATOM     66  S   UNL A   1      46.555  22.134  35.701  1.00  0.00     0.124 S 
ATOM     67  O   UNL A   1      45.469  21.418  35.040  1.00  0.00    -0.237 OA
ATOM     68  O   UNL A   1      47.838  21.439  35.751  1.00  0.00    -0.237 OA
ATOM     69  O   UNL A   1      46.181  22.831  36.930  1.00  0.00    -0.744 OA
ENDBRANCH  62  66
ENDBRANCH  36  59
ENDBRANCH  10  11
ENDBRANCH   3   5
ENDBRANCH   2   3
ENDBRANCH   1   2
BRANCH   1  70
ATOM     70  C   UNL A   1      33.633  34.621  29.455  1.00  0.00     0.274 C 
BRANCH  70  71
ATOM     71  O   UNL A   1      33.888  33.761  30.584  1.00  0.00    -0.460 OA
BRANCH  71  72
ATOM     72  C   UNL A   1      33.894  34.395  31.797  1.00  0.00     0.334 C 
ATOM     73  O   UNL A   1      32.866  34.579  32.448  1.00  0.00    -0.250 OA
BRANCH  72  74
ATOM     74  C   UNL A   1      35.290  34.962  32.191  1.00  0.00     0.249 C 
ATOM     75  C   UNL A   1      35.114  35.495  33.650  1.00  0.00     0.298 C 
ATOM     76  N   UNL A   1      36.374  33.944  32.197  1.00  0.00    -0.331 N 
ATOM     77  N   UNL A   1      34.880  34.433  34.672  1.00  0.00    -0.343 N 
ATOM     78  C   UNL A   1      36.128  32.825  33.126  1.00  0.00     0.180 C 
ATOM     79  C   UNL A   1      35.932  33.392  34.555  1.00  0.00     0.282 C 
ATOM     80  H   UNL A   1      33.964  34.011  34.518  1.00  0.00     0.346 HD
ATOM     81  H   UNL A   1      34.911  34.847  35.604  1.00  0.00     0.346 HD
BRANCH  76  82
ATOM     82  C   UNL A   1      37.698  34.132  31.824  1.00  0.00     0.148 A 
ATOM     83  N   UNL A   1      38.549  34.375  32.861  1.00  0.00    -0.237 NA
ATOM     84  C   UNL A   1      38.250  34.057  30.533  1.00  0.00     0.084 A 
ATOM     85  C   UNL A   1      39.895  34.381  32.668  1.00  0.00     0.126 A 
ATOM     86  C   UNL A   1      39.648  34.072  30.357  1.00  0.00     0.039 A 
ATOM     87  Cl  UNL A   1      37.333  34.056  29.067  1.00  0.00    -0.080 Cl
ATOM     88  C   UNL A   1      40.501  34.177  31.451  1.00  0.00     0.075 A 
BRANCH  88  89
ATOM     89  C   UNL A   1      41.994  34.114  31.336  1.00  0.00     0.417 C 
ATOM     90  F   UNL A   1      42.458  34.710  30.203  1.00  0.00    -0.166 F 
ATOM     91  F   UNL A   1      42.641  34.695  32.376  1.00  0.00    -0.166 F 
ATOM     92  F   UNL A   1      42.439  32.828  31.280  1.00  0.00    -0.166 F 
ENDBRANCH  88  89
ENDBRANCH  76  82
ENDBRANCH  72  74
ENDBRANCH  71  72
ENDBRANCH  70  71
ENDBRANCH   1  70
TORSDOF 16
ENDMDL
MODEL 2
REMARK VINA RESULT:     -10.4      4.524      7.093
REMARK SMILES O=C(OCCOC(=O)[C@H]1C[NH2+]CCN1c1ncc(C(F)(F)F)cc1Cl)c1ccc(-c2c3nc(c(-c4cc(S(=O)(=O)[O-])ccc4F)c4ccc([nH]4)c(-c4cc(S(=O)(=O)[O-])ccc4F)c4nc(c(-c5cc(S(=O)(=O)[O-])ccc5F)c5ccc2[nH]5)C=C4)C=C3)cc1
REMARK SMILES IDX 4 1 3 2 2 3 1 4 26 5 27 6 88 7 28 8 87 9 29 10 30 11 31 12
REMARK SMILES IDX 81 13 32 14 86 15 80 16 82 17 33 18 85 19 79 20 78 21 34 23
REMARK SMILES IDX 66 24 46 25 65 26 47 27 50 28 64 29 83 30 48 31 49 32 63 34
REMARK SMILES IDX 84 35 51 36 35 37 36 38 44 39 37 40 43 41 45 42 42 43 38 44
REMARK SMILES IDX 39 45 40 46 41 47 67 48 68 49 76 50 69 51 75 52 77 53 74 54
REMARK SMILES IDX 70 55 71 56 72 57 73 58 52 59 53 60 61 61 54 62 60 63 62 64
REMARK SMILES IDX 59 65 55 66 56 67 57 68 58 69 5 70 6 71 7 72 8 73 9 74 10 75
REMARK SMILES IDX 14 76 11 77 13 78 12 79 15 82 16 83 24 84 17 85 23 86 25 87
REMARK SMILES IDX 18 88 19 89 20 90 21 91 22 92
REMARK H PARENT 82 22 50 33 11 80 11 81
REMARK Flexibility Score: inf
ROOT
ATOM      1  C   UNL A   1      31.253  31.811  26.637  1.00  0.00     0.275 C 
ENDROOT
BRANCH   1   2
ATOM      2  O   UNL A   1      32.056  32.996  26.643  1.00  0.00    -0.458 OA
BRANCH   2   3
ATOM      3  C   UNL A   1      32.821  33.502  27.638  1.00  0.00     0.338 C 
ATOM      4  O   UNL A   1      32.485  34.571  28.146  1.00  0.00    -0.246 OA
BRANCH   3   5
ATOM      5  C   UNL A   1      34.128  32.895  28.052  1.00  0.00     0.060 A 
ATOM      6  C   UNL A   1      35.366  33.540  28.170  1.00  0.00     0.016 A 
ATOM      7  C   UNL A   1      34.082  31.539  28.377  1.00  0.00     0.016 A 
ATOM      8  C   UNL A   1      36.474  32.906  28.750  1.00  0.00     0.010 A 
ATOM      9  C   UNL A   1      35.197  30.902  28.923  1.00  0.00     0.010 A 
ATOM     10  C   UNL A   1      36.388  31.588  29.186  1.00  0.00    -0.014 A 
BRANCH  10  11
ATOM     11  C   UNL A   1      37.526  30.899  29.860  1.00  0.00     0.031 A 
ATOM     12  C   UNL A   1      37.796  31.201  31.309  1.00  0.00     0.074 A 
ATOM     13  C   UNL A   1      38.373  30.101  29.172  1.00  0.00     0.049 A 
ATOM     14  N   UNL A   1      38.831  30.889  32.043  1.00  0.00    -0.248 NA
ATOM     15  C   UNL A   1      36.794  32.023  32.001  1.00  0.00     0.031 C 
ATOM     16  C   UNL A   1      38.263  29.761  27.750  1.00  0.00     0.029 A 
ATOM     17  N   UNL A   1      39.524  29.455  29.565  1.00  0.00    -0.354 N 
ATOM     18  C   UNL A   1      38.638  31.541  33.258  1.00  0.00     0.074 A 
ATOM     19  C   UNL A   1      37.420  32.309  33.129  1.00  0.00     0.031 C 
ATOM     20  C   UNL A   1      39.293  28.973  27.396  1.00  0.00     0.029 A 
ATOM     21  C   UNL A   1      40.158  28.766  28.551  1.00  0.00     0.049 A 
ATOM     22  H   UNL A   1      39.864  29.483  30.488  1.00  0.00     0.167 HD
ATOM     23  C   UNL A   1      39.395  31.485  34.381  1.00  0.00     0.034 A 
ATOM     24  C   UNL A   1      41.309  28.059  28.555  1.00  0.00     0.034 A 
ATOM     25  C   UNL A   1      40.546  30.633  34.523  1.00  0.00     0.049 A 
ATOM     26  C   UNL A   1      42.076  27.927  29.850  1.00  0.00     0.074 A 
ATOM     27  C   UNL A   1      41.309  30.395  35.653  1.00  0.00     0.029 A 
ATOM     28  N   UNL A   1      41.098  29.870  33.501  1.00  0.00    -0.354 N 
ATOM     29  N   UNL A   1      41.826  28.478  31.015  1.00  0.00    -0.248 NA
ATOM     30  C   UNL A   1      43.261  27.057  29.840  1.00  0.00     0.031 C 
ATOM     31  C   UNL A   1      42.347  29.527  35.305  1.00  0.00     0.029 A 
ATOM     32  C   UNL A   1      42.193  29.167  33.975  1.00  0.00     0.049 A 
ATOM     33  H   UNL A   1      40.761  29.835  32.578  1.00  0.00     0.167 HD
ATOM     34  C   UNL A   1      42.794  27.980  31.884  1.00  0.00     0.074 A 
ATOM     35  C   UNL A   1      43.620  27.076  31.113  1.00  0.00     0.031 C 
ATOM     36  C   UNL A   1      42.983  28.244  33.200  1.00  0.00     0.034 A 
BRANCH  23  37
ATOM     37  C   UNL A   1      39.008  32.394  35.523  1.00  0.00     0.023 A 
ATOM     38  C   UNL A   1      39.419  33.737  35.581  1.00  0.00     0.031 A 
ATOM     39  C   UNL A   1      38.277  31.882  36.610  1.00  0.00     0.131 A 
ATOM     40  C   UNL A   1      39.212  34.478  36.753  1.00  0.00     0.055 A 
ATOM     41  C   UNL A   1      37.978  32.663  37.728  1.00  0.00     0.041 A 
ATOM     42  F   UNL A   1      37.867  30.604  36.618  1.00  0.00    -0.206 F 
ATOM     43  C   UNL A   1      38.467  33.963  37.815  1.00  0.00     0.022 A 
BRANCH  40  44
ATOM     44  S   UNL A   1      40.081  36.060  36.932  1.00  0.00     0.124 S 
ATOM     45  O   UNL A   1      39.885  36.646  35.606  1.00  0.00    -0.237 OA
ATOM     46  O   UNL A   1      39.369  36.701  38.023  1.00  0.00    -0.237 OA
ATOM     47  O   UNL A   1      41.458  35.659  37.230  1.00  0.00    -0.744 OA
ENDBRANCH  40  44
ENDBRANCH  23  37
BRANCH  24  48
ATOM     48  C   UNL A   1      41.830  27.394  27.323  1.00  0.00     0.023 A 
ATOM     49  C   UNL A   1      41.764  25.999  27.178  1.00  0.00     0.031 A 
ATOM     50  C   UNL A   1      42.517  28.123  26.337  1.00  0.00     0.131 A 
ATOM     51  C   UNL A   1      42.444  25.366  26.125  1.00  0.00     0.055 A 
ATOM     52  C   UNL A   1      43.138  27.494  25.253  1.00  0.00     0.041 A 
ATOM     53  F   UNL A   1      42.624  29.457  26.433  1.00  0.00    -0.206 F 
ATOM     54  C   UNL A   1      43.122  26.106  25.155  1.00  0.00     0.022 A 
BRANCH  51  55
ATOM     55  S   UNL A   1      42.547  23.554  26.128  1.00  0.00     0.124 S 
ATOM     56  O   UNL A   1      43.500  23.314  27.205  1.00  0.00    -0.237 OA
ATOM     57  O   UNL A   1      41.164  23.176  26.398  1.00  0.00    -0.237 OA
ATOM     58  O   UNL A   1      43.028  23.238  24.785  1.00  0.00    -0.744 OA
ENDBRANCH  51  55
ENDBRANCH  24  48
BRANCH  36  59
ATOM     59  C   UNL A   1      44.069  27.477  33.910  1.00  0.00     0.023 A 
ATOM     60  C   UNL A   1      43.817  26.258  34.562  1.00  0.00     0.031 A 
ATOM     61  C   UNL A   1      45.385  27.975  33.920  1.00  0.00     0.131 A 
ATOM     62  C   UNL A   1      44.855  25.602  35.237  1.00  0.00     0.055 A 
ATOM     63  C   UNL A   1      46.426  27.288  34.543  1.00  0.00     0.041 A 
ATOM     64  F   UNL A   1      45.679  29.138  33.314  1.00  0.00    -0.206 F 
ATOM     65  C   UNL A   1      46.162  26.099  35.215  1.00  0.00     0.022 A 
BRANCH  62  66
ATOM     66  S   UNL A   1      44.463  24.124  36.212  1.00  0.00     0.124 S 
ATOM     67  O   UNL A   1      45.749  23.435  36.248  1.00  0.00    -0.237 OA
ATOM     68  O   UNL A   1      44.010  24.694  37.476  1.00  0.00    -0.237 OA
ATOM     69  O   UNL A   1      43.425  23.459  35.426  1.00  0.00    -0.744 OA
ENDBRANCH  62  66
ENDBRANCH  36  59
ENDBRANCH  10  11
ENDBRANCH   3   5
ENDBRANCH   2   3
ENDBRANCH   1   2
BRANCH   1  70
ATOM     70  C   UNL A   1      31.745  30.678  25.728  1.00  0.00     0.274 C 
BRANCH  70  71
ATOM     71  O   UNL A   1      31.558  29.328  26.201  1.00  0.00    -0.460 OA
BRANCH  71  72
ATOM     72  C   UNL A   1      32.572  28.465  25.884  1.00  0.00     0.334 C 
ATOM     73  O   UNL A   1      33.747  28.824  25.824  1.00  0.00    -0.250 OA
BRANCH  72  74
ATOM     74  C   UNL A   1      32.072  27.045  25.488  1.00  0.00     0.249 C 
ATOM     75  C   UNL A   1      30.633  27.265  24.920  1.00  0.00     0.298 C 
ATOM     76  N   UNL A   1      32.891  26.390  24.434  1.00  0.00    -0.331 N 
ATOM     77  N   UNL A   1      30.586  28.013  23.629  1.00  0.00    -0.343 N 
ATOM     78  C   UNL A   1      32.949  27.152  23.173  1.00  0.00     0.180 C 
ATOM     79  C   UNL A   1      31.505  27.375  22.653  1.00  0.00     0.282 C 
ATOM     80  H   UNL A   1      30.872  28.979  23.787  1.00  0.00     0.346 HD
ATOM     81  H   UNL A   1      29.634  27.996  23.262  1.00  0.00     0.346 HD
BRANCH  76  82
ATOM     82  C   UNL A   1      33.194  25.039  24.331  1.00  0.00     0.148 A 
ATOM     83  N   UNL A   1      34.499  24.730  24.577  1.00  0.00    -0.237 NA
ATOM     84  C   UNL A   1      32.315  23.976  24.052  1.00  0.00     0.084 A 
ATOM     85  C   UNL A   1      34.895  23.435  24.707  1.00  0.00     0.126 A 
ATOM     86  C   UNL A   1      32.749  22.642  24.188  1.00  0.00     0.039 A 
ATOM     87  Cl  UNL A   1      30.713  24.160  23.429  1.00  0.00    -0.080 Cl
ATOM     88  C   UNL A   1      34.053  22.356  24.583  1.00  0.00     0.075 A 
BRANCH  88  89
ATOM     89  C   UNL A   1      34.549  20.962  24.825  1.00  0.00     0.417 C 
ATOM     90  F   UNL A   1      34.463  20.596  26.133  1.00  0.00    -0.166 F 
ATOM     91  F   UNL A   1      33.885  20.020  24.111  1.00  0.00    -0.166 F 
ATOM     92  F   UNL A   1      35.864  20.835  24.495  1.00  0.00    -0.166 F 
ENDBRANCH  88  89
ENDBRANCH  76  82
ENDBRANCH  72  74
ENDBRANCH  71  72
ENDBRANCH  70  71
ENDBRANCH   1  70
TORSDOF 16
ENDMDL
MODEL 3
REMARK VINA RESULT:     -10.3      6.336     11.905
REMARK SMILES O=C(OCCOC(=O)[C@H]1C[NH2+]CCN1c1ncc(C(F)(F)F)cc1Cl)c1ccc(-c2c3nc(c(-c4cc(S(=O)(=O)[O-])ccc4F)c4ccc([nH]4)c(-c4cc(S(=O)(=O)[O-])ccc4F)c4nc(c(-c5cc(S(=O)(=O)[O-])ccc5F)c5ccc2[nH]5)C=C4)C=C3)cc1
REMARK SMILES IDX 4 1 3 2 2 3 1 4 26 5 27 6 88 7 28 8 87 9 29 10 30 11 31 12
REMARK SMILES IDX 81 13 32 14 86 15 80 16 82 17 33 18 85 19 79 20 78 21 34 23
REMARK SMILES IDX 66 24 46 25 65 26 47 27 50 28 64 29 83 30 48 31 49 32 63 34
REMARK SMILES IDX 84 35 51 36 35 37 36 38 44 39 37 40 43 41 45 42 42 43 38 44
REMARK SMILES IDX 39 45 40 46 41 47 67 48 68 49 76 50 69 51 75 52 77 53 74 54
REMARK SMILES IDX 70 55 71 56 72 57 73 58 52 59 53 60 61 61 54 62 60 63 62 64
REMARK SMILES IDX 59 65 55 66 56 67 57 68 58 69 5 70 6 71 7 72 8 73 9 74 10 75
REMARK SMILES IDX 14 76 11 77 13 78 12 79 15 82 16 83 24 84 17 85 23 86 25 87
REMARK SMILES IDX 18 88 19 89 20 90 21 91 22 92
REMARK H PARENT 82 22 50 33 11 80 11 81
REMARK Flexibility Score: inf
ROOT
ATOM      1  C   UNL A   1      37.336  21.245  24.508  1.00  0.00     0.275 C 
ENDROOT
BRANCH   1   2
ATOM      2  O   UNL A   1      37.990  20.861  25.722  1.00  0.00    -0.458 OA
BRANCH   2   3
ATOM      3  C   UNL A   1      39.263  21.094  26.115  1.00  0.00     0.338 C 
ATOM      4  O   UNL A   1      40.066  20.162  26.076  1.00  0.00    -0.246 OA
BRANCH   3   5
ATOM      5  C   UNL A   1      39.705  22.390  26.724  1.00  0.00     0.060 A 
ATOM      6  C   UNL A   1      40.667  22.576  27.726  1.00  0.00     0.016 A 
ATOM      7  C   UNL A   1      39.097  23.534  26.205  1.00  0.00     0.016 A 
ATOM      8  C   UNL A   1      41.129  23.853  28.077  1.00  0.00     0.010 A 
ATOM      9  C   UNL A   1      39.535  24.804  26.582  1.00  0.00     0.010 A 
ATOM     10  C   UNL A   1      40.604  24.987  27.467  1.00  0.00    -0.014 A 
BRANCH  10  11
ATOM     11  C   UNL A   1      41.110  26.357  27.772  1.00  0.00     0.031 A 
ATOM     12  C   UNL A   1      42.484  26.741  27.295  1.00  0.00     0.074 A 
ATOM     13  C   UNL A   1      40.406  27.210  28.549  1.00  0.00     0.049 A 
ATOM     14  N   UNL A   1      43.210  27.782  27.606  1.00  0.00    -0.248 NA
ATOM     15  C   UNL A   1      43.154  25.786  26.401  1.00  0.00     0.031 C 
ATOM     16  C   UNL A   1      39.083  26.951  29.123  1.00  0.00     0.029 A 
ATOM     17  N   UNL A   1      40.722  28.462  29.029  1.00  0.00    -0.354 N 
ATOM     18  C   UNL A   1      44.448  27.567  27.007  1.00  0.00     0.074 A 
ATOM     19  C   UNL A   1      44.384  26.270  26.371  1.00  0.00     0.031 C 
ATOM     20  C   UNL A   1      38.702  28.005  29.867  1.00  0.00     0.029 A 
ATOM     21  C   UNL A   1      39.759  29.010  29.852  1.00  0.00     0.049 A 
ATOM     22  H   UNL A   1      41.561  28.925  28.804  1.00  0.00     0.167 HD
ATOM     23  C   UNL A   1      45.528  28.386  26.972  1.00  0.00     0.034 A 
ATOM     24  C   UNL A   1      39.738  30.182  30.521  1.00  0.00     0.034 A 
ATOM     25  C   UNL A   1      45.535  29.716  27.522  1.00  0.00     0.049 A 
ATOM     26  C   UNL A   1      40.913  31.121  30.378  1.00  0.00     0.074 A 
ATOM     27  C   UNL A   1      46.523  30.682  27.431  1.00  0.00     0.029 A 
ATOM     28  N   UNL A   1      44.500  30.274  28.261  1.00  0.00    -0.354 N 
ATOM     29  N   UNL A   1      42.039  30.938  29.730  1.00  0.00    -0.248 NA
ATOM     30  C   UNL A   1      40.803  32.434  31.031  1.00  0.00     0.031 C 
ATOM     31  C   UNL A   1      46.106  31.804  28.151  1.00  0.00     0.029 A 
ATOM     32  C   UNL A   1      44.828  31.566  28.635  1.00  0.00     0.049 A 
ATOM     33  H   UNL A   1      43.658  29.818  28.486  1.00  0.00     0.167 HD
ATOM     34  C   UNL A   1      42.747  32.131  29.856  1.00  0.00     0.074 A 
ATOM     35  C   UNL A   1      41.915  33.029  30.629  1.00  0.00     0.031 C 
ATOM     36  C   UNL A   1      43.972  32.457  29.376  1.00  0.00     0.034 A 
BRANCH  23  37
ATOM     37  C   UNL A   1      46.789  27.844  26.343  1.00  0.00     0.023 A 
ATOM     38  C   UNL A   1      47.142  28.133  25.013  1.00  0.00     0.031 A 
ATOM     39  C   UNL A   1      47.610  26.961  27.065  1.00  0.00     0.131 A 
ATOM     40  C   UNL A   1      48.205  27.444  24.411  1.00  0.00     0.055 A 
ATOM     41  C   UNL A   1      48.734  26.365  26.490  1.00  0.00     0.041 A 
ATOM     42  F   UNL A   1      47.318  26.638  28.335  1.00  0.00    -0.206 F 
ATOM     43  C   UNL A   1      49.023  26.586  25.147  1.00  0.00     0.022 A 
BRANCH  40  44
ATOM     44  S   UNL A   1      48.389  27.558  22.610  1.00  0.00     0.124 S 
ATOM     45  O   UNL A   1      49.595  28.379  22.496  1.00  0.00    -0.237 OA
ATOM     46  O   UNL A   1      48.524  26.169  22.209  1.00  0.00    -0.237 OA
ATOM     47  O   UNL A   1      47.153  28.218  22.183  1.00  0.00    -0.744 OA
ENDBRANCH  40  44
ENDBRANCH  23  37
BRANCH  24  48
ATOM     48  C   UNL A   1      38.583  30.579  31.382  1.00  0.00     0.023 A 
ATOM     49  C   UNL A   1      37.446  31.185  30.822  1.00  0.00     0.031 A 
ATOM     50  C   UNL A   1      38.650  30.482  32.782  1.00  0.00     0.131 A 
ATOM     51  C   UNL A   1      36.465  31.746  31.654  1.00  0.00     0.055 A 
ATOM     52  C   UNL A   1      37.638  30.985  33.607  1.00  0.00     0.041 A 
ATOM     53  F   UNL A   1      39.720  29.926  33.371  1.00  0.00    -0.206 F 
ATOM     54  C   UNL A   1      36.548  31.641  33.044  1.00  0.00     0.022 A 
BRANCH  51  55
ATOM     55  S   UNL A   1      35.153  32.742  30.892  1.00  0.00     0.124 S 
ATOM     56  O   UNL A   1      34.077  32.612  31.869  1.00  0.00    -0.237 OA
ATOM     57  O   UNL A   1      35.784  34.054  30.805  1.00  0.00    -0.237 OA
ATOM     58  O   UNL A   1      34.919  32.077  29.612  1.00  0.00    -0.744 OA
ENDBRANCH  51  55
ENDBRANCH  24  48
BRANCH  36  59
ATOM     59  C   UNL A   1      44.446  33.871  29.595  1.00  0.00     0.023 A 
ATOM     60  C   UNL A   1      44.277  34.873  28.625  1.00  0.00     0.031 A 
ATOM     61  C   UNL A   1      45.069  34.219  30.808  1.00  0.00     0.131 A 
ATOM     62  C   UNL A   1      44.768  36.164  28.865  1.00  0.00     0.055 A 
ATOM     63  C   UNL A   1      45.501  35.520  31.065  1.00  0.00     0.041 A 
ATOM     64  F   UNL A   1      45.257  33.299  31.768  1.00  0.00    -0.206 F 
ATOM     65  C   UNL A   1      45.361  36.499  30.085  1.00  0.00     0.022 A 
BRANCH  62  66
ATOM     66  S   UNL A   1      44.689  37.388  27.529  1.00  0.00     0.124 S 
ATOM     67  O   UNL A   1      43.307  37.257  27.080  1.00  0.00    -0.237 OA
ATOM     68  O   UNL A   1      45.017  38.629  28.223  1.00  0.00    -0.237 OA
ATOM     69  O   UNL A   1      45.697  36.925  26.578  1.00  0.00    -0.744 OA
ENDBRANCH  62  66
ENDBRANCH  36  59
ENDBRANCH  10  11
ENDBRANCH   3   5
ENDBRANCH   2   3
ENDBRANCH   1   2
BRANCH   1  70
ATOM     70  C   UNL A   1      35.866  21.659  24.645  1.00  0.00     0.274 C 
BRANCH  70  71
ATOM     71  O   UNL A   1      35.354  22.595  23.674  1.00  0.00    -0.460 OA
BRANCH  71  72
ATOM     72  C   UNL A   1      35.082  23.842  24.169  1.00  0.00     0.334 C 
ATOM     73  O   UNL A   1      35.591  24.264  25.206  1.00  0.00    -0.250 OA
BRANCH  72  74
ATOM     74  C   UNL A   1      33.982  24.598  23.366  1.00  0.00     0.249 C 
ATOM     75  C   UNL A   1      33.339  23.516  22.441  1.00  0.00     0.298 C 
ATOM     76  N   UNL A   1      32.908  25.179  24.216  1.00  0.00    -0.331 N 
ATOM     77  N   UNL A   1      32.567  22.463  23.164  1.00  0.00    -0.343 N 
ATOM     78  C   UNL A   1      32.188  24.177  25.022  1.00  0.00     0.180 C 
ATOM     79  C   UNL A   1      31.587  23.106  24.075  1.00  0.00     0.282 C 
ATOM     80  H   UNL A   1      33.209  21.885  23.707  1.00  0.00     0.346 HD
ATOM     81  H   UNL A   1      32.073  21.880  22.489  1.00  0.00     0.346 HD
BRANCH  76  82
ATOM     82  C   UNL A   1      32.238  26.376  24.010  1.00  0.00     0.148 A 
ATOM     83  N   UNL A   1      31.803  26.570  22.732  1.00  0.00    -0.237 NA
ATOM     84  C   UNL A   1      31.925  27.365  24.961  1.00  0.00     0.084 A 
ATOM     85  C   UNL A   1      30.965  27.598  22.431  1.00  0.00     0.126 A 
ATOM     86  C   UNL A   1      31.059  28.425  24.624  1.00  0.00     0.039 A 
ATOM     87  Cl  UNL A   1      32.618  27.467  26.541  1.00  0.00    -0.080 Cl
ATOM     88  C   UNL A   1      30.513  28.518  23.348  1.00  0.00     0.075 A 
BRANCH  88  89
ATOM     89  C   UNL A   1      29.522  29.572  22.954  1.00  0.00     0.417 C 
ATOM     90  F   UNL A   1      29.566  30.662  23.770  1.00  0.00    -0.166 F 
ATOM     91  F   UNL A   1      29.688  30.025  21.688  1.00  0.00    -0.166 F 
ATOM     92  F   UNL A   1      28.243  29.110  23.031  1.00  0.00    -0.166 F 
ENDBRANCH  88  89
ENDBRANCH  76  82
ENDBRANCH  72  74
ENDBRANCH  71  72
ENDBRANCH  70  71
ENDBRANCH   1  70
TORSDOF 16
ENDMDL
