MODEL 1
REMARK VINA RESULT:     -11.9      0.000      0.000
REMARK SMILES COc1ccc2[nH]c(C(=O)c3cc(C)ccn3)c(CC(=O)OCCOC(=O)c3ccc(-c4c5nc(c(-c6cc(S(=O)(=O)[O-])ccc6F)c6ccc([nH]6)c(-c6cc(S(=O)(=O)[O-])ccc6F)c6nc(c(-c7cc(S(=O)(=O)[O-])ccc7F)c7ccc4[nH]7)C=C6)C=C5)cc3)c2c1
REMARK SMILES IDX 23 1 22 2 20 3 21 4 19 5 18 6 3 7 4 8 92 9 5 10 91 11 6 12
REMARK SMILES IDX 7 13 8 14 2 16 1 17 9 18 10 19 11 20 12 21 17 22 13 23 16 24
REMARK SMILES IDX 14 25 15 26 24 27 25 28 26 29 27 30 28 31 29 32 90 33 30 34
REMARK SMILES IDX 89 35 31 36 32 37 33 38 83 39 34 40 88 41 82 42 84 43 35 44
REMARK SMILES IDX 87 45 81 46 80 47 36 49 68 50 48 51 67 52 49 53 52 54 66 55
REMARK SMILES IDX 85 56 50 57 51 58 65 60 86 61 53 62 37 63 38 64 46 65 39 66
REMARK SMILES IDX 45 67 47 68 44 69 40 70 41 71 42 72 43 73 69 74 70 75 78 76
REMARK SMILES IDX 71 77 77 78 79 79 76 80 72 81 73 82 74 83 75 84 54 85 55 86
REMARK SMILES IDX 63 87 56 88 62 89 64 90 61 91 57 92 58 93 59 94 60 95
REMARK H PARENT 7 15 84 48 52 59
REMARK Flexibility Score: inf
ROOT
ATOM      1  C   UNL A   1      31.915  27.867  26.980  1.00  0.00     0.274 C 
ENDROOT
BRANCH   1   2
ATOM      2  O   UNL A   1      30.765  27.127  26.522  1.00  0.00    -0.462 OA
BRANCH   2   3
ATOM      3  C   UNL A   1      31.023  25.875  26.054  1.00  0.00     0.310 C 
ATOM      4  O   UNL A   1      31.427  24.950  26.759  1.00  0.00    -0.252 OA
BRANCH   3   5
ATOM      5  C   UNL A   1      30.737  25.673  24.581  1.00  0.00     0.161 C 
BRANCH   5   6
ATOM      6  C   UNL A   1      30.993  26.844  23.680  1.00  0.00     0.000 A 
ATOM      7  C   UNL A   1      27.868  28.885  22.864  1.00  0.00     0.119 A 
ATOM      8  C   UNL A   1      28.525  29.863  22.120  1.00  0.00     0.048 A 
ATOM      9  C   UNL A   1      28.586  27.807  23.388  1.00  0.00     0.057 A 
ATOM     10  C   UNL A   1      29.904  29.783  21.872  1.00  0.00     0.030 A 
ATOM     11  C   UNL A   1      29.978  27.724  23.189  1.00  0.00     0.008 A 
ATOM     12  C   UNL A   1      30.602  28.709  22.432  1.00  0.00     0.046 A 
ATOM     13  N   UNL A   1      31.943  28.405  22.412  1.00  0.00    -0.352 N 
ATOM     14  C   UNL A   1      32.221  27.398  23.312  1.00  0.00     0.093 A 
ATOM     15  H   UNL A   1      32.611  28.844  21.836  1.00  0.00     0.167 HD
BRANCH   7  16
ATOM     16  O   UNL A   1      26.540  28.888  23.202  1.00  0.00    -0.497 OA
ATOM     17  C   UNL A   1      26.070  27.761  23.924  1.00  0.00     0.278 C 
ENDBRANCH   7  16
BRANCH  14  18
ATOM     18  C   UNL A   1      33.549  27.088  23.819  1.00  0.00     0.227 C 
ATOM     19  O   UNL A   1      34.359  27.954  24.141  1.00  0.00    -0.285 OA
BRANCH  18  20
ATOM     20  C   UNL A   1      34.013  25.680  23.833  1.00  0.00     0.113 A 
ATOM     21  C   UNL A   1      34.564  25.157  24.996  1.00  0.00     0.036 A 
ATOM     22  N   UNL A   1      33.838  24.977  22.688  1.00  0.00    -0.253 NA
ATOM     23  C   UNL A   1      34.948  23.814  24.997  1.00  0.00    -0.047 A 
ATOM     24  C   UNL A   1      34.133  23.664  22.747  1.00  0.00     0.112 A 
ATOM     25  C   UNL A   1      35.582  23.185  26.203  1.00  0.00     0.044 C 
ATOM     26  C   UNL A   1      34.691  23.047  23.856  1.00  0.00     0.023 A 
ENDBRANCH  18  20
ENDBRANCH  14  18
ENDBRANCH   5   6
ENDBRANCH   3   5
ENDBRANCH   2   3
ENDBRANCH   1   2
BRANCH   1  27
ATOM     27  C   UNL A   1      31.725  29.361  26.740  1.00  0.00     0.275 C 
BRANCH  27  28
ATOM     28  O   UNL A   1      32.974  29.952  26.347  1.00  0.00    -0.458 OA
BRANCH  28  29
ATOM     29  C   UNL A   1      33.357  31.024  27.078  1.00  0.00     0.338 C 
ATOM     30  O   UNL A   1      32.775  32.100  27.146  1.00  0.00    -0.246 OA
BRANCH  29  31
ATOM     31  C   UNL A   1      34.647  30.760  27.737  1.00  0.00     0.060 A 
ATOM     32  C   UNL A   1      34.969  29.499  28.243  1.00  0.00     0.016 A 
ATOM     33  C   UNL A   1      35.521  31.833  27.924  1.00  0.00     0.016 A 
ATOM     34  C   UNL A   1      36.126  29.330  29.006  1.00  0.00     0.010 A 
ATOM     35  C   UNL A   1      36.727  31.634  28.597  1.00  0.00     0.010 A 
ATOM     36  C   UNL A   1      37.034  30.386  29.165  1.00  0.00    -0.014 A 
BRANCH  36  37
ATOM     37  C   UNL A   1      38.318  30.206  29.895  1.00  0.00     0.031 A 
ATOM     38  C   UNL A   1      39.365  29.260  29.370  1.00  0.00     0.074 A 
ATOM     39  C   UNL A   1      38.517  30.841  31.068  1.00  0.00     0.049 A 
ATOM     40  N   UNL A   1      40.413  28.763  29.975  1.00  0.00    -0.248 NA
ATOM     41  C   UNL A   1      39.193  28.796  27.985  1.00  0.00     0.031 C 
ATOM     42  C   UNL A   1      37.604  31.817  31.668  1.00  0.00     0.029 A 
ATOM     43  N   UNL A   1      39.540  30.745  31.979  1.00  0.00    -0.354 N 
ATOM     44  C   UNL A   1      41.006  27.895  29.064  1.00  0.00     0.074 A 
ATOM     45  C   UNL A   1      40.187  27.925  27.868  1.00  0.00     0.031 C 
ATOM     46  C   UNL A   1      38.108  32.230  32.839  1.00  0.00     0.029 A 
ATOM     47  C   UNL A   1      39.328  31.484  33.118  1.00  0.00     0.049 A 
ATOM     48  H   UNL A   1      40.347  30.200  31.829  1.00  0.00     0.167 HD
ATOM     49  C   UNL A   1      42.123  27.141  29.219  1.00  0.00     0.034 A 
ATOM     50  C   UNL A   1      39.996  31.514  34.288  1.00  0.00     0.034 A 
ATOM     51  C   UNL A   1      42.937  27.147  30.414  1.00  0.00     0.049 A 
ATOM     52  C   UNL A   1      41.192  30.620  34.464  1.00  0.00     0.074 A 
ATOM     53  C   UNL A   1      44.106  26.447  30.668  1.00  0.00     0.029 A 
ATOM     54  N   UNL A   1      42.669  27.889  31.558  1.00  0.00    -0.354 N 
ATOM     55  N   UNL A   1      41.713  29.762  33.618  1.00  0.00    -0.248 NA
ATOM     56  C   UNL A   1      41.881  30.689  35.758  1.00  0.00     0.031 C 
ATOM     57  C   UNL A   1      44.509  26.720  31.981  1.00  0.00     0.029 A 
ATOM     58  C   UNL A   1      43.632  27.643  32.527  1.00  0.00     0.049 A 
ATOM     59  H   UNL A   1      41.906  28.502  31.665  1.00  0.00     0.167 HD
ATOM     60  C   UNL A   1      42.802  29.200  34.274  1.00  0.00     0.074 A 
ATOM     61  C   UNL A   1      42.869  29.823  35.581  1.00  0.00     0.031 C 
ATOM     62  C   UNL A   1      43.672  28.257  33.833  1.00  0.00     0.034 A 
BRANCH  49  63
ATOM     63  C   UNL A   1      42.495  26.201  28.095  1.00  0.00     0.023 A 
ATOM     64  C   UNL A   1      41.907  24.931  27.953  1.00  0.00     0.031 A 
ATOM     65  C   UNL A   1      43.472  26.581  27.156  1.00  0.00     0.131 A 
ATOM     66  C   UNL A   1      42.347  24.065  26.938  1.00  0.00     0.055 A 
ATOM     67  C   UNL A   1      43.851  25.745  26.104  1.00  0.00     0.041 A 
ATOM     68  F   UNL A   1      44.085  27.771  27.253  1.00  0.00    -0.206 F 
ATOM     69  C   UNL A   1      43.296  24.474  25.998  1.00  0.00     0.022 A 
BRANCH  66  70
ATOM     70  S   UNL A   1      41.754  22.349  26.934  1.00  0.00     0.124 S 
ATOM     71  O   UNL A   1      42.672  21.711  27.874  1.00  0.00    -0.237 OA
ATOM     72  O   UNL A   1      40.373  22.490  27.385  1.00  0.00    -0.237 OA
ATOM     73  O   UNL A   1      41.915  21.933  25.542  1.00  0.00    -0.744 OA
ENDBRANCH  66  70
ENDBRANCH  49  63
BRANCH  50  74
ATOM     74  C   UNL A   1      39.499  32.361  35.406  1.00  0.00     0.023 A 
ATOM     75  C   UNL A   1      39.943  33.681  35.568  1.00  0.00     0.031 A 
ATOM     76  C   UNL A   1      38.576  31.851  36.340  1.00  0.00     0.131 A 
ATOM     77  C   UNL A   1      39.483  34.442  36.654  1.00  0.00     0.055 A 
ATOM     78  C   UNL A   1      38.085  32.627  37.388  1.00  0.00     0.041 A 
ATOM     79  F   UNL A   1      38.121  30.593  36.227  1.00  0.00    -0.206 F 
ATOM     80  C   UNL A   1      38.545  33.930  37.556  1.00  0.00     0.022 A 
BRANCH  77  81
ATOM     81  S   UNL A   1      40.176  36.097  36.911  1.00  0.00     0.124 S 
ATOM     82  O   UNL A   1      39.412  36.565  38.062  1.00  0.00    -0.237 OA
ATOM     83  O   UNL A   1      41.584  35.803  37.153  1.00  0.00    -0.237 OA
ATOM     84  O   UNL A   1      39.892  36.784  35.653  1.00  0.00    -0.744 OA
ENDBRANCH  77  81
ENDBRANCH  50  74
BRANCH  62  85
ATOM     85  C   UNL A   1      44.793  27.884  34.767  1.00  0.00     0.023 A 
ATOM     86  C   UNL A   1      44.675  26.817  35.675  1.00  0.00     0.031 A 
ATOM     87  C   UNL A   1      45.986  28.629  34.766  1.00  0.00     0.131 A 
ATOM     88  C   UNL A   1      45.716  26.552  36.577  1.00  0.00     0.055 A 
ATOM     89  C   UNL A   1      47.037  28.330  35.634  1.00  0.00     0.041 A 
ATOM     90  F   UNL A   1      46.147  29.660  33.922  1.00  0.00    -0.206 F 
ATOM     91  C   UNL A   1      46.901  27.294  36.554  1.00  0.00     0.022 A 
BRANCH  88  92
ATOM     92  S   UNL A   1      45.478  25.267  37.835  1.00  0.00     0.124 S 
ATOM     93  O   UNL A   1      46.746  25.309  38.556  1.00  0.00    -0.237 OA
ATOM     94  O   UNL A   1      44.313  25.757  38.567  1.00  0.00    -0.237 OA
ATOM     95  O   UNL A   1      45.249  24.055  37.051  1.00  0.00    -0.744 OA
ENDBRANCH  88  92
ENDBRANCH  62  85
ENDBRANCH  36  37
ENDBRANCH  29  31
ENDBRANCH  28  29
ENDBRANCH  27  28
ENDBRANCH   1  27
TORSDOF 18
ENDMDL
MODEL 2
REMARK VINA RESULT:     -11.7      1.710      3.539
REMARK SMILES COc1ccc2[nH]c(C(=O)c3cc(C)ccn3)c(CC(=O)OCCOC(=O)c3ccc(-c4c5nc(c(-c6cc(S(=O)(=O)[O-])ccc6F)c6ccc([nH]6)c(-c6cc(S(=O)(=O)[O-])ccc6F)c6nc(c(-c7cc(S(=O)(=O)[O-])ccc7F)c7ccc4[nH]7)C=C6)C=C5)cc3)c2c1
REMARK SMILES IDX 23 1 22 2 20 3 21 4 19 5 18 6 3 7 4 8 92 9 5 10 91 11 6 12
REMARK SMILES IDX 7 13 8 14 2 16 1 17 9 18 10 19 11 20 12 21 17 22 13 23 16 24
REMARK SMILES IDX 14 25 15 26 24 27 25 28 26 29 27 30 28 31 29 32 90 33 30 34
REMARK SMILES IDX 89 35 31 36 32 37 33 38 83 39 34 40 88 41 82 42 84 43 35 44
REMARK SMILES IDX 87 45 81 46 80 47 36 49 68 50 48 51 67 52 49 53 52 54 66 55
REMARK SMILES IDX 85 56 50 57 51 58 65 60 86 61 53 62 37 63 38 64 46 65 39 66
REMARK SMILES IDX 45 67 47 68 44 69 40 70 41 71 42 72 43 73 69 74 70 75 78 76
REMARK SMILES IDX 71 77 77 78 79 79 76 80 72 81 73 82 74 83 75 84 54 85 55 86
REMARK SMILES IDX 63 87 56 88 62 89 64 90 61 91 57 92 58 93 59 94 60 95
REMARK H PARENT 7 15 84 48 52 59
REMARK Flexibility Score: inf
ROOT
ATOM      1  C   UNL A   1      32.199  28.606  27.420  1.00  0.00     0.274 C 
ENDROOT
BRANCH   1   2
ATOM      2  O   UNL A   1      31.009  27.799  27.300  1.00  0.00    -0.462 OA
BRANCH   2   3
ATOM      3  C   UNL A   1      31.167  26.618  26.640  1.00  0.00     0.310 C 
ATOM      4  O   UNL A   1      30.244  25.843  26.395  1.00  0.00    -0.252 OA
BRANCH   3   5
ATOM      5  C   UNL A   1      32.580  26.329  26.178  1.00  0.00     0.161 C 
BRANCH   5   6
ATOM      6  C   UNL A   1      32.743  25.876  24.758  1.00  0.00     0.000 A 
ATOM      7  C   UNL A   1      32.587  22.084  24.310  1.00  0.00     0.119 A 
ATOM      8  C   UNL A   1      32.692  22.099  22.921  1.00  0.00     0.048 A 
ATOM      9  C   UNL A   1      32.643  23.283  25.027  1.00  0.00     0.057 A 
ATOM     10  C   UNL A   1      32.865  23.302  22.218  1.00  0.00     0.030 A 
ATOM     11  C   UNL A   1      32.776  24.507  24.344  1.00  0.00     0.008 A 
ATOM     12  C   UNL A   1      32.890  24.488  22.959  1.00  0.00     0.046 A 
ATOM     13  N   UNL A   1      32.985  25.797  22.548  1.00  0.00    -0.352 N 
ATOM     14  C   UNL A   1      32.707  26.649  23.596  1.00  0.00     0.093 A 
ATOM     15  H   UNL A   1      33.218  26.085  21.636  1.00  0.00     0.167 HD
BRANCH   7  16
ATOM     16  O   UNL A   1      32.372  20.978  25.089  1.00  0.00    -0.497 OA
ATOM     17  C   UNL A   1      32.609  19.720  24.479  1.00  0.00     0.278 C 
ENDBRANCH   7  16
BRANCH  14  18
ATOM     18  C   UNL A   1      32.352  28.053  23.445  1.00  0.00     0.227 C 
ATOM     19  O   UNL A   1      33.185  28.956  23.457  1.00  0.00    -0.285 OA
BRANCH  18  20
ATOM     20  C   UNL A   1      30.922  28.442  23.406  1.00  0.00     0.113 A 
ATOM     21  C   UNL A   1      30.580  29.785  23.503  1.00  0.00     0.036 A 
ATOM     22  N   UNL A   1      30.029  27.436  23.248  1.00  0.00    -0.253 NA
ATOM     23  C   UNL A   1      29.229  30.128  23.415  1.00  0.00    -0.047 A 
ATOM     24  C   UNL A   1      28.745  27.804  23.076  1.00  0.00     0.112 A 
ATOM     25  C   UNL A   1      28.776  31.553  23.544  1.00  0.00     0.044 C 
ATOM     26  C   UNL A   1      28.300  29.115  23.159  1.00  0.00     0.023 A 
ENDBRANCH  18  20
ENDBRANCH  14  18
ENDBRANCH   5   6
ENDBRANCH   3   5
ENDBRANCH   2   3
ENDBRANCH   1   2
BRANCH   1  27
ATOM     27  C   UNL A   1      31.955  30.009  26.872  1.00  0.00     0.275 C 
BRANCH  27  28
ATOM     28  O   UNL A   1      33.208  30.613  26.514  1.00  0.00    -0.458 OA
BRANCH  28  29
ATOM     29  C   UNL A   1      33.648  31.568  27.365  1.00  0.00     0.338 C 
ATOM     30  O   UNL A   1      33.104  32.642  27.595  1.00  0.00    -0.246 OA
BRANCH  29  31
ATOM     31  C   UNL A   1      34.949  31.184  27.938  1.00  0.00     0.060 A 
ATOM     32  C   UNL A   1      35.188  29.895  28.420  1.00  0.00     0.016 A 
ATOM     33  C   UNL A   1      35.928  32.171  28.068  1.00  0.00     0.016 A 
ATOM     34  C   UNL A   1      36.372  29.617  29.104  1.00  0.00     0.010 A 
ATOM     35  C   UNL A   1      37.152  31.859  28.660  1.00  0.00     0.010 A 
ATOM     36  C   UNL A   1      37.380  30.584  29.205  1.00  0.00    -0.014 A 
BRANCH  36  37
ATOM     37  C   UNL A   1      38.688  30.284  29.849  1.00  0.00     0.031 A 
ATOM     38  C   UNL A   1      39.631  29.289  29.226  1.00  0.00     0.074 A 
ATOM     39  C   UNL A   1      39.000  30.853  31.031  1.00  0.00     0.049 A 
ATOM     40  N   UNL A   1      40.674  28.695  29.747  1.00  0.00    -0.248 NA
ATOM     41  C   UNL A   1      39.347  28.898  27.837  1.00  0.00     0.031 C 
ATOM     42  C   UNL A   1      38.196  31.864  31.722  1.00  0.00     0.029 A 
ATOM     43  N   UNL A   1      40.064  30.646  31.874  1.00  0.00    -0.354 N 
ATOM     44  C   UNL A   1      41.148  27.826  28.769  1.00  0.00     0.074 A 
ATOM     45  C   UNL A   1      40.266  27.965  27.627  1.00  0.00     0.031 C 
ATOM     46  C   UNL A   1      38.795  32.191  32.875  1.00  0.00     0.029 A 
ATOM     47  C   UNL A   1      39.972  31.349  33.052  1.00  0.00     0.049 A 
ATOM     48  H   UNL A   1      40.819  30.052  31.655  1.00  0.00     0.167 HD
ATOM     49  C   UNL A   1      42.215  26.990  28.828  1.00  0.00     0.034 A 
ATOM     50  C   UNL A   1      40.707  31.282  34.179  1.00  0.00     0.034 A 
ATOM     51  C   UNL A   1      43.094  26.887  29.970  1.00  0.00     0.049 A 
ATOM     52  C   UNL A   1      41.843  30.300  34.249  1.00  0.00     0.074 A 
ATOM     53  C   UNL A   1      44.222  26.096  30.126  1.00  0.00     0.029 A 
ATOM     54  N   UNL A   1      42.947  27.597  31.156  1.00  0.00    -0.354 N 
ATOM     55  N   UNL A   1      42.250  29.443  33.340  1.00  0.00    -0.248 NA
ATOM     56  C   UNL A   1      42.608  30.264  35.500  1.00  0.00     0.031 C 
ATOM     57  C   UNL A   1      44.718  26.285  31.422  1.00  0.00     0.029 A 
ATOM     58  C   UNL A   1      43.944  27.243  32.055  1.00  0.00     0.049 A 
ATOM     59  H   UNL A   1      42.238  28.258  31.333  1.00  0.00     0.167 HD
ATOM     60  C   UNL A   1      43.331  28.779  33.907  1.00  0.00     0.074 A 
ATOM     61  C   UNL A   1      43.518  29.340  35.230  1.00  0.00     0.031 C 
ATOM     62  C   UNL A   1      44.103  27.796  33.379  1.00  0.00     0.034 A 
BRANCH  49  63
ATOM     63  C   UNL A   1      42.452  26.074  27.648  1.00  0.00     0.023 A 
ATOM     64  C   UNL A   1      41.904  24.781  27.579  1.00  0.00     0.031 A 
ATOM     65  C   UNL A   1      43.258  26.503  26.578  1.00  0.00     0.131 A 
ATOM     66  C   UNL A   1      42.222  23.941  26.499  1.00  0.00     0.055 A 
ATOM     67  C   UNL A   1      43.508  25.692  25.469  1.00  0.00     0.041 A 
ATOM     68  F   UNL A   1      43.827  27.719  26.596  1.00  0.00    -0.206 F 
ATOM     69  C   UNL A   1      42.999  24.398  25.431  1.00  0.00     0.022 A 
BRANCH  66  70
ATOM     70  S   UNL A   1      41.709  22.201  26.562  1.00  0.00     0.124 S 
ATOM     71  O   UNL A   1      42.398  21.727  27.759  1.00  0.00    -0.237 OA
ATOM     72  O   UNL A   1      40.257  22.302  26.658  1.00  0.00    -0.237 OA
ATOM     73  O   UNL A   1      42.213  21.648  25.306  1.00  0.00    -0.744 OA
ENDBRANCH  66  70
ENDBRANCH  49  63
BRANCH  50  74
ATOM     74  C   UNL A   1      40.338  32.114  35.357  1.00  0.00     0.023 A 
ATOM     75  C   UNL A   1      39.287  31.740  36.207  1.00  0.00     0.031 A 
ATOM     76  C   UNL A   1      41.030  33.306  35.641  1.00  0.00     0.131 A 
ATOM     77  C   UNL A   1      38.940  32.564  37.289  1.00  0.00     0.055 A 
ATOM     78  C   UNL A   1      40.714  34.096  36.746  1.00  0.00     0.041 A 
ATOM     79  F   UNL A   1      42.044  33.706  34.858  1.00  0.00    -0.206 F 
ATOM     80  C   UNL A   1      39.656  33.731  37.573  1.00  0.00     0.022 A 
BRANCH  77  81
ATOM     81  S   UNL A   1      37.494  32.123  38.288  1.00  0.00     0.124 S 
ATOM     82  O   UNL A   1      36.474  33.013  37.747  1.00  0.00    -0.237 OA
ATOM     83  O   UNL A   1      37.335  30.705  37.983  1.00  0.00    -0.237 OA
ATOM     84  O   UNL A   1      37.920  32.420  39.654  1.00  0.00    -0.744 OA
ENDBRANCH  77  81
ENDBRANCH  50  74
BRANCH  62  85
ATOM     85  C   UNL A   1      45.246  27.306  34.228  1.00  0.00     0.023 A 
ATOM     86  C   UNL A   1      45.099  26.221  35.110  1.00  0.00     0.031 A 
ATOM     87  C   UNL A   1      46.492  27.956  34.174  1.00  0.00     0.131 A 
ATOM     88  C   UNL A   1      46.169  25.845  35.936  1.00  0.00     0.055 A 
ATOM     89  C   UNL A   1      47.567  27.548  34.964  1.00  0.00     0.041 A 
ATOM     90  F   UNL A   1      46.682  29.000  33.352  1.00  0.00    -0.206 F 
ATOM     91  C   UNL A   1      47.406  26.494  35.860  1.00  0.00     0.022 A 
BRANCH  88  92
ATOM     92  S   UNL A   1      45.907  24.540  37.168  1.00  0.00     0.124 S 
ATOM     93  O   UNL A   1      45.882  23.340  36.339  1.00  0.00    -0.237 OA
ATOM     94  O   UNL A   1      47.071  24.690  38.037  1.00  0.00    -0.237 OA
ATOM     95  O   UNL A   1      44.630  24.897  37.782  1.00  0.00    -0.744 OA
ENDBRANCH  88  92
ENDBRANCH  62  85
ENDBRANCH  36  37
ENDBRANCH  29  31
ENDBRANCH  28  29
ENDBRANCH  27  28
ENDBRANCH   1  27
TORSDOF 18
ENDMDL
MODEL 3
REMARK VINA RESULT:     -11.3      4.448     10.738
REMARK SMILES COc1ccc2[nH]c(C(=O)c3cc(C)ccn3)c(CC(=O)OCCOC(=O)c3ccc(-c4c5nc(c(-c6cc(S(=O)(=O)[O-])ccc6F)c6ccc([nH]6)c(-c6cc(S(=O)(=O)[O-])ccc6F)c6nc(c(-c7cc(S(=O)(=O)[O-])ccc7F)c7ccc4[nH]7)C=C6)C=C5)cc3)c2c1
REMARK SMILES IDX 23 1 22 2 20 3 21 4 19 5 18 6 3 7 4 8 92 9 5 10 91 11 6 12
REMARK SMILES IDX 7 13 8 14 2 16 1 17 9 18 10 19 11 20 12 21 17 22 13 23 16 24
REMARK SMILES IDX 14 25 15 26 24 27 25 28 26 29 27 30 28 31 29 32 90 33 30 34
REMARK SMILES IDX 89 35 31 36 32 37 33 38 83 39 34 40 88 41 82 42 84 43 35 44
REMARK SMILES IDX 87 45 81 46 80 47 36 49 68 50 48 51 67 52 49 53 52 54 66 55
REMARK SMILES IDX 85 56 50 57 51 58 65 60 86 61 53 62 37 63 38 64 46 65 39 66
REMARK SMILES IDX 45 67 47 68 44 69 40 70 41 71 42 72 43 73 69 74 70 75 78 76
REMARK SMILES IDX 71 77 77 78 79 79 76 80 72 81 73 82 74 83 75 84 54 85 55 86
REMARK SMILES IDX 63 87 56 88 62 89 64 90 61 91 57 92 58 93 59 94 60 95
REMARK H PARENT 7 15 84 48 52 59
REMARK Flexibility Score: inf
ROOT
ATOM      1  C   UNL A   1      34.361  33.914  29.904  1.00  0.00     0.274 C 
ENDROOT
BRANCH   1   2
ATOM      2  O   UNL A   1      34.179  32.774  30.769  1.00  0.00    -0.462 OA
BRANCH   2   3
ATOM      3  C   UNL A   1      34.891  32.800  31.929  1.00  0.00     0.310 C 
ATOM      4  O   UNL A   1      34.414  33.117  33.018  1.00  0.00    -0.252 OA
BRANCH   3   5
ATOM      5  C   UNL A   1      36.336  32.365  31.801  1.00  0.00     0.161 C 
BRANCH   5   6
ATOM      6  C   UNL A   1      37.364  33.256  32.433  1.00  0.00     0.000 A 
ATOM      7  C   UNL A   1      37.933  32.575  36.149  1.00  0.00     0.119 A 
ATOM      8  C   UNL A   1      38.958  33.505  36.311  1.00  0.00     0.048 A 
ATOM      9  C   UNL A   1      37.297  32.444  34.912  1.00  0.00     0.057 A 
ATOM     10  C   UNL A   1      39.363  34.330  35.251  1.00  0.00     0.030 A 
ATOM     11  C   UNL A   1      37.712  33.232  33.820  1.00  0.00     0.008 A 
ATOM     12  C   UNL A   1      38.729  34.159  34.016  1.00  0.00     0.046 A 
ATOM     13  N   UNL A   1      38.950  34.770  32.804  1.00  0.00    -0.352 N 
ATOM     14  C   UNL A   1      38.273  34.107  31.802  1.00  0.00     0.093 A 
ATOM     15  H   UNL A   1      39.513  35.567  32.670  1.00  0.00     0.167 HD
BRANCH   7  16
ATOM     16  O   UNL A   1      37.491  31.692  37.099  1.00  0.00    -0.497 OA
ATOM     17  C   UNL A   1      37.359  32.198  38.418  1.00  0.00     0.278 C 
ENDBRANCH   7  16
BRANCH  14  18
ATOM     18  C   UNL A   1      38.566  34.239  30.383  1.00  0.00     0.227 C 
ATOM     19  O   UNL A   1      37.694  34.215  29.517  1.00  0.00    -0.285 OA
BRANCH  18  20
ATOM     20  C   UNL A   1      39.977  34.272  29.931  1.00  0.00     0.113 A 
ATOM     21  C   UNL A   1      40.367  35.213  28.986  1.00  0.00     0.036 A 
ATOM     22  N   UNL A   1      40.814  33.375  30.505  1.00  0.00    -0.253 NA
ATOM     23  C   UNL A   1      41.713  35.255  28.614  1.00  0.00    -0.047 A 
ATOM     24  C   UNL A   1      42.120  33.498  30.195  1.00  0.00     0.112 A 
ATOM     25  C   UNL A   1      42.205  36.220  27.576  1.00  0.00     0.044 C 
ATOM     26  C   UNL A   1      42.610  34.400  29.263  1.00  0.00     0.023 A 
ENDBRANCH  18  20
ENDBRANCH  14  18
ENDBRANCH   5   6
ENDBRANCH   3   5
ENDBRANCH   2   3
ENDBRANCH   1   2
BRANCH   1  27
ATOM     27  C   UNL A   1      34.063  33.543  28.454  1.00  0.00     0.275 C 
BRANCH  27  28
ATOM     28  O   UNL A   1      35.136  32.747  27.927  1.00  0.00    -0.458 OA
BRANCH  28  29
ATOM     29  C   UNL A   1      34.907  31.414  27.914  1.00  0.00     0.338 C 
ATOM     30  O   UNL A   1      33.862  30.859  27.596  1.00  0.00    -0.246 OA
BRANCH  29  31
ATOM     31  C   UNL A   1      36.081  30.688  28.428  1.00  0.00     0.060 A 
ATOM     32  C   UNL A   1      35.955  29.648  29.352  1.00  0.00     0.016 A 
ATOM     33  C   UNL A   1      37.348  31.120  28.031  1.00  0.00     0.016 A 
ATOM     34  C   UNL A   1      37.095  29.098  29.940  1.00  0.00     0.010 A 
ATOM     35  C   UNL A   1      38.485  30.495  28.543  1.00  0.00     0.010 A 
ATOM     36  C   UNL A   1      38.373  29.491  29.520  1.00  0.00    -0.014 A 
BRANCH  36  37
ATOM     37  C   UNL A   1      39.603  28.854  30.064  1.00  0.00     0.031 A 
ATOM     38  C   UNL A   1      40.270  29.416  31.291  1.00  0.00     0.074 A 
ATOM     39  C   UNL A   1      40.161  27.812  29.416  1.00  0.00     0.049 A 
ATOM     40  N   UNL A   1      41.469  29.187  31.764  1.00  0.00    -0.248 NA
ATOM     41  C   UNL A   1      39.488  30.382  32.078  1.00  0.00     0.031 C 
ATOM     42  C   UNL A   1      39.595  27.144  28.242  1.00  0.00     0.029 A 
ATOM     43  N   UNL A   1      41.341  27.145  29.638  1.00  0.00    -0.354 N 
ATOM     44  C   UNL A   1      41.605  30.009  32.878  1.00  0.00     0.074 A 
ATOM     45  C   UNL A   1      40.367  30.752  33.000  1.00  0.00     0.031 C 
ATOM     46  C   UNL A   1      40.423  26.165  27.851  1.00  0.00     0.029 A 
ATOM     47  C   UNL A   1      41.618  26.194  28.684  1.00  0.00     0.049 A 
ATOM     48  H   UNL A   1      41.931  27.331  30.405  1.00  0.00     0.167 HD
ATOM     49  C   UNL A   1      42.669  30.131  33.712  1.00  0.00     0.034 A 
ATOM     50  C   UNL A   1      42.731  25.470  28.458  1.00  0.00     0.034 A 
ATOM     51  C   UNL A   1      43.884  29.359  33.583  1.00  0.00     0.049 A 
ATOM     52  C   UNL A   1      43.923  25.671  29.351  1.00  0.00     0.074 A 
ATOM     53  C   UNL A   1      45.012  29.380  34.389  1.00  0.00     0.029 A 
ATOM     54  N   UNL A   1      44.134  28.427  32.584  1.00  0.00    -0.354 N 
ATOM     55  N   UNL A   1      44.064  26.490  30.368  1.00  0.00    -0.248 NA
ATOM     56  C   UNL A   1      45.111  24.861  29.058  1.00  0.00     0.031 C 
ATOM     57  C   UNL A   1      45.961  28.507  33.844  1.00  0.00     0.029 A 
ATOM     58  C   UNL A   1      45.405  27.888  32.736  1.00  0.00     0.049 A 
ATOM     59  H   UNL A   1      43.501  28.182  31.870  1.00  0.00     0.167 HD
ATOM     60  C   UNL A   1      45.352  26.279  30.846  1.00  0.00     0.074 A 
ATOM     61  C   UNL A   1      45.943  25.251  30.013  1.00  0.00     0.031 C 
ATOM     62  C   UNL A   1      45.987  26.879  31.884  1.00  0.00     0.034 A 
BRANCH  49  63
ATOM     63  C   UNL A   1      42.589  31.180  34.797  1.00  0.00     0.023 A 
ATOM     64  C   UNL A   1      42.931  32.525  34.568  1.00  0.00     0.031 A 
ATOM     65  C   UNL A   1      42.178  30.820  36.093  1.00  0.00     0.131 A 
ATOM     66  C   UNL A   1      42.918  33.443  35.631  1.00  0.00     0.055 A 
ATOM     67  C   UNL A   1      42.093  31.753  37.129  1.00  0.00     0.041 A 
ATOM     68  F   UNL A   1      41.860  29.547  36.380  1.00  0.00    -0.206 F 
ATOM     69  C   UNL A   1      42.476  33.071  36.904  1.00  0.00     0.022 A 
BRANCH  66  70
ATOM     70  S   UNL A   1      43.602  35.103  35.364  1.00  0.00     0.124 S 
ATOM     71  O   UNL A   1      42.531  35.956  35.874  1.00  0.00    -0.237 OA
ATOM     72  O   UNL A   1      44.827  35.073  36.155  1.00  0.00    -0.237 OA
ATOM     73  O   UNL A   1      43.797  35.166  33.916  1.00  0.00    -0.744 OA
ENDBRANCH  66  70
ENDBRANCH  49  63
BRANCH  50  74
ATOM     74  C   UNL A   1      42.795  24.552  27.288  1.00  0.00     0.023 A 
ATOM     75  C   UNL A   1      42.265  23.255  27.355  1.00  0.00     0.031 A 
ATOM     76  C   UNL A   1      43.401  24.960  26.084  1.00  0.00     0.131 A 
ATOM     77  C   UNL A   1      42.373  22.401  26.247  1.00  0.00     0.055 A 
ATOM     78  C   UNL A   1      43.462  24.124  24.970  1.00  0.00     0.041 A 
ATOM     79  F   UNL A   1      43.922  26.192  25.970  1.00  0.00    -0.206 F 
ATOM     80  C   UNL A   1      42.953  22.832  25.050  1.00  0.00     0.022 A 
BRANCH  77  81
ATOM     81  S   UNL A   1      41.799  20.689  26.410  1.00  0.00     0.124 S 
ATOM     82  O   UNL A   1      42.181  20.376  27.783  1.00  0.00    -0.237 OA
ATOM     83  O   UNL A   1      40.368  20.824  26.159  1.00  0.00    -0.237 OA
ATOM     84  O   UNL A   1      42.547  19.978  25.377  1.00  0.00    -0.744 OA
ENDBRANCH  77  81
ENDBRANCH  50  74
BRANCH  62  85
ATOM     85  C   UNL A   1      47.380  26.396  32.192  1.00  0.00     0.023 A 
ATOM     86  C   UNL A   1      47.611  25.325  33.074  1.00  0.00     0.031 A 
ATOM     87  C   UNL A   1      48.491  27.036  31.617  1.00  0.00     0.131 A 
ATOM     88  C   UNL A   1      48.928  24.955  33.390  1.00  0.00     0.055 A 
ATOM     89  C   UNL A   1      49.797  26.633  31.898  1.00  0.00     0.041 A 
ATOM     90  F   UNL A   1      48.323  28.066  30.772  1.00  0.00    -0.206 F 
ATOM     91  C   UNL A   1      50.021  25.595  32.798  1.00  0.00     0.022 A 
BRANCH  88  92
ATOM     92  S   UNL A   1      49.200  23.671  34.642  1.00  0.00     0.124 S 
ATOM     93  O   UNL A   1      47.943  22.933  34.597  1.00  0.00    -0.237 OA
ATOM     94  O   UNL A   1      50.370  22.969  34.122  1.00  0.00    -0.237 OA
ATOM     95  O   UNL A   1      49.431  24.430  35.869  1.00  0.00    -0.744 OA
ENDBRANCH  88  92
ENDBRANCH  62  85
ENDBRANCH  36  37
ENDBRANCH  29  31
ENDBRANCH  28  29
ENDBRANCH  27  28
ENDBRANCH   1  27
TORSDOF 18
ENDMDL
