MODEL 1
REMARK VINA RESULT:     -12.9      0.000      0.000
REMARK SMILES NS(=O)(=O)c1ccc(-n2nc(C(=O)OCCOC(=O)c3ccc(-c4c5nc(c(-c6cc(S(=O)(=O)[O-])ccc6F)c6ccc([nH]6)c(-c6cc(S(=O)(=O)[O-])ccc6F)c6nc(c(-c7cc(S(=O)(=O)[O-])ccc7F)c7ccc4[nH]7)C=C6)C=C5)cc3)c(Cl)c2-c2ccc(Cl)cc2)cc1
REMARK SMILES IDX 15 1 14 2 12 3 13 4 11 5 9 6 10 7 85 8 83 9 84 10 8 11 5 12
REMARK SMILES IDX 6 13 94 14 7 15 93 16 2 17 3 18 4 19 1 20 86 23 87 24 92 25
REMARK SMILES IDX 88 26 91 27 89 28 90 29 16 30 17 31 18 32 19 33 20 34 21 35
REMARK SMILES IDX 82 36 22 37 81 38 23 39 24 40 25 41 75 42 26 43 80 44 74 45
REMARK SMILES IDX 76 46 27 47 79 48 73 49 72 50 28 52 60 53 40 54 59 55 41 56
REMARK SMILES IDX 44 57 58 58 77 59 42 60 43 61 57 63 78 64 45 65 29 66 30 67
REMARK SMILES IDX 38 68 31 69 37 70 39 71 36 72 32 73 33 74 34 75 35 76 61 77
REMARK SMILES IDX 62 78 70 79 63 80 69 81 71 82 68 83 64 84 65 85 66 86 67 87
REMARK SMILES IDX 46 88 47 89 55 90 48 91 54 92 56 93 53 94 49 95 50 96 51 97
REMARK SMILES IDX 52 98
REMARK H PARENT 1 21 1 22 76 51 44 62
REMARK Flexibility Score: inf
ROOT
ATOM      1  C   UNL A   1      31.158  28.788  24.655  1.00  0.00     0.275 C 
ENDROOT
BRANCH   1   2
ATOM      2  O   UNL A   1      30.525  27.565  24.259  1.00  0.00    -0.457 OA
BRANCH   2   3
ATOM      3  C   UNL A   1      30.876  26.978  23.073  1.00  0.00     0.360 C 
ATOM      4  O   UNL A   1      30.479  27.369  21.980  1.00  0.00    -0.244 OA
BRANCH   3   5
ATOM      5  C   UNL A   1      31.766  25.818  23.280  1.00  0.00     0.190 A 
ATOM      6  N   UNL A   1      32.417  23.790  23.585  1.00  0.00    -0.231 N 
ATOM      7  N   UNL A   1      31.340  24.533  23.222  1.00  0.00    -0.159 NA
ATOM      8  C   UNL A   1      33.528  24.571  23.863  1.00  0.00     0.094 A 
ATOM      9  C   UNL A   1      33.150  25.865  23.571  1.00  0.00     0.102 A 
ATOM     10  Cl  UNL A   1      34.177  27.232  23.633  1.00  0.00    -0.079 Cl
BRANCH   6  11
ATOM     11  C   UNL A   1      32.314  22.379  23.733  1.00  0.00     0.065 A 
ATOM     12  C   UNL A   1      32.491  19.608  24.011  1.00  0.00     0.082 A 
ATOM     13  C   UNL A   1      32.252  20.168  22.748  1.00  0.00     0.024 A 
ATOM     14  C   UNL A   1      32.571  20.422  25.143  1.00  0.00     0.024 A 
ATOM     15  C   UNL A   1      32.139  21.561  22.609  1.00  0.00     0.030 A 
ATOM     16  C   UNL A   1      32.492  21.807  25.000  1.00  0.00     0.030 A 
BRANCH  12  17
ATOM     17  S   UNL A   1      32.733  17.861  24.147  1.00  0.00     0.238 S 
ATOM     18  O   UNL A   1      32.884  17.318  22.808  1.00  0.00    -0.207 OA
ATOM     19  O   UNL A   1      31.820  17.325  25.113  1.00  0.00    -0.207 OA
BRANCH  17  20
ATOM     20  N   UNL A   1      34.259  17.694  24.847  1.00  0.00    -0.225 NA
ATOM     21  H   UNL A   1      34.299  16.821  25.372  1.00  0.00     0.137 HD
ATOM     22  H   UNL A   1      34.431  18.477  25.478  1.00  0.00     0.137 HD
ENDBRANCH  17  20
ENDBRANCH  12  17
ENDBRANCH   6  11
BRANCH   8  23
ATOM     23  C   UNL A   1      34.849  24.122  24.292  1.00  0.00     0.002 A 
ATOM     24  C   UNL A   1      35.612  23.354  23.399  1.00  0.00     0.012 A 
ATOM     25  C   UNL A   1      35.315  24.332  25.594  1.00  0.00     0.012 A 
ATOM     26  C   UNL A   1      36.806  22.768  23.810  1.00  0.00     0.021 A 
ATOM     27  C   UNL A   1      36.523  23.756  26.001  1.00  0.00     0.021 A 
ATOM     28  C   UNL A   1      37.253  22.966  25.113  1.00  0.00     0.041 A 
ATOM     29  Cl  UNL A   1      38.706  22.207  25.631  1.00  0.00    -0.084 Cl
ENDBRANCH   8  23
ENDBRANCH   3   5
ENDBRANCH   2   3
ENDBRANCH   1   2
BRANCH   1  30
ATOM     30  C   UNL A   1      31.738  28.666  26.054  1.00  0.00     0.275 C 
BRANCH  30  31
ATOM     31  O   UNL A   1      32.971  29.369  26.135  1.00  0.00    -0.458 OA
BRANCH  31  32
ATOM     32  C   UNL A   1      32.929  30.528  26.832  1.00  0.00     0.338 C 
ATOM     33  O   UNL A   1      32.153  31.455  26.674  1.00  0.00    -0.246 OA
BRANCH  32  34
ATOM     34  C   UNL A   1      34.114  30.594  27.685  1.00  0.00     0.060 A 
ATOM     35  C   UNL A   1      34.379  31.793  28.350  1.00  0.00     0.016 A 
ATOM     36  C   UNL A   1      35.066  29.568  27.584  1.00  0.00     0.016 A 
ATOM     37  C   UNL A   1      35.666  32.024  28.791  1.00  0.00     0.010 A 
ATOM     38  C   UNL A   1      36.349  29.813  27.993  1.00  0.00     0.010 A 
ATOM     39  C   UNL A   1      36.648  31.059  28.536  1.00  0.00    -0.014 A 
BRANCH  39  40
ATOM     40  C   UNL A   1      37.991  31.272  29.028  1.00  0.00     0.031 A 
ATOM     41  C   UNL A   1      38.804  30.037  28.948  1.00  0.00     0.074 A 
ATOM     42  C   UNL A   1      38.463  32.495  29.335  1.00  0.00     0.049 A 
ATOM     43  N   UNL A   1      39.246  29.337  29.936  1.00  0.00    -0.248 NA
ATOM     44  C   UNL A   1      38.949  29.371  27.640  1.00  0.00     0.031 C 
ATOM     45  C   UNL A   1      37.782  33.784  29.205  1.00  0.00     0.029 A 
ATOM     46  N   UNL A   1      39.713  32.857  29.726  1.00  0.00    -0.354 N 
ATOM     47  C   UNL A   1      39.969  28.303  29.360  1.00  0.00     0.074 A 
ATOM     48  C   UNL A   1      39.533  28.227  27.995  1.00  0.00     0.031 C 
ATOM     49  C   UNL A   1      38.696  34.778  29.273  1.00  0.00     0.029 A 
ATOM     50  C   UNL A   1      40.007  34.208  29.548  1.00  0.00     0.049 A 
ATOM     51  H   UNL A   1      40.359  32.217  30.104  1.00  0.00     0.167 HD
ATOM     52  C   UNL A   1      41.080  27.817  29.975  1.00  0.00     0.034 A 
ATOM     53  C   UNL A   1      41.244  34.783  29.546  1.00  0.00     0.034 A 
ATOM     54  C   UNL A   1      41.095  28.196  31.374  1.00  0.00     0.049 A 
ATOM     55  C   UNL A   1      42.136  33.854  30.294  1.00  0.00     0.074 A 
ATOM     56  C   UNL A   1      40.207  28.030  32.420  1.00  0.00     0.029 A 
ATOM     57  N   UNL A   1      41.939  29.215  31.763  1.00  0.00    -0.354 N 
ATOM     58  N   UNL A   1      41.985  33.599  31.567  1.00  0.00    -0.248 NA
ATOM     59  C   UNL A   1      42.833  32.820  29.541  1.00  0.00     0.031 C 
ATOM     60  C   UNL A   1      40.234  29.270  33.123  1.00  0.00     0.029 A 
ATOM     61  C   UNL A   1      41.212  30.082  32.543  1.00  0.00     0.049 A 
ATOM     62  H   UNL A   1      42.890  29.306  31.525  1.00  0.00     0.167 HD
ATOM     63  C   UNL A   1      42.135  32.223  31.677  1.00  0.00     0.074 A 
ATOM     64  C   UNL A   1      42.749  31.809  30.414  1.00  0.00     0.031 C 
ATOM     65  C   UNL A   1      41.473  31.508  32.636  1.00  0.00     0.034 A 
BRANCH  52  66
ATOM     66  C   UNL A   1      42.329  27.382  29.242  1.00  0.00     0.023 A 
ATOM     67  C   UNL A   1      43.234  28.399  28.892  1.00  0.00     0.031 A 
ATOM     68  C   UNL A   1      42.537  26.132  28.609  1.00  0.00     0.131 A 
ATOM     69  C   UNL A   1      44.177  28.204  27.871  1.00  0.00     0.055 A 
ATOM     70  C   UNL A   1      43.528  25.923  27.647  1.00  0.00     0.041 A 
ATOM     71  F   UNL A   1      41.751  25.068  28.807  1.00  0.00    -0.206 F 
ATOM     72  C   UNL A   1      44.330  26.972  27.243  1.00  0.00     0.022 A 
BRANCH  69  73
ATOM     73  S   UNL A   1      45.059  29.654  27.248  1.00  0.00     0.124 S 
ATOM     74  O   UNL A   1      44.026  30.293  26.439  1.00  0.00    -0.237 OA
ATOM     75  O   UNL A   1      45.424  30.337  28.484  1.00  0.00    -0.237 OA
ATOM     76  O   UNL A   1      46.173  29.076  26.500  1.00  0.00    -0.744 OA
ENDBRANCH  69  73
ENDBRANCH  52  66
BRANCH  53  77
ATOM     77  C   UNL A   1      41.738  35.879  28.646  1.00  0.00     0.023 A 
ATOM     78  C   UNL A   1      41.820  37.235  29.048  1.00  0.00     0.031 A 
ATOM     79  C   UNL A   1      42.371  35.559  27.423  1.00  0.00     0.131 A 
ATOM     80  C   UNL A   1      42.505  38.185  28.244  1.00  0.00     0.055 A 
ATOM     81  C   UNL A   1      43.043  36.498  26.636  1.00  0.00     0.041 A 
ATOM     82  F   UNL A   1      42.444  34.295  26.978  1.00  0.00    -0.206 F 
ATOM     83  C   UNL A   1      43.124  37.814  27.049  1.00  0.00     0.022 A 
BRANCH  80  84
ATOM     84  S   UNL A   1      42.697  39.921  28.783  1.00  0.00     0.124 S 
ATOM     85  O   UNL A   1      43.177  39.768  30.151  1.00  0.00    -0.237 OA
ATOM     86  O   UNL A   1      43.648  40.453  27.815  1.00  0.00    -0.237 OA
ATOM     87  O   UNL A   1      41.343  40.465  28.667  1.00  0.00    -0.744 OA
ENDBRANCH  80  84
ENDBRANCH  53  77
BRANCH  65  88
ATOM     88  C   UNL A   1      40.788  32.253  33.769  1.00  0.00     0.023 A 
ATOM     89  C   UNL A   1      39.404  32.532  33.847  1.00  0.00     0.031 A 
ATOM     90  C   UNL A   1      41.577  32.574  34.888  1.00  0.00     0.131 A 
ATOM     91  C   UNL A   1      38.866  33.121  35.012  1.00  0.00     0.055 A 
ATOM     92  C   UNL A   1      41.039  33.130  36.047  1.00  0.00     0.041 A 
ATOM     93  F   UNL A   1      42.896  32.313  34.890  1.00  0.00    -0.206 F 
ATOM     94  C   UNL A   1      39.681  33.411  36.110  1.00  0.00     0.022 A 
BRANCH  91  95
ATOM     95  S   UNL A   1      37.094  33.542  35.116  1.00  0.00     0.124 S 
ATOM     96  O   UNL A   1      36.820  33.512  36.547  1.00  0.00    -0.237 OA
ATOM     97  O   UNL A   1      37.043  34.856  34.481  1.00  0.00    -0.237 OA
ATOM     98  O   UNL A   1      36.446  32.474  34.351  1.00  0.00    -0.744 OA
ENDBRANCH  91  95
ENDBRANCH  65  88
ENDBRANCH  39  40
ENDBRANCH  32  34
ENDBRANCH  31  32
ENDBRANCH  30  31
ENDBRANCH   1  30
TORSDOF 18
ENDMDL
MODEL 2
REMARK VINA RESULT:     -12.6      3.497      7.582
REMARK SMILES NS(=O)(=O)c1ccc(-n2nc(C(=O)OCCOC(=O)c3ccc(-c4c5nc(c(-c6cc(S(=O)(=O)[O-])ccc6F)c6ccc([nH]6)c(-c6cc(S(=O)(=O)[O-])ccc6F)c6nc(c(-c7cc(S(=O)(=O)[O-])ccc7F)c7ccc4[nH]7)C=C6)C=C5)cc3)c(Cl)c2-c2ccc(Cl)cc2)cc1
REMARK SMILES IDX 15 1 14 2 12 3 13 4 11 5 9 6 10 7 85 8 83 9 84 10 8 11 5 12
REMARK SMILES IDX 6 13 94 14 7 15 93 16 2 17 3 18 4 19 1 20 86 23 87 24 92 25
REMARK SMILES IDX 88 26 91 27 89 28 90 29 16 30 17 31 18 32 19 33 20 34 21 35
REMARK SMILES IDX 82 36 22 37 81 38 23 39 24 40 25 41 75 42 26 43 80 44 74 45
REMARK SMILES IDX 76 46 27 47 79 48 73 49 72 50 28 52 60 53 40 54 59 55 41 56
REMARK SMILES IDX 44 57 58 58 77 59 42 60 43 61 57 63 78 64 45 65 29 66 30 67
REMARK SMILES IDX 38 68 31 69 37 70 39 71 36 72 32 73 33 74 34 75 35 76 61 77
REMARK SMILES IDX 62 78 70 79 63 80 69 81 71 82 68 83 64 84 65 85 66 86 67 87
REMARK SMILES IDX 46 88 47 89 55 90 48 91 54 92 56 93 53 94 49 95 50 96 51 97
REMARK SMILES IDX 52 98
REMARK H PARENT 1 21 1 22 76 51 44 62
REMARK Flexibility Score: inf
ROOT
ATOM      1  C   UNL A   1      32.107  29.320  25.615  1.00  0.00     0.275 C 
ENDROOT
BRANCH   1   2
ATOM      2  O   UNL A   1      31.632  28.002  25.917  1.00  0.00    -0.457 OA
BRANCH   2   3
ATOM      3  C   UNL A   1      31.197  27.193  24.902  1.00  0.00     0.360 C 
ATOM      4  O   UNL A   1      30.206  27.435  24.221  1.00  0.00    -0.244 OA
BRANCH   3   5
ATOM      5  C   UNL A   1      32.054  26.001  24.748  1.00  0.00     0.190 A 
ATOM      6  N   UNL A   1      32.647  23.947  24.498  1.00  0.00    -0.231 N 
ATOM      7  N   UNL A   1      31.576  24.778  24.415  1.00  0.00    -0.159 NA
ATOM      8  C   UNL A   1      33.804  24.614  24.867  1.00  0.00     0.094 A 
ATOM      9  C   UNL A   1      33.456  25.947  24.930  1.00  0.00     0.102 A 
ATOM     10  Cl  UNL A   1      34.538  27.236  25.240  1.00  0.00    -0.079 Cl
BRANCH   6  11
ATOM     11  C   UNL A   1      32.500  22.546  24.306  1.00  0.00     0.065 A 
ATOM     12  C   UNL A   1      32.585  19.793  23.860  1.00  0.00     0.082 A 
ATOM     13  C   UNL A   1      32.189  20.655  22.827  1.00  0.00     0.024 A 
ATOM     14  C   UNL A   1      32.869  20.295  25.131  1.00  0.00     0.024 A 
ATOM     15  C   UNL A   1      32.123  22.038  23.056  1.00  0.00     0.030 A 
ATOM     16  C   UNL A   1      32.836  21.671  25.349  1.00  0.00     0.030 A 
BRANCH  12  17
ATOM     17  S   UNL A   1      32.761  18.065  23.519  1.00  0.00     0.238 S 
ATOM     18  O   UNL A   1      34.112  17.667  23.876  1.00  0.00    -0.207 OA
ATOM     19  O   UNL A   1      32.161  17.763  22.253  1.00  0.00    -0.207 OA
BRANCH  17  20
ATOM     20  N   UNL A   1      31.778  17.303  24.661  1.00  0.00    -0.225 NA
ATOM     21  H   UNL A   1      32.255  17.287  25.562  1.00  0.00     0.137 HD
ATOM     22  H   UNL A   1      31.587  16.347  24.360  1.00  0.00     0.137 HD
ENDBRANCH  17  20
ENDBRANCH  12  17
ENDBRANCH   6  11
BRANCH   8  23
ATOM     23  C   UNL A   1      35.135  24.048  25.066  1.00  0.00     0.002 A 
ATOM     24  C   UNL A   1      35.785  23.473  23.963  1.00  0.00     0.012 A 
ATOM     25  C   UNL A   1      35.718  23.956  26.334  1.00  0.00     0.012 A 
ATOM     26  C   UNL A   1      36.980  22.780  24.127  1.00  0.00     0.021 A 
ATOM     27  C   UNL A   1      36.928  23.274  26.495  1.00  0.00     0.021 A 
ATOM     28  C   UNL A   1      37.543  22.677  25.395  1.00  0.00     0.041 A 
ATOM     29  Cl  UNL A   1      38.999  21.785  25.602  1.00  0.00    -0.084 Cl
ENDBRANCH   8  23
ENDBRANCH   3   5
ENDBRANCH   2   3
ENDBRANCH   1   2
BRANCH   1  30
ATOM     30  C   UNL A   1      32.549  30.037  26.879  1.00  0.00     0.275 C 
BRANCH  30  31
ATOM     31  O   UNL A   1      33.963  30.185  26.888  1.00  0.00    -0.458 OA
BRANCH  31  32
ATOM     32  C   UNL A   1      34.433  31.196  27.654  1.00  0.00     0.338 C 
ATOM     33  O   UNL A   1      34.068  32.359  27.643  1.00  0.00    -0.246 OA
BRANCH  32  34
ATOM     34  C   UNL A   1      35.616  30.720  28.368  1.00  0.00     0.060 A 
ATOM     35  C   UNL A   1      36.536  31.668  28.822  1.00  0.00     0.016 A 
ATOM     36  C   UNL A   1      35.913  29.349  28.326  1.00  0.00     0.016 A 
ATOM     37  C   UNL A   1      37.822  31.251  29.096  1.00  0.00     0.010 A 
ATOM     38  C   UNL A   1      37.198  28.943  28.567  1.00  0.00     0.010 A 
ATOM     39  C   UNL A   1      38.151  29.905  28.890  1.00  0.00    -0.014 A 
BRANCH  39  40
ATOM     40  C   UNL A   1      39.485  29.448  29.211  1.00  0.00     0.031 A 
ATOM     41  C   UNL A   1      39.736  29.478  30.670  1.00  0.00     0.074 A 
ATOM     42  C   UNL A   1      40.299  28.895  28.293  1.00  0.00     0.049 A 
ATOM     43  N   UNL A   1      40.550  30.256  31.298  1.00  0.00    -0.248 NA
ATOM     44  C   UNL A   1      38.824  28.734  31.559  1.00  0.00     0.031 C 
ATOM     45  C   UNL A   1      40.016  28.618  26.885  1.00  0.00     0.029 A 
ATOM     46  N   UNL A   1      41.533  28.350  28.461  1.00  0.00    -0.354 N 
ATOM     47  C   UNL A   1      40.453  29.889  32.633  1.00  0.00     0.074 A 
ATOM     48  C   UNL A   1      39.220  29.165  32.756  1.00  0.00     0.031 C 
ATOM     49  C   UNL A   1      40.937  27.750  26.407  1.00  0.00     0.029 A 
ATOM     50  C   UNL A   1      41.928  27.487  27.441  1.00  0.00     0.049 A 
ATOM     51  H   UNL A   1      42.102  28.550  29.239  1.00  0.00     0.167 HD
ATOM     52  C   UNL A   1      41.545  29.945  33.440  1.00  0.00     0.034 A 
ATOM     53  C   UNL A   1      42.940  26.572  27.487  1.00  0.00     0.034 A 
ATOM     54  C   UNL A   1      42.568  30.790  32.857  1.00  0.00     0.049 A 
ATOM     55  C   UNL A   1      43.865  27.031  28.561  1.00  0.00     0.074 A 
ATOM     56  C   UNL A   1      42.589  32.100  32.414  1.00  0.00     0.029 A 
ATOM     57  N   UNL A   1      43.658  30.184  32.268  1.00  0.00    -0.354 N 
ATOM     58  N   UNL A   1      44.543  28.146  28.483  1.00  0.00    -0.248 NA
ATOM     59  C   UNL A   1      43.633  26.549  29.916  1.00  0.00     0.031 C 
ATOM     60  C   UNL A   1      43.352  32.066  31.210  1.00  0.00     0.029 A 
ATOM     61  C   UNL A   1      43.849  30.772  31.041  1.00  0.00     0.049 A 
ATOM     62  H   UNL A   1      44.200  29.459  32.655  1.00  0.00     0.167 HD
ATOM     63  C   UNL A   1      44.415  28.732  29.735  1.00  0.00     0.074 A 
ATOM     64  C   UNL A   1      43.924  27.659  30.604  1.00  0.00     0.031 C 
ATOM     65  C   UNL A   1      44.416  30.091  29.891  1.00  0.00     0.034 A 
BRANCH  52  66
ATOM     66  C   UNL A   1      41.855  28.924  34.512  1.00  0.00     0.023 A 
ATOM     67  C   UNL A   1      42.726  29.337  35.535  1.00  0.00     0.031 A 
ATOM     68  C   UNL A   1      41.618  27.531  34.436  1.00  0.00     0.131 A 
ATOM     69  C   UNL A   1      43.415  28.399  36.319  1.00  0.00     0.055 A 
ATOM     70  C   UNL A   1      42.250  26.605  35.269  1.00  0.00     0.041 A 
ATOM     71  F   UNL A   1      40.840  26.967  33.505  1.00  0.00    -0.206 F 
ATOM     72  C   UNL A   1      43.185  27.032  36.192  1.00  0.00     0.022 A 
BRANCH  69  73
ATOM     73  S   UNL A   1      44.762  28.997  37.365  1.00  0.00     0.124 S 
ATOM     74  O   UNL A   1      44.496  30.432  37.383  1.00  0.00    -0.237 OA
ATOM     75  O   UNL A   1      44.517  28.279  38.610  1.00  0.00    -0.237 OA
ATOM     76  O   UNL A   1      45.961  28.591  36.635  1.00  0.00    -0.744 OA
ENDBRANCH  69  73
ENDBRANCH  52  66
BRANCH  53  77
ATOM     77  C   UNL A   1      42.943  25.186  26.913  1.00  0.00     0.023 A 
ATOM     78  C   UNL A   1      43.912  24.731  25.985  1.00  0.00     0.031 A 
ATOM     79  C   UNL A   1      42.102  24.190  27.463  1.00  0.00     0.131 A 
ATOM     80  C   UNL A   1      44.004  23.353  25.654  1.00  0.00     0.055 A 
ATOM     81  C   UNL A   1      42.196  22.835  27.132  1.00  0.00     0.041 A 
ATOM     82  F   UNL A   1      41.205  24.476  28.419  1.00  0.00    -0.206 F 
ATOM     83  C   UNL A   1      43.156  22.408  26.234  1.00  0.00     0.022 A 
BRANCH  80  84
ATOM     84  S   UNL A   1      45.301  22.733  24.526  1.00  0.00     0.124 S 
ATOM     85  O   UNL A   1      45.998  21.762  25.360  1.00  0.00    -0.237 OA
ATOM     86  O   UNL A   1      44.528  22.197  23.413  1.00  0.00    -0.237 OA
ATOM     87  O   UNL A   1      46.077  23.933  24.206  1.00  0.00    -0.744 OA
ENDBRANCH  80  84
ENDBRANCH  53  77
BRANCH  65  88
ATOM     88  C   UNL A   1      44.844  30.964  28.724  1.00  0.00     0.023 A 
ATOM     89  C   UNL A   1      46.174  31.350  28.434  1.00  0.00     0.031 A 
ATOM     90  C   UNL A   1      43.852  31.305  27.787  1.00  0.00     0.131 A 
ATOM     91  C   UNL A   1      46.461  32.059  27.248  1.00  0.00     0.055 A 
ATOM     92  C   UNL A   1      44.144  31.981  26.603  1.00  0.00     0.041 A 
ATOM     93  F   UNL A   1      42.573  30.947  27.988  1.00  0.00    -0.206 F 
ATOM     94  C   UNL A   1      45.450  32.366  26.333  1.00  0.00     0.022 A 
BRANCH  91  95
ATOM     95  S   UNL A   1      48.158  32.618  26.878  1.00  0.00     0.124 S 
ATOM     96  O   UNL A   1      48.585  33.255  28.117  1.00  0.00    -0.237 OA
ATOM     97  O   UNL A   1      48.834  31.371  26.532  1.00  0.00    -0.237 OA
ATOM     98  O   UNL A   1      47.974  33.539  25.754  1.00  0.00    -0.744 OA
ENDBRANCH  91  95
ENDBRANCH  65  88
ENDBRANCH  39  40
ENDBRANCH  32  34
ENDBRANCH  31  32
ENDBRANCH  30  31
ENDBRANCH   1  30
TORSDOF 18
ENDMDL
MODEL 3
REMARK VINA RESULT:     -12.5      5.909     11.777
REMARK SMILES NS(=O)(=O)c1ccc(-n2nc(C(=O)OCCOC(=O)c3ccc(-c4c5nc(c(-c6cc(S(=O)(=O)[O-])ccc6F)c6ccc([nH]6)c(-c6cc(S(=O)(=O)[O-])ccc6F)c6nc(c(-c7cc(S(=O)(=O)[O-])ccc7F)c7ccc4[nH]7)C=C6)C=C5)cc3)c(Cl)c2-c2ccc(Cl)cc2)cc1
REMARK SMILES IDX 15 1 14 2 12 3 13 4 11 5 9 6 10 7 85 8 83 9 84 10 8 11 5 12
REMARK SMILES IDX 6 13 94 14 7 15 93 16 2 17 3 18 4 19 1 20 86 23 87 24 92 25
REMARK SMILES IDX 88 26 91 27 89 28 90 29 16 30 17 31 18 32 19 33 20 34 21 35
REMARK SMILES IDX 82 36 22 37 81 38 23 39 24 40 25 41 75 42 26 43 80 44 74 45
REMARK SMILES IDX 76 46 27 47 79 48 73 49 72 50 28 52 60 53 40 54 59 55 41 56
REMARK SMILES IDX 44 57 58 58 77 59 42 60 43 61 57 63 78 64 45 65 29 66 30 67
REMARK SMILES IDX 38 68 31 69 37 70 39 71 36 72 32 73 33 74 34 75 35 76 61 77
REMARK SMILES IDX 62 78 70 79 63 80 69 81 71 82 68 83 64 84 65 85 66 86 67 87
REMARK SMILES IDX 46 88 47 89 55 90 48 91 54 92 56 93 53 94 49 95 50 96 51 97
REMARK SMILES IDX 52 98
REMARK H PARENT 1 21 1 22 76 51 44 62
REMARK Flexibility Score: inf
ROOT
ATOM      1  C   UNL A   1      34.460  34.409  30.725  1.00  0.00     0.275 C 
ENDROOT
BRANCH   1   2
ATOM      2  O   UNL A   1      35.436  33.882  31.632  1.00  0.00    -0.457 OA
BRANCH   2   3
ATOM      3  C   UNL A   1      36.047  34.719  32.527  1.00  0.00     0.360 C 
ATOM      4  O   UNL A   1      35.503  35.708  33.007  1.00  0.00    -0.244 OA
BRANCH   3   5
ATOM      5  C   UNL A   1      37.430  34.293  32.818  1.00  0.00     0.190 A 
ATOM      6  N   UNL A   1      39.150  33.590  33.903  1.00  0.00    -0.231 N 
ATOM      7  N   UNL A   1      37.800  33.711  33.984  1.00  0.00    -0.159 NA
ATOM      8  C   UNL A   1      39.652  34.073  32.705  1.00  0.00     0.094 A 
ATOM      9  C   UNL A   1      38.548  34.432  31.961  1.00  0.00     0.102 A 
ATOM     10  Cl  UNL A   1      38.585  34.994  30.346  1.00  0.00    -0.079 Cl
BRANCH   6  11
ATOM     11  C   UNL A   1      39.906  33.101  35.004  1.00  0.00     0.065 A 
ATOM     12  C   UNL A   1      41.664  32.376  37.047  1.00  0.00     0.082 A 
ATOM     13  C   UNL A   1      41.570  31.584  35.894  1.00  0.00     0.024 A 
ATOM     14  C   UNL A   1      40.833  33.486  37.212  1.00  0.00     0.024 A 
ATOM     15  C   UNL A   1      40.670  31.933  34.875  1.00  0.00     0.030 A 
ATOM     16  C   UNL A   1      39.963  33.852  36.186  1.00  0.00     0.030 A 
BRANCH  12  17
ATOM     17  S   UNL A   1      42.877  31.976  38.271  1.00  0.00     0.238 S 
ATOM     18  O   UNL A   1      43.774  33.110  38.409  1.00  0.00    -0.207 OA
ATOM     19  O   UNL A   1      43.335  30.633  38.069  1.00  0.00    -0.207 OA
BRANCH  17  20
ATOM     20  N   UNL A   1      42.019  31.932  39.724  1.00  0.00    -0.225 NA
ATOM     21  H   UNL A   1      41.020  32.002  39.531  1.00  0.00     0.137 HD
ATOM     22  H   UNL A   1      42.307  32.715  40.311  1.00  0.00     0.137 HD
ENDBRANCH  17  20
ENDBRANCH  12  17
ENDBRANCH   6  11
BRANCH   8  23
ATOM     23  C   UNL A   1      41.047  34.118  32.276  1.00  0.00     0.002 A 
ATOM     24  C   UNL A   1      41.902  35.046  32.891  1.00  0.00     0.012 A 
ATOM     25  C   UNL A   1      41.515  33.355  31.202  1.00  0.00     0.012 A 
ATOM     26  C   UNL A   1      43.195  35.242  32.414  1.00  0.00     0.021 A 
ATOM     27  C   UNL A   1      42.820  33.541  30.734  1.00  0.00     0.021 A 
ATOM     28  C   UNL A   1      43.646  34.492  31.332  1.00  0.00     0.041 A 
ATOM     29  Cl  UNL A   1      45.230  34.765  30.719  1.00  0.00    -0.084 Cl
ENDBRANCH   8  23
ENDBRANCH   3   5
ENDBRANCH   2   3
ENDBRANCH   1   2
BRANCH   1  30
ATOM     30  C   UNL A   1      34.345  33.536  29.489  1.00  0.00     0.275 C 
BRANCH  30  31
ATOM     31  O   UNL A   1      34.840  32.231  29.764  1.00  0.00    -0.458 OA
BRANCH  31  32
ATOM     32  C   UNL A   1      35.546  31.658  28.762  1.00  0.00     0.338 C 
ATOM     33  O   UNL A   1      35.225  31.574  27.589  1.00  0.00    -0.246 OA
BRANCH  32  34
ATOM     34  C   UNL A   1      36.684  30.953  29.348  1.00  0.00     0.060 A 
ATOM     35  C   UNL A   1      37.774  31.711  29.782  1.00  0.00     0.016 A 
ATOM     36  C   UNL A   1      36.754  29.560  29.199  1.00  0.00     0.016 A 
ATOM     37  C   UNL A   1      38.992  31.080  29.926  1.00  0.00     0.010 A 
ATOM     38  C   UNL A   1      37.971  28.942  29.311  1.00  0.00     0.010 A 
ATOM     39  C   UNL A   1      39.086  29.719  29.613  1.00  0.00    -0.014 A 
BRANCH  39  40
ATOM     40  C   UNL A   1      40.348  29.037  29.797  1.00  0.00     0.031 A 
ATOM     41  C   UNL A   1      40.654  28.832  31.232  1.00  0.00     0.074 A 
ATOM     42  C   UNL A   1      41.038  28.505  28.772  1.00  0.00     0.049 A 
ATOM     43  N   UNL A   1      41.596  29.394  31.909  1.00  0.00    -0.248 NA
ATOM     44  C   UNL A   1      39.674  28.111  32.066  1.00  0.00     0.031 C 
ATOM     45  C   UNL A   1      40.665  28.465  27.357  1.00  0.00     0.029 A 
ATOM     46  N   UNL A   1      42.183  27.773  28.798  1.00  0.00    -0.354 N 
ATOM     47  C   UNL A   1      41.495  28.866  33.188  1.00  0.00     0.074 A 
ATOM     48  C   UNL A   1      40.173  28.313  33.285  1.00  0.00     0.031 C 
ATOM     49  C   UNL A   1      41.430  27.549  26.720  1.00  0.00     0.029 A 
ATOM     50  C   UNL A   1      42.408  27.010  27.654  1.00  0.00     0.049 A 
ATOM     51  H   UNL A   1      42.803  27.781  29.563  1.00  0.00     0.167 HD
ATOM     52  C   UNL A   1      42.612  28.655  33.933  1.00  0.00     0.034 A 
ATOM     53  C   UNL A   1      43.275  25.963  27.525  1.00  0.00     0.034 A 
ATOM     54  C   UNL A   1      43.726  29.418  33.409  1.00  0.00     0.049 A 
ATOM     55  C   UNL A   1      44.296  26.135  28.596  1.00  0.00     0.074 A 
ATOM     56  C   UNL A   1      43.925  30.760  33.139  1.00  0.00     0.029 A 
ATOM     57  N   UNL A   1      44.692  28.749  32.686  1.00  0.00    -0.354 N 
ATOM     58  N   UNL A   1      45.128  27.143  28.626  1.00  0.00    -0.248 NA
ATOM     59  C   UNL A   1      44.044  25.511  29.888  1.00  0.00     0.031 C 
ATOM     60  C   UNL A   1      44.630  30.783  31.901  1.00  0.00     0.029 A 
ATOM     61  C   UNL A   1      44.923  29.467  31.537  1.00  0.00     0.049 A 
ATOM     62  H   UNL A   1      45.135  27.909  32.946  1.00  0.00     0.167 HD
ATOM     63  C   UNL A   1      45.134  27.565  29.948  1.00  0.00     0.074 A 
ATOM     64  C   UNL A   1      44.522  26.464  30.697  1.00  0.00     0.031 C 
ATOM     65  C   UNL A   1      45.342  28.875  30.278  1.00  0.00     0.034 A 
BRANCH  52  66
ATOM     66  C   UNL A   1      42.806  27.463  34.845  1.00  0.00     0.023 A 
ATOM     67  C   UNL A   1      43.628  26.432  34.359  1.00  0.00     0.031 A 
ATOM     68  C   UNL A   1      42.021  27.140  35.978  1.00  0.00     0.131 A 
ATOM     69  C   UNL A   1      43.546  25.135  34.889  1.00  0.00     0.055 A 
ATOM     70  C   UNL A   1      42.000  25.865  36.549  1.00  0.00     0.041 A 
ATOM     71  F   UNL A   1      41.165  27.994  36.548  1.00  0.00    -0.206 F 
ATOM     72  C   UNL A   1      42.734  24.842  35.981  1.00  0.00     0.022 A 
BRANCH  69  73
ATOM     73  S   UNL A   1      44.370  23.801  33.989  1.00  0.00     0.124 S 
ATOM     74  O   UNL A   1      45.253  24.554  33.105  1.00  0.00    -0.237 OA
ATOM     75  O   UNL A   1      45.015  23.065  35.070  1.00  0.00    -0.237 OA
ATOM     76  O   UNL A   1      43.267  23.107  33.331  1.00  0.00    -0.744 OA
ENDBRANCH  69  73
ENDBRANCH  52  66
BRANCH  53  77
ATOM     77  C   UNL A   1      43.051  24.682  26.776  1.00  0.00     0.023 A 
ATOM     78  C   UNL A   1      44.029  24.093  25.936  1.00  0.00     0.031 A 
ATOM     79  C   UNL A   1      41.925  23.878  27.069  1.00  0.00     0.131 A 
ATOM     80  C   UNL A   1      43.852  22.773  25.439  1.00  0.00     0.055 A 
ATOM     81  C   UNL A   1      41.757  22.581  26.576  1.00  0.00     0.041 A 
ATOM     82  F   UNL A   1      40.974  24.284  27.924  1.00  0.00    -0.206 F 
ATOM     83  C   UNL A   1      42.726  22.018  25.768  1.00  0.00     0.022 A 
BRANCH  80  84
ATOM     84  S   UNL A   1      45.139  21.962  24.426  1.00  0.00     0.124 S 
ATOM     85  O   UNL A   1      44.422  20.819  23.874  1.00  0.00    -0.237 OA
ATOM     86  O   UNL A   1      45.512  23.011  23.485  1.00  0.00    -0.237 OA
ATOM     87  O   UNL A   1      46.176  21.622  25.401  1.00  0.00    -0.744 OA
ENDBRANCH  80  84
ENDBRANCH  53  77
BRANCH  65  88
ATOM     88  C   UNL A   1      45.852  29.830  29.213  1.00  0.00     0.023 A 
ATOM     89  C   UNL A   1      45.044  30.670  28.412  1.00  0.00     0.031 A 
ATOM     90  C   UNL A   1      47.246  29.984  29.110  1.00  0.00     0.131 A 
ATOM     91  C   UNL A   1      45.642  31.608  27.543  1.00  0.00     0.055 A 
ATOM     92  C   UNL A   1      47.834  30.930  28.272  1.00  0.00     0.041 A 
ATOM     93  F   UNL A   1      48.071  29.235  29.861  1.00  0.00    -0.206 F 
ATOM     94  C   UNL A   1      47.033  31.742  27.480  1.00  0.00     0.022 A 
BRANCH  91  95
ATOM     95  S   UNL A   1      44.625  32.664  26.458  1.00  0.00     0.124 S 
ATOM     96  O   UNL A   1      43.934  33.545  27.390  1.00  0.00    -0.237 OA
ATOM     97  O   UNL A   1      45.625  33.294  25.601  1.00  0.00    -0.237 OA
ATOM     98  O   UNL A   1      43.756  31.705  25.771  1.00  0.00    -0.744 OA
ENDBRANCH  91  95
ENDBRANCH  65  88
ENDBRANCH  39  40
ENDBRANCH  32  34
ENDBRANCH  31  32
ENDBRANCH  30  31
ENDBRANCH   1  30
TORSDOF 18
ENDMDL
