MODEL 1
REMARK VINA RESULT:     -12.2      0.000      0.000
REMARK SMILES C[C@@H](C(=O)OCCOC(=O)c1ccc(-c2c3nc(c(-c4cc(S(=O)(=O)[O-])ccc4F)c4ccc([nH]4)c(-c4cc(S(=O)(=O)[O-])ccc4F)c4nc(c(-c5cc(S(=O)(=O)[O-])ccc5F)c5ccc2[nH]5)C=C4)C=C3)cc1)c1ccc(C[C@@H]2CCC[C@@H]2O)cc1Br
REMARK SMILES IDX 6 1 5 2 3 3 4 4 2 5 1 6 74 7 75 8 86 9 76 10 85 11 87 12
REMARK SMILES IDX 77 13 78 14 79 15 80 16 83 17 81 18 82 19 84 20 7 22 8 23
REMARK SMILES IDX 9 24 10 25 11 26 12 27 73 28 13 29 72 30 14 31 15 32 16 33
REMARK SMILES IDX 66 34 17 35 71 36 65 37 67 38 18 39 70 40 64 41 63 42 19 44
REMARK SMILES IDX 51 45 31 46 50 47 32 48 35 49 49 50 68 51 33 52 34 53 48 55
REMARK SMILES IDX 69 56 36 57 20 58 21 59 29 60 22 61 28 62 30 63 27 64 23 65
REMARK SMILES IDX 24 66 25 67 26 68 52 69 53 70 61 71 54 72 60 73 62 74 59 75
REMARK SMILES IDX 55 76 56 77 57 78 58 79 37 80 38 81 46 82 39 83 45 84 47 85
REMARK SMILES IDX 44 86 40 87 41 88 42 89 43 90
REMARK H PARENT 84 21 67 43 35 54
REMARK Flexibility Score: inf
ROOT
ATOM      1  C   UNL A   1      31.366  27.914  25.369  1.00  0.00     0.274 C 
ENDROOT
BRANCH   1   2
ATOM      2  O   UNL A   1      32.196  27.192  24.441  1.00  0.00    -0.462 OA
BRANCH   2   3
ATOM      3  C   UNL A   1      33.071  26.291  24.973  1.00  0.00     0.313 C 
ATOM      4  O   UNL A   1      33.266  26.158  26.176  1.00  0.00    -0.252 OA
BRANCH   3   5
ATOM      5  C   UNL A   1      33.724  25.427  23.885  1.00  0.00     0.127 C 
ATOM      6  C   UNL A   1      33.325  25.975  22.503  1.00  0.00     0.025 C 
BRANCH   5   7
ATOM      7  C   UNL A   1      33.442  23.927  24.012  1.00  0.00    -0.020 A 
ATOM      8  C   UNL A   1      32.187  23.410  23.661  1.00  0.00     0.006 A 
ATOM      9  C   UNL A   1      34.402  22.992  24.444  1.00  0.00     0.022 A 
ATOM     10  C   UNL A   1      31.932  22.033  23.635  1.00  0.00     0.004 A 
ATOM     11  C   UNL A   1      34.145  21.609  24.403  1.00  0.00     0.019 A 
ATOM     12  Br  UNL A   1      36.091  23.503  25.161  1.00  0.00    -0.050 Br
ATOM     13  C   UNL A   1      32.910  21.105  23.979  1.00  0.00    -0.047 A 
BRANCH  13  14
ATOM     14  C   UNL A   1      32.711  19.613  23.814  1.00  0.00     0.041 C 
BRANCH  14  15
ATOM     15  C   UNL A   1      33.727  18.588  24.365  1.00  0.00     0.022 C 
ATOM     16  C   UNL A   1      34.042  17.410  23.438  1.00  0.00     0.007 C 
ATOM     17  C   UNL A   1      33.409  17.913  25.699  1.00  0.00     0.117 C 
ATOM     18  C   UNL A   1      33.371  16.173  24.037  1.00  0.00     0.003 C 
ATOM     19  C   UNL A   1      32.683  16.632  25.317  1.00  0.00     0.032 C 
BRANCH  17  20
ATOM     20  O   UNL A   1      32.641  18.718  26.570  1.00  0.00    -0.393 OA
ATOM     21  H   UNL A   1      31.954  19.179  26.063  1.00  0.00     0.210 HD
ENDBRANCH  17  20
ENDBRANCH  14  15
ENDBRANCH  13  14
ENDBRANCH   5   7
ENDBRANCH   3   5
ENDBRANCH   2   3
ENDBRANCH   1   2
BRANCH   1  22
ATOM     22  C   UNL A   1      31.821  29.372  25.361  1.00  0.00     0.275 C 
BRANCH  22  23
ATOM     23  O   UNL A   1      31.966  29.790  26.731  1.00  0.00    -0.458 OA
BRANCH  23  24
ATOM     24  C   UNL A   1      32.560  30.985  26.956  1.00  0.00     0.338 C 
ATOM     25  O   UNL A   1      32.106  32.089  26.683  1.00  0.00    -0.246 OA
BRANCH  24  26
ATOM     26  C   UNL A   1      33.881  30.757  27.589  1.00  0.00     0.060 A 
ATOM     27  C   UNL A   1      34.381  29.463  27.713  1.00  0.00     0.016 A 
ATOM     28  C   UNL A   1      34.609  31.824  28.122  1.00  0.00     0.016 A 
ATOM     29  C   UNL A   1      35.567  29.231  28.408  1.00  0.00     0.010 A 
ATOM     30  C   UNL A   1      35.843  31.591  28.758  1.00  0.00     0.010 A 
ATOM     31  C   UNL A   1      36.325  30.283  28.935  1.00  0.00    -0.014 A 
BRANCH  31  32
ATOM     32  C   UNL A   1      37.539  29.967  29.752  1.00  0.00     0.031 A 
ATOM     33  C   UNL A   1      38.764  29.394  29.081  1.00  0.00     0.074 A 
ATOM     34  C   UNL A   1      37.608  30.298  31.061  1.00  0.00     0.049 A 
ATOM     35  N   UNL A   1      39.866  28.941  29.622  1.00  0.00    -0.248 NA
ATOM     36  C   UNL A   1      38.734  29.299  27.615  1.00  0.00     0.031 C 
ATOM     37  C   UNL A   1      36.537  30.938  31.826  1.00  0.00     0.029 A 
ATOM     38  N   UNL A   1      38.646  30.220  31.960  1.00  0.00    -0.354 N 
ATOM     39  C   UNL A   1      40.605  28.395  28.577  1.00  0.00     0.074 A 
ATOM     40  C   UNL A   1      39.850  28.629  27.364  1.00  0.00     0.031 C 
ATOM     41  C   UNL A   1      37.022  31.331  33.017  1.00  0.00     0.029 A 
ATOM     42  C   UNL A   1      38.399  30.869  33.153  1.00  0.00     0.049 A 
ATOM     43  H   UNL A   1      39.487  29.746  31.771  1.00  0.00     0.167 HD
ATOM     44  C   UNL A   1      41.780  27.721  28.639  1.00  0.00     0.034 A 
ATOM     45  C   UNL A   1      39.195  31.067  34.225  1.00  0.00     0.034 A 
ATOM     46  C   UNL A   1      42.555  27.572  29.847  1.00  0.00     0.049 A 
ATOM     47  C   UNL A   1      40.542  30.382  34.253  1.00  0.00     0.074 A 
ATOM     48  C   UNL A   1      43.713  26.840  30.052  1.00  0.00     0.029 A 
ATOM     49  N   UNL A   1      42.266  28.199  31.051  1.00  0.00    -0.354 N 
ATOM     50  N   UNL A   1      41.147  29.707  33.303  1.00  0.00    -0.248 NA
ATOM     51  C   UNL A   1      41.286  30.435  35.520  1.00  0.00     0.031 C 
ATOM     52  C   UNL A   1      44.098  26.992  31.390  1.00  0.00     0.029 A 
ATOM     53  C   UNL A   1      43.217  27.867  32.003  1.00  0.00     0.049 A 
ATOM     54  H   UNL A   1      41.498  28.795  31.206  1.00  0.00     0.167 HD
ATOM     55  C   UNL A   1      42.321  29.223  33.874  1.00  0.00     0.074 A 
ATOM     56  C   UNL A   1      42.381  29.751  35.220  1.00  0.00     0.031 C 
ATOM     57  C   UNL A   1      43.247  28.380  33.350  1.00  0.00     0.034 A 
BRANCH  44  58
ATOM     58  C   UNL A   1      42.213  26.980  27.398  1.00  0.00     0.023 A 
ATOM     59  C   UNL A   1      42.012  25.603  27.217  1.00  0.00     0.031 A 
ATOM     60  C   UNL A   1      42.906  27.683  26.392  1.00  0.00     0.131 A 
ATOM     61  C   UNL A   1      42.556  24.962  26.092  1.00  0.00     0.055 A 
ATOM     62  C   UNL A   1      43.378  27.054  25.241  1.00  0.00     0.041 A 
ATOM     63  F   UNL A   1      43.151  28.997  26.524  1.00  0.00    -0.206 F 
ATOM     64  C   UNL A   1      43.217  25.682  25.092  1.00  0.00     0.022 A 
BRANCH  61  65
ATOM     65  S   UNL A   1      42.517  23.149  26.018  1.00  0.00     0.124 S 
ATOM     66  O   UNL A   1      41.100  22.876  26.233  1.00  0.00    -0.237 OA
ATOM     67  O   UNL A   1      43.026  22.877  24.679  1.00  0.00    -0.237 OA
ATOM     68  O   UNL A   1      43.397  22.742  27.114  1.00  0.00    -0.744 OA
ENDBRANCH  61  65
ENDBRANCH  44  58
BRANCH  45  69
ATOM     69  C   UNL A   1      38.765  31.910  35.385  1.00  0.00     0.023 A 
ATOM     70  C   UNL A   1      38.251  31.305  36.546  1.00  0.00     0.031 A 
ATOM     71  C   UNL A   1      38.784  33.316  35.341  1.00  0.00     0.131 A 
ATOM     72  C   UNL A   1      37.740  32.094  37.589  1.00  0.00     0.055 A 
ATOM     73  C   UNL A   1      38.344  34.097  36.413  1.00  0.00     0.041 A 
ATOM     74  F   UNL A   1      39.233  33.957  34.251  1.00  0.00    -0.206 F 
ATOM     75  C   UNL A   1      37.804  33.487  37.540  1.00  0.00     0.022 A 
BRANCH  72  76
ATOM     76  S   UNL A   1      36.886  31.272  38.963  1.00  0.00     0.124 S 
ATOM     77  O   UNL A   1      37.806  31.511  40.069  1.00  0.00    -0.237 OA
ATOM     78  O   UNL A   1      35.622  31.999  39.010  1.00  0.00    -0.237 OA
ATOM     79  O   UNL A   1      36.789  29.882  38.520  1.00  0.00    -0.744 OA
ENDBRANCH  72  76
ENDBRANCH  45  69
BRANCH  57  80
ATOM     80  C   UNL A   1      44.375  27.958  34.256  1.00  0.00     0.023 A 
ATOM     81  C   UNL A   1      44.284  26.787  35.029  1.00  0.00     0.031 A 
ATOM     82  C   UNL A   1      45.547  28.724  34.351  1.00  0.00     0.131 A 
ATOM     83  C   UNL A   1      45.325  26.439  35.901  1.00  0.00     0.055 A 
ATOM     84  C   UNL A   1      46.603  28.349  35.184  1.00  0.00     0.041 A 
ATOM     85  F   UNL A   1      45.687  29.850  33.633  1.00  0.00    -0.206 F 
ATOM     86  C   UNL A   1      46.490  27.206  35.974  1.00  0.00     0.022 A 
BRANCH  83  87
ATOM     87  S   UNL A   1      45.106  25.005  36.991  1.00  0.00     0.124 S 
ATOM     88  O   UNL A   1      43.780  24.532  36.610  1.00  0.00    -0.237 OA
ATOM     89  O   UNL A   1      46.223  24.147  36.608  1.00  0.00    -0.237 OA
ATOM     90  O   UNL A   1      45.199  25.578  38.333  1.00  0.00    -0.744 OA
ENDBRANCH  83  87
ENDBRANCH  57  80
ENDBRANCH  31  32
ENDBRANCH  24  26
ENDBRANCH  23  24
ENDBRANCH  22  23
ENDBRANCH   1  22
TORSDOF 18
ENDMDL
MODEL 2
REMARK VINA RESULT:     -12.1      4.937     10.263
REMARK SMILES C[C@@H](C(=O)OCCOC(=O)c1ccc(-c2c3nc(c(-c4cc(S(=O)(=O)[O-])ccc4F)c4ccc([nH]4)c(-c4cc(S(=O)(=O)[O-])ccc4F)c4nc(c(-c5cc(S(=O)(=O)[O-])ccc5F)c5ccc2[nH]5)C=C4)C=C3)cc1)c1ccc(C[C@@H]2CCC[C@@H]2O)cc1Br
REMARK SMILES IDX 6 1 5 2 3 3 4 4 2 5 1 6 74 7 75 8 86 9 76 10 85 11 87 12
REMARK SMILES IDX 77 13 78 14 79 15 80 16 83 17 81 18 82 19 84 20 7 22 8 23
REMARK SMILES IDX 9 24 10 25 11 26 12 27 73 28 13 29 72 30 14 31 15 32 16 33
REMARK SMILES IDX 66 34 17 35 71 36 65 37 67 38 18 39 70 40 64 41 63 42 19 44
REMARK SMILES IDX 51 45 31 46 50 47 32 48 35 49 49 50 68 51 33 52 34 53 48 55
REMARK SMILES IDX 69 56 36 57 20 58 21 59 29 60 22 61 28 62 30 63 27 64 23 65
REMARK SMILES IDX 24 66 25 67 26 68 52 69 53 70 61 71 54 72 60 73 62 74 59 75
REMARK SMILES IDX 55 76 56 77 57 78 58 79 37 80 38 81 46 82 39 83 45 84 47 85
REMARK SMILES IDX 44 86 40 87 41 88 42 89 43 90
REMARK H PARENT 84 21 67 43 35 54
REMARK Flexibility Score: inf
ROOT
ATOM      1  C   UNL A   1      34.843  20.189  24.992  1.00  0.00     0.274 C 
ENDROOT
BRANCH   1   2
ATOM      2  O   UNL A   1      33.703  20.446  24.153  1.00  0.00    -0.462 OA
BRANCH   2   3
ATOM      3  C   UNL A   1      32.600  20.969  24.761  1.00  0.00     0.313 C 
ATOM      4  O   UNL A   1      32.081  20.491  25.764  1.00  0.00    -0.252 OA
BRANCH   3   5
ATOM      5  C   UNL A   1      32.136  22.262  24.074  1.00  0.00     0.127 C 
ATOM      6  C   UNL A   1      32.510  22.199  22.582  1.00  0.00     0.025 C 
BRANCH   5   7
ATOM      7  C   UNL A   1      32.635  23.548  24.738  1.00  0.00    -0.020 A 
ATOM      8  C   UNL A   1      33.828  24.148  24.311  1.00  0.00     0.006 A 
ATOM      9  C   UNL A   1      31.936  24.211  25.765  1.00  0.00     0.022 A 
ATOM     10  C   UNL A   1      34.249  25.391  24.799  1.00  0.00     0.004 A 
ATOM     11  C   UNL A   1      32.357  25.467  26.241  1.00  0.00     0.019 A 
ATOM     12  Br  UNL A   1      30.414  23.462  26.629  1.00  0.00    -0.050 Br
ATOM     13  C   UNL A   1      33.512  26.088  25.751  1.00  0.00    -0.047 A 
BRANCH  13  14
ATOM     14  C   UNL A   1      33.861  27.497  26.182  1.00  0.00     0.041 C 
BRANCH  14  15
ATOM     15  C   UNL A   1      33.082  28.727  25.664  1.00  0.00     0.022 C 
ATOM     16  C   UNL A   1      31.566  28.681  25.874  1.00  0.00     0.007 C 
ATOM     17  C   UNL A   1      33.224  29.091  24.186  1.00  0.00     0.117 C 
ATOM     18  C   UNL A   1      30.927  28.445  24.504  1.00  0.00     0.003 C 
ATOM     19  C   UNL A   1      32.072  28.370  23.501  1.00  0.00     0.032 C 
BRANCH  17  20
ATOM     20  O   UNL A   1      34.475  28.736  23.634  1.00  0.00    -0.393 OA
ATOM     21  H   UNL A   1      35.175  29.252  24.062  1.00  0.00     0.210 HD
ENDBRANCH  17  20
ENDBRANCH  14  15
ENDBRANCH  13  14
ENDBRANCH   5   7
ENDBRANCH   3   5
ENDBRANCH   2   3
ENDBRANCH   1   2
BRANCH   1  22
ATOM     22  C   UNL A   1      35.958  21.141  24.563  1.00  0.00     0.275 C 
BRANCH  22  23
ATOM     23  O   UNL A   1      36.734  21.458  25.734  1.00  0.00    -0.458 OA
BRANCH  23  24
ATOM     24  C   UNL A   1      38.064  21.212  25.682  1.00  0.00     0.338 C 
ATOM     25  O   UNL A   1      38.603  20.188  25.278  1.00  0.00    -0.246 OA
BRANCH  24  26
ATOM     26  C   UNL A   1      38.795  22.390  26.208  1.00  0.00     0.060 A 
ATOM     27  C   UNL A   1      38.245  23.664  26.083  1.00  0.00     0.016 A 
ATOM     28  C   UNL A   1      40.063  22.247  26.775  1.00  0.00     0.016 A 
ATOM     29  C   UNL A   1      38.976  24.786  26.471  1.00  0.00     0.010 A 
ATOM     30  C   UNL A   1      40.765  23.377  27.234  1.00  0.00     0.010 A 
ATOM     31  C   UNL A   1      40.240  24.668  27.059  1.00  0.00    -0.014 A 
BRANCH  31  32
ATOM     32  C   UNL A   1      41.018  25.911  27.369  1.00  0.00     0.031 A 
ATOM     33  C   UNL A   1      40.504  26.874  28.411  1.00  0.00     0.074 A 
ATOM     34  C   UNL A   1      42.234  26.130  26.823  1.00  0.00     0.049 A 
ATOM     35  N   UNL A   1      40.959  28.057  28.738  1.00  0.00    -0.248 NA
ATOM     36  C   UNL A   1      39.313  26.461  29.167  1.00  0.00     0.031 C 
ATOM     37  C   UNL A   1      42.901  25.245  25.867  1.00  0.00     0.029 A 
ATOM     38  N   UNL A   1      43.164  27.117  27.052  1.00  0.00    -0.354 N 
ATOM     39  C   UNL A   1      40.040  28.579  29.644  1.00  0.00     0.074 A 
ATOM     40  C   UNL A   1      39.037  27.558  29.858  1.00  0.00     0.031 C 
ATOM     41  C   UNL A   1      44.176  25.642  25.715  1.00  0.00     0.029 A 
ATOM     42  C   UNL A   1      44.390  26.876  26.464  1.00  0.00     0.049 A 
ATOM     43  H   UNL A   1      42.973  27.922  27.585  1.00  0.00     0.167 HD
ATOM     44  C   UNL A   1      40.018  29.814  30.203  1.00  0.00     0.034 A 
ATOM     45  C   UNL A   1      45.546  27.569  26.529  1.00  0.00     0.034 A 
ATOM     46  C   UNL A   1      41.073  30.786  30.040  1.00  0.00     0.049 A 
ATOM     47  C   UNL A   1      45.538  28.910  27.228  1.00  0.00     0.074 A 
ATOM     48  C   UNL A   1      41.123  32.097  30.484  1.00  0.00     0.029 A 
ATOM     49  N   UNL A   1      42.283  30.537  29.407  1.00  0.00    -0.354 N 
ATOM     50  N   UNL A   1      44.582  29.471  27.932  1.00  0.00    -0.248 NA
ATOM     51  C   UNL A   1      46.746  29.736  27.089  1.00  0.00     0.031 C 
ATOM     52  C   UNL A   1      42.345  32.651  30.082  1.00  0.00     0.029 A 
ATOM     53  C   UNL A   1      43.082  31.668  29.442  1.00  0.00     0.049 A 
ATOM     54  H   UNL A   1      42.538  29.680  28.994  1.00  0.00     0.167 HD
ATOM     55  C   UNL A   1      45.062  30.730  28.283  1.00  0.00     0.074 A 
ATOM     56  C   UNL A   1      46.419  30.814  27.787  1.00  0.00     0.031 C 
ATOM     57  C   UNL A   1      44.423  31.745  28.918  1.00  0.00     0.034 A 
BRANCH  44  58
ATOM     58  C   UNL A   1      38.753  30.223  30.917  1.00  0.00     0.023 A 
ATOM     59  C   UNL A   1      37.692  30.885  30.279  1.00  0.00     0.031 A 
ATOM     60  C   UNL A   1      38.647  29.987  32.301  1.00  0.00     0.131 A 
ATOM     61  C   UNL A   1      36.604  31.346  31.038  1.00  0.00     0.055 A 
ATOM     62  C   UNL A   1      37.528  30.380  33.036  1.00  0.00     0.041 A 
ATOM     63  F   UNL A   1      39.643  29.382  32.969  1.00  0.00    -0.206 F 
ATOM     64  C   UNL A   1      36.504  31.078  32.407  1.00  0.00     0.022 A 
BRANCH  61  65
ATOM     65  S   UNL A   1      35.384  32.429  30.243  1.00  0.00     0.124 S 
ATOM     66  O   UNL A   1      36.191  33.605  29.933  1.00  0.00    -0.237 OA
ATOM     67  O   UNL A   1      34.951  31.631  29.102  1.00  0.00    -0.237 OA
ATOM     68  O   UNL A   1      34.375  32.630  31.282  1.00  0.00    -0.744 OA
ENDBRANCH  61  65
ENDBRANCH  44  58
BRANCH  45  69
ATOM     69  C   UNL A   1      46.808  27.064  25.903  1.00  0.00     0.023 A 
ATOM     70  C   UNL A   1      47.757  26.378  26.682  1.00  0.00     0.031 A 
ATOM     71  C   UNL A   1      47.131  27.312  24.557  1.00  0.00     0.131 A 
ATOM     72  C   UNL A   1      48.992  26.005  26.127  1.00  0.00     0.055 A 
ATOM     73  C   UNL A   1      48.330  26.871  23.989  1.00  0.00     0.041 A 
ATOM     74  F   UNL A   1      46.283  27.987  23.766  1.00  0.00    -0.206 F 
ATOM     75  C   UNL A   1      49.275  26.226  24.779  1.00  0.00     0.022 A 
BRANCH  72  76
ATOM     76  S   UNL A   1      50.268  25.326  27.224  1.00  0.00     0.124 S 
ATOM     77  O   UNL A   1      50.545  26.463  28.094  1.00  0.00    -0.237 OA
ATOM     78  O   UNL A   1      49.570  24.202  27.839  1.00  0.00    -0.237 OA
ATOM     79  O   UNL A   1      51.347  24.964  26.307  1.00  0.00    -0.744 OA
ENDBRANCH  72  76
ENDBRANCH  45  69
BRANCH  57  80
ATOM     80  C   UNL A   1      45.183  33.037  29.073  1.00  0.00     0.023 A 
ATOM     81  C   UNL A   1      45.139  34.028  28.076  1.00  0.00     0.031 A 
ATOM     82  C   UNL A   1      45.956  33.285  30.219  1.00  0.00     0.131 A 
ATOM     83  C   UNL A   1      45.893  35.201  28.219  1.00  0.00     0.055 A 
ATOM     84  C   UNL A   1      46.667  34.475  30.380  1.00  0.00     0.041 A 
ATOM     85  F   UNL A   1      46.031  32.373  31.202  1.00  0.00    -0.206 F 
ATOM     86  C   UNL A   1      46.646  35.438  29.372  1.00  0.00     0.022 A 
BRANCH  83  87
ATOM     87  S   UNL A   1      45.929  36.387  26.846  1.00  0.00     0.124 S 
ATOM     88  O   UNL A   1      44.572  36.922  26.871  1.00  0.00    -0.237 OA
ATOM     89  O   UNL A   1      46.984  37.308  27.256  1.00  0.00    -0.237 OA
ATOM     90  O   UNL A   1      46.247  35.557  25.686  1.00  0.00    -0.744 OA
ENDBRANCH  83  87
ENDBRANCH  57  80
ENDBRANCH  31  32
ENDBRANCH  24  26
ENDBRANCH  23  24
ENDBRANCH  22  23
ENDBRANCH   1  22
TORSDOF 18
ENDMDL
MODEL 3
REMARK VINA RESULT:     -12.1      4.957     10.452
REMARK SMILES C[C@@H](C(=O)OCCOC(=O)c1ccc(-c2c3nc(c(-c4cc(S(=O)(=O)[O-])ccc4F)c4ccc([nH]4)c(-c4cc(S(=O)(=O)[O-])ccc4F)c4nc(c(-c5cc(S(=O)(=O)[O-])ccc5F)c5ccc2[nH]5)C=C4)C=C3)cc1)c1ccc(C[C@@H]2CCC[C@@H]2O)cc1Br
REMARK SMILES IDX 6 1 5 2 3 3 4 4 2 5 1 6 74 7 75 8 86 9 76 10 85 11 87 12
REMARK SMILES IDX 77 13 78 14 79 15 80 16 83 17 81 18 82 19 84 20 7 22 8 23
REMARK SMILES IDX 9 24 10 25 11 26 12 27 73 28 13 29 72 30 14 31 15 32 16 33
REMARK SMILES IDX 66 34 17 35 71 36 65 37 67 38 18 39 70 40 64 41 63 42 19 44
REMARK SMILES IDX 51 45 31 46 50 47 32 48 35 49 49 50 68 51 33 52 34 53 48 55
REMARK SMILES IDX 69 56 36 57 20 58 21 59 29 60 22 61 28 62 30 63 27 64 23 65
REMARK SMILES IDX 24 66 25 67 26 68 52 69 53 70 61 71 54 72 60 73 62 74 59 75
REMARK SMILES IDX 55 76 56 77 57 78 58 79 37 80 38 81 46 82 39 83 45 84 47 85
REMARK SMILES IDX 44 86 40 87 41 88 42 89 43 90
REMARK H PARENT 84 21 67 43 35 54
REMARK Flexibility Score: inf
ROOT
ATOM      1  C   UNL A   1      34.661  21.161  25.024  1.00  0.00     0.274 C 
ENDROOT
BRANCH   1   2
ATOM      2  O   UNL A   1      34.735  22.549  24.653  1.00  0.00    -0.462 OA
BRANCH   2   3
ATOM      3  C   UNL A   1      34.086  22.913  23.510  1.00  0.00     0.313 C 
ATOM      4  O   UNL A   1      34.653  23.323  22.504  1.00  0.00    -0.252 OA
BRANCH   3   5
ATOM      5  C   UNL A   1      32.573  22.681  23.621  1.00  0.00     0.127 C 
ATOM      6  C   UNL A   1      32.102  21.851  22.413  1.00  0.00     0.025 C 
BRANCH   5   7
ATOM      7  C   UNL A   1      31.745  23.957  23.799  1.00  0.00    -0.020 A 
ATOM      8  C   UNL A   1      31.794  24.972  22.832  1.00  0.00     0.006 A 
ATOM      9  C   UNL A   1      30.883  24.176  24.890  1.00  0.00     0.022 A 
ATOM     10  C   UNL A   1      30.955  26.092  22.890  1.00  0.00     0.004 A 
ATOM     11  C   UNL A   1      30.033  25.297  24.936  1.00  0.00     0.019 A 
ATOM     12  Br  UNL A   1      30.826  23.027  26.408  1.00  0.00    -0.050 Br
ATOM     13  C   UNL A   1      30.041  26.265  23.924  1.00  0.00    -0.047 A 
BRANCH  13  14
ATOM     14  C   UNL A   1      29.019  27.383  23.931  1.00  0.00     0.041 C 
BRANCH  14  15
ATOM     15  C   UNL A   1      28.909  28.396  22.770  1.00  0.00     0.022 C 
ATOM     16  C   UNL A   1      29.982  29.488  22.745  1.00  0.00     0.007 C 
ATOM     17  C   UNL A   1      27.604  29.180  22.627  1.00  0.00     0.117 C 
ATOM     18  C   UNL A   1      29.306  30.796  23.161  1.00  0.00     0.003 C 
ATOM     19  C   UNL A   1      27.839  30.462  23.410  1.00  0.00     0.032 C 
BRANCH  17  20
ATOM     20  O   UNL A   1      26.470  28.476  23.091  1.00  0.00    -0.393 OA
ATOM     21  H   UNL A   1      26.197  28.832  23.951  1.00  0.00     0.210 HD
ENDBRANCH  17  20
ENDBRANCH  14  15
ENDBRANCH  13  14
ENDBRANCH   5   7
ENDBRANCH   3   5
ENDBRANCH   2   3
ENDBRANCH   1   2
BRANCH   1  22
ATOM     22  C   UNL A   1      36.084  20.604  25.024  1.00  0.00     0.275 C 
BRANCH  22  23
ATOM     23  O   UNL A   1      36.895  21.481  25.828  1.00  0.00    -0.458 OA
BRANCH  23  24
ATOM     24  C   UNL A   1      38.232  21.277  25.811  1.00  0.00     0.338 C 
ATOM     25  O   UNL A   1      38.812  20.256  25.462  1.00  0.00    -0.246 OA
BRANCH  24  26
ATOM     26  C   UNL A   1      38.914  22.500  26.301  1.00  0.00     0.060 A 
ATOM     27  C   UNL A   1      38.416  23.757  25.966  1.00  0.00     0.016 A 
ATOM     28  C   UNL A   1      40.090  22.409  27.049  1.00  0.00     0.016 A 
ATOM     29  C   UNL A   1      39.114  24.908  26.326  1.00  0.00     0.010 A 
ATOM     30  C   UNL A   1      40.751  23.576  27.473  1.00  0.00     0.010 A 
ATOM     31  C   UNL A   1      40.285  24.845  27.090  1.00  0.00    -0.014 A 
BRANCH  31  32
ATOM     32  C   UNL A   1      41.043  26.107  27.367  1.00  0.00     0.031 A 
ATOM     33  C   UNL A   1      40.561  27.049  28.442  1.00  0.00     0.074 A 
ATOM     34  C   UNL A   1      42.222  26.364  26.757  1.00  0.00     0.049 A 
ATOM     35  N   UNL A   1      40.999  28.243  28.753  1.00  0.00    -0.248 NA
ATOM     36  C   UNL A   1      39.425  26.598  29.259  1.00  0.00     0.031 C 
ATOM     37  C   UNL A   1      42.860  25.504  25.759  1.00  0.00     0.029 A 
ATOM     38  N   UNL A   1      43.135  27.376  26.942  1.00  0.00    -0.354 N 
ATOM     39  C   UNL A   1      40.117  28.733  29.711  1.00  0.00     0.074 A 
ATOM     40  C   UNL A   1      39.156  27.683  29.971  1.00  0.00     0.031 C 
ATOM     41  C   UNL A   1      44.113  25.938  25.541  1.00  0.00     0.029 A 
ATOM     42  C   UNL A   1      44.332  27.173  26.286  1.00  0.00     0.049 A 
ATOM     43  H   UNL A   1      42.950  28.172  27.490  1.00  0.00     0.167 HD
ATOM     44  C   UNL A   1      40.091  29.964  30.279  1.00  0.00     0.034 A 
ATOM     45  C   UNL A   1      45.471  27.899  26.294  1.00  0.00     0.034 A 
ATOM     46  C   UNL A   1      41.107  30.966  30.066  1.00  0.00     0.049 A 
ATOM     47  C   UNL A   1      45.463  29.234  27.002  1.00  0.00     0.074 A 
ATOM     48  C   UNL A   1      41.145  32.275  30.517  1.00  0.00     0.029 A 
ATOM     49  N   UNL A   1      42.288  30.755  29.367  1.00  0.00    -0.354 N 
ATOM     50  N   UNL A   1      44.532  29.763  27.762  1.00  0.00    -0.248 NA
ATOM     51  C   UNL A   1      46.639  30.095  26.804  1.00  0.00     0.031 C 
ATOM     52  C   UNL A   1      42.327  32.867  30.053  1.00  0.00     0.029 A 
ATOM     53  C   UNL A   1      43.056  31.909  29.367  1.00  0.00     0.049 A 
ATOM     54  H   UNL A   1      42.543  29.909  28.935  1.00  0.00     0.167 HD
ATOM     55  C   UNL A   1      44.994  31.034  28.095  1.00  0.00     0.074 A 
ATOM     56  C   UNL A   1      46.319  31.159  27.526  1.00  0.00     0.031 C 
ATOM     57  C   UNL A   1      44.363  32.027  28.771  1.00  0.00     0.034 A 
BRANCH  44  58
ATOM     58  C   UNL A   1      38.856  30.333  31.064  1.00  0.00     0.023 A 
ATOM     59  C   UNL A   1      37.748  30.978  30.493  1.00  0.00     0.031 A 
ATOM     60  C   UNL A   1      38.827  30.074  32.449  1.00  0.00     0.131 A 
ATOM     61  C   UNL A   1      36.690  31.402  31.314  1.00  0.00     0.055 A 
ATOM     62  C   UNL A   1      37.740  30.430  33.246  1.00  0.00     0.041 A 
ATOM     63  F   UNL A   1      39.870  29.483  33.055  1.00  0.00    -0.206 F 
ATOM     64  C   UNL A   1      36.668  31.112  32.682  1.00  0.00     0.022 A 
BRANCH  61  65
ATOM     65  S   UNL A   1      35.407  32.467  30.600  1.00  0.00     0.124 S 
ATOM     66  O   UNL A   1      34.317  32.297  31.556  1.00  0.00    -0.237 OA
ATOM     67  O   UNL A   1      36.052  33.775  30.590  1.00  0.00    -0.237 OA
ATOM     68  O   UNL A   1      35.167  31.880  29.282  1.00  0.00    -0.744 OA
ENDBRANCH  61  65
ENDBRANCH  44  58
BRANCH  45  69
ATOM     69  C   UNL A   1      46.710  27.434  25.596  1.00  0.00     0.023 A 
ATOM     70  C   UNL A   1      46.982  27.855  24.282  1.00  0.00     0.031 A 
ATOM     71  C   UNL A   1      47.602  26.515  26.180  1.00  0.00     0.131 A 
ATOM     72  C   UNL A   1      48.081  27.331  23.584  1.00  0.00     0.055 A 
ATOM     73  C   UNL A   1      48.737  26.054  25.507  1.00  0.00     0.041 A 
ATOM     74  F   UNL A   1      47.385  26.049  27.419  1.00  0.00    -0.206 F 
ATOM     75  C   UNL A   1      48.974  26.451  24.195  1.00  0.00     0.022 A 
BRANCH  72  76
ATOM     76  S   UNL A   1      48.263  27.731  21.822  1.00  0.00     0.124 S 
ATOM     77  O   UNL A   1      46.973  28.344  21.525  1.00  0.00    -0.237 OA
ATOM     78  O   UNL A   1      49.413  28.627  21.834  1.00  0.00    -0.237 OA
ATOM     79  O   UNL A   1      48.494  26.428  21.201  1.00  0.00    -0.744 OA
ENDBRANCH  72  76
ENDBRANCH  45  69
BRANCH  57  80
ATOM     80  C   UNL A   1      45.095  33.339  28.895  1.00  0.00     0.023 A 
ATOM     81  C   UNL A   1      45.953  33.589  29.980  1.00  0.00     0.031 A 
ATOM     82  C   UNL A   1      44.937  34.345  27.928  1.00  0.00     0.131 A 
ATOM     83  C   UNL A   1      46.586  34.835  30.101  1.00  0.00     0.055 A 
ATOM     84  C   UNL A   1      45.607  35.566  28.026  1.00  0.00     0.041 A 
ATOM     85  F   UNL A   1      44.131  34.157  26.871  1.00  0.00    -0.206 F 
ATOM     86  C   UNL A   1      46.429  35.821  29.123  1.00  0.00     0.022 A 
BRANCH  83  87
ATOM     87  S   UNL A   1      47.565  35.175  31.590  1.00  0.00     0.124 S 
ATOM     88  O   UNL A   1      48.788  35.738  31.028  1.00  0.00    -0.237 OA
ATOM     89  O   UNL A   1      46.711  36.105  32.320  1.00  0.00    -0.237 OA
ATOM     90  O   UNL A   1      47.715  33.858  32.208  1.00  0.00    -0.744 OA
ENDBRANCH  83  87
ENDBRANCH  57  80
ENDBRANCH  31  32
ENDBRANCH  24  26
ENDBRANCH  23  24
ENDBRANCH  22  23
ENDBRANCH   1  22
TORSDOF 18
ENDMDL
