MODEL 1
REMARK VINA RESULT:     -12.7      0.000      0.000
REMARK SMILES CC(C)c1ccc(-c2cnc([C@@H]3[NH2+][C@H](C(=O)OCCOC(=O)c4ccc(-c5c6nc(c(-c7cc(S(=O)(=O)[O-])ccc7F)c7ccc([nH]7)c(-c7cc(S(=O)(=O)[O-])ccc7F)c7nc(c(-c8cc(S(=O)(=O)[O-])ccc8F)c8ccc5[nH]8)C=C7)C=C6)cc4)C(C)(C)S3)s2)cc1
REMARK SMILES IDX 18 1 17 2 15 3 16 4 14 5 12 6 13 7 89 8 86 11 87 12 88 13
REMARK SMILES IDX 11 14 8 15 9 16 90 17 10 18 7 19 4 20 5 21 92 22 6 23 91 24
REMARK SMILES IDX 2 25 1 26 3 27 19 28 20 29 21 30 22 31 23 32 24 33 85 34
REMARK SMILES IDX 25 35 84 36 26 37 27 38 28 39 78 40 29 41 83 42 77 43 79 44
REMARK SMILES IDX 30 45 82 46 76 47 75 48 31 50 63 51 43 52 62 53 44 54 47 55
REMARK SMILES IDX 61 56 80 57 45 58 46 59 60 61 81 62 48 63 32 64 33 65 41 66
REMARK SMILES IDX 34 67 40 68 42 69 39 70 35 71 36 72 37 73 38 74 64 75 65 76
REMARK SMILES IDX 73 77 66 78 72 79 74 80 71 81 67 82 68 83 69 84 70 85 49 86
REMARK SMILES IDX 50 87 58 88 51 89 57 90 59 91 56 92 52 93 53 94 54 95 55 96
REMARK H PARENT 13 9 13 10 79 49 47 60
REMARK Flexibility Score: inf
ROOT
ATOM      1  C   UNL A   1      36.588  23.460  23.939  1.00  0.00     0.274 C 
ENDROOT
BRANCH   1   2
ATOM      2  O   UNL A   1      35.638  23.178  22.894  1.00  0.00    -0.458 OA
BRANCH   2   3
ATOM      3  C   UNL A   1      34.353  23.090  23.324  1.00  0.00     0.366 C 
ATOM      4  O   UNL A   1      33.511  23.961  23.100  1.00  0.00    -0.245 OA
BRANCH   3   5
ATOM      5  C   UNL A   1      34.027  21.834  24.172  1.00  0.00     0.310 C 
ATOM      6  C   UNL A   1      32.910  22.624  26.161  1.00  0.00     0.304 C 
ATOM      7  N   UNL A   1      34.206  22.147  25.636  1.00  0.00    -0.317 N 
ATOM      8  S   UNL A   1      31.672  21.525  25.390  1.00  0.00    -0.079 SA
ATOM      9  H   UNL A   1      34.495  21.307  26.137  1.00  0.00     0.348 HD
ATOM     10  H   UNL A   1      34.925  22.861  25.761  1.00  0.00     0.348 HD
ATOM     11  C   UNL A   1      32.736  20.993  23.997  1.00  0.00     0.079 C 
ATOM     12  C   UNL A   1      33.016  19.492  24.250  1.00  0.00     0.030 C 
ATOM     13  C   UNL A   1      32.029  21.069  22.637  1.00  0.00     0.030 C 
BRANCH   6  14
ATOM     14  C   UNL A   1      32.629  24.116  25.950  1.00  0.00     0.162 A 
ATOM     15  C   UNL A   1      31.680  26.278  25.217  1.00  0.00     0.055 A 
ATOM     16  C   UNL A   1      32.971  26.295  25.702  1.00  0.00     0.132 A 
ATOM     17  S   UNL A   1      31.053  24.688  25.489  1.00  0.00    -0.112 S 
ATOM     18  N   UNL A   1      33.511  25.085  26.092  1.00  0.00    -0.242 NA
BRANCH  15  19
ATOM     19  C   UNL A   1      30.957  27.378  24.537  1.00  0.00    -0.007 A 
ATOM     20  C   UNL A   1      29.592  29.592  23.336  1.00  0.00    -0.045 A 
ATOM     21  C   UNL A   1      29.218  28.264  23.072  1.00  0.00     0.004 A 
ATOM     22  C   UNL A   1      30.693  29.800  24.171  1.00  0.00     0.004 A 
ATOM     23  C   UNL A   1      29.889  27.174  23.661  1.00  0.00     0.010 A 
ATOM     24  C   UNL A   1      31.357  28.712  24.761  1.00  0.00     0.010 A 
BRANCH  20  25
ATOM     25  C   UNL A   1      28.799  30.746  22.737  1.00  0.00     0.013 C 
ATOM     26  C   UNL A   1      28.275  30.410  21.335  1.00  0.00     0.012 C 
ATOM     27  C   UNL A   1      27.643  31.206  23.629  1.00  0.00     0.012 C 
ENDBRANCH  20  25
ENDBRANCH  15  19
ENDBRANCH   6  14
ENDBRANCH   3   5
ENDBRANCH   2   3
ENDBRANCH   1   2
BRANCH   1  28
ATOM     28  C   UNL A   1      37.346  22.189  24.342  1.00  0.00     0.275 C 
BRANCH  28  29
ATOM     29  O   UNL A   1      37.661  22.217  25.750  1.00  0.00    -0.458 OA
BRANCH  29  30
ATOM     30  C   UNL A   1      38.908  21.836  26.116  1.00  0.00     0.338 C 
ATOM     31  O   UNL A   1      39.444  20.761  25.894  1.00  0.00    -0.246 OA
BRANCH  30  32
ATOM     32  C   UNL A   1      39.597  22.999  26.710  1.00  0.00     0.060 A 
ATOM     33  C   UNL A   1      39.295  24.246  26.176  1.00  0.00     0.016 A 
ATOM     34  C   UNL A   1      40.536  22.906  27.733  1.00  0.00     0.016 A 
ATOM     35  C   UNL A   1      39.869  25.415  26.674  1.00  0.00     0.010 A 
ATOM     36  C   UNL A   1      41.132  24.084  28.232  1.00  0.00     0.010 A 
ATOM     37  C   UNL A   1      40.795  25.349  27.713  1.00  0.00    -0.014 A 
BRANCH  37  38
ATOM     38  C   UNL A   1      41.459  26.598  28.178  1.00  0.00     0.031 A 
ATOM     39  C   UNL A   1      40.673  27.595  28.960  1.00  0.00     0.074 A 
ATOM     40  C   UNL A   1      42.780  26.803  28.029  1.00  0.00     0.049 A 
ATOM     41  N   UNL A   1      40.992  28.818  29.289  1.00  0.00    -0.248 NA
ATOM     42  C   UNL A   1      39.374  27.139  29.463  1.00  0.00     0.031 C 
ATOM     43  C   UNL A   1      43.705  25.806  27.529  1.00  0.00     0.029 A 
ATOM     44  N   UNL A   1      43.582  27.887  28.289  1.00  0.00    -0.354 N 
ATOM     45  C   UNL A   1      39.921  29.292  30.031  1.00  0.00     0.074 A 
ATOM     46  C   UNL A   1      38.947  28.220  30.098  1.00  0.00     0.031 C 
ATOM     47  C   UNL A   1      44.946  26.311  27.488  1.00  0.00     0.029 A 
ATOM     48  C   UNL A   1      44.886  27.715  27.872  1.00  0.00     0.049 A 
ATOM     49  H   UNL A   1      43.258  28.707  28.727  1.00  0.00     0.167 HD
ATOM     50  C   UNL A   1      39.771  30.519  30.587  1.00  0.00     0.034 A 
ATOM     51  C   UNL A   1      45.893  28.603  27.743  1.00  0.00     0.034 A 
ATOM     52  C   UNL A   1      40.751  31.573  30.468  1.00  0.00     0.049 A 
ATOM     53  C   UNL A   1      45.612  30.037  28.108  1.00  0.00     0.074 A 
ATOM     54  C   UNL A   1      40.665  32.887  30.892  1.00  0.00     0.029 A 
ATOM     55  N   UNL A   1      41.999  31.435  29.868  1.00  0.00    -0.354 N 
ATOM     56  N   UNL A   1      44.537  30.548  28.661  1.00  0.00    -0.248 NA
ATOM     57  C   UNL A   1      46.663  31.019  27.810  1.00  0.00     0.031 C 
ATOM     58  C   UNL A   1      41.822  33.560  30.478  1.00  0.00     0.029 A 
ATOM     59  C   UNL A   1      42.671  32.649  29.870  1.00  0.00     0.049 A 
ATOM     60  H   UNL A   1      42.355  30.596  29.496  1.00  0.00     0.167 HD
ATOM     61  C   UNL A   1      44.791  31.906  28.804  1.00  0.00     0.074 A 
ATOM     62  C   UNL A   1      46.125  32.135  28.283  1.00  0.00     0.031 C 
ATOM     63  C   UNL A   1      43.994  32.872  29.328  1.00  0.00     0.034 A 
BRANCH  50  64
ATOM     64  C   UNL A   1      38.441  30.795  31.239  1.00  0.00     0.023 A 
ATOM     65  C   UNL A   1      37.366  31.356  30.529  1.00  0.00     0.031 A 
ATOM     66  C   UNL A   1      38.293  30.607  32.624  1.00  0.00     0.131 A 
ATOM     67  C   UNL A   1      36.232  31.805  31.224  1.00  0.00     0.055 A 
ATOM     68  C   UNL A   1      37.125  30.971  33.296  1.00  0.00     0.041 A 
ATOM     69  F   UNL A   1      39.300  30.107  33.358  1.00  0.00    -0.206 F 
ATOM     70  C   UNL A   1      36.095  31.595  32.599  1.00  0.00     0.022 A 
BRANCH  67  71
ATOM     71  S   UNL A   1      35.034  32.849  30.346  1.00  0.00     0.124 S 
ATOM     72  O   UNL A   1      34.112  33.208  31.422  1.00  0.00    -0.237 OA
ATOM     73  O   UNL A   1      35.872  33.928  29.835  1.00  0.00    -0.237 OA
ATOM     74  O   UNL A   1      34.479  31.955  29.333  1.00  0.00    -0.744 OA
ENDBRANCH  67  71
ENDBRANCH  50  64
BRANCH  51  75
ATOM     75  C   UNL A   1      47.200  28.207  27.138  1.00  0.00     0.023 A 
ATOM     76  C   UNL A   1      47.330  27.980  25.759  1.00  0.00     0.031 A 
ATOM     77  C   UNL A   1      48.332  27.983  27.948  1.00  0.00     0.131 A 
ATOM     78  C   UNL A   1      48.552  27.522  25.235  1.00  0.00     0.055 A 
ATOM     79  C   UNL A   1      49.557  27.580  27.416  1.00  0.00     0.041 A 
ATOM     80  F   UNL A   1      48.260  28.149  29.277  1.00  0.00    -0.206 F 
ATOM     81  C   UNL A   1      49.671  27.338  26.052  1.00  0.00     0.022 A 
BRANCH  78  82
ATOM     82  S   UNL A   1      48.642  27.086  23.476  1.00  0.00     0.124 S 
ATOM     83  O   UNL A   1      47.879  28.166  22.863  1.00  0.00    -0.237 OA
ATOM     84  O   UNL A   1      50.081  27.097  23.234  1.00  0.00    -0.237 OA
ATOM     85  O   UNL A   1      48.015  25.768  23.418  1.00  0.00    -0.744 OA
ENDBRANCH  78  82
ENDBRANCH  51  75
BRANCH  63  86
ATOM     86  C   UNL A   1      44.572  34.263  29.403  1.00  0.00     0.023 A 
ATOM     87  C   UNL A   1      44.195  35.272  28.500  1.00  0.00     0.031 A 
ATOM     88  C   UNL A   1      45.521  34.579  30.392  1.00  0.00     0.131 A 
ATOM     89  C   UNL A   1      44.799  36.536  28.575  1.00  0.00     0.055 A 
ATOM     90  C   UNL A   1      46.073  35.856  30.499  1.00  0.00     0.041 A 
ATOM     91  F   UNL A   1      45.922  33.651  31.275  1.00  0.00    -0.206 F 
ATOM     92  C   UNL A   1      45.720  36.840  29.582  1.00  0.00     0.022 A 
BRANCH  89  93
ATOM     93  S   UNL A   1      44.423  37.762  27.291  1.00  0.00     0.124 S 
ATOM     94  O   UNL A   1      45.687  37.838  26.567  1.00  0.00    -0.237 OA
ATOM     95  O   UNL A   1      43.314  37.136  26.576  1.00  0.00    -0.237 OA
ATOM     96  O   UNL A   1      44.070  38.959  28.053  1.00  0.00    -0.744 OA
ENDBRANCH  89  93
ENDBRANCH  63  86
ENDBRANCH  37  38
ENDBRANCH  30  32
ENDBRANCH  29  30
ENDBRANCH  28  29
ENDBRANCH   1  28
TORSDOF 17
ENDMDL
MODEL 2
REMARK VINA RESULT:     -12.2      1.547      4.594
REMARK SMILES CC(C)c1ccc(-c2cnc([C@@H]3[NH2+][C@H](C(=O)OCCOC(=O)c4ccc(-c5c6nc(c(-c7cc(S(=O)(=O)[O-])ccc7F)c7ccc([nH]7)c(-c7cc(S(=O)(=O)[O-])ccc7F)c7nc(c(-c8cc(S(=O)(=O)[O-])ccc8F)c8ccc5[nH]8)C=C7)C=C6)cc4)C(C)(C)S3)s2)cc1
REMARK SMILES IDX 18 1 17 2 15 3 16 4 14 5 12 6 13 7 89 8 86 11 87 12 88 13
REMARK SMILES IDX 11 14 8 15 9 16 90 17 10 18 7 19 4 20 5 21 92 22 6 23 91 24
REMARK SMILES IDX 2 25 1 26 3 27 19 28 20 29 21 30 22 31 23 32 24 33 85 34
REMARK SMILES IDX 25 35 84 36 26 37 27 38 28 39 78 40 29 41 83 42 77 43 79 44
REMARK SMILES IDX 30 45 82 46 76 47 75 48 31 50 63 51 43 52 62 53 44 54 47 55
REMARK SMILES IDX 61 56 80 57 45 58 46 59 60 61 81 62 48 63 32 64 33 65 41 66
REMARK SMILES IDX 34 67 40 68 42 69 39 70 35 71 36 72 37 73 38 74 64 75 65 76
REMARK SMILES IDX 73 77 66 78 72 79 74 80 71 81 67 82 68 83 69 84 70 85 49 86
REMARK SMILES IDX 50 87 58 88 51 89 57 90 59 91 56 92 52 93 53 94 54 95 55 96
REMARK H PARENT 13 9 13 10 79 49 47 60
REMARK Flexibility Score: inf
ROOT
ATOM      1  C   UNL A   1      35.134  24.134  25.443  1.00  0.00     0.274 C 
ENDROOT
BRANCH   1   2
ATOM      2  O   UNL A   1      34.789  25.112  24.444  1.00  0.00    -0.458 OA
BRANCH   2   3
ATOM      3  C   UNL A   1      33.905  26.051  24.873  1.00  0.00     0.366 C 
ATOM      4  O   UNL A   1      33.708  26.291  26.064  1.00  0.00    -0.245 OA
BRANCH   3   5
ATOM      5  C   UNL A   1      33.112  26.768  23.750  1.00  0.00     0.310 C 
ATOM      6  C   UNL A   1      31.753  25.077  22.689  1.00  0.00     0.304 C 
ATOM      7  N   UNL A   1      32.997  25.862  22.550  1.00  0.00    -0.317 N 
ATOM      8  S   UNL A   1      30.525  26.276  23.315  1.00  0.00    -0.079 SA
ATOM      9  H   UNL A   1      32.961  26.420  21.697  1.00  0.00     0.348 HD
ATOM     10  H   UNL A   1      33.804  25.241  22.495  1.00  0.00     0.348 HD
ATOM     11  C   UNL A   1      31.748  27.468  23.978  1.00  0.00     0.079 C 
ATOM     12  C   UNL A   1      31.615  28.724  23.083  1.00  0.00     0.030 C 
ATOM     13  C   UNL A   1      31.426  27.929  25.406  1.00  0.00     0.030 C 
BRANCH   6  14
ATOM     14  C   UNL A   1      31.871  23.811  23.544  1.00  0.00     0.162 A 
ATOM     15  C   UNL A   1      32.289  21.508  24.340  1.00  0.00     0.055 A 
ATOM     16  C   UNL A   1      31.428  22.283  25.091  1.00  0.00     0.132 A 
ATOM     17  S   UNL A   1      32.982  22.538  23.135  1.00  0.00    -0.112 S 
ATOM     18  N   UNL A   1      31.177  23.562  24.636  1.00  0.00    -0.242 NA
BRANCH  15  19
ATOM     19  C   UNL A   1      32.550  20.056  24.480  1.00  0.00    -0.007 A 
ATOM     20  C   UNL A   1      32.972  17.227  24.633  1.00  0.00    -0.045 A 
ATOM     21  C   UNL A   1      33.042  18.046  25.772  1.00  0.00     0.004 A 
ATOM     22  C   UNL A   1      32.738  17.849  23.404  1.00  0.00     0.004 A 
ATOM     23  C   UNL A   1      32.836  19.438  25.699  1.00  0.00     0.010 A 
ATOM     24  C   UNL A   1      32.528  19.235  23.333  1.00  0.00     0.010 A 
BRANCH  20  25
ATOM     25  C   UNL A   1      33.129  15.718  24.762  1.00  0.00     0.013 C 
ATOM     26  C   UNL A   1      34.572  15.323  25.107  1.00  0.00     0.012 C 
ATOM     27  C   UNL A   1      32.163  15.098  25.774  1.00  0.00     0.012 C 
ENDBRANCH  20  25
ENDBRANCH  15  19
ENDBRANCH   6  14
ENDBRANCH   3   5
ENDBRANCH   2   3
ENDBRANCH   1   2
BRANCH   1  28
ATOM     28  C   UNL A   1      36.206  23.172  24.914  1.00  0.00     0.275 C 
BRANCH  28  29
ATOM     29  O   UNL A   1      36.736  22.370  25.989  1.00  0.00    -0.458 OA
BRANCH  29  30
ATOM     30  C   UNL A   1      38.026  21.972  25.892  1.00  0.00     0.338 C 
ATOM     31  O   UNL A   1      38.450  20.984  25.311  1.00  0.00    -0.246 OA
BRANCH  30  32
ATOM     32  C   UNL A   1      38.885  23.020  26.481  1.00  0.00     0.060 A 
ATOM     33  C   UNL A   1      38.592  24.334  26.139  1.00  0.00     0.016 A 
ATOM     34  C   UNL A   1      39.968  22.759  27.315  1.00  0.00     0.016 A 
ATOM     35  C   UNL A   1      39.321  25.405  26.654  1.00  0.00     0.010 A 
ATOM     36  C   UNL A   1      40.720  23.837  27.828  1.00  0.00     0.010 A 
ATOM     37  C   UNL A   1      40.395  25.170  27.510  1.00  0.00    -0.014 A 
BRANCH  37  38
ATOM     38  C   UNL A   1      41.214  26.318  27.985  1.00  0.00     0.031 A 
ATOM     39  C   UNL A   1      40.595  27.334  28.884  1.00  0.00     0.074 A 
ATOM     40  C   UNL A   1      42.533  26.408  27.737  1.00  0.00     0.049 A 
ATOM     41  N   UNL A   1      41.058  28.498  29.252  1.00  0.00    -0.248 NA
ATOM     42  C   UNL A   1      39.300  26.971  29.469  1.00  0.00     0.031 C 
ATOM     43  C   UNL A   1      43.313  25.361  27.106  1.00  0.00     0.029 A 
ATOM     44  N   UNL A   1      43.457  27.393  27.987  1.00  0.00    -0.354 N 
ATOM     45  C   UNL A   1      40.101  29.024  30.107  1.00  0.00     0.074 A 
ATOM     46  C   UNL A   1      39.034  28.046  30.196  1.00  0.00     0.031 C 
ATOM     47  C   UNL A   1      44.591  25.748  26.989  1.00  0.00     0.029 A 
ATOM     48  C   UNL A   1      44.700  27.125  27.453  1.00  0.00     0.049 A 
ATOM     49  H   UNL A   1      43.251  28.210  28.496  1.00  0.00     0.167 HD
ATOM     50  C   UNL A   1      40.117  30.222  30.740  1.00  0.00     0.034 A 
ATOM     51  C   UNL A   1      45.777  27.921  27.289  1.00  0.00     0.034 A 
ATOM     52  C   UNL A   1      41.184  31.184  30.598  1.00  0.00     0.049 A 
ATOM     53  C   UNL A   1      45.670  29.349  27.755  1.00  0.00     0.074 A 
ATOM     54  C   UNL A   1      41.262  32.471  31.099  1.00  0.00     0.029 A 
ATOM     55  N   UNL A   1      42.361  30.967  29.888  1.00  0.00    -0.354 N 
ATOM     56  N   UNL A   1      44.697  29.923  28.424  1.00  0.00    -0.248 NA
ATOM     57  C   UNL A   1      46.785  30.244  27.425  1.00  0.00     0.031 C 
ATOM     58  C   UNL A   1      42.444  33.056  30.627  1.00  0.00     0.029 A 
ATOM     59  C   UNL A   1      43.149  32.110  29.900  1.00  0.00     0.049 A 
ATOM     60  H   UNL A   1      42.602  30.123  29.442  1.00  0.00     0.167 HD
ATOM     61  C   UNL A   1      45.094  31.239  28.620  1.00  0.00     0.074 A 
ATOM     62  C   UNL A   1      46.400  31.374  28.002  1.00  0.00     0.031 C 
ATOM     63  C   UNL A   1      44.441  32.241  29.262  1.00  0.00     0.034 A 
BRANCH  50  64
ATOM     64  C   UNL A   1      38.877  30.580  31.516  1.00  0.00     0.023 A 
ATOM     65  C   UNL A   1      37.753  31.156  30.899  1.00  0.00     0.031 A 
ATOM     66  C   UNL A   1      38.872  30.456  32.916  1.00  0.00     0.131 A 
ATOM     67  C   UNL A   1      36.718  31.681  31.689  1.00  0.00     0.055 A 
ATOM     68  C   UNL A   1      37.797  30.897  33.690  1.00  0.00     0.041 A 
ATOM     69  F   UNL A   1      39.932  29.945  33.561  1.00  0.00    -0.206 F 
ATOM     70  C   UNL A   1      36.722  31.533  33.079  1.00  0.00     0.022 A 
BRANCH  67  71
ATOM     71  S   UNL A   1      35.472  32.736  30.896  1.00  0.00     0.124 S 
ATOM     72  O   UNL A   1      34.326  32.556  31.784  1.00  0.00    -0.237 OA
ATOM     73  O   UNL A   1      36.106  34.050  30.929  1.00  0.00    -0.237 OA
ATOM     74  O   UNL A   1      35.320  32.148  29.568  1.00  0.00    -0.744 OA
ENDBRANCH  67  71
ENDBRANCH  50  64
BRANCH  51  75
ATOM     75  C   UNL A   1      46.987  27.442  26.555  1.00  0.00     0.023 A 
ATOM     76  C   UNL A   1      47.189  27.745  25.200  1.00  0.00     0.031 A 
ATOM     77  C   UNL A   1      47.933  26.611  27.188  1.00  0.00     0.131 A 
ATOM     78  C   UNL A   1      48.293  27.204  24.516  1.00  0.00     0.055 A 
ATOM     79  C   UNL A   1      49.056  26.121  26.520  1.00  0.00     0.041 A 
ATOM     80  F   UNL A   1      47.776  26.258  28.473  1.00  0.00    -0.206 F 
ATOM     81  C   UNL A   1      49.236  26.410  25.172  1.00  0.00     0.022 A 
BRANCH  78  82
ATOM     82  S   UNL A   1      48.439  27.483  22.729  1.00  0.00     0.124 S 
ATOM     83  O   UNL A   1      47.218  28.228  22.444  1.00  0.00    -0.237 OA
ATOM     84  O   UNL A   1      49.687  28.235  22.642  1.00  0.00    -0.237 OA
ATOM     85  O   UNL A   1      48.490  26.132  22.176  1.00  0.00    -0.744 OA
ENDBRANCH  78  82
ENDBRANCH  51  75
BRANCH  63  86
ATOM     86  C   UNL A   1      45.158  33.564  29.364  1.00  0.00     0.023 A 
ATOM     87  C   UNL A   1      44.919  34.608  28.454  1.00  0.00     0.031 A 
ATOM     88  C   UNL A   1      46.099  33.778  30.388  1.00  0.00     0.131 A 
ATOM     89  C   UNL A   1      45.649  35.802  28.557  1.00  0.00     0.055 A 
ATOM     90  C   UNL A   1      46.777  34.989  30.521  1.00  0.00     0.041 A 
ATOM     91  F   UNL A   1      46.370  32.811  31.279  1.00  0.00    -0.206 F 
ATOM     92  C   UNL A   1      46.561  36.007  29.597  1.00  0.00     0.022 A 
BRANCH  89  93
ATOM     93  S   UNL A   1      45.448  37.063  27.268  1.00  0.00     0.124 S 
ATOM     94  O   UNL A   1      45.859  38.277  27.965  1.00  0.00    -0.237 OA
ATOM     95  O   UNL A   1      46.353  36.591  26.223  1.00  0.00    -0.237 OA
ATOM     96  O   UNL A   1      44.027  36.988  26.934  1.00  0.00    -0.744 OA
ENDBRANCH  89  93
ENDBRANCH  63  86
ENDBRANCH  37  38
ENDBRANCH  30  32
ENDBRANCH  29  30
ENDBRANCH  28  29
ENDBRANCH   1  28
TORSDOF 17
ENDMDL
MODEL 3
REMARK VINA RESULT:     -12.0      2.276      3.226
REMARK SMILES CC(C)c1ccc(-c2cnc([C@@H]3[NH2+][C@H](C(=O)OCCOC(=O)c4ccc(-c5c6nc(c(-c7cc(S(=O)(=O)[O-])ccc7F)c7ccc([nH]7)c(-c7cc(S(=O)(=O)[O-])ccc7F)c7nc(c(-c8cc(S(=O)(=O)[O-])ccc8F)c8ccc5[nH]8)C=C7)C=C6)cc4)C(C)(C)S3)s2)cc1
REMARK SMILES IDX 18 1 17 2 15 3 16 4 14 5 12 6 13 7 89 8 86 11 87 12 88 13
REMARK SMILES IDX 11 14 8 15 9 16 90 17 10 18 7 19 4 20 5 21 92 22 6 23 91 24
REMARK SMILES IDX 2 25 1 26 3 27 19 28 20 29 21 30 22 31 23 32 24 33 85 34
REMARK SMILES IDX 25 35 84 36 26 37 27 38 28 39 78 40 29 41 83 42 77 43 79 44
REMARK SMILES IDX 30 45 82 46 76 47 75 48 31 50 63 51 43 52 62 53 44 54 47 55
REMARK SMILES IDX 61 56 80 57 45 58 46 59 60 61 81 62 48 63 32 64 33 65 41 66
REMARK SMILES IDX 34 67 40 68 42 69 39 70 35 71 36 72 37 73 38 74 64 75 65 76
REMARK SMILES IDX 73 77 66 78 72 79 74 80 71 81 67 82 68 83 69 84 70 85 49 86
REMARK SMILES IDX 50 87 58 88 51 89 57 90 59 91 56 92 52 93 53 94 54 95 55 96
REMARK H PARENT 13 9 13 10 79 49 47 60
REMARK Flexibility Score: inf
ROOT
ATOM      1  C   UNL A   1      34.748  22.584  26.950  1.00  0.00     0.274 C 
ENDROOT
BRANCH   1   2
ATOM      2  O   UNL A   1      34.018  23.505  26.119  1.00  0.00    -0.458 OA
BRANCH   2   3
ATOM      3  C   UNL A   1      32.668  23.391  26.222  1.00  0.00     0.366 C 
ATOM      4  O   UNL A   1      32.058  23.581  27.274  1.00  0.00    -0.245 OA
BRANCH   3   5
ATOM      5  C   UNL A   1      31.945  22.946  24.924  1.00  0.00     0.310 C 
ATOM      6  C   UNL A   1      30.543  24.795  24.256  1.00  0.00     0.304 C 
ATOM      7  N   UNL A   1      30.533  23.475  24.920  1.00  0.00    -0.317 N 
ATOM      8  S   UNL A   1      31.667  24.581  22.832  1.00  0.00    -0.079 SA
ATOM      9  H   UNL A   1      29.925  22.835  24.410  1.00  0.00     0.348 HD
ATOM     10  H   UNL A   1      30.184  23.560  25.875  1.00  0.00     0.348 HD
ATOM     11  C   UNL A   1      32.547  23.122  23.505  1.00  0.00     0.079 C 
ATOM     12  C   UNL A   1      32.143  21.945  22.585  1.00  0.00     0.030 C 
ATOM     13  C   UNL A   1      34.073  23.238  23.401  1.00  0.00     0.030 C 
BRANCH   6  14
ATOM     14  C   UNL A   1      30.908  25.978  25.159  1.00  0.00     0.162 A 
ATOM     15  C   UNL A   1      32.071  27.863  26.258  1.00  0.00     0.055 A 
ATOM     16  C   UNL A   1      31.025  27.285  26.948  1.00  0.00     0.132 A 
ATOM     17  S   UNL A   1      32.085  27.162  24.675  1.00  0.00    -0.112 S 
ATOM     18  N   UNL A   1      30.389  26.218  26.346  1.00  0.00    -0.242 NA
BRANCH  15  19
ATOM     19  C   UNL A   1      33.046  28.857  26.763  1.00  0.00    -0.007 A 
ATOM     20  C   UNL A   1      35.010  30.670  27.792  1.00  0.00    -0.045 A 
ATOM     21  C   UNL A   1      33.669  31.052  27.628  1.00  0.00     0.004 A 
ATOM     22  C   UNL A   1      35.370  29.383  27.387  1.00  0.00     0.004 A 
ATOM     23  C   UNL A   1      32.701  30.163  27.120  1.00  0.00     0.010 A 
ATOM     24  C   UNL A   1      34.404  28.495  26.886  1.00  0.00     0.010 A 
BRANCH  20  25
ATOM     25  C   UNL A   1      36.013  31.636  28.410  1.00  0.00     0.013 C 
ATOM     26  C   UNL A   1      37.460  31.174  28.189  1.00  0.00     0.012 C 
ATOM     27  C   UNL A   1      35.844  33.074  27.914  1.00  0.00     0.012 C 
ENDBRANCH  20  25
ENDBRANCH  15  19
ENDBRANCH   6  14
ENDBRANCH   3   5
ENDBRANCH   2   3
ENDBRANCH   1   2
BRANCH   1  28
ATOM     28  C   UNL A   1      35.726  21.753  26.110  1.00  0.00     0.275 C 
BRANCH  28  29
ATOM     29  O   UNL A   1      36.872  22.548  25.740  1.00  0.00    -0.458 OA
BRANCH  29  30
ATOM     30  C   UNL A   1      38.094  21.983  25.883  1.00  0.00     0.338 C 
ATOM     31  O   UNL A   1      38.448  20.883  25.487  1.00  0.00    -0.246 OA
BRANCH  30  32
ATOM     32  C   UNL A   1      39.006  22.984  26.476  1.00  0.00     0.060 A 
ATOM     33  C   UNL A   1      38.790  24.311  26.127  1.00  0.00     0.016 A 
ATOM     34  C   UNL A   1      40.065  22.665  27.321  1.00  0.00     0.016 A 
ATOM     35  C   UNL A   1      39.574  25.341  26.643  1.00  0.00     0.010 A 
ATOM     36  C   UNL A   1      40.872  23.701  27.836  1.00  0.00     0.010 A 
ATOM     37  C   UNL A   1      40.626  25.049  27.509  1.00  0.00    -0.014 A 
BRANCH  37  38
ATOM     38  C   UNL A   1      41.504  26.152  27.987  1.00  0.00     0.031 A 
ATOM     39  C   UNL A   1      40.957  27.160  28.940  1.00  0.00     0.074 A 
ATOM     40  C   UNL A   1      42.816  26.202  27.691  1.00  0.00     0.049 A 
ATOM     41  N   UNL A   1      41.477  28.294  29.326  1.00  0.00    -0.248 NA
ATOM     42  C   UNL A   1      39.673  26.825  29.564  1.00  0.00     0.031 C 
ATOM     43  C   UNL A   1      43.532  25.148  26.999  1.00  0.00     0.029 A 
ATOM     44  N   UNL A   1      43.783  27.144  27.936  1.00  0.00    -0.354 N 
ATOM     45  C   UNL A   1      40.573  28.826  30.232  1.00  0.00     0.074 A 
ATOM     46  C   UNL A   1      39.474  27.885  30.333  1.00  0.00     0.031 C 
ATOM     47  C   UNL A   1      44.817  25.493  26.844  1.00  0.00     0.029 A 
ATOM     48  C   UNL A   1      44.995  26.849  27.346  1.00  0.00     0.049 A 
ATOM     49  H   UNL A   1      43.628  27.952  28.476  1.00  0.00     0.167 HD
ATOM     50  C   UNL A   1      40.657  30.002  30.901  1.00  0.00     0.034 A 
ATOM     51  C   UNL A   1      46.094  27.611  27.164  1.00  0.00     0.034 A 
ATOM     52  C   UNL A   1      41.753  30.930  30.747  1.00  0.00     0.049 A 
ATOM     53  C   UNL A   1      46.057  29.026  27.678  1.00  0.00     0.074 A 
ATOM     54  C   UNL A   1      41.898  32.197  31.283  1.00  0.00     0.029 A 
ATOM     55  N   UNL A   1      42.894  30.693  29.986  1.00  0.00    -0.354 N 
ATOM     56  N   UNL A   1      45.132  29.613  28.401  1.00  0.00    -0.248 NA
ATOM     57  C   UNL A   1      47.192  29.891  27.331  1.00  0.00     0.031 C 
ATOM     58  C   UNL A   1      43.082  32.754  30.784  1.00  0.00     0.029 A 
ATOM     59  C   UNL A   1      43.723  31.806  30.001  1.00  0.00     0.049 A 
ATOM     60  H   UNL A   1      43.086  29.856  29.504  1.00  0.00     0.167 HD
ATOM     61  C   UNL A   1      45.585  30.908  28.621  1.00  0.00     0.074 A 
ATOM     62  C   UNL A   1      46.871  31.015  27.957  1.00  0.00     0.031 C 
ATOM     63  C   UNL A   1      44.994  31.912  29.318  1.00  0.00     0.034 A 
BRANCH  50  64
ATOM     64  C   UNL A   1      39.461  30.380  31.735  1.00  0.00     0.023 A 
ATOM     65  C   UNL A   1      38.570  31.395  31.344  1.00  0.00     0.031 A 
ATOM     66  C   UNL A   1      39.285  29.797  33.002  1.00  0.00     0.131 A 
ATOM     67  C   UNL A   1      37.611  31.866  32.253  1.00  0.00     0.055 A 
ATOM     68  C   UNL A   1      38.268  30.208  33.866  1.00  0.00     0.041 A 
ATOM     69  F   UNL A   1      40.126  28.848  33.442  1.00  0.00    -0.206 F 
ATOM     70  C   UNL A   1      37.438  31.263  33.502  1.00  0.00     0.022 A 
BRANCH  67  71
ATOM     71  S   UNL A   1      36.731  33.405  31.864  1.00  0.00     0.124 S 
ATOM     72  O   UNL A   1      36.837  34.132  33.127  1.00  0.00    -0.237 OA
ATOM     73  O   UNL A   1      37.510  33.940  30.751  1.00  0.00    -0.237 OA
ATOM     74  O   UNL A   1      35.384  32.954  31.524  1.00  0.00    -0.744 OA
ENDBRANCH  67  71
ENDBRANCH  50  64
BRANCH  51  75
ATOM     75  C   UNL A   1      47.257  27.113  26.370  1.00  0.00     0.023 A 
ATOM     76  C   UNL A   1      48.357  26.498  26.987  1.00  0.00     0.031 A 
ATOM     77  C   UNL A   1      47.314  27.307  24.975  1.00  0.00     0.131 A 
ATOM     78  C   UNL A   1      49.474  26.122  26.220  1.00  0.00     0.055 A 
ATOM     79  C   UNL A   1      48.401  26.882  24.210  1.00  0.00     0.041 A 
ATOM     80  F   UNL A   1      46.308  27.919  24.332  1.00  0.00    -0.206 F 
ATOM     81  C   UNL A   1      49.495  26.294  24.834  1.00  0.00     0.022 A 
BRANCH  78  82
ATOM     82  S   UNL A   1      50.943  25.477  27.069  1.00  0.00     0.124 S 
ATOM     83  O   UNL A   1      51.644  24.808  25.980  1.00  0.00    -0.237 OA
ATOM     84  O   UNL A   1      51.559  26.698  27.577  1.00  0.00    -0.237 OA
ATOM     85  O   UNL A   1      50.386  24.593  28.089  1.00  0.00    -0.744 OA
ENDBRANCH  78  82
ENDBRANCH  51  75
BRANCH  63  86
ATOM     86  C   UNL A   1      45.763  33.204  29.433  1.00  0.00     0.023 A 
ATOM     87  C   UNL A   1      45.530  34.284  28.564  1.00  0.00     0.031 A 
ATOM     88  C   UNL A   1      46.748  33.351  30.426  1.00  0.00     0.131 A 
ATOM     89  C   UNL A   1      46.308  35.447  28.676  1.00  0.00     0.055 A 
ATOM     90  C   UNL A   1      47.475  34.533  30.569  1.00  0.00     0.041 A 
ATOM     91  F   UNL A   1      47.016  32.348  31.277  1.00  0.00    -0.206 F 
ATOM     92  C   UNL A   1      47.264  35.586  29.686  1.00  0.00     0.022 A 
BRANCH  89  93
ATOM     93  S   UNL A   1      46.106  36.753  27.433  1.00  0.00     0.124 S 
ATOM     94  O   UNL A   1      46.030  35.984  26.195  1.00  0.00    -0.237 OA
ATOM     95  O   UNL A   1      44.869  37.403  27.857  1.00  0.00    -0.237 OA
ATOM     96  O   UNL A   1      47.314  37.563  27.587  1.00  0.00    -0.744 OA
ENDBRANCH  89  93
ENDBRANCH  63  86
ENDBRANCH  37  38
ENDBRANCH  30  32
ENDBRANCH  29  30
ENDBRANCH  28  29
ENDBRANCH   1  28
TORSDOF 17
ENDMDL
