MODEL 1
REMARK VINA RESULT:     -11.7      0.000      0.000
REMARK SMILES O=C(OCCOC(=O)c1ccccc1O[C@H]1CCOC2(CCSCC2)C1)c1ccc(-c2c3nc(c(-c4cc(S(=O)(=O)[O-])ccc4F)c4ccc([nH]4)c(-c4cc(S(=O)(=O)[O-])ccc4F)c4nc(c(-c5cc(S(=O)(=O)[O-])ccc5F)c5ccc2[nH]5)C=C4)C=C3)cc1
REMARK SMILES IDX 4 1 3 2 2 3 1 4 27 5 28 6 89 7 29 8 88 9 30 10 31 11 32 12
REMARK SMILES IDX 82 13 33 14 87 15 81 16 83 17 34 18 86 19 80 20 79 21 35 23
REMARK SMILES IDX 67 24 47 25 66 26 48 27 51 28 65 29 84 30 49 31 50 32 64 34
REMARK SMILES IDX 85 35 52 36 36 37 37 38 45 39 38 40 44 41 46 42 43 43 39 44
REMARK SMILES IDX 40 45 41 46 42 47 68 48 69 49 77 50 70 51 76 52 78 53 75 54
REMARK SMILES IDX 71 55 72 56 73 57 74 58 53 59 54 60 62 61 55 62 61 63 63 64
REMARK SMILES IDX 60 65 56 66 57 67 58 68 59 69 5 70 6 71 7 72 8 73 9 74 10 75
REMARK SMILES IDX 14 76 11 77 13 78 12 79 15 80 16 81 17 82 26 83 18 84 20 85
REMARK SMILES IDX 19 86 21 87 25 88 22 89 24 90 23 91
REMARK H PARENT 83 22 51 33
REMARK Flexibility Score: inf
ROOT
ATOM      1  C   UNL A   1      33.214  36.782  29.749  1.00  0.00     0.275 C 
ENDROOT
BRANCH   1   2
ATOM      2  O   UNL A   1      32.477  36.283  30.881  1.00  0.00    -0.458 OA
BRANCH   2   3
ATOM      3  C   UNL A   1      32.847  36.050  32.162  1.00  0.00     0.338 C 
ATOM      4  O   UNL A   1      32.284  36.713  33.036  1.00  0.00    -0.246 OA
BRANCH   3   5
ATOM      5  C   UNL A   1      33.940  35.113  32.615  1.00  0.00     0.060 A 
ATOM      6  C   UNL A   1      33.806  33.773  32.980  1.00  0.00     0.016 A 
ATOM      7  C   UNL A   1      35.248  35.650  32.635  1.00  0.00     0.016 A 
ATOM      8  C   UNL A   1      34.923  33.000  33.336  1.00  0.00     0.010 A 
ATOM      9  C   UNL A   1      36.369  34.884  32.990  1.00  0.00     0.010 A 
ATOM     10  C   UNL A   1      36.211  33.549  33.355  1.00  0.00    -0.014 A 
BRANCH  10  11
ATOM     11  C   UNL A   1      37.318  32.748  33.938  1.00  0.00     0.031 A 
ATOM     12  C   UNL A   1      38.089  31.856  33.025  1.00  0.00     0.074 A 
ATOM     13  C   UNL A   1      37.643  32.819  35.242  1.00  0.00     0.049 A 
ATOM     14  N   UNL A   1      39.175  31.179  33.267  1.00  0.00    -0.248 NA
ATOM     15  C   UNL A   1      37.500  31.622  31.700  1.00  0.00     0.031 C 
ATOM     16  C   UNL A   1      36.818  33.452  36.252  1.00  0.00     0.029 A 
ATOM     17  N   UNL A   1      38.767  32.436  35.938  1.00  0.00    -0.354 N 
ATOM     18  C   UNL A   1      39.335  30.339  32.175  1.00  0.00     0.074 A 
ATOM     19  C   UNL A   1      38.269  30.646  31.243  1.00  0.00     0.031 C 
ATOM     20  C   UNL A   1      37.539  33.619  37.373  1.00  0.00     0.029 A 
ATOM     21  C   UNL A   1      38.866  33.051  37.179  1.00  0.00     0.049 A 
ATOM     22  H   UNL A   1      39.428  31.794  35.594  1.00  0.00     0.167 HD
ATOM     23  C   UNL A   1      40.247  29.349  32.023  1.00  0.00     0.034 A 
ATOM     24  C   UNL A   1      39.945  33.194  37.986  1.00  0.00     0.034 A 
ATOM     25  C   UNL A   1      41.273  29.077  33.002  1.00  0.00     0.049 A 
ATOM     26  C   UNL A   1      41.149  32.349  37.628  1.00  0.00     0.074 A 
ATOM     27  C   UNL A   1      42.235  28.085  33.002  1.00  0.00     0.029 A 
ATOM     28  N   UNL A   1      41.465  29.817  34.165  1.00  0.00    -0.354 N 
ATOM     29  N   UNL A   1      41.324  31.583  36.574  1.00  0.00    -0.248 NA
ATOM     30  C   UNL A   1      42.261  32.319  38.587  1.00  0.00     0.031 C 
ATOM     31  C   UNL A   1      42.976  28.196  34.186  1.00  0.00     0.029 A 
ATOM     32  C   UNL A   1      42.527  29.304  34.890  1.00  0.00     0.049 A 
ATOM     33  H   UNL A   1      40.924  30.595  34.434  1.00  0.00     0.167 HD
ATOM     34  C   UNL A   1      42.521  30.915  36.790  1.00  0.00     0.074 A 
ATOM     35  C   UNL A   1      43.095  31.477  37.996  1.00  0.00     0.031 C 
ATOM     36  C   UNL A   1      43.054  29.868  36.110  1.00  0.00     0.034 A 
BRANCH  23  37
ATOM     37  C   UNL A   1      40.060  28.436  30.841  1.00  0.00     0.023 A 
ATOM     38  C   UNL A   1      40.699  28.669  29.611  1.00  0.00     0.031 A 
ATOM     39  C   UNL A   1      39.128  27.383  30.910  1.00  0.00     0.131 A 
ATOM     40  C   UNL A   1      40.318  27.934  28.479  1.00  0.00     0.055 A 
ATOM     41  C   UNL A   1      38.828  26.591  29.801  1.00  0.00     0.041 A 
ATOM     42  F   UNL A   1      38.459  27.136  32.047  1.00  0.00    -0.206 F 
ATOM     43  C   UNL A   1      39.409  26.878  28.570  1.00  0.00     0.022 A 
BRANCH  40  44
ATOM     44  S   UNL A   1      40.888  28.502  26.853  1.00  0.00     0.124 S 
ATOM     45  O   UNL A   1      39.765  29.333  26.425  1.00  0.00    -0.237 OA
ATOM     46  O   UNL A   1      42.119  29.212  27.179  1.00  0.00    -0.237 OA
ATOM     47  O   UNL A   1      41.062  27.262  26.098  1.00  0.00    -0.744 OA
ENDBRANCH  40  44
ENDBRANCH  23  37
BRANCH  24  48
ATOM     48  C   UNL A   1      40.006  34.163  39.140  1.00  0.00     0.023 A 
ATOM     49  C   UNL A   1      39.478  33.798  40.400  1.00  0.00     0.031 A 
ATOM     50  C   UNL A   1      40.550  35.455  39.043  1.00  0.00     0.131 A 
ATOM     51  C   UNL A   1      39.457  34.712  41.469  1.00  0.00     0.055 A 
ATOM     52  C   UNL A   1      40.626  36.323  40.141  1.00  0.00     0.041 A 
ATOM     53  F   UNL A   1      41.019  35.916  37.873  1.00  0.00    -0.206 F 
ATOM     54  C   UNL A   1      40.066  35.960  41.360  1.00  0.00     0.022 A 
BRANCH  51  55
ATOM     55  S   UNL A   1      38.516  34.298  42.971  1.00  0.00     0.124 S 
ATOM     56  O   UNL A   1      37.770  35.531  43.195  1.00  0.00    -0.237 OA
ATOM     57  O   UNL A   1      37.735  33.147  42.537  1.00  0.00    -0.237 OA
ATOM     58  O   UNL A   1      39.562  34.012  43.951  1.00  0.00    -0.744 OA
ENDBRANCH  51  55
ENDBRANCH  24  48
BRANCH  36  59
ATOM     59  C   UNL A   1      44.279  29.239  36.718  1.00  0.00     0.023 A 
ATOM     60  C   UNL A   1      44.167  28.123  37.567  1.00  0.00     0.031 A 
ATOM     61  C   UNL A   1      45.557  29.759  36.465  1.00  0.00     0.131 A 
ATOM     62  C   UNL A   1      45.307  27.603  38.190  1.00  0.00     0.055 A 
ATOM     63  C   UNL A   1      46.698  29.197  37.037  1.00  0.00     0.041 A 
ATOM     64  F   UNL A   1      45.716  30.823  35.661  1.00  0.00    -0.206 F 
ATOM     65  C   UNL A   1      46.576  28.122  37.918  1.00  0.00     0.022 A 
BRANCH  62  66
ATOM     66  S   UNL A   1      45.097  26.307  39.441  1.00  0.00     0.124 S 
ATOM     67  O   UNL A   1      44.624  25.184  38.638  1.00  0.00    -0.237 OA
ATOM     68  O   UNL A   1      46.443  26.179  39.988  1.00  0.00    -0.237 OA
ATOM     69  O   UNL A   1      44.109  26.875  40.357  1.00  0.00    -0.744 OA
ENDBRANCH  62  66
ENDBRANCH  36  59
ENDBRANCH  10  11
ENDBRANCH   3   5
ENDBRANCH   2   3
ENDBRANCH   1   2
BRANCH   1  70
ATOM     70  C   UNL A   1      33.258  35.786  28.588  1.00  0.00     0.275 C 
BRANCH  70  71
ATOM     71  O   UNL A   1      33.348  34.437  29.060  1.00  0.00    -0.458 OA
BRANCH  71  72
ATOM     72  C   UNL A   1      33.164  33.481  28.120  1.00  0.00     0.342 C 
ATOM     73  O   UNL A   1      32.267  33.440  27.288  1.00  0.00    -0.246 OA
BRANCH  72  74
ATOM     74  C   UNL A   1      34.303  32.545  28.095  1.00  0.00     0.102 A 
ATOM     75  C   UNL A   1      35.560  33.103  28.403  1.00  0.00     0.019 A 
ATOM     76  C   UNL A   1      34.177  31.192  27.748  1.00  0.00     0.134 A 
ATOM     77  C   UNL A   1      36.709  32.321  28.356  1.00  0.00     0.001 A 
ATOM     78  C   UNL A   1      35.363  30.458  27.596  1.00  0.00     0.047 A 
ATOM     79  C   UNL A   1      36.613  31.008  27.919  1.00  0.00     0.004 A 
BRANCH  76  80
ATOM     80  O   UNL A   1      32.906  30.681  27.598  1.00  0.00    -0.489 OA
BRANCH  80  81
ATOM     81  C   UNL A   1      32.739  29.426  26.918  1.00  0.00     0.178 C 
ATOM     82  C   UNL A   1      31.626  28.575  27.510  1.00  0.00     0.074 C 
ATOM     83  C   UNL A   1      32.343  29.650  25.449  1.00  0.00     0.080 C 
ATOM     84  C   UNL A   1      31.547  27.247  26.789  1.00  0.00     0.165 C 
ATOM     85  C   UNL A   1      32.229  28.288  24.706  1.00  0.00     0.073 C 
ATOM     86  O   UNL A   1      31.316  27.437  25.407  1.00  0.00    -0.375 OA
ATOM     87  C   UNL A   1      33.636  27.650  24.568  1.00  0.00     0.046 C 
ATOM     88  C   UNL A   1      31.556  28.483  23.330  1.00  0.00     0.046 C 
ATOM     89  C   UNL A   1      33.688  26.347  23.782  1.00  0.00     0.072 C 
ATOM     90  C   UNL A   1      31.463  27.189  22.517  1.00  0.00     0.072 C 
ATOM     91  S   UNL A   1      33.134  26.633  22.085  1.00  0.00    -0.162 SA
ENDBRANCH  80  81
ENDBRANCH  76  80
ENDBRANCH  72  74
ENDBRANCH  71  72
ENDBRANCH  70  71
ENDBRANCH   1  70
TORSDOF 16
ENDMDL
MODEL 2
REMARK VINA RESULT:     -11.5      3.202      9.030
REMARK SMILES O=C(OCCOC(=O)c1ccccc1O[C@H]1CCOC2(CCSCC2)C1)c1ccc(-c2c3nc(c(-c4cc(S(=O)(=O)[O-])ccc4F)c4ccc([nH]4)c(-c4cc(S(=O)(=O)[O-])ccc4F)c4nc(c(-c5cc(S(=O)(=O)[O-])ccc5F)c5ccc2[nH]5)C=C4)C=C3)cc1
REMARK SMILES IDX 4 1 3 2 2 3 1 4 27 5 28 6 89 7 29 8 88 9 30 10 31 11 32 12
REMARK SMILES IDX 82 13 33 14 87 15 81 16 83 17 34 18 86 19 80 20 79 21 35 23
REMARK SMILES IDX 67 24 47 25 66 26 48 27 51 28 65 29 84 30 49 31 50 32 64 34
REMARK SMILES IDX 85 35 52 36 36 37 37 38 45 39 38 40 44 41 46 42 43 43 39 44
REMARK SMILES IDX 40 45 41 46 42 47 68 48 69 49 77 50 70 51 76 52 78 53 75 54
REMARK SMILES IDX 71 55 72 56 73 57 74 58 53 59 54 60 62 61 55 62 61 63 63 64
REMARK SMILES IDX 60 65 56 66 57 67 58 68 59 69 5 70 6 71 7 72 8 73 9 74 10 75
REMARK SMILES IDX 14 76 11 77 13 78 12 79 15 80 16 81 17 82 26 83 18 84 20 85
REMARK SMILES IDX 19 86 21 87 25 88 22 89 24 90 23 91
REMARK H PARENT 83 22 51 33
REMARK Flexibility Score: inf
ROOT
ATOM      1  C   UNL A   1      31.671  29.994  26.806  1.00  0.00     0.275 C 
ENDROOT
BRANCH   1   2
ATOM      2  O   UNL A   1      32.930  30.644  26.549  1.00  0.00    -0.458 OA
BRANCH   2   3
ATOM      3  C   UNL A   1      33.706  31.438  27.323  1.00  0.00     0.338 C 
ATOM      4  O   UNL A   1      33.381  32.624  27.409  1.00  0.00    -0.246 OA
BRANCH   3   5
ATOM      5  C   UNL A   1      34.976  31.026  28.026  1.00  0.00     0.060 A 
ATOM      6  C   UNL A   1      35.354  29.735  28.400  1.00  0.00     0.016 A 
ATOM      7  C   UNL A   1      35.897  32.063  28.302  1.00  0.00     0.016 A 
ATOM      8  C   UNL A   1      36.595  29.487  29.008  1.00  0.00     0.010 A 
ATOM      9  C   UNL A   1      37.139  31.822  28.909  1.00  0.00     0.010 A 
ATOM     10  C   UNL A   1      37.493  30.526  29.278  1.00  0.00    -0.014 A 
BRANCH  10  11
ATOM     11  C   UNL A   1      38.691  30.235  30.105  1.00  0.00     0.031 A 
ATOM     12  C   UNL A   1      38.615  30.517  31.567  1.00  0.00     0.074 A 
ATOM     13  C   UNL A   1      39.817  29.719  29.578  1.00  0.00     0.049 A 
ATOM     14  N   UNL A   1      39.468  30.217  32.506  1.00  0.00    -0.248 NA
ATOM     15  C   UNL A   1      37.475  31.332  32.010  1.00  0.00     0.031 C 
ATOM     16  C   UNL A   1      40.086  29.639  28.156  1.00  0.00     0.029 A 
ATOM     17  N   UNL A   1      40.906  29.099  30.146  1.00  0.00    -0.354 N 
ATOM     18  C   UNL A   1      39.039  30.911  33.627  1.00  0.00     0.074 A 
ATOM     19  C   UNL A   1      37.813  31.590  33.264  1.00  0.00     0.031 C 
ATOM     20  C   UNL A   1      41.130  28.822  27.947  1.00  0.00     0.029 A 
ATOM     21  C   UNL A   1      41.643  28.362  29.230  1.00  0.00     0.049 A 
ATOM     22  H   UNL A   1      41.138  29.171  31.100  1.00  0.00     0.167 HD
ATOM     23  C   UNL A   1      39.675  31.024  34.818  1.00  0.00     0.034 A 
ATOM     24  C   UNL A   1      42.549  27.377  29.446  1.00  0.00     0.034 A 
ATOM     25  C   UNL A   1      40.910  30.338  35.111  1.00  0.00     0.049 A 
ATOM     26  C   UNL A   1      43.030  27.228  30.874  1.00  0.00     0.074 A 
ATOM     27  C   UNL A   1      41.686  30.390  36.254  1.00  0.00     0.029 A 
ATOM     28  N   UNL A   1      41.550  29.463  34.238  1.00  0.00    -0.354 N 
ATOM     29  N   UNL A   1      42.600  27.852  31.948  1.00  0.00    -0.248 NA
ATOM     30  C   UNL A   1      44.155  26.315  31.114  1.00  0.00     0.031 C 
ATOM     31  C   UNL A   1      42.815  29.586  36.052  1.00  0.00     0.029 A 
ATOM     32  C   UNL A   1      42.709  28.972  34.813  1.00  0.00     0.049 A 
ATOM     33  H   UNL A   1      41.224  29.227  33.338  1.00  0.00     0.167 HD
ATOM     34  C   UNL A   1      43.460  27.474  32.970  1.00  0.00     0.074 A 
ATOM     35  C   UNL A   1      44.335  26.458  32.419  1.00  0.00     0.031 C 
ATOM     36  C   UNL A   1      43.580  27.985  34.222  1.00  0.00     0.034 A 
BRANCH  23  37
ATOM     37  C   UNL A   1      39.107  32.021  35.792  1.00  0.00     0.023 A 
ATOM     38  C   UNL A   1      39.533  33.361  35.820  1.00  0.00     0.031 A 
ATOM     39  C   UNL A   1      38.216  31.593  36.794  1.00  0.00     0.131 A 
ATOM     40  C   UNL A   1      39.153  34.190  36.885  1.00  0.00     0.055 A 
ATOM     41  C   UNL A   1      37.764  32.454  37.795  1.00  0.00     0.041 A 
ATOM     42  F   UNL A   1      37.805  30.316  36.843  1.00  0.00    -0.206 F 
ATOM     43  C   UNL A   1      38.250  33.756  37.857  1.00  0.00     0.022 A 
BRANCH  40  44
ATOM     44  S   UNL A   1      40.004  35.780  37.083  1.00  0.00     0.124 S 
ATOM     45  O   UNL A   1      39.655  36.453  35.834  1.00  0.00    -0.237 OA
ATOM     46  O   UNL A   1      39.391  36.320  38.290  1.00  0.00    -0.237 OA
ATOM     47  O   UNL A   1      41.411  35.403  37.210  1.00  0.00    -0.744 OA
ENDBRANCH  40  44
ENDBRANCH  23  37
BRANCH  24  48
ATOM     48  C   UNL A   1      43.029  26.430  28.374  1.00  0.00     0.023 A 
ATOM     49  C   UNL A   1      44.175  26.750  27.609  1.00  0.00     0.031 A 
ATOM     50  C   UNL A   1      42.385  25.222  28.057  1.00  0.00     0.131 A 
ATOM     51  C   UNL A   1      44.597  25.918  26.555  1.00  0.00     0.055 A 
ATOM     52  C   UNL A   1      42.872  24.343  27.080  1.00  0.00     0.041 A 
ATOM     53  F   UNL A   1      41.254  24.862  28.685  1.00  0.00    -0.206 F 
ATOM     54  C   UNL A   1      43.976  24.694  26.313  1.00  0.00     0.022 A 
BRANCH  51  55
ATOM     55  S   UNL A   1      45.893  26.510  25.424  1.00  0.00     0.124 S 
ATOM     56  O   UNL A   1      46.148  25.317  24.624  1.00  0.00    -0.237 OA
ATOM     57  O   UNL A   1      45.226  27.609  24.739  1.00  0.00    -0.237 OA
ATOM     58  O   UNL A   1      46.973  26.899  26.329  1.00  0.00    -0.744 OA
ENDBRANCH  51  55
ENDBRANCH  24  48
BRANCH  36  59
ATOM     59  C   UNL A   1      44.749  27.486  35.029  1.00  0.00     0.023 A 
ATOM     60  C   UNL A   1      44.637  26.322  35.811  1.00  0.00     0.031 A 
ATOM     61  C   UNL A   1      45.969  28.176  35.033  1.00  0.00     0.131 A 
ATOM     62  C   UNL A   1      45.705  25.920  36.622  1.00  0.00     0.055 A 
ATOM     63  C   UNL A   1      47.053  27.735  35.792  1.00  0.00     0.041 A 
ATOM     64  F   UNL A   1      46.126  29.292  34.303  1.00  0.00    -0.206 F 
ATOM     65  C   UNL A   1      46.920  26.610  36.605  1.00  0.00     0.022 A 
BRANCH  62  66
ATOM     66  S   UNL A   1      45.448  24.545  37.775  1.00  0.00     0.124 S 
ATOM     67  O   UNL A   1      46.742  24.463  38.444  1.00  0.00    -0.237 OA
ATOM     68  O   UNL A   1      44.337  25.024  38.591  1.00  0.00    -0.237 OA
ATOM     69  O   UNL A   1      45.129  23.419  36.898  1.00  0.00    -0.744 OA
ENDBRANCH  62  66
ENDBRANCH  36  59
ENDBRANCH  10  11
ENDBRANCH   3   5
ENDBRANCH   2   3
ENDBRANCH   1   2
BRANCH   1  70
ATOM     70  C   UNL A   1      31.838  28.620  27.457  1.00  0.00     0.275 C 
BRANCH  70  71
ATOM     71  O   UNL A   1      31.408  27.571  26.582  1.00  0.00    -0.458 OA
BRANCH  71  72
ATOM     72  C   UNL A   1      32.401  26.878  25.975  1.00  0.00     0.342 C 
ATOM     73  O   UNL A   1      33.603  27.074  26.093  1.00  0.00    -0.246 OA
BRANCH  72  74
ATOM     74  C   UNL A   1      31.861  25.706  25.263  1.00  0.00     0.102 A 
ATOM     75  C   UNL A   1      31.624  24.564  26.054  1.00  0.00     0.019 A 
ATOM     76  C   UNL A   1      31.629  25.688  23.879  1.00  0.00     0.134 A 
ATOM     77  C   UNL A   1      31.167  23.386  25.473  1.00  0.00     0.001 A 
ATOM     78  C   UNL A   1      31.279  24.458  23.305  1.00  0.00     0.047 A 
ATOM     79  C   UNL A   1      31.028  23.324  24.094  1.00  0.00     0.004 A 
BRANCH  76  80
ATOM     80  O   UNL A   1      31.745  26.877  23.192  1.00  0.00    -0.489 OA
BRANCH  80  81
ATOM     81  C   UNL A   1      30.555  27.626  22.895  1.00  0.00     0.178 C 
ATOM     82  C   UNL A   1      29.306  27.029  23.527  1.00  0.00     0.074 C 
ATOM     83  C   UNL A   1      30.653  29.054  23.458  1.00  0.00     0.080 C 
ATOM     84  C   UNL A   1      28.087  27.829  23.125  1.00  0.00     0.165 C 
ATOM     85  C   UNL A   1      29.390  29.875  23.074  1.00  0.00     0.073 C 
ATOM     86  O   UNL A   1      28.218  29.181  23.516  1.00  0.00    -0.375 OA
ATOM     87  C   UNL A   1      29.377  30.129  21.544  1.00  0.00     0.046 C 
ATOM     88  C   UNL A   1      29.347  31.197  23.871  1.00  0.00     0.046 C 
ATOM     89  C   UNL A   1      28.235  30.999  21.036  1.00  0.00     0.072 C 
ATOM     90  C   UNL A   1      28.156  32.085  23.501  1.00  0.00     0.072 C 
ATOM     91  S   UNL A   1      28.335  32.641  21.784  1.00  0.00    -0.162 SA
ENDBRANCH  80  81
ENDBRANCH  76  80
ENDBRANCH  72  74
ENDBRANCH  71  72
ENDBRANCH  70  71
ENDBRANCH   1  70
TORSDOF 16
ENDMDL
MODEL 3
REMARK VINA RESULT:     -11.4      3.732      9.532
REMARK SMILES O=C(OCCOC(=O)c1ccccc1O[C@H]1CCOC2(CCSCC2)C1)c1ccc(-c2c3nc(c(-c4cc(S(=O)(=O)[O-])ccc4F)c4ccc([nH]4)c(-c4cc(S(=O)(=O)[O-])ccc4F)c4nc(c(-c5cc(S(=O)(=O)[O-])ccc5F)c5ccc2[nH]5)C=C4)C=C3)cc1
REMARK SMILES IDX 4 1 3 2 2 3 1 4 27 5 28 6 89 7 29 8 88 9 30 10 31 11 32 12
REMARK SMILES IDX 82 13 33 14 87 15 81 16 83 17 34 18 86 19 80 20 79 21 35 23
REMARK SMILES IDX 67 24 47 25 66 26 48 27 51 28 65 29 84 30 49 31 50 32 64 34
REMARK SMILES IDX 85 35 52 36 36 37 37 38 45 39 38 40 44 41 46 42 43 43 39 44
REMARK SMILES IDX 40 45 41 46 42 47 68 48 69 49 77 50 70 51 76 52 78 53 75 54
REMARK SMILES IDX 71 55 72 56 73 57 74 58 53 59 54 60 62 61 55 62 61 63 63 64
REMARK SMILES IDX 60 65 56 66 57 67 58 68 59 69 5 70 6 71 7 72 8 73 9 74 10 75
REMARK SMILES IDX 14 76 11 77 13 78 12 79 15 80 16 81 17 82 26 83 18 84 20 85
REMARK SMILES IDX 19 86 21 87 25 88 22 89 24 90 23 91
REMARK H PARENT 83 22 51 33
REMARK Flexibility Score: inf
ROOT
ATOM      1  C   UNL A   1      31.836  29.962  26.241  1.00  0.00     0.275 C 
ENDROOT
BRANCH   1   2
ATOM      2  O   UNL A   1      33.105  30.645  26.252  1.00  0.00    -0.458 OA
BRANCH   2   3
ATOM      3  C   UNL A   1      33.817  31.201  27.260  1.00  0.00     0.338 C 
ATOM      4  O   UNL A   1      33.369  32.238  27.754  1.00  0.00    -0.246 OA
BRANCH   3   5
ATOM      5  C   UNL A   1      35.146  30.716  27.781  1.00  0.00     0.060 A 
ATOM      6  C   UNL A   1      35.513  29.399  28.066  1.00  0.00     0.016 A 
ATOM      7  C   UNL A   1      36.138  31.706  27.968  1.00  0.00     0.016 A 
ATOM      8  C   UNL A   1      36.810  29.082  28.502  1.00  0.00     0.010 A 
ATOM      9  C   UNL A   1      37.436  31.396  28.404  1.00  0.00     0.010 A 
ATOM     10  C   UNL A   1      37.778  30.076  28.685  1.00  0.00    -0.014 A 
BRANCH  10  11
ATOM     11  C   UNL A   1      39.058  29.710  29.343  1.00  0.00     0.031 A 
ATOM     12  C   UNL A   1      39.210  30.017  30.794  1.00  0.00     0.074 A 
ATOM     13  C   UNL A   1      40.059  29.107  28.676  1.00  0.00     0.049 A 
ATOM     14  N   UNL A   1      40.164  29.669  31.610  1.00  0.00    -0.248 NA
ATOM     15  C   UNL A   1      38.204  30.919  31.373  1.00  0.00     0.031 C 
ATOM     16  C   UNL A   1      40.118  28.988  27.232  1.00  0.00     0.029 A 
ATOM     17  N   UNL A   1      41.172  28.416  29.100  1.00  0.00    -0.354 N 
ATOM     18  C   UNL A   1      39.948  30.407  32.764  1.00  0.00     0.074 A 
ATOM     19  C   UNL A   1      38.733  31.169  32.560  1.00  0.00     0.031 C 
ATOM     20  C   UNL A   1      41.062  28.094  26.898  1.00  0.00     0.029 A 
ATOM     21  C   UNL A   1      41.718  27.615  28.107  1.00  0.00     0.049 A 
ATOM     22  H   UNL A   1      41.541  28.485  30.010  1.00  0.00     0.167 HD
ATOM     23  C   UNL A   1      40.752  30.490  33.851  1.00  0.00     0.034 A 
ATOM     24  C   UNL A   1      42.574  26.570  28.217  1.00  0.00     0.034 A 
ATOM     25  C   UNL A   1      41.966  29.720  33.984  1.00  0.00     0.049 A 
ATOM     26  C   UNL A   1      43.241  26.406  29.567  1.00  0.00     0.074 A 
ATOM     27  C   UNL A   1      42.897  29.732  35.005  1.00  0.00     0.029 A 
ATOM     28  N   UNL A   1      42.413  28.789  33.051  1.00  0.00    -0.354 N 
ATOM     29  N   UNL A   1      43.012  27.075  30.675  1.00  0.00    -0.248 NA
ATOM     30  C   UNL A   1      44.322  25.418  29.669  1.00  0.00     0.031 C 
ATOM     31  C   UNL A   1      43.928  28.845  34.667  1.00  0.00     0.029 A 
ATOM     32  C   UNL A   1      43.604  28.223  33.470  1.00  0.00     0.049 A 
ATOM     33  H   UNL A   1      41.947  28.565  32.212  1.00  0.00     0.167 HD
ATOM     34  C   UNL A   1      43.980  26.650  31.575  1.00  0.00     0.074 A 
ATOM     35  C   UNL A   1      44.694  25.566  30.931  1.00  0.00     0.031 C 
ATOM     36  C   UNL A   1      44.312  27.167  32.786  1.00  0.00     0.034 A 
BRANCH  23  37
ATOM     37  C   UNL A   1      40.400  31.540  34.871  1.00  0.00     0.023 A 
ATOM     38  C   UNL A   1      39.552  31.267  35.959  1.00  0.00     0.031 A 
ATOM     39  C   UNL A   1      40.820  32.869  34.681  1.00  0.00     0.131 A 
ATOM     40  C   UNL A   1      39.068  32.322  36.745  1.00  0.00     0.055 A 
ATOM     41  C   UNL A   1      40.412  33.900  35.530  1.00  0.00     0.041 A 
ATOM     42  F   UNL A   1      41.599  33.198  33.639  1.00  0.00    -0.206 F 
ATOM     43  C   UNL A   1      39.513  33.632  36.558  1.00  0.00     0.022 A 
BRANCH  40  44
ATOM     44  S   UNL A   1      37.705  31.983  37.894  1.00  0.00     0.124 S 
ATOM     45  O   UNL A   1      37.401  30.589  37.580  1.00  0.00    -0.237 OA
ATOM     46  O   UNL A   1      38.319  32.224  39.194  1.00  0.00    -0.237 OA
ATOM     47  O   UNL A   1      36.676  32.944  37.499  1.00  0.00    -0.744 OA
ENDBRANCH  40  44
ENDBRANCH  23  37
BRANCH  24  48
ATOM     48  C   UNL A   1      42.831  25.576  27.112  1.00  0.00     0.023 A 
ATOM     49  C   UNL A   1      42.202  24.309  27.140  1.00  0.00     0.031 A 
ATOM     50  C   UNL A   1      43.695  25.820  26.031  1.00  0.00     0.131 A 
ATOM     51  C   UNL A   1      42.484  23.340  26.159  1.00  0.00     0.055 A 
ATOM     52  C   UNL A   1      43.888  24.892  24.998  1.00  0.00     0.041 A 
ATOM     53  F   UNL A   1      44.385  26.968  25.950  1.00  0.00    -0.206 F 
ATOM     54  C   UNL A   1      43.292  23.639  25.064  1.00  0.00     0.022 A 
BRANCH  51  55
ATOM     55  S   UNL A   1      41.878  21.641  26.394  1.00  0.00     0.124 S 
ATOM     56  O   UNL A   1      42.278  21.378  27.772  1.00  0.00    -0.237 OA
ATOM     57  O   UNL A   1      40.448  21.788  26.160  1.00  0.00    -0.237 OA
ATOM     58  O   UNL A   1      42.604  20.884  25.376  1.00  0.00    -0.744 OA
ENDBRANCH  51  55
ENDBRANCH  24  48
BRANCH  36  59
ATOM     59  C   UNL A   1      45.545  26.597  33.433  1.00  0.00     0.023 A 
ATOM     60  C   UNL A   1      45.469  25.435  34.223  1.00  0.00     0.031 A 
ATOM     61  C   UNL A   1      46.794  27.215  33.276  1.00  0.00     0.131 A 
ATOM     62  C   UNL A   1      46.609  24.966  34.886  1.00  0.00     0.055 A 
ATOM     63  C   UNL A   1      47.940  26.707  33.887  1.00  0.00     0.041 A 
ATOM     64  F   UNL A   1      46.918  28.326  32.532  1.00  0.00    -0.206 F 
ATOM     65  C   UNL A   1      47.849  25.585  34.710  1.00  0.00     0.022 A 
BRANCH  62  66
ATOM     66  S   UNL A   1      46.426  23.599  36.064  1.00  0.00     0.124 S 
ATOM     67  O   UNL A   1      47.629  22.814  35.808  1.00  0.00    -0.237 OA
ATOM     68  O   UNL A   1      46.378  24.295  37.346  1.00  0.00    -0.237 OA
ATOM     69  O   UNL A   1      45.172  22.965  35.658  1.00  0.00    -0.744 OA
ENDBRANCH  62  66
ENDBRANCH  36  59
ENDBRANCH  10  11
ENDBRANCH   3   5
ENDBRANCH   2   3
ENDBRANCH   1   2
BRANCH   1  70
ATOM     70  C   UNL A   1      31.766  28.830  27.267  1.00  0.00     0.275 C 
BRANCH  70  71
ATOM     71  O   UNL A   1      31.587  27.559  26.632  1.00  0.00    -0.458 OA
BRANCH  71  72
ATOM     72  C   UNL A   1      32.657  27.101  25.940  1.00  0.00     0.342 C 
ATOM     73  O   UNL A   1      33.795  26.964  26.367  1.00  0.00    -0.246 OA
BRANCH  72  74
ATOM     74  C   UNL A   1      32.248  26.603  24.615  1.00  0.00     0.102 A 
ATOM     75  C   UNL A   1      32.586  27.425  23.521  1.00  0.00     0.019 A 
ATOM     76  C   UNL A   1      31.530  25.412  24.430  1.00  0.00     0.134 A 
ATOM     77  C   UNL A   1      32.200  27.077  22.231  1.00  0.00     0.001 A 
ATOM     78  C   UNL A   1      31.056  25.145  23.137  1.00  0.00     0.047 A 
ATOM     79  C   UNL A   1      31.406  25.955  22.045  1.00  0.00     0.004 A 
BRANCH  76  80
ATOM     80  O   UNL A   1      31.358  24.588  25.521  1.00  0.00    -0.489 OA
BRANCH  80  81
ATOM     81  C   UNL A   1      32.486  23.850  26.018  1.00  0.00     0.178 C 
ATOM     82  C   UNL A   1      32.156  23.019  27.249  1.00  0.00     0.074 C 
ATOM     83  C   UNL A   1      32.984  22.842  24.969  1.00  0.00     0.080 C 
ATOM     84  C   UNL A   1      33.398  22.320  27.754  1.00  0.00     0.165 C 
ATOM     85  C   UNL A   1      34.244  22.096  25.491  1.00  0.00     0.073 C 
ATOM     86  O   UNL A   1      33.950  21.488  26.753  1.00  0.00    -0.375 OA
ATOM     87  C   UNL A   1      35.436  23.085  25.581  1.00  0.00     0.046 C 
ATOM     88  C   UNL A   1      34.571  20.893  24.579  1.00  0.00     0.046 C 
ATOM     89  C   UNL A   1      36.765  22.470  25.999  1.00  0.00     0.072 C 
ATOM     90  C   UNL A   1      35.838  20.145  25.001  1.00  0.00     0.072 C 
ATOM     91  S   UNL A   1      37.274  21.230  24.786  1.00  0.00    -0.162 SA
ENDBRANCH  80  81
ENDBRANCH  76  80
ENDBRANCH  72  74
ENDBRANCH  71  72
ENDBRANCH  70  71
ENDBRANCH   1  70
TORSDOF 16
ENDMDL
