MODEL 1
REMARK VINA RESULT:     -11.0      0.000      0.000
REMARK SMILES Cc1cccc(C(=O)Nc2ccc(-c3nnc(S[C@H](C(=O)OCCOC(=O)c4ccc(-c5c6nc(c(-c7cc(S(=O)(=O)[O-])ccc7F)c7ccc([nH]7)c(-c7cc(S(=O)(=O)[O-])ccc7F)c7nc(c(-c8cc(S(=O)(=O)[O-])ccc8F)c8ccc5[nH]8)C=C7)C=C6)cc4)C(C)C)n3C)cc2)c1
REMARK SMILES IDX 23 1 22 2 20 3 21 4 19 5 18 6 17 7 14 8 15 9 94 10 16 11
REMARK SMILES IDX 95 12 13 13 10 14 11 15 97 16 12 17 96 18 9 19 7 20 8 21
REMARK SMILES IDX 6 23 1 24 2 25 3 26 98 27 4 28 5 29 91 30 92 31 93 32 24 33
REMARK SMILES IDX 25 34 26 35 27 36 28 37 29 38 90 39 30 40 89 41 31 42 32 43
REMARK SMILES IDX 33 44 83 45 34 46 88 47 82 48 84 49 35 50 87 51 81 52 80 53
REMARK SMILES IDX 36 55 68 56 48 57 67 58 49 59 52 60 66 61 85 62 50 63 51 64
REMARK SMILES IDX 65 66 86 67 53 68 37 69 38 70 46 71 39 72 45 73 47 74 44 75
REMARK SMILES IDX 40 76 41 77 42 78 43 79 69 80 70 81 78 82 71 83 77 84 79 85
REMARK SMILES IDX 76 86 72 87 73 88 74 89 75 90 54 91 55 92 63 93 56 94 62 95
REMARK SMILES IDX 64 96 61 97 57 98 58 99 59 100 60 101
REMARK H PARENT 9 22 84 54 52 65
REMARK Flexibility Score: inf
ROOT
ATOM      1  C   UNL A   1      35.643  22.877  24.835  1.00  0.00     0.274 C 
ENDROOT
BRANCH   1   2
ATOM      2  O   UNL A   1      34.767  24.026  24.892  1.00  0.00    -0.461 OA
BRANCH   2   3
ATOM      3  C   UNL A   1      33.510  23.901  24.393  1.00  0.00     0.319 C 
ATOM      4  O   UNL A   1      33.282  23.511  23.244  1.00  0.00    -0.251 OA
BRANCH   3   5
ATOM      5  C   UNL A   1      32.452  24.186  25.475  1.00  0.00     0.167 C 
BRANCH   5   6
ATOM      6  S   UNL A   1      31.361  25.571  24.879  1.00  0.00    -0.071 SA
BRANCH   6   7
ATOM      7  C   UNL A   1      31.662  26.834  26.017  1.00  0.00     0.192 A 
ATOM      8  C   UNL A   1      32.694  28.510  26.976  1.00  0.00     0.164 A 
ATOM      9  N   UNL A   1      31.745  28.088  27.795  1.00  0.00    -0.129 NA
ATOM     10  N   UNL A   1      32.478  27.899  25.761  1.00  0.00    -0.305 N 
ATOM     11  N   UNL A   1      31.094  27.022  27.183  1.00  0.00    -0.123 NA
ATOM     12  C   UNL A   1      32.784  28.480  24.482  1.00  0.00     0.154 C 
BRANCH   8  13
ATOM     13  C   UNL A   1      33.780  29.447  27.251  1.00  0.00     0.019 A 
ATOM     14  C   UNL A   1      35.892  31.214  27.879  1.00  0.00     0.041 A 
ATOM     15  C   UNL A   1      36.158  29.869  27.616  1.00  0.00     0.027 A 
ATOM     16  C   UNL A   1      34.582  31.686  27.744  1.00  0.00     0.027 A 
ATOM     17  C   UNL A   1      35.106  28.989  27.328  1.00  0.00     0.014 A 
ATOM     18  C   UNL A   1      33.531  30.807  27.451  1.00  0.00     0.014 A 
BRANCH  14  19
ATOM     19  N   UNL A   1      36.960  32.022  28.311  1.00  0.00    -0.322 N 
ATOM     20  C   UNL A   1      36.953  33.289  28.867  1.00  0.00     0.255 C 
ATOM     21  O   UNL A   1      37.994  33.949  28.876  1.00  0.00    -0.269 OA
ATOM     22  H   UNL A   1      37.853  31.623  28.203  1.00  0.00     0.170 HD
BRANCH  20  23
ATOM     23  C   UNL A   1      35.739  33.839  29.537  1.00  0.00     0.040 A 
ATOM     24  C   UNL A   1      32.913  36.274  28.823  1.00  0.00     0.044 C 
ATOM     25  C   UNL A   1      33.769  35.270  29.536  1.00  0.00    -0.050 A 
ATOM     26  C   UNL A   1      33.535  34.939  30.873  1.00  0.00     0.003 A 
ATOM     27  C   UNL A   1      34.824  34.652  28.857  1.00  0.00     0.017 A 
ATOM     28  C   UNL A   1      34.373  34.035  31.530  1.00  0.00     0.001 A 
ATOM     29  C   UNL A   1      35.483  33.499  30.871  1.00  0.00     0.014 A 
ENDBRANCH  20  23
ENDBRANCH  14  19
ENDBRANCH   8  13
ENDBRANCH   6   7
ENDBRANCH   5   6
BRANCH   5  30
ATOM     30  C   UNL A   1      31.631  22.886  25.748  1.00  0.00     0.007 C 
ATOM     31  C   UNL A   1      32.511  21.744  26.289  1.00  0.00     0.009 C 
ATOM     32  C   UNL A   1      30.470  23.064  26.739  1.00  0.00     0.009 C 
ENDBRANCH   5  30
ENDBRANCH   3   5
ENDBRANCH   2   3
ENDBRANCH   1   2
BRANCH   1  33
ATOM     33  C   UNL A   1      37.131  23.240  24.644  1.00  0.00     0.275 C 
BRANCH  33  34
ATOM     34  O   UNL A   1      37.618  24.136  25.657  1.00  0.00    -0.458 OA
BRANCH  34  35
ATOM     35  C   UNL A   1      38.567  23.608  26.462  1.00  0.00     0.338 C 
ATOM     36  O   UNL A   1      38.982  22.435  26.354  1.00  0.00    -0.246 OA
BRANCH  35  37
ATOM     37  C   UNL A   1      39.354  24.716  27.055  1.00  0.00     0.060 A 
ATOM     38  C   UNL A   1      40.076  25.615  26.257  1.00  0.00     0.016 A 
ATOM     39  C   UNL A   1      39.066  25.052  28.382  1.00  0.00     0.016 A 
ATOM     40  C   UNL A   1      40.465  26.856  26.767  1.00  0.00     0.010 A 
ATOM     41  C   UNL A   1      39.274  26.331  28.828  1.00  0.00     0.010 A 
ATOM     42  C   UNL A   1      40.065  27.196  28.064  1.00  0.00    -0.014 A 
BRANCH  42  43
ATOM     43  C   UNL A   1      40.857  28.053  28.933  1.00  0.00     0.031 A 
ATOM     44  C   UNL A   1      40.426  29.317  29.523  1.00  0.00     0.074 A 
ATOM     45  C   UNL A   1      41.882  27.365  29.484  1.00  0.00     0.049 A 
ATOM     46  N   UNL A   1      41.260  30.239  29.870  1.00  0.00    -0.248 NA
ATOM     47  C   UNL A   1      39.035  29.625  29.833  1.00  0.00     0.031 C 
ATOM     48  C   UNL A   1      42.615  27.613  30.708  1.00  0.00     0.029 A 
ATOM     49  N   UNL A   1      42.487  26.224  28.957  1.00  0.00    -0.354 N 
ATOM     50  C   UNL A   1      40.583  31.048  30.752  1.00  0.00     0.074 A 
ATOM     51  C   UNL A   1      39.179  30.730  30.578  1.00  0.00     0.031 C 
ATOM     52  C   UNL A   1      43.722  26.845  30.693  1.00  0.00     0.029 A 
ATOM     53  C   UNL A   1      43.802  26.200  29.388  1.00  0.00     0.049 A 
ATOM     54  H   UNL A   1      42.054  25.553  28.381  1.00  0.00     0.167 HD
ATOM     55  C   UNL A   1      41.253  31.718  31.733  1.00  0.00     0.034 A 
ATOM     56  C   UNL A   1      44.816  26.276  28.480  1.00  0.00     0.034 A 
ATOM     57  C   UNL A   1      42.653  31.290  31.827  1.00  0.00     0.049 A 
ATOM     58  C   UNL A   1      45.560  27.589  28.631  1.00  0.00     0.074 A 
ATOM     59  C   UNL A   1      43.320  30.491  32.744  1.00  0.00     0.029 A 
ATOM     60  N   UNL A   1      43.514  31.425  30.743  1.00  0.00    -0.354 N 
ATOM     61  N   UNL A   1      45.181  28.561  29.413  1.00  0.00    -0.248 NA
ATOM     62  C   UNL A   1      46.759  27.929  27.881  1.00  0.00     0.031 C 
ATOM     63  C   UNL A   1      44.580  30.134  32.195  1.00  0.00     0.029 A 
ATOM     64  C   UNL A   1      44.695  30.732  30.954  1.00  0.00     0.049 A 
ATOM     65  H   UNL A   1      43.310  31.944  29.931  1.00  0.00     0.167 HD
ATOM     66  C   UNL A   1      46.014  29.639  29.282  1.00  0.00     0.074 A 
ATOM     67  C   UNL A   1      47.002  29.178  28.318  1.00  0.00     0.031 C 
ATOM     68  C   UNL A   1      45.778  30.800  29.974  1.00  0.00     0.034 A 
BRANCH  55  69
ATOM     69  C   UNL A   1      40.535  32.477  32.825  1.00  0.00     0.023 A 
ATOM     70  C   UNL A   1      40.085  31.812  33.983  1.00  0.00     0.031 A 
ATOM     71  C   UNL A   1      40.286  33.863  32.782  1.00  0.00     0.131 A 
ATOM     72  C   UNL A   1      39.341  32.480  34.971  1.00  0.00     0.055 A 
ATOM     73  C   UNL A   1      39.515  34.525  33.748  1.00  0.00     0.041 A 
ATOM     74  F   UNL A   1      40.796  34.628  31.803  1.00  0.00    -0.206 F 
ATOM     75  C   UNL A   1      39.023  33.829  34.844  1.00  0.00     0.022 A 
BRANCH  72  76
ATOM     76  S   UNL A   1      38.803  31.552  36.435  1.00  0.00     0.124 S 
ATOM     77  O   UNL A   1      39.663  32.098  37.479  1.00  0.00    -0.237 OA
ATOM     78  O   UNL A   1      37.387  31.899  36.519  1.00  0.00    -0.237 OA
ATOM     79  O   UNL A   1      39.076  30.162  36.075  1.00  0.00    -0.744 OA
ENDBRANCH  72  76
ENDBRANCH  55  69
BRANCH  56  80
ATOM     80  C   UNL A   1      44.531  25.576  27.180  1.00  0.00     0.023 A 
ATOM     81  C   UNL A   1      44.322  24.174  27.211  1.00  0.00     0.031 A 
ATOM     82  C   UNL A   1      44.123  26.260  26.023  1.00  0.00     0.131 A 
ATOM     83  C   UNL A   1      43.633  23.524  26.173  1.00  0.00     0.055 A 
ATOM     84  C   UNL A   1      43.464  25.601  24.974  1.00  0.00     0.041 A 
ATOM     85  F   UNL A   1      44.244  27.591  25.937  1.00  0.00    -0.206 F 
ATOM     86  C   UNL A   1      43.184  24.239  25.062  1.00  0.00     0.022 A 
BRANCH  83  87
ATOM     87  S   UNL A   1      43.134  21.785  26.385  1.00  0.00     0.124 S 
ATOM     88  O   UNL A   1      42.000  21.687  25.459  1.00  0.00    -0.237 OA
ATOM     89  O   UNL A   1      44.320  21.046  26.017  1.00  0.00    -0.237 OA
ATOM     90  O   UNL A   1      42.777  21.712  27.806  1.00  0.00    -0.744 OA
ENDBRANCH  83  87
ENDBRANCH  56  80
BRANCH  68  91
ATOM     91  C   UNL A   1      46.555  32.104  29.880  1.00  0.00     0.023 A 
ATOM     92  C   UNL A   1      47.581  32.467  30.757  1.00  0.00     0.031 A 
ATOM     93  C   UNL A   1      46.281  33.051  28.856  1.00  0.00     0.131 A 
ATOM     94  C   UNL A   1      48.248  33.701  30.642  1.00  0.00     0.055 A 
ATOM     95  C   UNL A   1      46.984  34.250  28.704  1.00  0.00     0.041 A 
ATOM     96  F   UNL A   1      45.312  32.866  27.947  1.00  0.00    -0.206 F 
ATOM     97  C   UNL A   1      47.972  34.589  29.608  1.00  0.00     0.022 A 
BRANCH  94  98
ATOM     98  S   UNL A   1      49.449  34.135  31.925  1.00  0.00     0.124 S 
ATOM     99  O   UNL A   1      50.632  33.393  31.496  1.00  0.00    -0.237 OA
ATOM    100  O   UNL A   1      49.531  35.586  31.793  1.00  0.00    -0.237 OA
ATOM    101  O   UNL A   1      48.826  33.656  33.157  1.00  0.00    -0.744 OA
ENDBRANCH  94  98
ENDBRANCH  68  91
ENDBRANCH  42  43
ENDBRANCH  35  37
ENDBRANCH  34  35
ENDBRANCH  33  34
ENDBRANCH   1  33
TORSDOF 20
ENDMDL
MODEL 2
REMARK VINA RESULT:     -10.8      3.315      9.608
REMARK SMILES Cc1cccc(C(=O)Nc2ccc(-c3nnc(S[C@H](C(=O)OCCOC(=O)c4ccc(-c5c6nc(c(-c7cc(S(=O)(=O)[O-])ccc7F)c7ccc([nH]7)c(-c7cc(S(=O)(=O)[O-])ccc7F)c7nc(c(-c8cc(S(=O)(=O)[O-])ccc8F)c8ccc5[nH]8)C=C7)C=C6)cc4)C(C)C)n3C)cc2)c1
REMARK SMILES IDX 23 1 22 2 20 3 21 4 19 5 18 6 17 7 14 8 15 9 94 10 16 11
REMARK SMILES IDX 95 12 13 13 10 14 11 15 97 16 12 17 96 18 9 19 7 20 8 21
REMARK SMILES IDX 6 23 1 24 2 25 3 26 98 27 4 28 5 29 91 30 92 31 93 32 24 33
REMARK SMILES IDX 25 34 26 35 27 36 28 37 29 38 90 39 30 40 89 41 31 42 32 43
REMARK SMILES IDX 33 44 83 45 34 46 88 47 82 48 84 49 35 50 87 51 81 52 80 53
REMARK SMILES IDX 36 55 68 56 48 57 67 58 49 59 52 60 66 61 85 62 50 63 51 64
REMARK SMILES IDX 65 66 86 67 53 68 37 69 38 70 46 71 39 72 45 73 47 74 44 75
REMARK SMILES IDX 40 76 41 77 42 78 43 79 69 80 70 81 78 82 71 83 77 84 79 85
REMARK SMILES IDX 76 86 72 87 73 88 74 89 75 90 54 91 55 92 63 93 56 94 62 95
REMARK SMILES IDX 64 96 61 97 57 98 58 99 59 100 60 101
REMARK H PARENT 9 22 84 54 52 65
REMARK Flexibility Score: inf
ROOT
ATOM      1  C   UNL A   1      37.392  32.213  34.196  1.00  0.00     0.274 C 
ENDROOT
BRANCH   1   2
ATOM      2  O   UNL A   1      37.219  32.910  32.942  1.00  0.00    -0.461 OA
BRANCH   2   3
ATOM      3  C   UNL A   1      36.134  32.609  32.184  1.00  0.00     0.319 C 
ATOM      4  O   UNL A   1      34.977  32.704  32.604  1.00  0.00    -0.251 OA
BRANCH   3   5
ATOM      5  C   UNL A   1      36.543  32.265  30.739  1.00  0.00     0.167 C 
BRANCH   5   6
ATOM      6  S   UNL A   1      35.086  32.581  29.626  1.00  0.00    -0.071 SA
BRANCH   6   7
ATOM      7  C   UNL A   1      35.190  31.309  28.462  1.00  0.00     0.192 A 
ATOM      8  C   UNL A   1      34.521  29.704  27.133  1.00  0.00     0.164 A 
ATOM      9  N   UNL A   1      35.839  29.645  27.217  1.00  0.00    -0.129 NA
ATOM     10  N   UNL A   1      34.133  30.897  27.701  1.00  0.00    -0.305 N 
ATOM     11  N   UNL A   1      36.260  30.664  28.064  1.00  0.00    -0.123 NA
ATOM     12  C   UNL A   1      32.993  31.671  27.294  1.00  0.00     0.154 C 
BRANCH   8  13
ATOM     13  C   UNL A   1      33.603  28.726  26.552  1.00  0.00     0.019 A 
ATOM     14  C   UNL A   1      31.877  26.761  25.488  1.00  0.00     0.041 A 
ATOM     15  C   UNL A   1      31.728  27.183  26.810  1.00  0.00     0.027 A 
ATOM     16  C   UNL A   1      32.832  27.385  24.679  1.00  0.00     0.027 A 
ATOM     17  C   UNL A   1      32.601  28.141  27.343  1.00  0.00     0.014 A 
ATOM     18  C   UNL A   1      33.702  28.347  25.211  1.00  0.00     0.014 A 
BRANCH  14  19
ATOM     19  N   UNL A   1      31.077  25.690  25.046  1.00  0.00    -0.322 N 
ATOM     20  C   UNL A   1      31.338  24.332  25.017  1.00  0.00     0.255 C 
ATOM     21  O   UNL A   1      30.650  23.601  24.303  1.00  0.00    -0.269 OA
ATOM     22  H   UNL A   1      30.190  25.949  24.705  1.00  0.00     0.170 HD
BRANCH  20  23
ATOM     23  C   UNL A   1      32.372  23.719  25.900  1.00  0.00     0.040 A 
ATOM     24  C   UNL A   1      36.133  23.200  25.992  1.00  0.00     0.044 C 
ATOM     25  C   UNL A   1      34.690  23.169  26.401  1.00  0.00    -0.050 A 
ATOM     26  C   UNL A   1      34.272  22.453  27.525  1.00  0.00     0.003 A 
ATOM     27  C   UNL A   1      33.741  23.863  25.644  1.00  0.00     0.017 A 
ATOM     28  C   UNL A   1      32.917  22.400  27.860  1.00  0.00     0.001 A 
ATOM     29  C   UNL A   1      31.966  23.016  27.041  1.00  0.00     0.014 A 
ENDBRANCH  20  23
ENDBRANCH  14  19
ENDBRANCH   8  13
ENDBRANCH   6   7
ENDBRANCH   5   6
BRANCH   5  30
ATOM     30  C   UNL A   1      37.775  33.135  30.333  1.00  0.00     0.007 C 
ATOM     31  C   UNL A   1      38.994  32.276  29.951  1.00  0.00     0.009 C 
ATOM     32  C   UNL A   1      37.516  34.093  29.159  1.00  0.00     0.009 C 
ENDBRANCH   5  30
ENDBRANCH   3   5
ENDBRANCH   2   3
ENDBRANCH   1   2
BRANCH   1  33
ATOM     33  C   UNL A   1      37.854  30.748  34.034  1.00  0.00     0.275 C 
BRANCH  33  34
ATOM     34  O   UNL A   1      38.582  30.528  32.814  1.00  0.00    -0.458 OA
BRANCH  34  35
ATOM     35  C   UNL A   1      38.280  29.371  32.184  1.00  0.00     0.338 C 
ATOM     36  O   UNL A   1      37.112  29.020  31.916  1.00  0.00    -0.246 OA
BRANCH  35  37
ATOM     37  C   UNL A   1      39.477  28.915  31.436  1.00  0.00     0.060 A 
ATOM     38  C   UNL A   1      40.731  28.798  32.053  1.00  0.00     0.016 A 
ATOM     39  C   UNL A   1      39.248  28.270  30.216  1.00  0.00     0.016 A 
ATOM     40  C   UNL A   1      41.729  28.007  31.479  1.00  0.00     0.010 A 
ATOM     41  C   UNL A   1      40.146  27.347  29.747  1.00  0.00     0.010 A 
ATOM     42  C   UNL A   1      41.424  27.295  30.315  1.00  0.00    -0.014 A 
BRANCH  42  43
ATOM     43  C   UNL A   1      42.416  26.992  29.294  1.00  0.00     0.031 A 
ATOM     44  C   UNL A   1      42.950  25.671  28.976  1.00  0.00     0.074 A 
ATOM     45  C   UNL A   1      42.489  27.987  28.382  1.00  0.00     0.049 A 
ATOM     46  N   UNL A   1      44.110  25.505  28.436  1.00  0.00    -0.248 NA
ATOM     47  C   UNL A   1      42.204  24.433  29.174  1.00  0.00     0.031 C 
ATOM     48  C   UNL A   1      42.932  27.954  27.004  1.00  0.00     0.029 A 
ATOM     49  N   UNL A   1      42.147  29.323  28.592  1.00  0.00    -0.354 N 
ATOM     50  C   UNL A   1      44.099  24.242  27.894  1.00  0.00     0.074 A 
ATOM     51  C   UNL A   1      42.973  23.563  28.506  1.00  0.00     0.031 C 
ATOM     52  C   UNL A   1      43.102  29.225  26.591  1.00  0.00     0.029 A 
ATOM     53  C   UNL A   1      42.917  30.099  27.743  1.00  0.00     0.049 A 
ATOM     54  H   UNL A   1      41.475  29.656  29.230  1.00  0.00     0.167 HD
ATOM     55  C   UNL A   1      44.852  23.951  26.795  1.00  0.00     0.034 A 
ATOM     56  C   UNL A   1      43.803  30.997  28.261  1.00  0.00     0.034 A 
ATOM     57  C   UNL A   1      45.445  25.157  26.205  1.00  0.00     0.049 A 
ATOM     58  C   UNL A   1      45.226  30.563  27.964  1.00  0.00     0.074 A 
ATOM     59  C   UNL A   1      45.134  25.880  25.063  1.00  0.00     0.029 A 
ATOM     60  N   UNL A   1      46.305  25.963  26.944  1.00  0.00    -0.354 N 
ATOM     61  N   UNL A   1      45.547  29.419  27.426  1.00  0.00    -0.248 NA
ATOM     62  C   UNL A   1      46.398  31.359  28.289  1.00  0.00     0.031 C 
ATOM     63  C   UNL A   1      45.802  27.131  25.129  1.00  0.00     0.029 A 
ATOM     64  C   UNL A   1      46.538  27.166  26.299  1.00  0.00     0.049 A 
ATOM     65  H   UNL A   1      46.696  25.712  27.812  1.00  0.00     0.167 HD
ATOM     66  C   UNL A   1      46.907  29.287  27.347  1.00  0.00     0.074 A 
ATOM     67  C   UNL A   1      47.393  30.548  27.887  1.00  0.00     0.031 C 
ATOM     68  C   UNL A   1      47.476  28.138  26.860  1.00  0.00     0.034 A 
BRANCH  55  69
ATOM     69  C   UNL A   1      44.739  22.632  26.066  1.00  0.00     0.023 A 
ATOM     70  C   UNL A   1      43.681  21.747  26.347  1.00  0.00     0.031 A 
ATOM     71  C   UNL A   1      45.639  22.209  25.068  1.00  0.00     0.131 A 
ATOM     72  C   UNL A   1      43.602  20.479  25.744  1.00  0.00     0.055 A 
ATOM     73  C   UNL A   1      45.584  20.933  24.490  1.00  0.00     0.041 A 
ATOM     74  F   UNL A   1      46.599  23.028  24.608  1.00  0.00    -0.206 F 
ATOM     75  C   UNL A   1      44.569  20.052  24.839  1.00  0.00     0.022 A 
BRANCH  72  76
ATOM     76  S   UNL A   1      42.203  19.400  26.158  1.00  0.00     0.124 S 
ATOM     77  O   UNL A   1      42.691  18.090  25.742  1.00  0.00    -0.237 OA
ATOM     78  O   UNL A   1      42.064  19.610  27.596  1.00  0.00    -0.237 OA
ATOM     79  O   UNL A   1      41.110  19.936  25.348  1.00  0.00    -0.744 OA
ENDBRANCH  72  76
ENDBRANCH  55  69
BRANCH  56  80
ATOM     80  C   UNL A   1      43.337  31.661  29.527  1.00  0.00     0.023 A 
ATOM     81  C   UNL A   1      43.590  31.001  30.756  1.00  0.00     0.031 A 
ATOM     82  C   UNL A   1      42.992  33.021  29.588  1.00  0.00     0.131 A 
ATOM     83  C   UNL A   1      43.603  31.714  31.968  1.00  0.00     0.055 A 
ATOM     84  C   UNL A   1      42.974  33.721  30.804  1.00  0.00     0.041 A 
ATOM     85  F   UNL A   1      42.784  33.725  28.468  1.00  0.00    -0.206 F 
ATOM     86  C   UNL A   1      43.316  33.078  31.993  1.00  0.00     0.022 A 
BRANCH  83  87
ATOM     87  S   UNL A   1      44.213  30.896  33.477  1.00  0.00     0.124 S 
ATOM     88  O   UNL A   1      43.081  31.079  34.391  1.00  0.00    -0.237 OA
ATOM     89  O   UNL A   1      44.468  29.540  33.046  1.00  0.00    -0.237 OA
ATOM     90  O   UNL A   1      45.410  31.672  33.816  1.00  0.00    -0.744 OA
ENDBRANCH  83  87
ENDBRANCH  56  80
BRANCH  68  91
ATOM     91  C   UNL A   1      48.958  27.804  26.781  1.00  0.00     0.023 A 
ATOM     92  C   UNL A   1      49.768  28.101  25.682  1.00  0.00     0.031 A 
ATOM     93  C   UNL A   1      49.625  27.162  27.859  1.00  0.00     0.131 A 
ATOM     94  C   UNL A   1      51.129  27.743  25.649  1.00  0.00     0.055 A 
ATOM     95  C   UNL A   1      50.990  26.859  27.853  1.00  0.00     0.041 A 
ATOM     96  F   UNL A   1      48.988  26.788  28.978  1.00  0.00    -0.206 F 
ATOM     97  C   UNL A   1      51.753  27.141  26.736  1.00  0.00     0.022 A 
BRANCH  94  98
ATOM     98  S   UNL A   1      52.043  28.035  24.115  1.00  0.00     0.124 S 
ATOM     99  O   UNL A   1      51.172  28.978  23.418  1.00  0.00    -0.237 OA
ATOM    100  O   UNL A   1      53.303  28.583  24.605  1.00  0.00    -0.237 OA
ATOM    101  O   UNL A   1      52.134  26.708  23.510  1.00  0.00    -0.744 OA
ENDBRANCH  94  98
ENDBRANCH  68  91
ENDBRANCH  42  43
ENDBRANCH  35  37
ENDBRANCH  34  35
ENDBRANCH  33  34
ENDBRANCH   1  33
TORSDOF 20
ENDMDL
MODEL 3
REMARK VINA RESULT:     -10.5      6.469     11.377
REMARK SMILES Cc1cccc(C(=O)Nc2ccc(-c3nnc(S[C@H](C(=O)OCCOC(=O)c4ccc(-c5c6nc(c(-c7cc(S(=O)(=O)[O-])ccc7F)c7ccc([nH]7)c(-c7cc(S(=O)(=O)[O-])ccc7F)c7nc(c(-c8cc(S(=O)(=O)[O-])ccc8F)c8ccc5[nH]8)C=C7)C=C6)cc4)C(C)C)n3C)cc2)c1
REMARK SMILES IDX 23 1 22 2 20 3 21 4 19 5 18 6 17 7 14 8 15 9 94 10 16 11
REMARK SMILES IDX 95 12 13 13 10 14 11 15 97 16 12 17 96 18 9 19 7 20 8 21
REMARK SMILES IDX 6 23 1 24 2 25 3 26 98 27 4 28 5 29 91 30 92 31 93 32 24 33
REMARK SMILES IDX 25 34 26 35 27 36 28 37 29 38 90 39 30 40 89 41 31 42 32 43
REMARK SMILES IDX 33 44 83 45 34 46 88 47 82 48 84 49 35 50 87 51 81 52 80 53
REMARK SMILES IDX 36 55 68 56 48 57 67 58 49 59 52 60 66 61 85 62 50 63 51 64
REMARK SMILES IDX 65 66 86 67 53 68 37 69 38 70 46 71 39 72 45 73 47 74 44 75
REMARK SMILES IDX 40 76 41 77 42 78 43 79 69 80 70 81 78 82 71 83 77 84 79 85
REMARK SMILES IDX 76 86 72 87 73 88 74 89 75 90 54 91 55 92 63 93 56 94 62 95
REMARK SMILES IDX 64 96 61 97 57 98 58 99 59 100 60 101
REMARK H PARENT 9 22 84 54 52 65
REMARK Flexibility Score: inf
ROOT
ATOM      1  C   UNL A   1      46.470  29.183  26.583  1.00  0.00     0.274 C 
ENDROOT
BRANCH   1   2
ATOM      2  O   UNL A   1      46.337  29.050  25.149  1.00  0.00    -0.461 OA
BRANCH   2   3
ATOM      3  C   UNL A   1      46.547  27.828  24.596  1.00  0.00     0.319 C 
ATOM      4  O   UNL A   1      46.921  27.677  23.429  1.00  0.00    -0.251 OA
BRANCH   3   5
ATOM      5  C   UNL A   1      46.376  26.709  25.640  1.00  0.00     0.167 C 
BRANCH   5   6
ATOM      6  S   UNL A   1      44.815  25.775  25.249  1.00  0.00    -0.071 SA
BRANCH   6   7
ATOM      7  C   UNL A   1      43.585  26.980  25.381  1.00  0.00     0.192 A 
ATOM      8  C   UNL A   1      41.919  28.105  26.248  1.00  0.00     0.164 A 
ATOM      9  N   UNL A   1      42.045  28.466  24.981  1.00  0.00    -0.129 NA
ATOM     10  N   UNL A   1      43.039  27.372  26.570  1.00  0.00    -0.305 N 
ATOM     11  N   UNL A   1      43.101  27.747  24.434  1.00  0.00    -0.123 NA
ATOM     12  C   UNL A   1      43.652  27.333  27.870  1.00  0.00     0.154 C 
BRANCH   8  13
ATOM     13  C   UNL A   1      40.831  28.407  27.174  1.00  0.00     0.019 A 
ATOM     14  C   UNL A   1      38.697  28.886  28.962  1.00  0.00     0.041 A 
ATOM     15  C   UNL A   1      39.819  28.170  29.385  1.00  0.00     0.027 A 
ATOM     16  C   UNL A   1      38.685  29.431  27.674  1.00  0.00     0.027 A 
ATOM     17  C   UNL A   1      40.866  27.913  28.489  1.00  0.00     0.014 A 
ATOM     18  C   UNL A   1      39.735  29.178  26.780  1.00  0.00     0.014 A 
BRANCH  14  19
ATOM     19  N   UNL A   1      37.609  28.987  29.849  1.00  0.00    -0.322 N 
ATOM     20  C   UNL A   1      37.152  30.067  30.582  1.00  0.00     0.255 C 
ATOM     21  O   UNL A   1      36.395  29.872  31.535  1.00  0.00    -0.269 OA
ATOM     22  H   UNL A   1      37.091  28.158  29.965  1.00  0.00     0.170 HD
BRANCH  20  23
ATOM     23  C   UNL A   1      37.480  31.469  30.191  1.00  0.00     0.040 A 
ATOM     24  C   UNL A   1      40.237  34.029  30.708  1.00  0.00     0.044 C 
ATOM     25  C   UNL A   1      38.963  33.399  30.227  1.00  0.00    -0.050 A 
ATOM     26  C   UNL A   1      38.004  34.142  29.534  1.00  0.00     0.003 A 
ATOM     27  C   UNL A   1      38.723  32.045  30.478  1.00  0.00     0.017 A 
ATOM     28  C   UNL A   1      36.806  33.546  29.137  1.00  0.00     0.001 A 
ATOM     29  C   UNL A   1      36.535  32.217  29.479  1.00  0.00     0.014 A 
ENDBRANCH  20  23
ENDBRANCH  14  19
ENDBRANCH   8  13
ENDBRANCH   6   7
ENDBRANCH   5   6
BRANCH   5  30
ATOM     30  C   UNL A   1      47.627  25.775  25.603  1.00  0.00     0.007 C 
ATOM     31  C   UNL A   1      48.945  26.563  25.717  1.00  0.00     0.009 C 
ATOM     32  C   UNL A   1      47.651  24.702  26.703  1.00  0.00     0.009 C 
ENDBRANCH   5  30
ENDBRANCH   3   5
ENDBRANCH   2   3
ENDBRANCH   1   2
BRANCH   1  33
ATOM     33  C   UNL A   1      46.552  30.648  27.065  1.00  0.00     0.275 C 
BRANCH  33  34
ATOM     34  O   UNL A   1      47.275  31.492  26.154  1.00  0.00    -0.458 OA
BRANCH  34  35
ATOM     35  C   UNL A   1      48.246  32.235  26.731  1.00  0.00     0.338 C 
ATOM     36  O   UNL A   1      49.465  32.026  26.557  1.00  0.00    -0.246 OA
BRANCH  35  37
ATOM     37  C   UNL A   1      47.674  33.553  27.102  1.00  0.00     0.060 A 
ATOM     38  C   UNL A   1      48.388  34.472  27.884  1.00  0.00     0.016 A 
ATOM     39  C   UNL A   1      46.571  33.990  26.362  1.00  0.00     0.016 A 
ATOM     40  C   UNL A   1      48.032  35.822  27.888  1.00  0.00     0.010 A 
ATOM     41  C   UNL A   1      46.333  35.332  26.210  1.00  0.00     0.010 A 
ATOM     42  C   UNL A   1      46.990  36.236  27.052  1.00  0.00    -0.014 A 
BRANCH  42  43
ATOM     43  C   UNL A   1      46.110  37.347  27.381  1.00  0.00     0.031 A 
ATOM     44  C   UNL A   1      46.180  38.696  26.829  1.00  0.00     0.074 A 
ATOM     45  C   UNL A   1      44.958  36.902  27.932  1.00  0.00     0.049 A 
ATOM     46  N   UNL A   1      45.726  39.727  27.459  1.00  0.00    -0.248 NA
ATOM     47  C   UNL A   1      46.704  38.995  25.500  1.00  0.00     0.031 C 
ATOM     48  C   UNL A   1      43.651  37.523  27.980  1.00  0.00     0.029 A 
ATOM     49  N   UNL A   1      44.782  35.698  28.614  1.00  0.00    -0.354 N 
ATOM     50  C   UNL A   1      45.557  40.707  26.509  1.00  0.00     0.074 A 
ATOM     51  C   UNL A   1      46.317  40.269  25.355  1.00  0.00     0.031 C 
ATOM     52  C   UNL A   1      42.902  36.849  28.876  1.00  0.00     0.029 A 
ATOM     53  C   UNL A   1      43.763  35.874  29.534  1.00  0.00     0.049 A 
ATOM     54  H   UNL A   1      45.292  34.869  28.466  1.00  0.00     0.167 HD
ATOM     55  C   UNL A   1      44.594  41.661  26.660  1.00  0.00     0.034 A 
ATOM     56  C   UNL A   1      44.024  35.755  30.867  1.00  0.00     0.034 A 
ATOM     57  C   UNL A   1      43.702  41.362  27.785  1.00  0.00     0.049 A 
ATOM     58  C   UNL A   1      43.881  37.102  31.552  1.00  0.00     0.074 A 
ATOM     59  C   UNL A   1      42.399  40.890  27.836  1.00  0.00     0.029 A 
ATOM     60  N   UNL A   1      44.200  41.242  29.079  1.00  0.00    -0.354 N 
ATOM     61  N   UNL A   1      43.688  38.228  30.923  1.00  0.00    -0.248 NA
ATOM     62  C   UNL A   1      43.990  37.292  32.989  1.00  0.00     0.031 C 
ATOM     63  C   UNL A   1      42.123  40.472  29.165  1.00  0.00     0.029 A 
ATOM     64  C   UNL A   1      43.249  40.708  29.932  1.00  0.00     0.049 A 
ATOM     65  H   UNL A   1      45.110  41.502  29.352  1.00  0.00     0.167 HD
ATOM     66  C   UNL A   1      43.670  39.275  31.804  1.00  0.00     0.074 A 
ATOM     67  C   UNL A   1      43.845  38.625  33.094  1.00  0.00     0.031 C 
ATOM     68  C   UNL A   1      43.531  40.566  31.360  1.00  0.00     0.034 A 
BRANCH  55  69
ATOM     69  C   UNL A   1      44.260  42.649  25.567  1.00  0.00     0.023 A 
ATOM     70  C   UNL A   1      43.284  42.341  24.599  1.00  0.00     0.031 A 
ATOM     71  C   UNL A   1      44.861  43.917  25.445  1.00  0.00     0.131 A 
ATOM     72  C   UNL A   1      43.017  43.207  23.524  1.00  0.00     0.055 A 
ATOM     73  C   UNL A   1      44.623  44.768  24.357  1.00  0.00     0.041 A 
ATOM     74  F   UNL A   1      45.695  44.382  26.390  1.00  0.00    -0.206 F 
ATOM     75  C   UNL A   1      43.706  44.407  23.378  1.00  0.00     0.022 A 
BRANCH  72  76
ATOM     76  S   UNL A   1      41.739  42.740  22.322  1.00  0.00     0.124 S 
ATOM     77  O   UNL A   1      40.575  42.533  23.175  1.00  0.00    -0.237 OA
ATOM     78  O   UNL A   1      41.698  43.906  21.445  1.00  0.00    -0.237 OA
ATOM     79  O   UNL A   1      42.278  41.526  21.709  1.00  0.00    -0.744 OA
ENDBRANCH  72  76
ENDBRANCH  55  69
BRANCH  56  80
ATOM     80  C   UNL A   1      45.047  34.707  31.203  1.00  0.00     0.023 A 
ATOM     81  C   UNL A   1      44.620  33.357  31.270  1.00  0.00     0.031 A 
ATOM     82  C   UNL A   1      46.429  34.938  31.110  1.00  0.00     0.131 A 
ATOM     83  C   UNL A   1      45.538  32.302  31.133  1.00  0.00     0.055 A 
ATOM     84  C   UNL A   1      47.346  33.880  31.007  1.00  0.00     0.041 A 
ATOM     85  F   UNL A   1      46.908  36.183  30.996  1.00  0.00    -0.206 F 
ATOM     86  C   UNL A   1      46.900  32.560  30.981  1.00  0.00     0.022 A 
BRANCH  83  87
ATOM     87  S   UNL A   1      44.918  30.600  30.935  1.00  0.00     0.124 S 
ATOM     88  O   UNL A   1      46.163  29.826  30.966  1.00  0.00    -0.237 OA
ATOM     89  O   UNL A   1      44.035  30.429  32.066  1.00  0.00    -0.237 OA
ATOM     90  O   UNL A   1      44.250  30.639  29.630  1.00  0.00    -0.744 OA
ENDBRANCH  83  87
ENDBRANCH  56  80
BRANCH  68  91
ATOM     91  C   UNL A   1      43.572  41.838  32.194  1.00  0.00     0.023 A 
ATOM     92  C   UNL A   1      44.563  42.122  33.138  1.00  0.00     0.031 A 
ATOM     93  C   UNL A   1      42.580  42.845  32.047  1.00  0.00     0.131 A 
ATOM     94  C   UNL A   1      44.536  43.302  33.904  1.00  0.00     0.055 A 
ATOM     95  C   UNL A   1      42.585  44.045  32.764  1.00  0.00     0.041 A 
ATOM     96  F   UNL A   1      41.547  42.719  31.201  1.00  0.00    -0.206 F 
ATOM     97  C   UNL A   1      43.564  44.278  33.711  1.00  0.00     0.022 A 
BRANCH  94  98
ATOM     98  S   UNL A   1      45.779  43.493  35.205  1.00  0.00     0.124 S 
ATOM     99  O   UNL A   1      46.859  42.638  34.721  1.00  0.00    -0.237 OA
ATOM    100  O   UNL A   1      46.045  44.928  35.171  1.00  0.00    -0.237 OA
ATOM    101  O   UNL A   1      45.098  43.014  36.406  1.00  0.00    -0.744 OA
ENDBRANCH  94  98
ENDBRANCH  68  91
ENDBRANCH  42  43
ENDBRANCH  35  37
ENDBRANCH  34  35
ENDBRANCH  33  34
ENDBRANCH   1  33
TORSDOF 20
ENDMDL
