MODEL 1
REMARK VINA RESULT:     -12.5      0.000      0.000
REMARK SMILES O=C(OCCOC(=O)C1CCN(c2ccc(C(F)(F)F)cc2[N+](=O)[O-])CC1)c1ccc(-c2c3nc(c(-c4cc(S(=O)(=O)[O-])ccc4F)c4ccc([nH]4)c(-c4cc(S(=O)(=O)[O-])ccc4F)c4nc(c(-c5cc(S(=O)(=O)[O-])ccc5F)c5ccc2[nH]5)C=C4)C=C3)cc1
REMARK SMILES IDX 4 1 3 2 2 3 1 4 28 5 29 6 90 7 30 8 89 9 31 10 32 11 33 12
REMARK SMILES IDX 83 13 34 14 88 15 82 16 84 17 35 18 87 19 81 20 80 21 36 23
REMARK SMILES IDX 68 24 48 25 67 26 49 27 52 28 66 29 85 30 50 31 51 32 65 34
REMARK SMILES IDX 86 35 53 36 37 37 38 38 46 39 39 40 45 41 47 42 44 43 40 44
REMARK SMILES IDX 41 45 42 46 43 47 69 48 70 49 78 50 71 51 77 52 79 53 76 54
REMARK SMILES IDX 72 55 73 56 74 57 75 58 54 59 55 60 63 61 56 62 62 63 64 64
REMARK SMILES IDX 61 65 57 66 58 67 59 68 60 69 5 70 6 71 7 72 8 73 9 74 10 75
REMARK SMILES IDX 27 76 11 77 26 78 12 79 13 80 14 81 22 82 15 83 21 84 16 85
REMARK SMILES IDX 23 86 24 87 25 88 17 89 18 90 19 91 20 92
REMARK H PARENT 84 22 52 33
REMARK Flexibility Score: inf
ROOT
ATOM      1  C   UNL A   1      31.424  31.736  26.885  1.00  0.00     0.275 C 
ENDROOT
BRANCH   1   2
ATOM      2  O   UNL A   1      32.175  32.966  26.936  1.00  0.00    -0.458 OA
BRANCH   2   3
ATOM      3  C   UNL A   1      32.953  33.487  27.918  1.00  0.00     0.338 C 
ATOM      4  O   UNL A   1      32.692  34.618  28.326  1.00  0.00    -0.246 OA
BRANCH   3   5
ATOM      5  C   UNL A   1      34.220  32.849  28.410  1.00  0.00     0.060 A 
ATOM      6  C   UNL A   1      34.322  31.605  29.035  1.00  0.00     0.016 A 
ATOM      7  C   UNL A   1      35.420  33.549  28.148  1.00  0.00     0.016 A 
ATOM      8  C   UNL A   1      35.565  31.040  29.326  1.00  0.00     0.010 A 
ATOM      9  C   UNL A   1      36.673  32.986  28.434  1.00  0.00     0.010 A 
ATOM     10  C   UNL A   1      36.746  31.728  29.041  1.00  0.00    -0.014 A 
BRANCH  10  11
ATOM     11  C   UNL A   1      37.997  31.213  29.647  1.00  0.00     0.031 A 
ATOM     12  C   UNL A   1      38.268  31.608  31.068  1.00  0.00     0.074 A 
ATOM     13  C   UNL A   1      38.766  30.305  29.018  1.00  0.00     0.049 A 
ATOM     14  N   UNL A   1      39.171  31.159  31.897  1.00  0.00    -0.248 NA
ATOM     15  C   UNL A   1      37.378  32.633  31.639  1.00  0.00     0.031 C 
ATOM     16  C   UNL A   1      38.536  29.806  27.665  1.00  0.00     0.029 A 
ATOM     17  N   UNL A   1      39.873  29.612  29.439  1.00  0.00    -0.354 N 
ATOM     18  C   UNL A   1      38.937  31.824  33.095  1.00  0.00     0.074 A 
ATOM     19  C   UNL A   1      37.854  32.752  32.865  1.00  0.00     0.031 C 
ATOM     20  C   UNL A   1      39.466  28.882  27.366  1.00  0.00     0.029 A 
ATOM     21  C   UNL A   1      40.364  28.724  28.505  1.00  0.00     0.049 A 
ATOM     22  H   UNL A   1      40.281  29.738  30.325  1.00  0.00     0.167 HD
ATOM     23  C   UNL A   1      39.557  31.658  34.286  1.00  0.00     0.034 A 
ATOM     24  C   UNL A   1      41.411  27.876  28.575  1.00  0.00     0.034 A 
ATOM     25  C   UNL A   1      40.668  30.764  34.473  1.00  0.00     0.049 A 
ATOM     26  C   UNL A   1      42.168  27.800  29.881  1.00  0.00     0.074 A 
ATOM     27  C   UNL A   1      41.425  30.550  35.608  1.00  0.00     0.029 A 
ATOM     28  N   UNL A   1      41.196  29.946  33.478  1.00  0.00    -0.354 N 
ATOM     29  N   UNL A   1      41.931  28.429  31.011  1.00  0.00    -0.248 NA
ATOM     30  C   UNL A   1      43.314  26.885  29.931  1.00  0.00     0.031 C 
ATOM     31  C   UNL A   1      42.456  29.661  35.280  1.00  0.00     0.029 A 
ATOM     32  C   UNL A   1      42.289  29.251  33.965  1.00  0.00     0.049 A 
ATOM     33  H   UNL A   1      40.843  29.873  32.562  1.00  0.00     0.167 HD
ATOM     34  C   UNL A   1      42.874  27.953  31.918  1.00  0.00     0.074 A 
ATOM     35  C   UNL A   1      43.671  26.974  31.204  1.00  0.00     0.031 C 
ATOM     36  C   UNL A   1      43.065  28.283  33.222  1.00  0.00     0.034 A 
BRANCH  23  37
ATOM     37  C   UNL A   1      39.081  32.535  35.417  1.00  0.00     0.023 A 
ATOM     38  C   UNL A   1      39.528  33.861  35.560  1.00  0.00     0.031 A 
ATOM     39  C   UNL A   1      38.271  31.998  36.432  1.00  0.00     0.131 A 
ATOM     40  C   UNL A   1      39.245  34.570  36.738  1.00  0.00     0.055 A 
ATOM     41  C   UNL A   1      37.918  32.741  37.559  1.00  0.00     0.041 A 
ATOM     42  F   UNL A   1      37.846  30.727  36.366  1.00  0.00    -0.206 F 
ATOM     43  C   UNL A   1      38.422  34.028  37.727  1.00  0.00     0.022 A 
BRANCH  40  44
ATOM     44  S   UNL A   1      40.119  36.132  37.041  1.00  0.00     0.124 S 
ATOM     45  O   UNL A   1      41.482  35.664  37.283  1.00  0.00    -0.237 OA
ATOM     46  O   UNL A   1      39.907  36.861  35.796  1.00  0.00    -0.237 OA
ATOM     47  O   UNL A   1      39.440  36.683  38.211  1.00  0.00    -0.744 OA
ENDBRANCH  40  44
ENDBRANCH  23  37
BRANCH  24  48
ATOM     48  C   UNL A   1      41.819  27.045  27.400  1.00  0.00     0.023 A 
ATOM     49  C   UNL A   1      41.597  25.657  27.362  1.00  0.00     0.031 A 
ATOM     50  C   UNL A   1      42.511  27.623  26.319  1.00  0.00     0.131 A 
ATOM     51  C   UNL A   1      42.104  24.890  26.299  1.00  0.00     0.055 A 
ATOM     52  C   UNL A   1      42.967  26.864  25.238  1.00  0.00     0.041 A 
ATOM     53  F   UNL A   1      42.757  28.942  26.297  1.00  0.00    -0.206 F 
ATOM     54  C   UNL A   1      42.777  25.486  25.231  1.00  0.00     0.022 A 
BRANCH  51  55
ATOM     55  S   UNL A   1      41.956  23.082  26.376  1.00  0.00     0.124 S 
ATOM     56  O   UNL A   1      42.755  22.768  27.554  1.00  0.00    -0.237 OA
ATOM     57  O   UNL A   1      40.514  22.904  26.510  1.00  0.00    -0.237 OA
ATOM     58  O   UNL A   1      42.521  22.640  25.102  1.00  0.00    -0.744 OA
ENDBRANCH  51  55
ENDBRANCH  24  48
BRANCH  36  59
ATOM     59  C   UNL A   1      44.143  27.535  33.964  1.00  0.00     0.023 A 
ATOM     60  C   UNL A   1      43.914  26.266  34.524  1.00  0.00     0.031 A 
ATOM     61  C   UNL A   1      45.419  28.107  34.118  1.00  0.00     0.131 A 
ATOM     62  C   UNL A   1      44.924  25.643  35.272  1.00  0.00     0.055 A 
ATOM     63  C   UNL A   1      46.441  27.449  34.799  1.00  0.00     0.041 A 
ATOM     64  F   UNL A   1      45.691  29.317  33.602  1.00  0.00    -0.206 F 
ATOM     65  C   UNL A   1      46.192  26.217  35.395  1.00  0.00     0.022 A 
BRANCH  62  66
ATOM     66  S   UNL A   1      44.519  24.125  36.176  1.00  0.00     0.124 S 
ATOM     67  O   UNL A   1      43.184  23.819  35.671  1.00  0.00    -0.237 OA
ATOM     68  O   UNL A   1      45.582  23.218  35.754  1.00  0.00    -0.237 OA
ATOM     69  O   UNL A   1      44.575  24.536  37.577  1.00  0.00    -0.744 OA
ENDBRANCH  62  66
ENDBRANCH  36  59
ENDBRANCH  10  11
ENDBRANCH   3   5
ENDBRANCH   2   3
ENDBRANCH   1   2
BRANCH   1  70
ATOM     70  C   UNL A   1      32.179  30.565  26.246  1.00  0.00     0.274 C 
BRANCH  70  71
ATOM     71  O   UNL A   1      32.467  29.525  27.188  1.00  0.00    -0.462 OA
BRANCH  71  72
ATOM     72  C   UNL A   1      31.795  28.356  26.989  1.00  0.00     0.309 C 
ATOM     73  O   UNL A   1      31.062  27.825  27.814  1.00  0.00    -0.252 OA
BRANCH  72  74
ATOM     74  C   UNL A   1      31.993  27.868  25.566  1.00  0.00     0.103 C 
ATOM     75  C   UNL A   1      30.893  26.890  25.157  1.00  0.00     0.037 C 
ATOM     76  C   UNL A   1      33.387  27.315  25.302  1.00  0.00     0.037 C 
ATOM     77  C   UNL A   1      31.115  25.527  25.797  1.00  0.00     0.117 C 
ATOM     78  C   UNL A   1      33.578  25.943  25.925  1.00  0.00     0.117 C 
ATOM     79  N   UNL A   1      32.478  25.084  25.497  1.00  0.00    -0.366 N 
BRANCH  79  80
ATOM     80  C   UNL A   1      32.658  23.744  25.219  1.00  0.00     0.116 A 
ATOM     81  C   UNL A   1      32.763  22.872  26.320  1.00  0.00     0.034 A 
ATOM     82  C   UNL A   1      32.744  23.155  23.948  1.00  0.00     0.293 A 
ATOM     83  C   UNL A   1      32.961  21.499  26.169  1.00  0.00     0.016 A 
ATOM     84  C   UNL A   1      32.937  21.772  23.777  1.00  0.00     0.101 A 
ATOM     85  C   UNL A   1      33.056  20.934  24.893  1.00  0.00     0.062 A 
BRANCH  82  86
ATOM     86  N   UNL A   1      32.730  23.957  22.736  1.00  0.00     0.064 N 
ATOM     87  O   UNL A   1      31.657  24.506  22.442  1.00  0.00    -0.258 OA
ATOM     88  O   UNL A   1      33.756  23.983  22.042  1.00  0.00    -0.258 OA
ENDBRANCH  82  86
BRANCH  85  89
ATOM     89  C   UNL A   1      33.316  19.458  24.744  1.00  0.00     0.416 C 
ATOM     90  F   UNL A   1      32.958  18.761  25.859  1.00  0.00    -0.166 F 
ATOM     91  F   UNL A   1      32.622  18.901  23.716  1.00  0.00    -0.166 F 
ATOM     92  F   UNL A   1      34.625  19.156  24.526  1.00  0.00    -0.166 F 
ENDBRANCH  85  89
ENDBRANCH  79  80
ENDBRANCH  72  74
ENDBRANCH  71  72
ENDBRANCH  70  71
ENDBRANCH   1  70
TORSDOF 17
ENDMDL
MODEL 2
REMARK VINA RESULT:     -12.4      1.095      1.601
REMARK SMILES O=C(OCCOC(=O)C1CCN(c2ccc(C(F)(F)F)cc2[N+](=O)[O-])CC1)c1ccc(-c2c3nc(c(-c4cc(S(=O)(=O)[O-])ccc4F)c4ccc([nH]4)c(-c4cc(S(=O)(=O)[O-])ccc4F)c4nc(c(-c5cc(S(=O)(=O)[O-])ccc5F)c5ccc2[nH]5)C=C4)C=C3)cc1
REMARK SMILES IDX 4 1 3 2 2 3 1 4 28 5 29 6 90 7 30 8 89 9 31 10 32 11 33 12
REMARK SMILES IDX 83 13 34 14 88 15 82 16 84 17 35 18 87 19 81 20 80 21 36 23
REMARK SMILES IDX 68 24 48 25 67 26 49 27 52 28 66 29 85 30 50 31 51 32 65 34
REMARK SMILES IDX 86 35 53 36 37 37 38 38 46 39 39 40 45 41 47 42 44 43 40 44
REMARK SMILES IDX 41 45 42 46 43 47 69 48 70 49 78 50 71 51 77 52 79 53 76 54
REMARK SMILES IDX 72 55 73 56 74 57 75 58 54 59 55 60 63 61 56 62 62 63 64 64
REMARK SMILES IDX 61 65 57 66 58 67 59 68 60 69 5 70 6 71 7 72 8 73 9 74 10 75
REMARK SMILES IDX 27 76 11 77 26 78 12 79 13 80 14 81 22 82 15 83 21 84 16 85
REMARK SMILES IDX 23 86 24 87 25 88 17 89 18 90 19 91 20 92
REMARK H PARENT 84 22 52 33
REMARK Flexibility Score: inf
ROOT
ATOM      1  C   UNL A   1      31.604  31.295  26.762  1.00  0.00     0.275 C 
ENDROOT
BRANCH   1   2
ATOM      2  O   UNL A   1      32.249  32.585  26.798  1.00  0.00    -0.458 OA
BRANCH   2   3
ATOM      3  C   UNL A   1      33.025  33.158  27.752  1.00  0.00     0.338 C 
ATOM      4  O   UNL A   1      32.751  34.302  28.113  1.00  0.00    -0.246 OA
BRANCH   3   5
ATOM      5  C   UNL A   1      34.304  32.560  28.262  1.00  0.00     0.060 A 
ATOM      6  C   UNL A   1      34.456  31.271  28.778  1.00  0.00     0.016 A 
ATOM      7  C   UNL A   1      35.465  33.356  28.137  1.00  0.00     0.016 A 
ATOM      8  C   UNL A   1      35.718  30.763  29.094  1.00  0.00     0.010 A 
ATOM      9  C   UNL A   1      36.736  32.850  28.448  1.00  0.00     0.010 A 
ATOM     10  C   UNL A   1      36.863  31.548  28.945  1.00  0.00    -0.014 A 
BRANCH  10  11
ATOM     11  C   UNL A   1      38.111  31.059  29.578  1.00  0.00     0.031 A 
ATOM     12  C   UNL A   1      38.355  31.482  30.996  1.00  0.00     0.074 A 
ATOM     13  C   UNL A   1      38.901  30.151  28.976  1.00  0.00     0.049 A 
ATOM     14  N   UNL A   1      39.250  31.059  31.846  1.00  0.00    -0.248 NA
ATOM     15  C   UNL A   1      37.443  32.505  31.536  1.00  0.00     0.031 C 
ATOM     16  C   UNL A   1      38.698  29.627  27.628  1.00  0.00     0.029 A 
ATOM     17  N   UNL A   1      40.010  29.481  29.425  1.00  0.00    -0.354 N 
ATOM     18  C   UNL A   1      38.990  31.741  33.028  1.00  0.00     0.074 A 
ATOM     19  C   UNL A   1      37.899  32.651  32.767  1.00  0.00     0.031 C 
ATOM     20  C   UNL A   1      39.644  28.710  27.360  1.00  0.00     0.029 A 
ATOM     21  C   UNL A   1      40.527  28.583  28.515  1.00  0.00     0.049 A 
ATOM     22  H   UNL A   1      40.403  29.627  30.316  1.00  0.00     0.167 HD
ATOM     23  C   UNL A   1      39.594  31.604  34.232  1.00  0.00     0.034 A 
ATOM     24  C   UNL A   1      41.583  27.751  28.615  1.00  0.00     0.034 A 
ATOM     25  C   UNL A   1      40.713  30.727  34.450  1.00  0.00     0.049 A 
ATOM     26  C   UNL A   1      42.321  27.706  29.933  1.00  0.00     0.074 A 
ATOM     27  C   UNL A   1      41.456  30.543  35.600  1.00  0.00     0.029 A 
ATOM     28  N   UNL A   1      41.267  29.900  33.478  1.00  0.00    -0.354 N 
ATOM     29  N   UNL A   1      42.059  28.351  31.048  1.00  0.00    -0.248 NA
ATOM     30  C   UNL A   1      43.478  26.807  30.016  1.00  0.00     0.031 C 
ATOM     31  C   UNL A   1      42.503  29.661  35.303  1.00  0.00     0.029 A 
ATOM     32  C   UNL A   1      42.362  29.227  33.992  1.00  0.00     0.049 A 
ATOM     33  H   UNL A   1      40.929  29.807  32.557  1.00  0.00     0.167 HD
ATOM     34  C   UNL A   1      42.994  27.903  31.977  1.00  0.00     0.074 A 
ATOM     35  C   UNL A   1      43.814  26.923  31.292  1.00  0.00     0.031 C 
ATOM     36  C   UNL A   1      43.161  28.257  33.278  1.00  0.00     0.034 A 
BRANCH  23  37
ATOM     37  C   UNL A   1      39.090  32.493  35.340  1.00  0.00     0.023 A 
ATOM     38  C   UNL A   1      39.546  33.816  35.490  1.00  0.00     0.031 A 
ATOM     39  C   UNL A   1      38.240  31.971  36.330  1.00  0.00     0.131 A 
ATOM     40  C   UNL A   1      39.231  34.536  36.653  1.00  0.00     0.055 A 
ATOM     41  C   UNL A   1      37.857  32.726  37.440  1.00  0.00     0.041 A 
ATOM     42  F   UNL A   1      37.803  30.705  36.258  1.00  0.00    -0.206 F 
ATOM     43  C   UNL A   1      38.369  34.009  37.617  1.00  0.00     0.022 A 
BRANCH  40  44
ATOM     44  S   UNL A   1      40.112  36.090  36.975  1.00  0.00     0.124 S 
ATOM     45  O   UNL A   1      39.911  36.807  35.718  1.00  0.00    -0.237 OA
ATOM     46  O   UNL A   1      39.403  36.622  38.133  1.00  0.00    -0.237 OA
ATOM     47  O   UNL A   1      41.485  35.659  37.226  1.00  0.00    -0.744 OA
ENDBRANCH  40  44
ENDBRANCH  23  37
BRANCH  24  48
ATOM     48  C   UNL A   1      42.020  26.905  27.460  1.00  0.00     0.023 A 
ATOM     49  C   UNL A   1      41.923  25.503  27.492  1.00  0.00     0.031 A 
ATOM     50  C   UNL A   1      42.614  27.491  26.326  1.00  0.00     0.131 A 
ATOM     51  C   UNL A   1      42.457  24.735  26.442  1.00  0.00     0.055 A 
ATOM     52  C   UNL A   1      43.095  26.726  25.261  1.00  0.00     0.041 A 
ATOM     53  F   UNL A   1      42.739  28.825  26.237  1.00  0.00    -0.206 F 
ATOM     54  C   UNL A   1      43.032  25.338  25.322  1.00  0.00     0.022 A 
BRANCH  51  55
ATOM     55  S   UNL A   1      42.477  22.926  26.603  1.00  0.00     0.124 S 
ATOM     56  O   UNL A   1      43.862  22.677  26.982  1.00  0.00    -0.237 OA
ATOM     57  O   UNL A   1      41.476  22.706  27.641  1.00  0.00    -0.237 OA
ATOM     58  O   UNL A   1      42.101  22.462  25.269  1.00  0.00    -0.744 OA
ENDBRANCH  51  55
ENDBRANCH  24  48
BRANCH  36  59
ATOM     59  C   UNL A   1      44.237  27.536  34.048  1.00  0.00     0.023 A 
ATOM     60  C   UNL A   1      44.004  26.292  34.660  1.00  0.00     0.031 A 
ATOM     61  C   UNL A   1      45.515  28.109  34.178  1.00  0.00     0.131 A 
ATOM     62  C   UNL A   1      45.013  25.696  35.431  1.00  0.00     0.055 A 
ATOM     63  C   UNL A   1      46.536  27.476  34.885  1.00  0.00     0.041 A 
ATOM     64  F   UNL A   1      45.791  29.296  33.613  1.00  0.00    -0.206 F 
ATOM     65  C   UNL A   1      46.283  26.270  35.530  1.00  0.00     0.022 A 
BRANCH  62  66
ATOM     66  S   UNL A   1      44.604  24.217  36.397  1.00  0.00     0.124 S 
ATOM     67  O   UNL A   1      43.500  23.650  35.627  1.00  0.00    -0.237 OA
ATOM     68  O   UNL A   1      45.855  23.467  36.363  1.00  0.00    -0.237 OA
ATOM     69  O   UNL A   1      44.237  24.754  37.706  1.00  0.00    -0.744 OA
ENDBRANCH  62  66
ENDBRANCH  36  59
ENDBRANCH  10  11
ENDBRANCH   3   5
ENDBRANCH   2   3
ENDBRANCH   1   2
BRANCH   1  70
ATOM     70  C   UNL A   1      32.337  30.251  25.915  1.00  0.00     0.274 C 
BRANCH  70  71
ATOM     71  O   UNL A   1      31.506  29.705  24.883  1.00  0.00    -0.462 OA
BRANCH  71  72
ATOM     72  C   UNL A   1      31.794  28.423  24.521  1.00  0.00     0.309 C 
ATOM     73  O   UNL A   1      32.567  28.110  23.624  1.00  0.00    -0.252 OA
BRANCH  72  74
ATOM     74  C   UNL A   1      31.110  27.442  25.455  1.00  0.00     0.103 C 
ATOM     75  C   UNL A   1      32.131  26.642  26.262  1.00  0.00     0.037 C 
ATOM     76  C   UNL A   1      30.093  26.548  24.759  1.00  0.00     0.037 C 
ATOM     77  C   UNL A   1      32.784  25.572  25.401  1.00  0.00     0.117 C 
ATOM     78  C   UNL A   1      30.766  25.469  23.927  1.00  0.00     0.117 C 
ATOM     79  N   UNL A   1      31.733  24.771  24.770  1.00  0.00    -0.366 N 
BRANCH  79  80
ATOM     80  C   UNL A   1      31.952  23.412  24.665  1.00  0.00     0.116 A 
ATOM     81  C   UNL A   1      32.164  22.898  23.371  1.00  0.00     0.034 A 
ATOM     82  C   UNL A   1      31.991  22.485  25.718  1.00  0.00     0.293 A 
ATOM     83  C   UNL A   1      32.381  21.539  23.134  1.00  0.00     0.016 A 
ATOM     84  C   UNL A   1      32.216  21.114  25.499  1.00  0.00     0.101 A 
ATOM     85  C   UNL A   1      32.404  20.630  24.198  1.00  0.00     0.062 A 
BRANCH  82  86
ATOM     86  N   UNL A   1      31.709  22.880  27.088  1.00  0.00     0.064 N 
ATOM     87  O   UNL A   1      32.591  22.650  27.929  1.00  0.00    -0.258 OA
ATOM     88  O   UNL A   1      30.590  23.347  27.341  1.00  0.00    -0.258 OA
ENDBRANCH  82  86
BRANCH  85  89
ATOM     89  C   UNL A   1      32.595  19.162  23.924  1.00  0.00     0.416 C 
ATOM     90  F   UNL A   1      33.909  18.804  23.946  1.00  0.00    -0.166 F 
ATOM     91  F   UNL A   1      31.976  18.370  24.840  1.00  0.00    -0.166 F 
ATOM     92  F   UNL A   1      32.126  18.772  22.707  1.00  0.00    -0.166 F 
ENDBRANCH  85  89
ENDBRANCH  79  80
ENDBRANCH  72  74
ENDBRANCH  71  72
ENDBRANCH  70  71
ENDBRANCH   1  70
TORSDOF 17
ENDMDL
MODEL 3
REMARK VINA RESULT:     -12.2      2.406      3.306
REMARK SMILES O=C(OCCOC(=O)C1CCN(c2ccc(C(F)(F)F)cc2[N+](=O)[O-])CC1)c1ccc(-c2c3nc(c(-c4cc(S(=O)(=O)[O-])ccc4F)c4ccc([nH]4)c(-c4cc(S(=O)(=O)[O-])ccc4F)c4nc(c(-c5cc(S(=O)(=O)[O-])ccc5F)c5ccc2[nH]5)C=C4)C=C3)cc1
REMARK SMILES IDX 4 1 3 2 2 3 1 4 28 5 29 6 90 7 30 8 89 9 31 10 32 11 33 12
REMARK SMILES IDX 83 13 34 14 88 15 82 16 84 17 35 18 87 19 81 20 80 21 36 23
REMARK SMILES IDX 68 24 48 25 67 26 49 27 52 28 66 29 85 30 50 31 51 32 65 34
REMARK SMILES IDX 86 35 53 36 37 37 38 38 46 39 39 40 45 41 47 42 44 43 40 44
REMARK SMILES IDX 41 45 42 46 43 47 69 48 70 49 78 50 71 51 77 52 79 53 76 54
REMARK SMILES IDX 72 55 73 56 74 57 75 58 54 59 55 60 63 61 56 62 62 63 64 64
REMARK SMILES IDX 61 65 57 66 58 67 59 68 60 69 5 70 6 71 7 72 8 73 9 74 10 75
REMARK SMILES IDX 27 76 11 77 26 78 12 79 13 80 14 81 22 82 15 83 21 84 16 85
REMARK SMILES IDX 23 86 24 87 25 88 17 89 18 90 19 91 20 92
REMARK H PARENT 84 22 52 33
REMARK Flexibility Score: inf
ROOT
ATOM      1  C   UNL A   1      33.232  29.073  26.855  1.00  0.00     0.275 C 
ENDROOT
BRANCH   1   2
ATOM      2  O   UNL A   1      33.447  30.480  27.088  1.00  0.00    -0.458 OA
BRANCH   2   3
ATOM      3  C   UNL A   1      34.427  31.123  27.770  1.00  0.00     0.338 C 
ATOM      4  O   UNL A   1      34.353  32.346  27.878  1.00  0.00    -0.246 OA
BRANCH   3   5
ATOM      5  C   UNL A   1      35.690  30.462  28.242  1.00  0.00     0.060 A 
ATOM      6  C   UNL A   1      35.836  29.715  29.413  1.00  0.00     0.016 A 
ATOM      7  C   UNL A   1      36.807  30.552  27.381  1.00  0.00     0.016 A 
ATOM      8  C   UNL A   1      37.018  29.025  29.689  1.00  0.00     0.010 A 
ATOM      9  C   UNL A   1      37.996  29.856  27.649  1.00  0.00     0.010 A 
ATOM     10  C   UNL A   1      38.108  29.099  28.820  1.00  0.00    -0.014 A 
BRANCH  10  11
ATOM     11  C   UNL A   1      39.411  28.599  29.319  1.00  0.00     0.031 A 
ATOM     12  C   UNL A   1      39.890  29.159  30.625  1.00  0.00     0.074 A 
ATOM     13  C   UNL A   1      40.054  27.578  28.722  1.00  0.00     0.049 A 
ATOM     14  N   UNL A   1      40.882  28.773  31.381  1.00  0.00    -0.248 NA
ATOM     15  C   UNL A   1      39.124  30.295  31.165  1.00  0.00     0.031 C 
ATOM     16  C   UNL A   1      39.621  26.922  27.490  1.00  0.00     0.029 A 
ATOM     17  N   UNL A   1      41.183  26.887  29.082  1.00  0.00    -0.354 N 
ATOM     18  C   UNL A   1      40.840  29.598  32.498  1.00  0.00     0.074 A 
ATOM     19  C   UNL A   1      39.769  30.546  32.290  1.00  0.00     0.031 C 
ATOM     20  C   UNL A   1      40.467  25.919  27.199  1.00  0.00     0.029 A 
ATOM     21  C   UNL A   1      41.508  25.861  28.220  1.00  0.00     0.049 A 
ATOM     22  H   UNL A   1      41.713  27.104  29.882  1.00  0.00     0.167 HD
ATOM     23  C   UNL A   1      41.612  29.554  33.608  1.00  0.00     0.034 A 
ATOM     24  C   UNL A   1      42.523  24.975  28.265  1.00  0.00     0.034 A 
ATOM     25  C   UNL A   1      42.705  28.633  33.765  1.00  0.00     0.049 A 
ATOM     26  C   UNL A   1      43.450  25.026  29.457  1.00  0.00     0.074 A 
ATOM     27  C   UNL A   1      43.604  28.527  34.808  1.00  0.00     0.029 A 
ATOM     28  N   UNL A   1      43.061  27.667  32.829  1.00  0.00    -0.354 N 
ATOM     29  N   UNL A   1      43.394  25.808  30.514  1.00  0.00    -0.248 NA
ATOM     30  C   UNL A   1      44.559  24.065  29.479  1.00  0.00     0.031 C 
ATOM     31  C   UNL A   1      44.547  27.549  34.470  1.00  0.00     0.029 A 
ATOM     32  C   UNL A   1      44.186  26.983  33.256  1.00  0.00     0.049 A 
ATOM     33  H   UNL A   1      42.583  27.496  31.985  1.00  0.00     0.167 HD
ATOM     34  C   UNL A   1      44.436  25.403  31.344  1.00  0.00     0.074 A 
ATOM     35  C   UNL A   1      45.091  24.299  30.669  1.00  0.00     0.031 C 
ATOM     36  C   UNL A   1      44.817  25.887  32.555  1.00  0.00     0.034 A 
BRANCH  23  37
ATOM     37  C   UNL A   1      41.328  30.593  34.664  1.00  0.00     0.023 A 
ATOM     38  C   UNL A   1      40.170  30.536  35.461  1.00  0.00     0.031 A 
ATOM     39  C   UNL A   1      42.160  31.719  34.786  1.00  0.00     0.131 A 
ATOM     40  C   UNL A   1      39.826  31.630  36.271  1.00  0.00     0.055 A 
ATOM     41  C   UNL A   1      41.857  32.763  35.661  1.00  0.00     0.041 A 
ATOM     42  F   UNL A   1      43.258  31.843  34.025  1.00  0.00    -0.206 F 
ATOM     43  C   UNL A   1      40.674  32.732  36.395  1.00  0.00     0.022 A 
BRANCH  40  44
ATOM     44  S   UNL A   1      38.168  31.673  37.009  1.00  0.00     0.124 S 
ATOM     45  O   UNL A   1      37.811  30.256  37.013  1.00  0.00    -0.237 OA
ATOM     46  O   UNL A   1      38.418  32.271  38.315  1.00  0.00    -0.237 OA
ATOM     47  O   UNL A   1      37.400  32.499  36.079  1.00  0.00    -0.744 OA
ENDBRANCH  40  44
ENDBRANCH  23  37
BRANCH  24  48
ATOM     48  C   UNL A   1      42.736  23.979  27.169  1.00  0.00     0.023 A 
ATOM     49  C   UNL A   1      42.089  22.730  27.168  1.00  0.00     0.031 A 
ATOM     50  C   UNL A   1      43.654  24.236  26.134  1.00  0.00     0.131 A 
ATOM     51  C   UNL A   1      42.407  21.772  26.190  1.00  0.00     0.055 A 
ATOM     52  C   UNL A   1      43.927  23.299  25.133  1.00  0.00     0.041 A 
ATOM     53  F   UNL A   1      44.307  25.408  26.080  1.00  0.00    -0.206 F 
ATOM     54  C   UNL A   1      43.312  22.053  25.166  1.00  0.00     0.022 A 
BRANCH  51  55
ATOM     55  S   UNL A   1      41.688  20.109  26.328  1.00  0.00     0.124 S 
ATOM     56  O   UNL A   1      42.044  19.744  27.693  1.00  0.00    -0.237 OA
ATOM     57  O   UNL A   1      40.274  20.371  26.080  1.00  0.00    -0.237 OA
ATOM     58  O   UNL A   1      42.373  19.355  25.280  1.00  0.00    -0.744 OA
ENDBRANCH  51  55
ENDBRANCH  24  48
BRANCH  36  59
ATOM     59  C   UNL A   1      45.960  25.184  33.241  1.00  0.00     0.023 A 
ATOM     60  C   UNL A   1      45.751  24.083  34.089  1.00  0.00     0.031 A 
ATOM     61  C   UNL A   1      47.279  25.630  33.047  1.00  0.00     0.131 A 
ATOM     62  C   UNL A   1      46.837  23.510  34.767  1.00  0.00     0.055 A 
ATOM     63  C   UNL A   1      48.363  25.010  33.667  1.00  0.00     0.041 A 
ATOM     64  F   UNL A   1      47.535  26.678  32.247  1.00  0.00    -0.206 F 
ATOM     65  C   UNL A   1      48.143  23.953  34.545  1.00  0.00     0.022 A 
BRANCH  62  66
ATOM     66  S   UNL A   1      46.504  22.252  36.029  1.00  0.00     0.124 S 
ATOM     67  O   UNL A   1      45.110  21.915  35.759  1.00  0.00    -0.237 OA
ATOM     68  O   UNL A   1      47.483  21.220  35.706  1.00  0.00    -0.237 OA
ATOM     69  O   UNL A   1      46.740  22.959  37.287  1.00  0.00    -0.744 OA
ENDBRANCH  62  66
ENDBRANCH  36  59
ENDBRANCH  10  11
ENDBRANCH   3   5
ENDBRANCH   2   3
ENDBRANCH   1   2
BRANCH   1  70
ATOM     70  C   UNL A   1      32.113  28.766  25.854  1.00  0.00     0.274 C 
BRANCH  70  71
ATOM     71  O   UNL A   1      31.985  27.363  25.594  1.00  0.00    -0.462 OA
BRANCH  71  72
ATOM     72  C   UNL A   1      32.202  26.988  24.301  1.00  0.00     0.309 C 
ATOM     73  O   UNL A   1      31.436  27.215  23.373  1.00  0.00    -0.252 OA
BRANCH  72  74
ATOM     74  C   UNL A   1      33.572  26.352  24.157  1.00  0.00     0.103 C 
ATOM     75  C   UNL A   1      33.634  25.438  22.934  1.00  0.00     0.037 C 
ATOM     76  C   UNL A   1      34.055  25.658  25.424  1.00  0.00     0.037 C 
ATOM     77  C   UNL A   1      32.906  24.129  23.200  1.00  0.00     0.117 C 
ATOM     78  C   UNL A   1      33.336  24.340  25.654  1.00  0.00     0.117 C 
ATOM     79  N   UNL A   1      33.430  23.542  24.435  1.00  0.00    -0.366 N 
BRANCH  79  80
ATOM     80  C   UNL A   1      33.589  22.171  24.464  1.00  0.00     0.116 A 
ATOM     81  C   UNL A   1      32.439  21.391  24.236  1.00  0.00     0.034 A 
ATOM     82  C   UNL A   1      34.782  21.470  24.695  1.00  0.00     0.293 A 
ATOM     83  C   UNL A   1      32.468  19.995  24.255  1.00  0.00     0.016 A 
ATOM     84  C   UNL A   1      34.831  20.064  24.710  1.00  0.00     0.101 A 
ATOM     85  C   UNL A   1      33.666  19.316  24.498  1.00  0.00     0.062 A 
BRANCH  82  86
ATOM     86  N   UNL A   1      36.018  22.160  25.022  1.00  0.00     0.064 N 
ATOM     87  O   UNL A   1      36.728  22.518  24.069  1.00  0.00    -0.258 OA
ATOM     88  O   UNL A   1      36.320  22.282  26.217  1.00  0.00    -0.258 OA
ENDBRANCH  82  86
BRANCH  85  89
ATOM     89  C   UNL A   1      33.675  17.811  24.562  1.00  0.00     0.416 C 
ATOM     90  F   UNL A   1      34.925  17.299  24.384  1.00  0.00    -0.166 F 
ATOM     91  F   UNL A   1      33.240  17.331  25.757  1.00  0.00    -0.166 F 
ATOM     92  F   UNL A   1      32.897  17.224  23.612  1.00  0.00    -0.166 F 
ENDBRANCH  85  89
ENDBRANCH  79  80
ENDBRANCH  72  74
ENDBRANCH  71  72
ENDBRANCH  70  71
ENDBRANCH   1  70
TORSDOF 17
ENDMDL
