MODEL 1
REMARK VINA RESULT:     -11.2      0.000      0.000
REMARK SMILES CC[C@@H]1CCCC[C@@H]1OCC[C@@H]1CCC[C@]1([NH2+]C)C(=O)OCCOC(=O)c1ccc(-c2c3nc(c(-c4cc(S(=O)(=O)[O-])ccc4F)c4ccc([nH]4)c(-c4cc(S(=O)(=O)[O-])ccc4F)c4nc(c(-c5cc(S(=O)(=O)[O-])ccc5F)c5ccc2[nH]5)C=C4)C=C3)cc1
REMARK SMILES IDX 22 1 21 2 19 3 20 4 16 5 12 6 13 7 14 8 15 9 11 10 10 11
REMARK SMILES IDX 9 12 8 13 3 14 4 15 5 16 7 17 6 18 2 19 1 20 17 21 18 22
REMARK SMILES IDX 23 25 24 26 25 27 26 28 27 29 28 30 89 31 29 32 88 33 30 34
REMARK SMILES IDX 31 35 32 36 82 37 33 38 87 39 81 40 83 41 34 42 86 43 80 44
REMARK SMILES IDX 79 45 35 47 67 48 47 49 66 50 48 51 51 52 65 53 84 54 49 55
REMARK SMILES IDX 50 56 64 58 85 59 52 60 36 61 37 62 45 63 38 64 44 65 46 66
REMARK SMILES IDX 43 67 39 68 40 69 41 70 42 71 68 72 69 73 77 74 70 75 76 76
REMARK SMILES IDX 78 77 75 78 71 79 72 80 73 81 74 82 53 83 54 84 62 85 55 86
REMARK SMILES IDX 61 87 63 88 60 89 56 90 57 91 58 92 59 93
REMARK H PARENT 17 23 17 24 83 46 51 57
REMARK Flexibility Score: inf
ROOT
ATOM      1  C   UNL A   1      36.581  22.763  23.477  1.00  0.00     0.274 C 
ENDROOT
BRANCH   1   2
ATOM      2  O   UNL A   1      35.351  23.297  22.946  1.00  0.00    -0.457 OA
BRANCH   2   3
ATOM      3  C   UNL A   1      34.612  24.068  23.787  1.00  0.00     0.368 C 
ATOM      4  O   UNL A   1      35.101  24.752  24.682  1.00  0.00    -0.245 OA
BRANCH   3   5
ATOM      5  C   UNL A   1      33.071  23.937  23.553  1.00  0.00     0.197 C 
ATOM      6  C   UNL A   1      32.224  23.468  24.770  1.00  0.00     0.065 C 
ATOM      7  C   UNL A   1      32.592  21.994  24.898  1.00  0.00     0.011 C 
ATOM      8  C   UNL A   1      32.381  21.540  23.461  1.00  0.00     0.008 C 
ATOM      9  C   UNL A   1      32.811  22.732  22.584  1.00  0.00     0.081 C 
BRANCH   6  10
ATOM     10  C   UNL A   1      32.141  24.238  26.094  1.00  0.00     0.039 C 
BRANCH  10  11
ATOM     11  C   UNL A   1      31.144  25.412  26.084  1.00  0.00     0.161 C 
BRANCH  11  12
ATOM     12  O   UNL A   1      31.619  26.613  25.449  1.00  0.00    -0.378 OA
BRANCH  12  13
ATOM     13  C   UNL A   1      31.263  27.837  26.095  1.00  0.00     0.121 C 
ATOM     14  C   UNL A   1      31.458  29.075  25.192  1.00  0.00     0.018 C 
ATOM     15  C   UNL A   1      32.939  29.376  24.923  1.00  0.00     0.006 C 
ATOM     16  C   UNL A   1      33.708  29.536  26.233  1.00  0.00     0.000 C 
ATOM     17  C   UNL A   1      32.108  27.973  27.376  1.00  0.00     0.032 C 
ATOM     18  C   UNL A   1      33.574  28.292  27.095  1.00  0.00     0.003 C 
BRANCH  14  19
ATOM     19  C   UNL A   1      30.607  29.061  23.907  1.00  0.00     0.003 C 
ATOM     20  C   UNL A   1      31.315  28.701  22.611  1.00  0.00     0.004 C 
ENDBRANCH  14  19
ENDBRANCH  12  13
ENDBRANCH  11  12
ENDBRANCH  10  11
ENDBRANCH   6  10
BRANCH   5  21
ATOM     21  N   UNL A   1      32.536  25.219  23.015  1.00  0.00    -0.334 N 
ATOM     22  C   UNL A   1      33.310  25.756  21.896  1.00  0.00     0.331 C 
ATOM     23  H   UNL A   1      32.535  25.908  23.766  1.00  0.00     0.347 HD
ATOM     24  H   UNL A   1      31.599  25.025  22.662  1.00  0.00     0.347 HD
ENDBRANCH   5  21
ENDBRANCH   3   5
ENDBRANCH   2   3
ENDBRANCH   1   2
BRANCH   1  25
ATOM     25  C   UNL A   1      36.284  21.555  24.365  1.00  0.00     0.275 C 
BRANCH  25  26
ATOM     26  O   UNL A   1      36.882  21.777  25.652  1.00  0.00    -0.458 OA
BRANCH  26  27
ATOM     27  C   UNL A   1      38.204  21.515  25.756  1.00  0.00     0.338 C 
ATOM     28  O   UNL A   1      38.776  20.514  25.340  1.00  0.00    -0.246 OA
BRANCH  27  29
ATOM     29  C   UNL A   1      38.893  22.653  26.415  1.00  0.00     0.060 A 
ATOM     30  C   UNL A   1      38.452  23.962  26.223  1.00  0.00     0.016 A 
ATOM     31  C   UNL A   1      40.052  22.435  27.158  1.00  0.00     0.016 A 
ATOM     32  C   UNL A   1      39.213  25.043  26.674  1.00  0.00     0.010 A 
ATOM     33  C   UNL A   1      40.754  23.522  27.704  1.00  0.00     0.010 A 
ATOM     34  C   UNL A   1      40.368  24.849  27.438  1.00  0.00    -0.014 A 
BRANCH  34  35
ATOM     35  C   UNL A   1      41.193  26.010  27.909  1.00  0.00     0.031 A 
ATOM     36  C   UNL A   1      40.568  27.072  28.784  1.00  0.00     0.074 A 
ATOM     37  C   UNL A   1      42.496  26.138  27.577  1.00  0.00     0.049 A 
ATOM     38  N   UNL A   1      40.973  28.293  29.030  1.00  0.00    -0.248 NA
ATOM     39  C   UNL A   1      39.306  26.716  29.449  1.00  0.00     0.031 C 
ATOM     40  C   UNL A   1      43.285  25.169  26.811  1.00  0.00     0.029 A 
ATOM     41  N   UNL A   1      43.394  27.145  27.843  1.00  0.00    -0.354 N 
ATOM     42  C   UNL A   1      39.969  28.881  29.797  1.00  0.00     0.074 A 
ATOM     43  C   UNL A   1      38.945  27.874  29.983  1.00  0.00     0.031 C 
ATOM     44  C   UNL A   1      44.549  25.602  26.715  1.00  0.00     0.029 A 
ATOM     45  C   UNL A   1      44.636  26.940  27.284  1.00  0.00     0.049 A 
ATOM     46  H   UNL A   1      43.171  27.937  28.383  1.00  0.00     0.167 HD
ATOM     47  C   UNL A   1      39.908  30.147  30.284  1.00  0.00     0.034 A 
ATOM     48  C   UNL A   1      45.704  27.753  27.164  1.00  0.00     0.034 A 
ATOM     49  C   UNL A   1      40.976  31.112  30.155  1.00  0.00     0.049 A 
ATOM     50  C   UNL A   1      45.607  29.164  27.680  1.00  0.00     0.074 A 
ATOM     51  C   UNL A   1      41.022  32.418  30.614  1.00  0.00     0.029 A 
ATOM     52  N   UNL A   1      42.199  30.868  29.544  1.00  0.00    -0.354 N 
ATOM     53  N   UNL A   1      44.601  29.757  28.279  1.00  0.00    -0.248 NA
ATOM     54  C   UNL A   1      46.782  30.020  27.479  1.00  0.00     0.031 C 
ATOM     55  C   UNL A   1      42.250  32.976  30.239  1.00  0.00     0.029 A 
ATOM     56  C   UNL A   1      42.999  32.001  29.604  1.00  0.00     0.049 A 
ATOM     57  H   UNL A   1      42.461  30.015  29.129  1.00  0.00     0.167 HD
ATOM     58  C   UNL A   1      45.025  31.059  28.527  1.00  0.00     0.074 A 
ATOM     59  C   UNL A   1      46.388  31.152  28.042  1.00  0.00     0.031 C 
ATOM     60  C   UNL A   1      44.348  32.087  29.098  1.00  0.00     0.034 A 
BRANCH  47  61
ATOM     61  C   UNL A   1      38.613  30.585  30.931  1.00  0.00     0.023 A 
ATOM     62  C   UNL A   1      37.562  31.168  30.203  1.00  0.00     0.031 A 
ATOM     63  C   UNL A   1      38.445  30.437  32.321  1.00  0.00     0.131 A 
ATOM     64  C   UNL A   1      36.426  31.646  30.876  1.00  0.00     0.055 A 
ATOM     65  C   UNL A   1      37.278  30.840  32.973  1.00  0.00     0.041 A 
ATOM     66  F   UNL A   1      39.420  29.905  33.075  1.00  0.00    -0.206 F 
ATOM     67  C   UNL A   1      36.266  31.464  32.252  1.00  0.00     0.022 A 
BRANCH  64  68
ATOM     68  S   UNL A   1      35.223  32.639  29.950  1.00  0.00     0.124 S 
ATOM     69  O   UNL A   1      34.791  31.693  28.922  1.00  0.00    -0.237 OA
ATOM     70  O   UNL A   1      34.234  32.969  30.969  1.00  0.00    -0.237 OA
ATOM     71  O   UNL A   1      36.013  33.765  29.457  1.00  0.00    -0.744 OA
ENDBRANCH  64  68
ENDBRANCH  47  61
BRANCH  48  72
ATOM     72  C   UNL A   1      46.921  27.295  26.434  1.00  0.00     0.023 A 
ATOM     73  C   UNL A   1      47.135  27.641  25.091  1.00  0.00     0.031 A 
ATOM     74  C   UNL A   1      47.874  26.470  27.062  1.00  0.00     0.131 A 
ATOM     75  C   UNL A   1      48.258  27.143  24.412  1.00  0.00     0.055 A 
ATOM     76  C   UNL A   1      49.019  26.026  26.400  1.00  0.00     0.041 A 
ATOM     77  F   UNL A   1      47.715  26.102  28.344  1.00  0.00    -0.206 F 
ATOM     78  C   UNL A   1      49.210  26.354  25.063  1.00  0.00     0.022 A 
BRANCH  75  79
ATOM     79  S   UNL A   1      48.422  27.482  22.637  1.00  0.00     0.124 S 
ATOM     80  O   UNL A   1      49.647  28.273  22.598  1.00  0.00    -0.237 OA
ATOM     81  O   UNL A   1      48.508  26.137  22.079  1.00  0.00    -0.237 OA
ATOM     82  O   UNL A   1      47.196  28.210  22.316  1.00  0.00    -0.744 OA
ENDBRANCH  75  79
ENDBRANCH  48  72
BRANCH  60  83
ATOM     83  C   UNL A   1      45.099  33.386  29.256  1.00  0.00     0.023 A 
ATOM     84  C   UNL A   1      45.198  34.313  28.204  1.00  0.00     0.031 A 
ATOM     85  C   UNL A   1      45.764  33.675  30.461  1.00  0.00     0.131 A 
ATOM     86  C   UNL A   1      45.996  35.457  28.355  1.00  0.00     0.055 A 
ATOM     87  C   UNL A   1      46.510  34.842  30.625  1.00  0.00     0.041 A 
ATOM     88  F   UNL A   1      45.706  32.821  31.495  1.00  0.00    -0.206 F 
ATOM     89  C   UNL A   1      46.643  35.734  29.563  1.00  0.00     0.022 A 
BRANCH  86  90
ATOM     90  S   UNL A   1      46.265  36.528  26.914  1.00  0.00     0.124 S 
ATOM     91  O   UNL A   1      45.227  37.538  27.089  1.00  0.00    -0.237 OA
ATOM     92  O   UNL A   1      47.638  36.980  27.115  1.00  0.00    -0.237 OA
ATOM     93  O   UNL A   1      46.070  35.629  25.778  1.00  0.00    -0.744 OA
ENDBRANCH  86  90
ENDBRANCH  60  83
ENDBRANCH  34  35
ENDBRANCH  27  29
ENDBRANCH  26  27
ENDBRANCH  25  26
ENDBRANCH   1  25
TORSDOF 20
ENDMDL
MODEL 2
REMARK VINA RESULT:     -11.1      4.918      9.909
REMARK SMILES CC[C@@H]1CCCC[C@@H]1OCC[C@@H]1CCC[C@]1([NH2+]C)C(=O)OCCOC(=O)c1ccc(-c2c3nc(c(-c4cc(S(=O)(=O)[O-])ccc4F)c4ccc([nH]4)c(-c4cc(S(=O)(=O)[O-])ccc4F)c4nc(c(-c5cc(S(=O)(=O)[O-])ccc5F)c5ccc2[nH]5)C=C4)C=C3)cc1
REMARK SMILES IDX 22 1 21 2 19 3 20 4 16 5 12 6 13 7 14 8 15 9 11 10 10 11
REMARK SMILES IDX 9 12 8 13 3 14 4 15 5 16 7 17 6 18 2 19 1 20 17 21 18 22
REMARK SMILES IDX 23 25 24 26 25 27 26 28 27 29 28 30 89 31 29 32 88 33 30 34
REMARK SMILES IDX 31 35 32 36 82 37 33 38 87 39 81 40 83 41 34 42 86 43 80 44
REMARK SMILES IDX 79 45 35 47 67 48 47 49 66 50 48 51 51 52 65 53 84 54 49 55
REMARK SMILES IDX 50 56 64 58 85 59 52 60 36 61 37 62 45 63 38 64 44 65 46 66
REMARK SMILES IDX 43 67 39 68 40 69 41 70 42 71 68 72 69 73 77 74 70 75 76 76
REMARK SMILES IDX 78 77 75 78 71 79 72 80 73 81 74 82 53 83 54 84 62 85 55 86
REMARK SMILES IDX 61 87 63 88 60 89 56 90 57 91 58 92 59 93
REMARK H PARENT 17 23 17 24 83 46 51 57
REMARK Flexibility Score: inf
ROOT
ATOM      1  C   UNL A   1      31.035  29.548  24.228  1.00  0.00     0.274 C 
ENDROOT
BRANCH   1   2
ATOM      2  O   UNL A   1      31.905  28.631  23.534  1.00  0.00    -0.457 OA
BRANCH   2   3
ATOM      3  C   UNL A   1      31.495  27.337  23.468  1.00  0.00     0.368 C 
ATOM      4  O   UNL A   1      30.316  27.006  23.366  1.00  0.00    -0.245 OA
BRANCH   3   5
ATOM      5  C   UNL A   1      32.664  26.308  23.615  1.00  0.00     0.197 C 
ATOM      6  C   UNL A   1      32.345  25.007  24.405  1.00  0.00     0.065 C 
ATOM      7  C   UNL A   1      32.246  25.494  25.846  1.00  0.00     0.011 C 
ATOM      8  C   UNL A   1      33.543  26.283  25.951  1.00  0.00     0.008 C 
ATOM      9  C   UNL A   1      33.753  26.919  24.563  1.00  0.00     0.081 C 
BRANCH   6  10
ATOM     10  C   UNL A   1      31.270  23.999  23.981  1.00  0.00     0.039 C 
BRANCH  10  11
ATOM     11  C   UNL A   1      31.803  22.809  23.161  1.00  0.00     0.161 C 
BRANCH  11  12
ATOM     12  O   UNL A   1      33.009  22.208  23.667  1.00  0.00    -0.378 OA
BRANCH  12  13
ATOM     13  C   UNL A   1      32.896  21.570  24.941  1.00  0.00     0.121 C 
ATOM     14  C   UNL A   1      34.248  21.446  25.676  1.00  0.00     0.018 C 
ATOM     15  C   UNL A   1      35.193  20.445  24.997  1.00  0.00     0.006 C 
ATOM     16  C   UNL A   1      34.527  19.077  24.856  1.00  0.00     0.000 C 
ATOM     17  C   UNL A   1      32.273  20.177  24.730  1.00  0.00     0.032 C 
ATOM     18  C   UNL A   1      33.230  19.185  24.074  1.00  0.00     0.003 C 
BRANCH  14  19
ATOM     19  C   UNL A   1      34.927  22.794  25.985  1.00  0.00     0.003 C 
ATOM     20  C   UNL A   1      36.021  23.254  25.035  1.00  0.00     0.004 C 
ENDBRANCH  14  19
ENDBRANCH  12  13
ENDBRANCH  11  12
ENDBRANCH  10  11
ENDBRANCH   6  10
BRANCH   5  21
ATOM     21  N   UNL A   1      33.210  25.975  22.270  1.00  0.00    -0.334 N 
ATOM     22  C   UNL A   1      32.194  25.926  21.218  1.00  0.00     0.331 C 
ATOM     23  H   UNL A   1      33.662  25.063  22.323  1.00  0.00     0.347 HD
ATOM     24  H   UNL A   1      33.860  26.720  22.021  1.00  0.00     0.347 HD
ENDBRANCH   5  21
ENDBRANCH   3   5
ENDBRANCH   2   3
ENDBRANCH   1   2
BRANCH   1  25
ATOM     25  C   UNL A   1      31.405  29.599  25.710  1.00  0.00     0.275 C 
BRANCH  25  26
ATOM     26  O   UNL A   1      32.752  30.082  25.827  1.00  0.00    -0.458 OA
BRANCH  26  27
ATOM     27  C   UNL A   1      32.979  31.007  26.786  1.00  0.00     0.338 C 
ATOM     28  O   UNL A   1      32.186  31.858  27.170  1.00  0.00    -0.246 OA
BRANCH  27  29
ATOM     29  C   UNL A   1      34.336  30.815  27.359  1.00  0.00     0.060 A 
ATOM     30  C   UNL A   1      34.826  29.537  27.623  1.00  0.00     0.016 A 
ATOM     31  C   UNL A   1      35.101  31.920  27.731  1.00  0.00     0.016 A 
ATOM     32  C   UNL A   1      36.009  29.363  28.343  1.00  0.00     0.010 A 
ATOM     33  C   UNL A   1      36.345  31.737  28.357  1.00  0.00     0.010 A 
ATOM     34  C   UNL A   1      36.803  30.455  28.710  1.00  0.00    -0.014 A 
BRANCH  34  35
ATOM     35  C   UNL A   1      38.067  30.268  29.496  1.00  0.00     0.031 A 
ATOM     36  C   UNL A   1      39.190  29.430  28.930  1.00  0.00     0.074 A 
ATOM     37  C   UNL A   1      38.240  30.836  30.709  1.00  0.00     0.049 A 
ATOM     38  N   UNL A   1      40.203  28.871  29.542  1.00  0.00    -0.248 NA
ATOM     39  C   UNL A   1      39.148  29.167  27.483  1.00  0.00     0.031 C 
ATOM     40  C   UNL A   1      37.300  31.742  31.374  1.00  0.00     0.029 A 
ATOM     41  N   UNL A   1      39.277  30.733  31.607  1.00  0.00    -0.354 N 
ATOM     42  C   UNL A   1      40.864  28.114  28.577  1.00  0.00     0.074 A 
ATOM     43  C   UNL A   1      40.138  28.298  27.337  1.00  0.00     0.031 C 
ATOM     44  C   UNL A   1      37.822  32.147  32.540  1.00  0.00     0.029 A 
ATOM     45  C   UNL A   1      39.065  31.427  32.778  1.00  0.00     0.049 A 
ATOM     46  H   UNL A   1      40.094  30.213  31.430  1.00  0.00     0.167 HD
ATOM     47  C   UNL A   1      41.962  27.329  28.722  1.00  0.00     0.034 A 
ATOM     48  C   UNL A   1      39.739  31.432  33.945  1.00  0.00     0.034 A 
ATOM     49  C   UNL A   1      42.719  27.221  29.949  1.00  0.00     0.049 A 
ATOM     50  C   UNL A   1      40.935  30.530  34.100  1.00  0.00     0.074 A 
ATOM     51  C   UNL A   1      43.848  26.461  30.205  1.00  0.00     0.029 A 
ATOM     52  N   UNL A   1      42.439  27.913  31.120  1.00  0.00    -0.354 N 
ATOM     53  N   UNL A   1      41.469  29.709  33.226  1.00  0.00    -0.248 NA
ATOM     54  C   UNL A   1      41.601  30.540  35.408  1.00  0.00     0.031 C 
ATOM     55  C   UNL A   1      44.220  26.657  31.540  1.00  0.00     0.029 A 
ATOM     56  C   UNL A   1      43.365  27.590  32.101  1.00  0.00     0.049 A 
ATOM     57  H   UNL A   1      41.692  28.544  31.236  1.00  0.00     0.167 HD
ATOM     58  C   UNL A   1      42.537  29.105  33.881  1.00  0.00     0.074 A 
ATOM     59  C   UNL A   1      42.589  29.680  35.210  1.00  0.00     0.031 C 
ATOM     60  C   UNL A   1      43.393  28.154  33.429  1.00  0.00     0.034 A 
BRANCH  47  61
ATOM     61  C   UNL A   1      42.364  26.465  27.547  1.00  0.00     0.023 A 
ATOM     62  C   UNL A   1      41.918  25.142  27.393  1.00  0.00     0.031 A 
ATOM     63  C   UNL A   1      43.240  26.980  26.573  1.00  0.00     0.131 A 
ATOM     64  C   UNL A   1      42.407  24.358  26.335  1.00  0.00     0.055 A 
ATOM     65  C   UNL A   1      43.658  26.221  25.478  1.00  0.00     0.041 A 
ATOM     66  F   UNL A   1      43.716  28.231  26.674  1.00  0.00    -0.206 F 
ATOM     67  C   UNL A   1      43.253  24.896  25.363  1.00  0.00     0.022 A 
BRANCH  64  68
ATOM     68  S   UNL A   1      42.033  22.582  26.327  1.00  0.00     0.124 S 
ATOM     69  O   UNL A   1      40.573  22.589  26.387  1.00  0.00    -0.237 OA
ATOM     70  O   UNL A   1      42.619  22.142  25.066  1.00  0.00    -0.237 OA
ATOM     71  O   UNL A   1      42.696  22.086  27.532  1.00  0.00    -0.744 OA
ENDBRANCH  64  68
ENDBRANCH  47  61
BRANCH  48  72
ATOM     72  C   UNL A   1      39.241  32.235  35.099  1.00  0.00     0.023 A 
ATOM     73  C   UNL A   1      39.711  33.536  35.334  1.00  0.00     0.031 A 
ATOM     74  C   UNL A   1      38.309  31.697  36.007  1.00  0.00     0.131 A 
ATOM     75  C   UNL A   1      39.271  34.244  36.464  1.00  0.00     0.055 A 
ATOM     76  C   UNL A   1      37.830  32.427  37.095  1.00  0.00     0.041 A 
ATOM     77  F   UNL A   1      37.831  30.454  35.833  1.00  0.00    -0.206 F 
ATOM     78  C   UNL A   1      38.320  33.705  37.334  1.00  0.00     0.022 A 
BRANCH  75  79
ATOM     79  S   UNL A   1      40.016  35.859  36.823  1.00  0.00     0.124 S 
ATOM     80  O   UNL A   1      39.656  36.622  35.633  1.00  0.00    -0.237 OA
ATOM     81  O   UNL A   1      39.339  36.237  38.058  1.00  0.00    -0.237 OA
ATOM     82  O   UNL A   1      41.438  35.553  36.963  1.00  0.00    -0.744 OA
ENDBRANCH  75  79
ENDBRANCH  48  72
BRANCH  60  83
ATOM     83  C   UNL A   1      44.480  27.716  34.380  1.00  0.00     0.023 A 
ATOM     84  C   UNL A   1      44.278  26.669  35.295  1.00  0.00     0.031 A 
ATOM     85  C   UNL A   1      45.714  28.387  34.400  1.00  0.00     0.131 A 
ATOM     86  C   UNL A   1      45.273  26.363  36.236  1.00  0.00     0.055 A 
ATOM     87  C   UNL A   1      46.723  28.042  35.300  1.00  0.00     0.041 A 
ATOM     88  F   UNL A   1      45.957  29.398  33.550  1.00  0.00    -0.206 F 
ATOM     89  C   UNL A   1      46.499  27.034  36.236  1.00  0.00     0.022 A 
BRANCH  86  90
ATOM     90  S   UNL A   1      44.904  25.146  37.531  1.00  0.00     0.124 S 
ATOM     91  O   UNL A   1      45.853  24.080  37.225  1.00  0.00    -0.237 OA
ATOM     92  O   UNL A   1      45.164  25.902  38.751  1.00  0.00    -0.237 OA
ATOM     93  O   UNL A   1      43.501  24.811  37.297  1.00  0.00    -0.744 OA
ENDBRANCH  86  90
ENDBRANCH  60  83
ENDBRANCH  34  35
ENDBRANCH  27  29
ENDBRANCH  26  27
ENDBRANCH  25  26
ENDBRANCH   1  25
TORSDOF 20
ENDMDL
MODEL 3
REMARK VINA RESULT:     -11.0      1.647      2.495
REMARK SMILES CC[C@@H]1CCCC[C@@H]1OCC[C@@H]1CCC[C@]1([NH2+]C)C(=O)OCCOC(=O)c1ccc(-c2c3nc(c(-c4cc(S(=O)(=O)[O-])ccc4F)c4ccc([nH]4)c(-c4cc(S(=O)(=O)[O-])ccc4F)c4nc(c(-c5cc(S(=O)(=O)[O-])ccc5F)c5ccc2[nH]5)C=C4)C=C3)cc1
REMARK SMILES IDX 22 1 21 2 19 3 20 4 16 5 12 6 13 7 14 8 15 9 11 10 10 11
REMARK SMILES IDX 9 12 8 13 3 14 4 15 5 16 7 17 6 18 2 19 1 20 17 21 18 22
REMARK SMILES IDX 23 25 24 26 25 27 26 28 27 29 28 30 89 31 29 32 88 33 30 34
REMARK SMILES IDX 31 35 32 36 82 37 33 38 87 39 81 40 83 41 34 42 86 43 80 44
REMARK SMILES IDX 79 45 35 47 67 48 47 49 66 50 48 51 51 52 65 53 84 54 49 55
REMARK SMILES IDX 50 56 64 58 85 59 52 60 36 61 37 62 45 63 38 64 44 65 46 66
REMARK SMILES IDX 43 67 39 68 40 69 41 70 42 71 68 72 69 73 77 74 70 75 76 76
REMARK SMILES IDX 78 77 75 78 71 79 72 80 73 81 74 82 53 83 54 84 62 85 55 86
REMARK SMILES IDX 61 87 63 88 60 89 56 90 57 91 58 92 59 93
REMARK H PARENT 17 23 17 24 83 46 51 57
REMARK Flexibility Score: inf
ROOT
ATOM      1  C   UNL A   1      34.748  20.274  25.126  1.00  0.00     0.274 C 
ENDROOT
BRANCH   1   2
ATOM      2  O   UNL A   1      33.698  21.123  25.634  1.00  0.00    -0.457 OA
BRANCH   2   3
ATOM      3  C   UNL A   1      32.969  21.803  24.711  1.00  0.00     0.368 C 
ATOM      4  O   UNL A   1      32.620  21.322  23.635  1.00  0.00    -0.245 OA
BRANCH   3   5
ATOM      5  C   UNL A   1      32.685  23.287  25.117  1.00  0.00     0.197 C 
ATOM      6  C   UNL A   1      33.006  24.371  24.050  1.00  0.00     0.065 C 
ATOM      7  C   UNL A   1      34.530  24.395  24.031  1.00  0.00     0.011 C 
ATOM      8  C   UNL A   1      34.813  24.526  25.521  1.00  0.00     0.008 C 
ATOM      9  C   UNL A   1      33.712  23.709  26.224  1.00  0.00     0.081 C 
BRANCH   6  10
ATOM     10  C   UNL A   1      32.335  24.430  22.672  1.00  0.00     0.039 C 
BRANCH  10  11
ATOM     11  C   UNL A   1      31.438  25.664  22.454  1.00  0.00     0.161 C 
BRANCH  11  12
ATOM     12  O   UNL A   1      31.522  26.669  23.481  1.00  0.00    -0.378 OA
BRANCH  12  13
ATOM     13  C   UNL A   1      32.082  27.921  23.077  1.00  0.00     0.121 C 
ATOM     14  C   UNL A   1      32.657  28.733  24.258  1.00  0.00     0.018 C 
ATOM     15  C   UNL A   1      31.560  29.261  25.193  1.00  0.00     0.006 C 
ATOM     16  C   UNL A   1      30.533  30.085  24.419  1.00  0.00     0.000 C 
ATOM     17  C   UNL A   1      30.989  28.730  22.354  1.00  0.00     0.032 C 
ATOM     18  C   UNL A   1      29.916  29.266  23.298  1.00  0.00     0.003 C 
BRANCH  14  19
ATOM     19  C   UNL A   1      33.800  28.030  25.014  1.00  0.00     0.003 C 
ATOM     20  C   UNL A   1      33.736  28.039  26.532  1.00  0.00     0.004 C 
ENDBRANCH  14  19
ENDBRANCH  12  13
ENDBRANCH  11  12
ENDBRANCH  10  11
ENDBRANCH   6  10
BRANCH   5  21
ATOM     21  N   UNL A   1      31.274  23.418  25.578  1.00  0.00    -0.334 N 
ATOM     22  C   UNL A   1      31.030  24.607  26.396  1.00  0.00     0.331 C 
ATOM     23  H   UNL A   1      31.039  22.594  26.131  1.00  0.00     0.347 HD
ATOM     24  H   UNL A   1      30.696  23.507  24.743  1.00  0.00     0.347 HD
ENDBRANCH   5  21
ENDBRANCH   3   5
ENDBRANCH   2   3
ENDBRANCH   1   2
BRANCH   1  25
ATOM     25  C   UNL A   1      35.919  21.127  24.640  1.00  0.00     0.275 C 
BRANCH  25  26
ATOM     26  O   UNL A   1      36.712  21.502  25.776  1.00  0.00    -0.458 OA
BRANCH  26  27
ATOM     27  C   UNL A   1      37.996  21.080  25.781  1.00  0.00     0.338 C 
ATOM     28  O   UNL A   1      38.384  19.947  25.524  1.00  0.00    -0.246 OA
BRANCH  27  29
ATOM     29  C   UNL A   1      38.898  22.216  26.099  1.00  0.00     0.060 A 
ATOM     30  C   UNL A   1      40.121  22.001  26.734  1.00  0.00     0.016 A 
ATOM     31  C   UNL A   1      38.489  23.526  25.853  1.00  0.00     0.016 A 
ATOM     32  C   UNL A   1      40.873  23.076  27.213  1.00  0.00     0.010 A 
ATOM     33  C   UNL A   1      39.303  24.603  26.239  1.00  0.00     0.010 A 
ATOM     34  C   UNL A   1      40.492  24.398  26.962  1.00  0.00    -0.014 A 
BRANCH  34  35
ATOM     35  C   UNL A   1      41.293  25.551  27.489  1.00  0.00     0.031 A 
ATOM     36  C   UNL A   1      40.638  26.577  28.385  1.00  0.00     0.074 A 
ATOM     37  C   UNL A   1      42.601  25.705  27.188  1.00  0.00     0.049 A 
ATOM     38  N   UNL A   1      41.023  27.793  28.679  1.00  0.00    -0.248 NA
ATOM     39  C   UNL A   1      39.367  26.185  29.012  1.00  0.00     0.031 C 
ATOM     40  C   UNL A   1      43.417  24.771  26.407  1.00  0.00     0.029 A 
ATOM     41  N   UNL A   1      43.481  26.713  27.506  1.00  0.00    -0.354 N 
ATOM     42  C   UNL A   1      39.997  28.344  29.445  1.00  0.00     0.074 A 
ATOM     43  C   UNL A   1      38.982  27.320  29.576  1.00  0.00     0.031 C 
ATOM     44  C   UNL A   1      44.677  25.221  26.351  1.00  0.00     0.029 A 
ATOM     45  C   UNL A   1      44.737  26.540  26.966  1.00  0.00     0.049 A 
ATOM     46  H   UNL A   1      43.238  27.484  28.067  1.00  0.00     0.167 HD
ATOM     47  C   UNL A   1      39.911  29.593  29.972  1.00  0.00     0.034 A 
ATOM     48  C   UNL A   1      45.797  27.370  26.895  1.00  0.00     0.034 A 
ATOM     49  C   UNL A   1      40.970  30.574  29.898  1.00  0.00     0.049 A 
ATOM     50  C   UNL A   1      45.673  28.761  27.455  1.00  0.00     0.074 A 
ATOM     51  C   UNL A   1      40.991  31.864  30.400  1.00  0.00     0.029 A 
ATOM     52  N   UNL A   1      42.208  30.364  29.304  1.00  0.00    -0.354 N 
ATOM     53  N   UNL A   1      44.648  29.323  28.052  1.00  0.00    -0.248 NA
ATOM     54  C   UNL A   1      46.841  29.637  27.307  1.00  0.00     0.031 C 
ATOM     55  C   UNL A   1      42.219  32.448  30.069  1.00  0.00     0.029 A 
ATOM     56  C   UNL A   1      42.993  31.503  29.417  1.00  0.00     0.049 A 
ATOM     57  H   UNL A   1      42.489  29.528  28.866  1.00  0.00     0.167 HD
ATOM     58  C   UNL A   1      45.051  30.620  28.352  1.00  0.00     0.074 A 
ATOM     59  C   UNL A   1      46.422  30.745  27.899  1.00  0.00     0.031 C 
ATOM     60  C   UNL A   1      44.350  31.621  28.942  1.00  0.00     0.034 A 
BRANCH  47  61
ATOM     61  C   UNL A   1      38.598  29.994  30.606  1.00  0.00     0.023 A 
ATOM     62  C   UNL A   1      37.586  30.660  29.895  1.00  0.00     0.031 A 
ATOM     63  C   UNL A   1      38.372  29.723  31.970  1.00  0.00     0.131 A 
ATOM     64  C   UNL A   1      36.431  31.096  30.565  1.00  0.00     0.055 A 
ATOM     65  C   UNL A   1      37.187  30.088  32.610  1.00  0.00     0.041 A 
ATOM     66  F   UNL A   1      39.309  29.107  32.708  1.00  0.00    -0.206 F 
ATOM     67  C   UNL A   1      36.214  30.793  31.911  1.00  0.00     0.022 A 
BRANCH  64  68
ATOM     68  S   UNL A   1      35.281  32.191  29.688  1.00  0.00     0.124 S 
ATOM     69  O   UNL A   1      36.182  33.236  29.203  1.00  0.00    -0.237 OA
ATOM     70  O   UNL A   1      34.720  31.310  28.671  1.00  0.00    -0.237 OA
ATOM     71  O   UNL A   1      34.349  32.617  30.730  1.00  0.00    -0.744 OA
ENDBRANCH  64  68
ENDBRANCH  47  61
BRANCH  48  72
ATOM     72  C   UNL A   1      47.034  26.950  26.175  1.00  0.00     0.023 A 
ATOM     73  C   UNL A   1      48.093  26.329  26.854  1.00  0.00     0.031 A 
ATOM     74  C   UNL A   1      47.189  27.196  24.798  1.00  0.00     0.131 A 
ATOM     75  C   UNL A   1      49.270  26.002  26.162  1.00  0.00     0.055 A 
ATOM     76  C   UNL A   1      48.337  26.816  24.102  1.00  0.00     0.041 A 
ATOM     77  F   UNL A   1      46.209  27.794  24.100  1.00  0.00    -0.206 F 
ATOM     78  C   UNL A   1      49.391  26.224  24.788  1.00  0.00     0.022 A 
BRANCH  75  79
ATOM     79  S   UNL A   1      50.677  25.345  27.101  1.00  0.00     0.124 S 
ATOM     80  O   UNL A   1      51.099  26.516  27.861  1.00  0.00    -0.237 OA
ATOM     81  O   UNL A   1      50.054  24.271  27.869  1.00  0.00    -0.237 OA
ATOM     82  O   UNL A   1      51.605  24.906  26.061  1.00  0.00    -0.744 OA
ENDBRANCH  75  79
ENDBRANCH  48  72
BRANCH  60  83
ATOM     83  C   UNL A   1      45.083  32.922  29.159  1.00  0.00     0.023 A 
ATOM     84  C   UNL A   1      45.061  33.949  28.200  1.00  0.00     0.031 A 
ATOM     85  C   UNL A   1      45.851  33.115  30.321  1.00  0.00     0.131 A 
ATOM     86  C   UNL A   1      45.842  35.098  28.389  1.00  0.00     0.055 A 
ATOM     87  C   UNL A   1      46.582  34.285  30.531  1.00  0.00     0.041 A 
ATOM     88  F   UNL A   1      45.910  32.165  31.267  1.00  0.00    -0.206 F 
ATOM     89  C   UNL A   1      46.593  35.279  29.555  1.00  0.00     0.022 A 
BRANCH  86  90
ATOM     90  S   UNL A   1      45.950  36.311  27.043  1.00  0.00     0.124 S 
ATOM     91  O   UNL A   1      46.887  37.288  27.589  1.00  0.00    -0.237 OA
ATOM     92  O   UNL A   1      46.445  35.502  25.934  1.00  0.00    -0.237 OA
ATOM     93  O   UNL A   1      44.575  36.785  26.899  1.00  0.00    -0.744 OA
ENDBRANCH  86  90
ENDBRANCH  60  83
ENDBRANCH  34  35
ENDBRANCH  27  29
ENDBRANCH  26  27
ENDBRANCH  25  26
ENDBRANCH   1  25
TORSDOF 20
ENDMDL
