MODEL 1
REMARK VINA RESULT:     -10.5      0.000      0.000
REMARK SMILES C=CCOC(=O)N[C@@H](Cc1ccccc1)C(=O)OCCOC(=O)c1ccc(-c2c3nc(c(-c4cc(S(=O)(=O)[O-])ccc4F)c4ccc([nH]4)c(-c4cc(S(=O)(=O)[O-])ccc4F)c4nc(c(-c5cc(S(=O)(=O)[O-])ccc5F)c5ccc2[nH]5)C=C4)C=C3)cc1
REMARK SMILES IDX 19 1 18 2 16 3 17 4 8 5 7 6 5 7 6 8 4 10 3 11 2 12 1 13 9 14
REMARK SMILES IDX 10 15 11 16 15 17 12 18 14 19 13 20 20 21 21 22 22 23 23 24
REMARK SMILES IDX 24 25 25 26 86 27 26 28 85 29 27 30 28 31 29 32 79 33 30 34
REMARK SMILES IDX 84 35 78 36 80 37 31 38 83 39 77 40 76 41 32 43 64 44 44 45
REMARK SMILES IDX 63 46 45 47 48 48 62 49 81 50 46 51 47 52 61 54 82 55 49 56
REMARK SMILES IDX 33 57 34 58 42 59 35 60 41 61 43 62 40 63 36 64 37 65 38 66
REMARK SMILES IDX 39 67 65 68 66 69 74 70 67 71 73 72 75 73 72 74 68 75 69 76
REMARK SMILES IDX 70 77 71 78 50 79 51 80 59 81 52 82 58 83 60 84 57 85 53 86
REMARK SMILES IDX 54 87 55 88 56 89
REMARK H PARENT 7 9 80 42 48 53
REMARK Flexibility Score: inf
ROOT
ATOM      1  C   UNL A   1      35.448  20.245  25.008  1.00  0.00     0.274 C 
ENDROOT
BRANCH   1   2
ATOM      2  O   UNL A   1      34.832  21.536  25.183  1.00  0.00    -0.461 OA
BRANCH   2   3
ATOM      3  C   UNL A   1      33.481  21.588  25.017  1.00  0.00     0.329 C 
ATOM      4  O   UNL A   1      32.807  20.675  24.550  1.00  0.00    -0.250 OA
BRANCH   3   5
ATOM      5  C   UNL A   1      32.891  22.970  25.336  1.00  0.00     0.199 C 
BRANCH   5   6
ATOM      6  N   UNL A   1      31.813  22.970  26.328  1.00  0.00    -0.308 N 
ATOM      7  C   UNL A   1      30.639  23.663  26.284  1.00  0.00     0.408 C 
ATOM      8  O   UNL A   1      29.888  23.684  27.249  1.00  0.00    -0.225 OA
ATOM      9  H   UNL A   1      31.953  22.402  27.120  1.00  0.00     0.168 HD
BRANCH   7  10
ATOM     10  O   UNL A   1      30.456  24.321  25.118  1.00  0.00    -0.445 OA
BRANCH  10  11
ATOM     11  C   UNL A   1      30.143  25.720  25.208  1.00  0.00     0.262 C 
BRANCH  11  12
ATOM     12  C   UNL A   1      29.987  26.345  23.855  1.00  0.00     0.006 C 
ATOM     13  C   UNL A   1      29.796  27.658  23.664  1.00  0.00     0.007 C 
ENDBRANCH  11  12
ENDBRANCH  10  11
ENDBRANCH   7  10
ENDBRANCH   5   6
BRANCH   5  14
ATOM     14  C   UNL A   1      34.036  23.917  25.750  1.00  0.00     0.072 C 
BRANCH  14  15
ATOM     15  C   UNL A   1      33.893  25.315  25.187  1.00  0.00    -0.045 A 
ATOM     16  C   UNL A   1      33.694  26.413  26.035  1.00  0.00     0.004 A 
ATOM     17  C   UNL A   1      33.879  25.516  23.800  1.00  0.00     0.004 A 
ATOM     18  C   UNL A   1      33.435  27.676  25.507  1.00  0.00     0.000 A 
ATOM     19  C   UNL A   1      33.636  26.784  23.273  1.00  0.00     0.000 A 
ATOM     20  C   UNL A   1      33.400  27.860  24.127  1.00  0.00     0.000 A 
ENDBRANCH  14  15
ENDBRANCH   5  14
ENDBRANCH   3   5
ENDBRANCH   2   3
ENDBRANCH   1   2
BRANCH   1  21
ATOM     21  C   UNL A   1      36.960  20.360  24.815  1.00  0.00     0.275 C 
BRANCH  21  22
ATOM     22  O   UNL A   1      37.517  21.373  25.668  1.00  0.00    -0.458 OA
BRANCH  22  23
ATOM     23  C   UNL A   1      38.805  21.148  26.021  1.00  0.00     0.338 C 
ATOM     24  O   UNL A   1      39.479  20.166  25.762  1.00  0.00    -0.246 OA
BRANCH  23  25
ATOM     25  C   UNL A   1      39.363  22.349  26.651  1.00  0.00     0.060 A 
ATOM     26  C   UNL A   1      38.849  23.579  26.246  1.00  0.00     0.016 A 
ATOM     27  C   UNL A   1      40.452  22.285  27.516  1.00  0.00     0.016 A 
ATOM     28  C   UNL A   1      39.449  24.762  26.650  1.00  0.00     0.010 A 
ATOM     29  C   UNL A   1      41.046  23.477  27.945  1.00  0.00     0.010 A 
ATOM     30  C   UNL A   1      40.567  24.719  27.488  1.00  0.00    -0.014 A 
BRANCH  30  31
ATOM     31  C   UNL A   1      41.289  25.980  27.780  1.00  0.00     0.031 A 
ATOM     32  C   UNL A   1      40.600  27.052  28.578  1.00  0.00     0.074 A 
ATOM     33  C   UNL A   1      42.567  26.130  27.389  1.00  0.00     0.049 A 
ATOM     34  N   UNL A   1      41.011  28.256  28.878  1.00  0.00    -0.248 NA
ATOM     35  C   UNL A   1      39.266  26.721  29.101  1.00  0.00     0.031 C 
ATOM     36  C   UNL A   1      43.353  25.123  26.674  1.00  0.00     0.029 A 
ATOM     37  N   UNL A   1      43.432  27.182  27.541  1.00  0.00    -0.354 N 
ATOM     38  C   UNL A   1      39.975  28.841  29.599  1.00  0.00     0.074 A 
ATOM     39  C   UNL A   1      38.909  27.862  29.669  1.00  0.00     0.031 C 
ATOM     40  C   UNL A   1      44.586  25.605  26.455  1.00  0.00     0.029 A 
ATOM     41  C   UNL A   1      44.660  26.972  26.959  1.00  0.00     0.049 A 
ATOM     42  H   UNL A   1      43.197  28.009  28.022  1.00  0.00     0.167 HD
ATOM     43  C   UNL A   1      39.924  30.079  30.150  1.00  0.00     0.034 A 
ATOM     44  C   UNL A   1      45.711  27.804  26.818  1.00  0.00     0.034 A 
ATOM     45  C   UNL A   1      41.007  31.030  30.074  1.00  0.00     0.049 A 
ATOM     46  C   UNL A   1      45.608  29.196  27.387  1.00  0.00     0.074 A 
ATOM     47  C   UNL A   1      41.070  32.313  30.589  1.00  0.00     0.029 A 
ATOM     48  N   UNL A   1      42.224  30.799  29.440  1.00  0.00    -0.354 N 
ATOM     49  N   UNL A   1      44.609  29.755  28.030  1.00  0.00    -0.248 NA
ATOM     50  C   UNL A   1      46.775  30.068  27.211  1.00  0.00     0.031 C 
ATOM     51  C   UNL A   1      42.294  32.878  30.213  1.00  0.00     0.029 A 
ATOM     52  C   UNL A   1      43.031  31.923  29.529  1.00  0.00     0.049 A 
ATOM     53  H   UNL A   1      42.476  29.959  28.993  1.00  0.00     0.167 HD
ATOM     54  C   UNL A   1      45.037  31.038  28.356  1.00  0.00     0.074 A 
ATOM     55  C   UNL A   1      46.392  31.160  27.857  1.00  0.00     0.031 C 
ATOM     56  C   UNL A   1      44.374  32.029  29.008  1.00  0.00     0.034 A 
BRANCH  43  57
ATOM     57  C   UNL A   1      38.629  30.488  30.812  1.00  0.00     0.023 A 
ATOM     58  C   UNL A   1      37.585  31.104  30.098  1.00  0.00     0.031 A 
ATOM     59  C   UNL A   1      38.457  30.303  32.196  1.00  0.00     0.131 A 
ATOM     60  C   UNL A   1      36.455  31.580  30.782  1.00  0.00     0.055 A 
ATOM     61  C   UNL A   1      37.295  30.705  32.856  1.00  0.00     0.041 A 
ATOM     62  F   UNL A   1      39.428  29.743  32.935  1.00  0.00    -0.206 F 
ATOM     63  C   UNL A   1      36.292  31.364  32.152  1.00  0.00     0.022 A 
BRANCH  60  64
ATOM     64  S   UNL A   1      35.268  32.618  29.883  1.00  0.00     0.124 S 
ATOM     65  O   UNL A   1      34.309  32.947  30.935  1.00  0.00    -0.237 OA
ATOM     66  O   UNL A   1      36.104  33.717  29.412  1.00  0.00    -0.237 OA
ATOM     67  O   UNL A   1      34.757  31.731  28.840  1.00  0.00    -0.744 OA
ENDBRANCH  60  64
ENDBRANCH  43  57
BRANCH  44  68
ATOM     68  C   UNL A   1      46.922  27.368  26.066  1.00  0.00     0.023 A 
ATOM     69  C   UNL A   1      48.001  26.749  26.716  1.00  0.00     0.031 A 
ATOM     70  C   UNL A   1      47.032  27.603  24.683  1.00  0.00     0.131 A 
ATOM     71  C   UNL A   1      49.158  26.422  25.991  1.00  0.00     0.055 A 
ATOM     72  C   UNL A   1      48.162  27.228  23.958  1.00  0.00     0.041 A 
ATOM     73  F   UNL A   1      46.029  28.193  24.013  1.00  0.00    -0.206 F 
ATOM     74  C   UNL A   1      49.241  26.644  24.614  1.00  0.00     0.022 A 
BRANCH  71  75
ATOM     75  S   UNL A   1      50.592  25.768  26.891  1.00  0.00     0.124 S 
ATOM     76  O   UNL A   1      51.602  25.714  25.841  1.00  0.00    -0.237 OA
ATOM     77  O   UNL A   1      50.790  26.781  27.921  1.00  0.00    -0.237 OA
ATOM     78  O   UNL A   1      50.125  24.471  27.377  1.00  0.00    -0.744 OA
ENDBRANCH  71  75
ENDBRANCH  44  68
BRANCH  56  79
ATOM     79  C   UNL A   1      45.135  33.310  29.246  1.00  0.00     0.023 A 
ATOM     80  C   UNL A   1      45.037  34.402  28.366  1.00  0.00     0.031 A 
ATOM     81  C   UNL A   1      45.996  33.425  30.352  1.00  0.00     0.131 A 
ATOM     82  C   UNL A   1      45.837  35.537  28.570  1.00  0.00     0.055 A 
ATOM     83  C   UNL A   1      46.742  34.582  30.584  1.00  0.00     0.041 A 
ATOM     84  F   UNL A   1      46.130  32.412  31.223  1.00  0.00    -0.206 F 
ATOM     85  C   UNL A   1      46.677  35.640  29.682  1.00  0.00     0.022 A 
BRANCH  82  86
ATOM     86  S   UNL A   1      45.847  36.833  27.301  1.00  0.00     0.124 S 
ATOM     87  O   UNL A   1      46.322  37.990  28.054  1.00  0.00    -0.237 OA
ATOM     88  O   UNL A   1      46.772  36.293  26.310  1.00  0.00    -0.237 OA
ATOM     89  O   UNL A   1      44.452  36.905  26.872  1.00  0.00    -0.744 OA
ENDBRANCH  82  86
ENDBRANCH  56  79
ENDBRANCH  30  31
ENDBRANCH  23  25
ENDBRANCH  22  23
ENDBRANCH  21  22
ENDBRANCH   1  21
TORSDOF 20
ENDMDL
MODEL 2
REMARK VINA RESULT:     -10.4      1.981      2.310
REMARK SMILES C=CCOC(=O)N[C@@H](Cc1ccccc1)C(=O)OCCOC(=O)c1ccc(-c2c3nc(c(-c4cc(S(=O)(=O)[O-])ccc4F)c4ccc([nH]4)c(-c4cc(S(=O)(=O)[O-])ccc4F)c4nc(c(-c5cc(S(=O)(=O)[O-])ccc5F)c5ccc2[nH]5)C=C4)C=C3)cc1
REMARK SMILES IDX 19 1 18 2 16 3 17 4 8 5 7 6 5 7 6 8 4 10 3 11 2 12 1 13 9 14
REMARK SMILES IDX 10 15 11 16 15 17 12 18 14 19 13 20 20 21 21 22 22 23 23 24
REMARK SMILES IDX 24 25 25 26 86 27 26 28 85 29 27 30 28 31 29 32 79 33 30 34
REMARK SMILES IDX 84 35 78 36 80 37 31 38 83 39 77 40 76 41 32 43 64 44 44 45
REMARK SMILES IDX 63 46 45 47 48 48 62 49 81 50 46 51 47 52 61 54 82 55 49 56
REMARK SMILES IDX 33 57 34 58 42 59 35 60 41 61 43 62 40 63 36 64 37 65 38 66
REMARK SMILES IDX 39 67 65 68 66 69 74 70 67 71 73 72 75 73 72 74 68 75 69 76
REMARK SMILES IDX 70 77 71 78 50 79 51 80 59 81 52 82 58 83 60 84 57 85 53 86
REMARK SMILES IDX 54 87 55 88 56 89
REMARK H PARENT 7 9 80 42 48 53
REMARK Flexibility Score: inf
ROOT
ATOM      1  C   UNL A   1      35.566  20.730  25.132  1.00  0.00     0.274 C 
ENDROOT
BRANCH   1   2
ATOM      2  O   UNL A   1      35.478  21.965  25.867  1.00  0.00    -0.461 OA
BRANCH   2   3
ATOM      3  C   UNL A   1      34.346  22.152  26.603  1.00  0.00     0.329 C 
ATOM      4  O   UNL A   1      33.966  21.391  27.489  1.00  0.00    -0.250 OA
BRANCH   3   5
ATOM      5  C   UNL A   1      33.503  23.339  26.116  1.00  0.00     0.199 C 
BRANCH   5   6
ATOM      6  N   UNL A   1      32.310  23.623  26.916  1.00  0.00    -0.308 N 
ATOM      7  C   UNL A   1      31.007  23.580  26.515  1.00  0.00     0.408 C 
ATOM      8  O   UNL A   1      30.112  23.979  27.247  1.00  0.00    -0.225 OA
ATOM      9  H   UNL A   1      32.466  23.873  27.855  1.00  0.00     0.168 HD
BRANCH   7  10
ATOM     10  O   UNL A   1      30.856  23.111  25.256  1.00  0.00    -0.445 OA
BRANCH  10  11
ATOM     11  C   UNL A   1      30.792  24.087  24.205  1.00  0.00     0.262 C 
BRANCH  11  12
ATOM     12  C   UNL A   1      30.125  25.351  24.657  1.00  0.00     0.006 C 
ATOM     13  C   UNL A   1      30.056  26.460  23.908  1.00  0.00     0.007 C 
ENDBRANCH  11  12
ENDBRANCH  10  11
ENDBRANCH   7  10
ENDBRANCH   5   6
BRANCH   5  14
ATOM     14  C   UNL A   1      34.412  24.582  26.002  1.00  0.00     0.072 C 
BRANCH  14  15
ATOM     15  C   UNL A   1      33.995  25.532  24.899  1.00  0.00    -0.045 A 
ATOM     16  C   UNL A   1      33.957  25.107  23.564  1.00  0.00     0.004 A 
ATOM     17  C   UNL A   1      33.717  26.873  25.194  1.00  0.00     0.004 A 
ATOM     18  C   UNL A   1      33.698  26.015  22.540  1.00  0.00     0.000 A 
ATOM     19  C   UNL A   1      33.442  27.778  24.169  1.00  0.00     0.000 A 
ATOM     20  C   UNL A   1      33.446  27.351  22.842  1.00  0.00     0.000 A 
ENDBRANCH  14  15
ENDBRANCH   5  14
ENDBRANCH   3   5
ENDBRANCH   2   3
ENDBRANCH   1   2
BRANCH   1  21
ATOM     21  C   UNL A   1      37.016  20.286  24.940  1.00  0.00     0.275 C 
BRANCH  21  22
ATOM     22  O   UNL A   1      37.926  21.376  25.158  1.00  0.00    -0.458 OA
BRANCH  22  23
ATOM     23  C   UNL A   1      38.993  21.057  25.928  1.00  0.00     0.338 C 
ATOM     24  O   UNL A   1      39.538  19.971  26.018  1.00  0.00    -0.246 OA
BRANCH  23  25
ATOM     25  C   UNL A   1      39.532  22.269  26.554  1.00  0.00     0.060 A 
ATOM     26  C   UNL A   1      39.009  23.490  26.133  1.00  0.00     0.016 A 
ATOM     27  C   UNL A   1      40.614  22.224  27.429  1.00  0.00     0.016 A 
ATOM     28  C   UNL A   1      39.593  24.683  26.534  1.00  0.00     0.010 A 
ATOM     29  C   UNL A   1      41.191  23.425  27.854  1.00  0.00     0.010 A 
ATOM     30  C   UNL A   1      40.703  24.658  27.383  1.00  0.00    -0.014 A 
BRANCH  30  31
ATOM     31  C   UNL A   1      41.409  25.929  27.672  1.00  0.00     0.031 A 
ATOM     32  C   UNL A   1      40.723  26.977  28.502  1.00  0.00     0.074 A 
ATOM     33  C   UNL A   1      42.672  26.109  27.246  1.00  0.00     0.049 A 
ATOM     34  N   UNL A   1      41.119  28.185  28.807  1.00  0.00    -0.248 NA
ATOM     35  C   UNL A   1      39.411  26.614  29.058  1.00  0.00     0.031 C 
ATOM     36  C   UNL A   1      43.457  25.126  26.497  1.00  0.00     0.029 A 
ATOM     37  N   UNL A   1      43.521  27.175  27.389  1.00  0.00    -0.354 N 
ATOM     38  C   UNL A   1      40.093  28.740  29.565  1.00  0.00     0.074 A 
ATOM     39  C   UNL A   1      39.048  27.740  29.651  1.00  0.00     0.031 C 
ATOM     40  C   UNL A   1      44.674  25.635  26.249  1.00  0.00     0.029 A 
ATOM     41  C   UNL A   1      44.736  26.997  26.769  1.00  0.00     0.049 A 
ATOM     42  H   UNL A   1      43.284  27.991  27.887  1.00  0.00     0.167 HD
ATOM     43  C   UNL A   1      40.034  29.969  30.133  1.00  0.00     0.034 A 
ATOM     44  C   UNL A   1      45.766  27.850  26.610  1.00  0.00     0.034 A 
ATOM     45  C   UNL A   1      41.097  30.942  30.040  1.00  0.00     0.049 A 
ATOM     46  C   UNL A   1      45.653  29.233  27.200  1.00  0.00     0.074 A 
ATOM     47  C   UNL A   1      41.149  32.219  30.570  1.00  0.00     0.029 A 
ATOM     48  N   UNL A   1      42.299  30.743  29.369  1.00  0.00    -0.354 N 
ATOM     49  N   UNL A   1      44.662  29.764  27.879  1.00  0.00    -0.248 NA
ATOM     50  C   UNL A   1      46.798  30.130  27.004  1.00  0.00     0.031 C 
ATOM     51  C   UNL A   1      42.352  32.813  30.168  1.00  0.00     0.029 A 
ATOM     52  C   UNL A   1      43.086  31.882  29.451  1.00  0.00     0.049 A 
ATOM     53  H   UNL A   1      42.554  29.914  28.904  1.00  0.00     0.167 HD
ATOM     54  C   UNL A   1      45.075  31.051  28.210  1.00  0.00     0.074 A 
ATOM     55  C   UNL A   1      46.413  31.206  27.674  1.00  0.00     0.031 C 
ATOM     56  C   UNL A   1      44.412  32.020  28.894  1.00  0.00     0.034 A 
BRANCH  43  57
ATOM     57  C   UNL A   1      38.751  30.345  30.838  1.00  0.00     0.023 A 
ATOM     58  C   UNL A   1      37.673  30.943  30.160  1.00  0.00     0.031 A 
ATOM     59  C   UNL A   1      38.625  30.146  32.224  1.00  0.00     0.131 A 
ATOM     60  C   UNL A   1      36.554  31.389  30.881  1.00  0.00     0.055 A 
ATOM     61  C   UNL A   1      37.474  30.517  32.922  1.00  0.00     0.041 A 
ATOM     62  F   UNL A   1      39.629  29.602  32.929  1.00  0.00    -0.206 F 
ATOM     63  C   UNL A   1      36.437  31.158  32.253  1.00  0.00     0.022 A 
BRANCH  60  64
ATOM     64  S   UNL A   1      35.318  32.407  30.027  1.00  0.00     0.124 S 
ATOM     65  O   UNL A   1      34.302  32.569  31.064  1.00  0.00    -0.237 OA
ATOM     66  O   UNL A   1      36.078  33.603  29.683  1.00  0.00    -0.237 OA
ATOM     67  O   UNL A   1      34.914  31.578  28.893  1.00  0.00    -0.744 OA
ENDBRANCH  60  64
ENDBRANCH  43  57
BRANCH  44  68
ATOM     68  C   UNL A   1      46.964  27.448  25.819  1.00  0.00     0.023 A 
ATOM     69  C   UNL A   1      47.109  27.821  24.473  1.00  0.00     0.031 A 
ATOM     70  C   UNL A   1      47.968  26.646  26.393  1.00  0.00     0.131 A 
ATOM     71  C   UNL A   1      48.211  27.359  23.736  1.00  0.00     0.055 A 
ATOM     72  C   UNL A   1      49.088  26.235  25.671  1.00  0.00     0.041 A 
ATOM     73  F   UNL A   1      47.879  26.262  27.676  1.00  0.00    -0.206 F 
ATOM     74  C   UNL A   1      49.209  26.581  24.329  1.00  0.00     0.022 A 
BRANCH  71  75
ATOM     75  S   UNL A   1      48.285  27.728  21.961  1.00  0.00     0.124 S 
ATOM     76  O   UNL A   1      49.446  28.606  21.889  1.00  0.00    -0.237 OA
ATOM     77  O   UNL A   1      48.447  26.399  21.382  1.00  0.00    -0.237 OA
ATOM     78  O   UNL A   1      46.998  28.370  21.694  1.00  0.00    -0.744 OA
ENDBRANCH  71  75
ENDBRANCH  44  68
BRANCH  56  79
ATOM     79  C   UNL A   1      45.155  33.313  29.128  1.00  0.00     0.023 A 
ATOM     80  C   UNL A   1      45.948  33.513  30.272  1.00  0.00     0.031 A 
ATOM     81  C   UNL A   1      45.039  34.370  28.208  1.00  0.00     0.131 A 
ATOM     82  C   UNL A   1      46.541  34.764  30.499  1.00  0.00     0.055 A 
ATOM     83  C   UNL A   1      45.684  35.592  28.409  1.00  0.00     0.041 A 
ATOM     84  F   UNL A   1      44.293  34.235  27.100  1.00  0.00    -0.206 F 
ATOM     85  C   UNL A   1      46.428  35.799  29.567  1.00  0.00     0.022 A 
BRANCH  82  86
ATOM     86  S   UNL A   1      47.375  35.056  32.083  1.00  0.00     0.124 S 
ATOM     87  O   UNL A   1      48.145  33.827  32.252  1.00  0.00    -0.237 OA
ATOM     88  O   UNL A   1      48.149  36.262  31.811  1.00  0.00    -0.237 OA
ATOM     89  O   UNL A   1      46.270  35.228  33.026  1.00  0.00    -0.744 OA
ENDBRANCH  82  86
ENDBRANCH  56  79
ENDBRANCH  30  31
ENDBRANCH  23  25
ENDBRANCH  22  23
ENDBRANCH  21  22
ENDBRANCH   1  21
TORSDOF 20
ENDMDL
MODEL 3
REMARK VINA RESULT:     -10.4      4.951      9.979
REMARK SMILES C=CCOC(=O)N[C@@H](Cc1ccccc1)C(=O)OCCOC(=O)c1ccc(-c2c3nc(c(-c4cc(S(=O)(=O)[O-])ccc4F)c4ccc([nH]4)c(-c4cc(S(=O)(=O)[O-])ccc4F)c4nc(c(-c5cc(S(=O)(=O)[O-])ccc5F)c5ccc2[nH]5)C=C4)C=C3)cc1
REMARK SMILES IDX 19 1 18 2 16 3 17 4 8 5 7 6 5 7 6 8 4 10 3 11 2 12 1 13 9 14
REMARK SMILES IDX 10 15 11 16 15 17 12 18 14 19 13 20 20 21 21 22 22 23 23 24
REMARK SMILES IDX 24 25 25 26 86 27 26 28 85 29 27 30 28 31 29 32 79 33 30 34
REMARK SMILES IDX 84 35 78 36 80 37 31 38 83 39 77 40 76 41 32 43 64 44 44 45
REMARK SMILES IDX 63 46 45 47 48 48 62 49 81 50 46 51 47 52 61 54 82 55 49 56
REMARK SMILES IDX 33 57 34 58 42 59 35 60 41 61 43 62 40 63 36 64 37 65 38 66
REMARK SMILES IDX 39 67 65 68 66 69 74 70 67 71 73 72 75 73 72 74 68 75 69 76
REMARK SMILES IDX 70 77 71 78 50 79 51 80 59 81 52 82 58 83 60 84 57 85 53 86
REMARK SMILES IDX 54 87 55 88 56 89
REMARK H PARENT 7 9 80 42 48 53
REMARK Flexibility Score: inf
ROOT
ATOM      1  C   UNL A   1      31.674  28.882  27.228  1.00  0.00     0.274 C 
ENDROOT
BRANCH   1   2
ATOM      2  O   UNL A   1      32.408  27.709  26.830  1.00  0.00    -0.461 OA
BRANCH   2   3
ATOM      3  C   UNL A   1      31.665  26.621  26.481  1.00  0.00     0.329 C 
ATOM      4  O   UNL A   1      30.443  26.558  26.582  1.00  0.00    -0.250 OA
BRANCH   3   5
ATOM      5  C   UNL A   1      32.524  25.412  26.082  1.00  0.00     0.199 C 
BRANCH   5   6
ATOM      6  N   UNL A   1      31.771  24.232  25.651  1.00  0.00    -0.308 N 
ATOM      7  C   UNL A   1      31.564  23.075  26.344  1.00  0.00     0.408 C 
ATOM      8  O   UNL A   1      31.036  22.110  25.809  1.00  0.00    -0.225 OA
ATOM      9  H   UNL A   1      31.367  24.279  24.755  1.00  0.00     0.168 HD
BRANCH   7  10
ATOM     10  O   UNL A   1      32.037  23.124  27.609  1.00  0.00    -0.445 OA
BRANCH  10  11
ATOM     11  C   UNL A   1      32.897  22.049  28.019  1.00  0.00     0.262 C 
BRANCH  11  12
ATOM     12  C   UNL A   1      34.192  22.052  27.266  1.00  0.00     0.006 C 
ATOM     13  C   UNL A   1      34.509  21.141  26.334  1.00  0.00     0.007 C 
ENDBRANCH  11  12
ENDBRANCH  10  11
ENDBRANCH   7  10
ENDBRANCH   5   6
BRANCH   5  14
ATOM     14  C   UNL A   1      33.540  25.854  25.008  1.00  0.00     0.072 C 
BRANCH  14  15
ATOM     15  C   UNL A   1      34.555  24.785  24.664  1.00  0.00    -0.045 A 
ATOM     16  C   UNL A   1      35.729  24.643  25.418  1.00  0.00     0.004 A 
ATOM     17  C   UNL A   1      34.369  23.975  23.537  1.00  0.00     0.004 A 
ATOM     18  C   UNL A   1      36.718  23.745  25.022  1.00  0.00     0.000 A 
ATOM     19  C   UNL A   1      35.353  23.065  23.151  1.00  0.00     0.000 A 
ATOM     20  C   UNL A   1      36.532  22.961  23.887  1.00  0.00     0.000 A 
ENDBRANCH  14  15
ENDBRANCH   5  14
ENDBRANCH   3   5
ENDBRANCH   2   3
ENDBRANCH   1   2
BRANCH   1  21
ATOM     21  C   UNL A   1      31.873  30.035  26.244  1.00  0.00     0.275 C 
BRANCH  21  22
ATOM     22  O   UNL A   1      33.251  30.438  26.188  1.00  0.00    -0.458 OA
BRANCH  22  23
ATOM     23  C   UNL A   1      33.577  31.410  27.073  1.00  0.00     0.338 C 
ATOM     24  O   UNL A   1      32.864  32.316  27.469  1.00  0.00    -0.246 OA
BRANCH  23  25
ATOM     25  C   UNL A   1      34.901  31.137  27.642  1.00  0.00     0.060 A 
ATOM     26  C   UNL A   1      35.204  29.811  27.948  1.00  0.00     0.016 A 
ATOM     27  C   UNL A   1      35.774  32.163  27.993  1.00  0.00     0.016 A 
ATOM     28  C   UNL A   1      36.352  29.496  28.658  1.00  0.00     0.010 A 
ATOM     29  C   UNL A   1      36.946  31.846  28.689  1.00  0.00     0.010 A 
ATOM     30  C   UNL A   1      37.223  30.515  29.052  1.00  0.00    -0.014 A 
BRANCH  30  31
ATOM     31  C   UNL A   1      38.359  30.178  29.944  1.00  0.00     0.031 A 
ATOM     32  C   UNL A   1      39.407  29.214  29.465  1.00  0.00     0.074 A 
ATOM     33  C   UNL A   1      38.476  30.782  31.140  1.00  0.00     0.049 A 
ATOM     34  N   UNL A   1      40.433  28.720  30.105  1.00  0.00    -0.248 NA
ATOM     35  C   UNL A   1      39.274  28.741  28.079  1.00  0.00     0.031 C 
ATOM     36  C   UNL A   1      37.554  31.788  31.671  1.00  0.00     0.029 A 
ATOM     37  N   UNL A   1      39.421  30.644  32.123  1.00  0.00    -0.354 N 
ATOM     38  C   UNL A   1      41.054  27.852  29.211  1.00  0.00     0.074 A 
ATOM     39  C   UNL A   1      40.271  27.875  27.993  1.00  0.00     0.031 C 
ATOM     40  C   UNL A   1      37.983  32.179  32.881  1.00  0.00     0.029 A 
ATOM     41  C   UNL A   1      39.173  31.412  33.237  1.00  0.00     0.049 A 
ATOM     42  H   UNL A   1      40.203  30.052  32.040  1.00  0.00     0.167 HD
ATOM     43  C   UNL A   1      42.173  27.109  29.396  1.00  0.00     0.034 A 
ATOM     44  C   UNL A   1      39.813  31.463  34.420  1.00  0.00     0.034 A 
ATOM     45  C   UNL A   1      42.941  27.116  30.619  1.00  0.00     0.049 A 
ATOM     46  C   UNL A   1      41.020  30.583  34.624  1.00  0.00     0.074 A 
ATOM     47  C   UNL A   1      44.088  26.404  30.924  1.00  0.00     0.029 A 
ATOM     48  N   UNL A   1      42.638  27.877  31.744  1.00  0.00    -0.354 N 
ATOM     49  N   UNL A   1      41.576  29.734  33.789  1.00  0.00    -0.248 NA
ATOM     50  C   UNL A   1      41.688  30.670  35.928  1.00  0.00     0.031 C 
ATOM     51  C   UNL A   1      44.440  26.685  32.250  1.00  0.00     0.029 A 
ATOM     52  C   UNL A   1      43.559  27.631  32.750  1.00  0.00     0.049 A 
ATOM     53  H   UNL A   1      41.879  28.499  31.814  1.00  0.00     0.167 HD
ATOM     54  C   UNL A   1      42.672  29.202  34.461  1.00  0.00     0.074 A 
ATOM     55  C   UNL A   1      42.710  29.844  35.760  1.00  0.00     0.031 C 
ATOM     56  C   UNL A   1      43.568  28.269  34.046  1.00  0.00     0.034 A 
BRANCH  43  57
ATOM     57  C   UNL A   1      42.580  26.181  28.276  1.00  0.00     0.023 A 
ATOM     58  C   UNL A   1      41.954  24.939  28.068  1.00  0.00     0.031 A 
ATOM     59  C   UNL A   1      43.650  26.526  27.430  1.00  0.00     0.131 A 
ATOM     60  C   UNL A   1      42.451  24.058  27.095  1.00  0.00     0.055 A 
ATOM     61  C   UNL A   1      44.088  25.679  26.410  1.00  0.00     0.041 A 
ATOM     62  F   UNL A   1      44.304  27.686  27.595  1.00  0.00    -0.206 F 
ATOM     63  C   UNL A   1      43.498  24.429  26.248  1.00  0.00     0.022 A 
BRANCH  60  64
ATOM     64  S   UNL A   1      41.808  22.362  27.048  1.00  0.00     0.124 S 
ATOM     65  O   UNL A   1      40.418  22.562  27.449  1.00  0.00    -0.237 OA
ATOM     66  O   UNL A   1      42.024  21.982  25.656  1.00  0.00    -0.237 OA
ATOM     67  O   UNL A   1      42.635  21.654  28.023  1.00  0.00    -0.744 OA
ENDBRANCH  60  64
ENDBRANCH  43  57
BRANCH  44  68
ATOM     68  C   UNL A   1      39.300  32.329  35.520  1.00  0.00     0.023 A 
ATOM     69  C   UNL A   1      39.758  33.645  35.686  1.00  0.00     0.031 A 
ATOM     70  C   UNL A   1      38.365  31.833  36.448  1.00  0.00     0.131 A 
ATOM     71  C   UNL A   1      39.311  34.407  36.777  1.00  0.00     0.055 A 
ATOM     72  C   UNL A   1      37.884  32.613  37.500  1.00  0.00     0.041 A 
ATOM     73  F   UNL A   1      37.894  30.581  36.335  1.00  0.00    -0.206 F 
ATOM     74  C   UNL A   1      38.367  33.906  37.677  1.00  0.00     0.022 A 
BRANCH  71  75
ATOM     75  S   UNL A   1      40.042  36.045  37.051  1.00  0.00     0.124 S 
ATOM     76  O   UNL A   1      39.231  36.552  38.151  1.00  0.00    -0.237 OA
ATOM     77  O   UNL A   1      41.424  35.710  37.374  1.00  0.00    -0.237 OA
ATOM     78  O   UNL A   1      39.850  36.721  35.769  1.00  0.00    -0.744 OA
ENDBRANCH  71  75
ENDBRANCH  44  68
BRANCH  56  79
ATOM     79  C   UNL A   1      44.683  27.928  35.004  1.00  0.00     0.023 A 
ATOM     80  C   UNL A   1      44.500  27.011  36.055  1.00  0.00     0.031 A 
ATOM     81  C   UNL A   1      45.935  28.556  34.884  1.00  0.00     0.131 A 
ATOM     82  C   UNL A   1      45.530  26.797  36.982  1.00  0.00     0.055 A 
ATOM     83  C   UNL A   1      46.978  28.290  35.773  1.00  0.00     0.041 A 
ATOM     84  F   UNL A   1      46.164  29.442  33.901  1.00  0.00    -0.206 F 
ATOM     85  C   UNL A   1      46.774  27.418  36.838  1.00  0.00     0.022 A 
BRANCH  82  86
ATOM     86  S   UNL A   1      45.189  25.778  38.442  1.00  0.00     0.124 S 
ATOM     87  O   UNL A   1      44.276  24.773  37.905  1.00  0.00    -0.237 OA
ATOM     88  O   UNL A   1      46.518  25.301  38.808  1.00  0.00    -0.237 OA
ATOM     89  O   UNL A   1      44.587  26.719  39.385  1.00  0.00    -0.744 OA
ENDBRANCH  82  86
ENDBRANCH  56  79
ENDBRANCH  30  31
ENDBRANCH  23  25
ENDBRANCH  22  23
ENDBRANCH  21  22
ENDBRANCH   1  21
TORSDOF 20
ENDMDL
