MODEL 1
REMARK VINA RESULT:     -12.9      0.000      0.000
REMARK SMILES O=C(OCCOC(=O)[C@@H]1[C@@H](C(=O)N2CCN(c3cccc(Cl)c3)CC2)[C@H]2CC[C@@H]1O2)c1ccc(-c2c3nc(c(-c4cc(S(=O)(=O)[O-])ccc4F)c4ccc([nH]4)c(-c4cc(S(=O)(=O)[O-])ccc4F)c4nc(c(-c5cc(S(=O)(=O)[O-])ccc5F)c5ccc2[nH]5)C=C4)C=C3)cc1
REMARK SMILES IDX 4 1 3 2 2 3 1 4 31 5 32 6 93 7 33 8 92 9 34 10 35 11 36 12
REMARK SMILES IDX 86 13 37 14 91 15 85 16 87 17 38 18 90 19 84 20 83 21 39 23
REMARK SMILES IDX 71 24 51 25 70 26 52 27 55 28 69 29 88 30 53 31 54 32 68 34
REMARK SMILES IDX 89 35 56 36 40 37 41 38 49 39 42 40 48 41 50 42 47 43 43 44
REMARK SMILES IDX 44 45 45 46 46 47 72 48 73 49 81 50 74 51 80 52 82 53 79 54
REMARK SMILES IDX 75 55 76 56 77 57 78 58 57 59 58 60 66 61 59 62 65 63 67 64
REMARK SMILES IDX 64 65 60 66 61 67 62 68 63 69 5 70 6 71 7 72 8 73 9 74 10 75
REMARK SMILES IDX 29 76 26 77 28 78 30 79 27 80 11 81 12 82 13 83 14 84 25 85
REMARK SMILES IDX 15 86 24 87 16 88 17 89 18 90 23 91 19 92 21 93 20 94 22 95
REMARK H PARENT 87 22 55 33
REMARK Flexibility Score: inf
ROOT
ATOM      1  C   UNL A   1      31.447  32.120  26.944  1.00  0.00     0.275 C 
ENDROOT
BRANCH   1   2
ATOM      2  O   UNL A   1      32.199  33.332  27.053  1.00  0.00    -0.458 OA
BRANCH   2   3
ATOM      3  C   UNL A   1      32.918  33.802  28.099  1.00  0.00     0.338 C 
ATOM      4  O   UNL A   1      32.468  34.787  28.688  1.00  0.00    -0.246 OA
BRANCH   3   5
ATOM      5  C   UNL A   1      34.292  33.316  28.483  1.00  0.00     0.060 A 
ATOM      6  C   UNL A   1      35.535  33.829  28.086  1.00  0.00     0.016 A 
ATOM      7  C   UNL A   1      34.299  32.297  29.445  1.00  0.00     0.016 A 
ATOM      8  C   UNL A   1      36.733  33.450  28.725  1.00  0.00     0.010 A 
ATOM      9  C   UNL A   1      35.471  31.976  30.132  1.00  0.00     0.010 A 
ATOM     10  C   UNL A   1      36.710  32.557  29.790  1.00  0.00    -0.014 A 
BRANCH  10  11
ATOM     11  C   UNL A   1      37.926  32.055  30.495  1.00  0.00     0.031 A 
ATOM     12  C   UNL A   1      38.568  30.847  29.888  1.00  0.00     0.074 A 
ATOM     13  C   UNL A   1      38.381  32.518  31.680  1.00  0.00     0.049 A 
ATOM     14  N   UNL A   1      39.424  30.009  30.400  1.00  0.00    -0.248 NA
ATOM     15  C   UNL A   1      38.133  30.517  28.518  1.00  0.00     0.031 C 
ATOM     16  C   UNL A   1      37.942  33.729  32.360  1.00  0.00     0.029 A 
ATOM     17  N   UNL A   1      39.264  31.955  32.579  1.00  0.00    -0.354 N 
ATOM     18  C   UNL A   1      39.647  29.086  29.393  1.00  0.00     0.074 A 
ATOM     19  C   UNL A   1      38.658  29.319  28.367  1.00  0.00     0.031 C 
ATOM     20  C   UNL A   1      38.406  33.730  33.625  1.00  0.00     0.029 A 
ATOM     21  C   UNL A   1      39.221  32.542  33.831  1.00  0.00     0.049 A 
ATOM     22  H   UNL A   1      39.867  31.210  32.352  1.00  0.00     0.167 HD
ATOM     23  C   UNL A   1      40.680  28.222  29.260  1.00  0.00     0.034 A 
ATOM     24  C   UNL A   1      39.756  32.150  35.006  1.00  0.00     0.034 A 
ATOM     25  C   UNL A   1      41.653  28.017  30.292  1.00  0.00     0.049 A 
ATOM     26  C   UNL A   1      40.738  31.009  34.979  1.00  0.00     0.074 A 
ATOM     27  C   UNL A   1      42.772  27.211  30.284  1.00  0.00     0.029 A 
ATOM     28  N   UNL A   1      41.594  28.620  31.544  1.00  0.00    -0.354 N 
ATOM     29  N   UNL A   1      41.044  30.218  33.976  1.00  0.00    -0.248 NA
ATOM     30  C   UNL A   1      41.521  30.768  36.197  1.00  0.00     0.031 C 
ATOM     31  C   UNL A   1      43.349  27.269  31.559  1.00  0.00     0.029 A 
ATOM     32  C   UNL A   1      42.633  28.169  32.336  1.00  0.00     0.049 A 
ATOM     33  H   UNL A   1      40.912  29.272  31.825  1.00  0.00     0.167 HD
ATOM     34  C   UNL A   1      42.130  29.463  34.405  1.00  0.00     0.074 A 
ATOM     35  C   UNL A   1      42.383  29.848  35.781  1.00  0.00     0.031 C 
ATOM     36  C   UNL A   1      42.882  28.580  33.700  1.00  0.00     0.034 A 
BRANCH  23  37
ATOM     37  C   UNL A   1      40.755  27.503  27.938  1.00  0.00     0.023 A 
ATOM     38  C   UNL A   1      40.394  26.140  27.846  1.00  0.00     0.031 A 
ATOM     39  C   UNL A   1      41.377  28.098  26.833  1.00  0.00     0.131 A 
ATOM     40  C   UNL A   1      40.824  25.381  26.752  1.00  0.00     0.055 A 
ATOM     41  C   UNL A   1      41.689  27.359  25.691  1.00  0.00     0.041 A 
ATOM     42  F   UNL A   1      41.758  29.384  26.873  1.00  0.00    -0.206 F 
ATOM     43  C   UNL A   1      41.447  25.986  25.659  1.00  0.00     0.022 A 
BRANCH  40  44
ATOM     44  S   UNL A   1      40.804  23.569  26.902  1.00  0.00     0.124 S 
ATOM     45  O   UNL A   1      39.409  23.262  26.596  1.00  0.00    -0.237 OA
ATOM     46  O   UNL A   1      41.781  23.157  25.898  1.00  0.00    -0.237 OA
ATOM     47  O   UNL A   1      41.196  23.336  28.288  1.00  0.00    -0.744 OA
ENDBRANCH  40  44
ENDBRANCH  23  37
BRANCH  24  48
ATOM     48  C   UNL A   1      39.413  32.833  36.292  1.00  0.00     0.023 A 
ATOM     49  C   UNL A   1      38.494  32.290  37.205  1.00  0.00     0.031 A 
ATOM     50  C   UNL A   1      39.972  34.090  36.595  1.00  0.00     0.131 A 
ATOM     51  C   UNL A   1      38.131  33.014  38.357  1.00  0.00     0.055 A 
ATOM     52  C   UNL A   1      39.627  34.796  37.754  1.00  0.00     0.041 A 
ATOM     53  F   UNL A   1      40.848  34.661  35.755  1.00  0.00    -0.206 F 
ATOM     54  C   UNL A   1      38.694  34.262  38.638  1.00  0.00     0.022 A 
BRANCH  51  55
ATOM     55  S   UNL A   1      36.869  32.325  39.466  1.00  0.00     0.124 S 
ATOM     56  O   UNL A   1      37.180  32.991  40.726  1.00  0.00    -0.237 OA
ATOM     57  O   UNL A   1      35.633  32.738  38.809  1.00  0.00    -0.237 OA
ATOM     58  O   UNL A   1      37.134  30.888  39.439  1.00  0.00    -0.744 OA
ENDBRANCH  51  55
ENDBRANCH  24  48
BRANCH  36  59
ATOM     59  C   UNL A   1      44.122  28.041  34.357  1.00  0.00     0.023 A 
ATOM     60  C   UNL A   1      44.123  26.840  35.079  1.00  0.00     0.031 A 
ATOM     61  C   UNL A   1      45.342  28.721  34.183  1.00  0.00     0.131 A 
ATOM     62  C   UNL A   1      45.325  26.359  35.616  1.00  0.00     0.055 A 
ATOM     63  C   UNL A   1      46.543  28.207  34.668  1.00  0.00     0.041 A 
ATOM     64  F   UNL A   1      45.390  29.879  33.504  1.00  0.00    -0.206 F 
ATOM     65  C   UNL A   1      46.537  27.020  35.392  1.00  0.00     0.022 A 
BRANCH  62  66
ATOM     66  S   UNL A   1      45.282  24.870  36.647  1.00  0.00     0.124 S 
ATOM     67  O   UNL A   1      44.267  25.218  37.637  1.00  0.00    -0.237 OA
ATOM     68  O   UNL A   1      44.909  23.834  35.689  1.00  0.00    -0.237 OA
ATOM     69  O   UNL A   1      46.645  24.771  37.165  1.00  0.00    -0.744 OA
ENDBRANCH  62  66
ENDBRANCH  36  59
ENDBRANCH  10  11
ENDBRANCH   3   5
ENDBRANCH   2   3
ENDBRANCH   1   2
BRANCH   1  70
ATOM     70  C   UNL A   1      32.286  30.880  26.617  1.00  0.00     0.274 C 
BRANCH  70  71
ATOM     71  O   UNL A   1      31.876  29.674  27.291  1.00  0.00    -0.462 OA
BRANCH  71  72
ATOM     72  C   UNL A   1      32.437  28.496  26.896  1.00  0.00     0.312 C 
ATOM     73  O   UNL A   1      33.631  28.236  27.008  1.00  0.00    -0.252 OA
BRANCH  72  74
ATOM     74  C   UNL A   1      31.467  27.526  26.207  1.00  0.00     0.143 C 
ATOM     75  C   UNL A   1      32.035  26.114  26.039  1.00  0.00     0.124 C 
ATOM     76  C   UNL A   1      31.247  27.947  24.776  1.00  0.00     0.133 C 
ATOM     77  C   UNL A   1      32.085  25.984  24.513  1.00  0.00     0.132 C 
ATOM     78  C   UNL A   1      30.093  27.201  24.117  1.00  0.00     0.036 C 
ATOM     79  O   UNL A   1      32.394  27.345  24.159  1.00  0.00    -0.373 OA
ATOM     80  C   UNL A   1      30.730  25.850  23.819  1.00  0.00     0.035 C 
BRANCH  75  81
ATOM     81  C   UNL A   1      31.375  24.863  26.592  1.00  0.00     0.229 C 
ATOM     82  O   UNL A   1      30.153  24.828  26.755  1.00  0.00    -0.274 OA
ATOM     83  N   UNL A   1      32.089  23.691  26.637  1.00  0.00    -0.339 N 
ATOM     84  C   UNL A   1      31.423  22.517  26.054  1.00  0.00     0.141 C 
ATOM     85  C   UNL A   1      33.536  23.546  26.714  1.00  0.00     0.141 C 
ATOM     86  C   UNL A   1      31.949  22.332  24.609  1.00  0.00     0.138 C 
ATOM     87  C   UNL A   1      34.122  23.356  25.310  1.00  0.00     0.138 C 
ATOM     88  N   UNL A   1      33.431  22.261  24.612  1.00  0.00    -0.368 N 
BRANCH  88  89
ATOM     89  C   UNL A   1      34.007  21.003  24.595  1.00  0.00     0.038 A 
ATOM     90  C   UNL A   1      33.263  19.828  24.424  1.00  0.00     0.026 A 
ATOM     91  C   UNL A   1      35.388  20.892  24.775  1.00  0.00     0.046 A 
ATOM     92  C   UNL A   1      33.874  18.576  24.424  1.00  0.00     0.004 A 
ATOM     93  C   UNL A   1      35.999  19.641  24.799  1.00  0.00     0.043 A 
ATOM     94  C   UNL A   1      35.247  18.482  24.619  1.00  0.00     0.020 A 
ATOM     95  Cl  UNL A   1      37.693  19.525  25.072  1.00  0.00    -0.084 Cl
ENDBRANCH  88  89
ENDBRANCH  75  81
ENDBRANCH  72  74
ENDBRANCH  71  72
ENDBRANCH  70  71
ENDBRANCH   1  70
TORSDOF 16
ENDMDL
MODEL 2
REMARK VINA RESULT:     -12.7      5.030      8.734
REMARK SMILES O=C(OCCOC(=O)[C@@H]1[C@@H](C(=O)N2CCN(c3cccc(Cl)c3)CC2)[C@H]2CC[C@@H]1O2)c1ccc(-c2c3nc(c(-c4cc(S(=O)(=O)[O-])ccc4F)c4ccc([nH]4)c(-c4cc(S(=O)(=O)[O-])ccc4F)c4nc(c(-c5cc(S(=O)(=O)[O-])ccc5F)c5ccc2[nH]5)C=C4)C=C3)cc1
REMARK SMILES IDX 4 1 3 2 2 3 1 4 31 5 32 6 93 7 33 8 92 9 34 10 35 11 36 12
REMARK SMILES IDX 86 13 37 14 91 15 85 16 87 17 38 18 90 19 84 20 83 21 39 23
REMARK SMILES IDX 71 24 51 25 70 26 52 27 55 28 69 29 88 30 53 31 54 32 68 34
REMARK SMILES IDX 89 35 56 36 40 37 41 38 49 39 42 40 48 41 50 42 47 43 43 44
REMARK SMILES IDX 44 45 45 46 46 47 72 48 73 49 81 50 74 51 80 52 82 53 79 54
REMARK SMILES IDX 75 55 76 56 77 57 78 58 57 59 58 60 66 61 59 62 65 63 67 64
REMARK SMILES IDX 64 65 60 66 61 67 62 68 63 69 5 70 6 71 7 72 8 73 9 74 10 75
REMARK SMILES IDX 29 76 26 77 28 78 30 79 27 80 11 81 12 82 13 83 14 84 25 85
REMARK SMILES IDX 15 86 24 87 16 88 17 89 18 90 23 91 19 92 21 93 20 94 22 95
REMARK H PARENT 87 22 55 33
REMARK Flexibility Score: inf
ROOT
ATOM      1  C   UNL A   1      37.423  22.228  25.749  1.00  0.00     0.275 C 
ENDROOT
BRANCH   1   2
ATOM      2  O   UNL A   1      38.760  21.861  26.097  1.00  0.00    -0.458 OA
BRANCH   2   3
ATOM      3  C   UNL A   1      39.613  22.455  26.965  1.00  0.00     0.338 C 
ATOM      4  O   UNL A   1      40.341  21.714  27.628  1.00  0.00    -0.246 OA
BRANCH   3   5
ATOM      5  C   UNL A   1      39.616  23.926  27.292  1.00  0.00     0.060 A 
ATOM      6  C   UNL A   1      39.308  24.544  28.512  1.00  0.00     0.016 A 
ATOM      7  C   UNL A   1      40.101  24.748  26.264  1.00  0.00     0.016 A 
ATOM      8  C   UNL A   1      39.606  25.900  28.755  1.00  0.00     0.010 A 
ATOM      9  C   UNL A   1      40.468  26.069  26.525  1.00  0.00     0.010 A 
ATOM     10  C   UNL A   1      40.237  26.666  27.781  1.00  0.00    -0.014 A 
BRANCH  10  11
ATOM     11  C   UNL A   1      40.547  28.120  27.923  1.00  0.00     0.031 A 
ATOM     12  C   UNL A   1      42.002  28.468  27.944  1.00  0.00     0.074 A 
ATOM     13  C   UNL A   1      39.634  29.086  28.166  1.00  0.00     0.049 A 
ATOM     14  N   UNL A   1      42.595  29.557  28.344  1.00  0.00    -0.248 NA
ATOM     15  C   UNL A   1      42.917  27.402  27.494  1.00  0.00     0.031 C 
ATOM     16  C   UNL A   1      38.186  28.946  28.087  1.00  0.00     0.029 A 
ATOM     17  N   UNL A   1      39.800  30.374  28.631  1.00  0.00    -0.354 N 
ATOM     18  C   UNL A   1      43.943  29.306  28.151  1.00  0.00     0.074 A 
ATOM     19  C   UNL A   1      44.082  27.899  27.856  1.00  0.00     0.031 C 
ATOM     20  C   UNL A   1      37.597  30.017  28.654  1.00  0.00     0.029 A 
ATOM     21  C   UNL A   1      38.628  30.947  29.091  1.00  0.00     0.049 A 
ATOM     22  H   UNL A   1      40.667  30.841  28.636  1.00  0.00     0.167 HD
ATOM     23  C   UNL A   1      44.959  30.195  28.073  1.00  0.00     0.034 A 
ATOM     24  C   UNL A   1      38.417  32.076  29.800  1.00  0.00     0.034 A 
ATOM     25  C   UNL A   1      44.790  31.588  28.363  1.00  0.00     0.049 A 
ATOM     26  C   UNL A   1      39.583  33.014  29.979  1.00  0.00     0.074 A 
ATOM     27  C   UNL A   1      45.712  32.611  28.286  1.00  0.00     0.029 A 
ATOM     28  N   UNL A   1      43.601  32.147  28.821  1.00  0.00    -0.354 N 
ATOM     29  N   UNL A   1      40.844  32.818  29.668  1.00  0.00    -0.248 NA
ATOM     30  C   UNL A   1      39.292  34.354  30.502  1.00  0.00     0.031 C 
ATOM     31  C   UNL A   1      45.101  33.775  28.769  1.00  0.00     0.029 A 
ATOM     32  C   UNL A   1      43.777  33.494  29.074  1.00  0.00     0.049 A 
ATOM     33  H   UNL A   1      42.758  31.654  28.946  1.00  0.00     0.167 HD
ATOM     34  C   UNL A   1      41.474  34.044  29.852  1.00  0.00     0.074 A 
ATOM     35  C   UNL A   1      40.467  34.954  30.363  1.00  0.00     0.031 C 
ATOM     36  C   UNL A   1      42.754  34.391  29.563  1.00  0.00     0.034 A 
BRANCH  23  37
ATOM     37  C   UNL A   1      46.283  29.627  27.634  1.00  0.00     0.023 A 
ATOM     38  C   UNL A   1      46.511  29.318  26.274  1.00  0.00     0.031 A 
ATOM     39  C   UNL A   1      47.226  29.198  28.576  1.00  0.00     0.131 A 
ATOM     40  C   UNL A   1      47.552  28.449  25.925  1.00  0.00     0.055 A 
ATOM     41  C   UNL A   1      48.333  28.435  28.200  1.00  0.00     0.041 A 
ATOM     42  F   UNL A   1      47.049  29.447  29.883  1.00  0.00    -0.206 F 
ATOM     43  C   UNL A   1      48.482  28.025  26.875  1.00  0.00     0.022 A 
BRANCH  40  44
ATOM     44  S   UNL A   1      47.506  27.669  24.283  1.00  0.00     0.124 S 
ATOM     45  O   UNL A   1      46.737  28.645  23.514  1.00  0.00    -0.237 OA
ATOM     46  O   UNL A   1      48.922  27.564  23.943  1.00  0.00    -0.237 OA
ATOM     47  O   UNL A   1      46.826  26.401  24.525  1.00  0.00    -0.744 OA
ENDBRANCH  40  44
ENDBRANCH  23  37
BRANCH  24  48
ATOM     48  C   UNL A   1      37.076  32.407  30.371  1.00  0.00     0.023 A 
ATOM     49  C   UNL A   1      36.147  33.205  29.683  1.00  0.00     0.031 A 
ATOM     50  C   UNL A   1      36.730  31.966  31.663  1.00  0.00     0.131 A 
ATOM     51  C   UNL A   1      34.935  33.569  30.301  1.00  0.00     0.055 A 
ATOM     52  C   UNL A   1      35.514  32.310  32.264  1.00  0.00     0.041 A 
ATOM     53  F   UNL A   1      37.583  31.209  32.371  1.00  0.00    -0.206 F 
ATOM     54  C   UNL A   1      34.612  33.125  31.586  1.00  0.00     0.022 A 
BRANCH  51  55
ATOM     55  S   UNL A   1      33.799  34.680  29.420  1.00  0.00     0.124 S 
ATOM     56  O   UNL A   1      33.319  35.536  30.499  1.00  0.00    -0.237 OA
ATOM     57  O   UNL A   1      34.687  35.310  28.448  1.00  0.00    -0.237 OA
ATOM     58  O   UNL A   1      32.803  33.774  28.852  1.00  0.00    -0.744 OA
ENDBRANCH  51  55
ENDBRANCH  24  48
BRANCH  36  59
ATOM     59  C   UNL A   1      43.125  35.843  29.685  1.00  0.00     0.023 A 
ATOM     60  C   UNL A   1      42.877  36.766  28.660  1.00  0.00     0.031 A 
ATOM     61  C   UNL A   1      43.673  36.312  30.894  1.00  0.00     0.131 A 
ATOM     62  C   UNL A   1      43.190  38.118  28.859  1.00  0.00     0.055 A 
ATOM     63  C   UNL A   1      43.926  37.666  31.106  1.00  0.00     0.041 A 
ATOM     64  F   UNL A   1      43.935  35.464  31.902  1.00  0.00    -0.206 F 
ATOM     65  C   UNL A   1      43.687  38.577  30.084  1.00  0.00     0.022 A 
BRANCH  62  66
ATOM     66  S   UNL A   1      42.974  39.272  27.480  1.00  0.00     0.124 S 
ATOM     67  O   UNL A   1      44.199  39.060  26.715  1.00  0.00    -0.237 OA
ATOM     68  O   UNL A   1      41.743  38.794  26.859  1.00  0.00    -0.237 OA
ATOM     69  O   UNL A   1      42.870  40.575  28.135  1.00  0.00    -0.744 OA
ENDBRANCH  62  66
ENDBRANCH  36  59
ENDBRANCH  10  11
ENDBRANCH   3   5
ENDBRANCH   2   3
ENDBRANCH   1   2
BRANCH   1  70
ATOM     70  C   UNL A   1      36.802  21.381  24.633  1.00  0.00     0.274 C 
BRANCH  70  71
ATOM     71  O   UNL A   1      35.816  20.425  25.073  1.00  0.00    -0.462 OA
BRANCH  71  72
ATOM     72  C   UNL A   1      34.558  20.877  25.334  1.00  0.00     0.312 C 
ATOM     73  O   UNL A   1      33.972  20.692  26.397  1.00  0.00    -0.252 OA
BRANCH  72  74
ATOM     74  C   UNL A   1      33.871  21.577  24.153  1.00  0.00     0.143 C 
ATOM     75  C   UNL A   1      33.561  23.053  24.415  1.00  0.00     0.124 C 
ATOM     76  C   UNL A   1      32.494  21.000  23.942  1.00  0.00     0.133 C 
ATOM     77  C   UNL A   1      32.030  23.059  24.352  1.00  0.00     0.132 C 
ATOM     78  C   UNL A   1      31.868  21.447  22.627  1.00  0.00     0.036 C 
ATOM     79  O   UNL A   1      31.754  21.760  24.908  1.00  0.00    -0.373 OA
ATOM     80  C   UNL A   1      31.427  22.865  22.962  1.00  0.00     0.035 C 
BRANCH  75  81
ATOM     81  C   UNL A   1      34.067  24.193  23.550  1.00  0.00     0.229 C 
ATOM     82  O   UNL A   1      34.196  24.037  22.333  1.00  0.00    -0.274 OA
ATOM     83  N   UNL A   1      34.106  25.464  24.069  1.00  0.00    -0.339 N 
ATOM     84  C   UNL A   1      33.479  26.507  23.245  1.00  0.00     0.141 C 
ATOM     85  C   UNL A   1      34.220  25.837  25.472  1.00  0.00     0.141 C 
ATOM     86  C   UNL A   1      32.045  26.748  23.779  1.00  0.00     0.138 C 
ATOM     87  C   UNL A   1      32.828  26.093  26.063  1.00  0.00     0.138 C 
ATOM     88  N   UNL A   1      32.087  27.052  25.230  1.00  0.00    -0.368 N 
BRANCH  88  89
ATOM     89  C   UNL A   1      32.059  28.385  25.601  1.00  0.00     0.038 A 
ATOM     90  C   UNL A   1      31.187  29.317  25.023  1.00  0.00     0.026 A 
ATOM     91  C   UNL A   1      32.949  28.831  26.581  1.00  0.00     0.046 A 
ATOM     92  C   UNL A   1      31.192  30.654  25.412  1.00  0.00     0.004 A 
ATOM     93  C   UNL A   1      32.974  30.172  26.956  1.00  0.00     0.043 A 
ATOM     94  C   UNL A   1      32.094  31.085  26.378  1.00  0.00     0.020 A 
ATOM     95  Cl  UNL A   1      34.112  30.708  28.128  1.00  0.00    -0.084 Cl
ENDBRANCH  88  89
ENDBRANCH  75  81
ENDBRANCH  72  74
ENDBRANCH  71  72
ENDBRANCH  70  71
ENDBRANCH   1  70
TORSDOF 16
ENDMDL
MODEL 3
REMARK VINA RESULT:     -12.6      1.602      7.537
REMARK SMILES O=C(OCCOC(=O)[C@@H]1[C@@H](C(=O)N2CCN(c3cccc(Cl)c3)CC2)[C@H]2CC[C@@H]1O2)c1ccc(-c2c3nc(c(-c4cc(S(=O)(=O)[O-])ccc4F)c4ccc([nH]4)c(-c4cc(S(=O)(=O)[O-])ccc4F)c4nc(c(-c5cc(S(=O)(=O)[O-])ccc5F)c5ccc2[nH]5)C=C4)C=C3)cc1
REMARK SMILES IDX 4 1 3 2 2 3 1 4 31 5 32 6 93 7 33 8 92 9 34 10 35 11 36 12
REMARK SMILES IDX 86 13 37 14 91 15 85 16 87 17 38 18 90 19 84 20 83 21 39 23
REMARK SMILES IDX 71 24 51 25 70 26 52 27 55 28 69 29 88 30 53 31 54 32 68 34
REMARK SMILES IDX 89 35 56 36 40 37 41 38 49 39 42 40 48 41 50 42 47 43 43 44
REMARK SMILES IDX 44 45 45 46 46 47 72 48 73 49 81 50 74 51 80 52 82 53 79 54
REMARK SMILES IDX 75 55 76 56 77 57 78 58 57 59 58 60 66 61 59 62 65 63 67 64
REMARK SMILES IDX 64 65 60 66 61 67 62 68 63 69 5 70 6 71 7 72 8 73 9 74 10 75
REMARK SMILES IDX 29 76 26 77 28 78 30 79 27 80 11 81 12 82 13 83 14 84 25 85
REMARK SMILES IDX 15 86 24 87 16 88 17 89 18 90 23 91 19 92 21 93 20 94 22 95
REMARK H PARENT 87 22 55 33
REMARK Flexibility Score: inf
ROOT
ATOM      1  C   UNL A   1      31.981  33.097  26.873  1.00  0.00     0.275 C 
ENDROOT
BRANCH   1   2
ATOM      2  O   UNL A   1      32.836  33.088  28.020  1.00  0.00    -0.458 OA
BRANCH   2   3
ATOM      3  C   UNL A   1      34.086  33.588  28.160  1.00  0.00     0.338 C 
ATOM      4  O   UNL A   1      34.249  34.775  27.871  1.00  0.00    -0.246 OA
BRANCH   3   5
ATOM      5  C   UNL A   1      35.308  32.765  28.479  1.00  0.00     0.060 A 
ATOM      6  C   UNL A   1      36.653  33.081  28.242  1.00  0.00     0.016 A 
ATOM      7  C   UNL A   1      35.045  31.595  29.206  1.00  0.00     0.016 A 
ATOM      8  C   UNL A   1      37.703  32.345  28.827  1.00  0.00     0.010 A 
ATOM      9  C   UNL A   1      36.078  30.911  29.849  1.00  0.00     0.010 A 
ATOM     10  C   UNL A   1      37.427  31.282  29.679  1.00  0.00    -0.014 A 
BRANCH  10  11
ATOM     11  C   UNL A   1      38.467  30.412  30.304  1.00  0.00     0.031 A 
ATOM     12  C   UNL A   1      39.047  30.923  31.586  1.00  0.00     0.074 A 
ATOM     13  C   UNL A   1      38.997  29.308  29.734  1.00  0.00     0.049 A 
ATOM     14  N   UNL A   1      40.142  30.579  32.203  1.00  0.00    -0.248 NA
ATOM     15  C   UNL A   1      38.300  32.020  32.229  1.00  0.00     0.031 C 
ATOM     16  C   UNL A   1      38.498  28.622  28.550  1.00  0.00     0.029 A 
ATOM     17  N   UNL A   1      40.155  28.617  30.032  1.00  0.00    -0.354 N 
ATOM     18  C   UNL A   1      40.178  31.397  33.320  1.00  0.00     0.074 A 
ATOM     19  C   UNL A   1      39.158  32.404  33.151  1.00  0.00     0.031 C 
ATOM     20  C   UNL A   1      39.419  27.739  28.117  1.00  0.00     0.029 A 
ATOM     21  C   UNL A   1      40.556  27.759  29.025  1.00  0.00     0.049 A 
ATOM     22  H   UNL A   1      40.646  28.724  30.879  1.00  0.00     0.167 HD
ATOM     23  C   UNL A   1      40.891  31.231  34.458  1.00  0.00     0.034 A 
ATOM     24  C   UNL A   1      41.714  27.089  28.847  1.00  0.00     0.034 A 
ATOM     25  C   UNL A   1      41.892  30.216  34.601  1.00  0.00     0.049 A 
ATOM     26  C   UNL A   1      42.691  27.070  29.994  1.00  0.00     0.074 A 
ATOM     27  C   UNL A   1      42.661  29.902  35.701  1.00  0.00     0.029 A 
ATOM     28  N   UNL A   1      42.280  29.358  33.576  1.00  0.00    -0.354 N 
ATOM     29  N   UNL A   1      42.648  27.752  31.116  1.00  0.00    -0.248 NA
ATOM     30  C   UNL A   1      43.810  26.124  29.907  1.00  0.00     0.031 C 
ATOM     31  C   UNL A   1      43.567  28.904  35.320  1.00  0.00     0.029 A 
ATOM     32  C   UNL A   1      43.310  28.544  34.005  1.00  0.00     0.049 A 
ATOM     33  H   UNL A   1      41.879  29.336  32.677  1.00  0.00     0.167 HD
ATOM     34  C   UNL A   1      43.666  27.238  31.912  1.00  0.00     0.074 A 
ATOM     35  C   UNL A   1      44.346  26.235  31.116  1.00  0.00     0.031 C 
ATOM     36  C   UNL A   1      43.963  27.532  33.203  1.00  0.00     0.034 A 
BRANCH  23  37
ATOM     37  C   UNL A   1      40.545  32.174  35.580  1.00  0.00     0.023 A 
ATOM     38  C   UNL A   1      39.583  31.809  36.548  1.00  0.00     0.031 A 
ATOM     39  C   UNL A   1      41.003  33.498  35.570  1.00  0.00     0.131 A 
ATOM     40  C   UNL A   1      38.982  32.797  37.337  1.00  0.00     0.055 A 
ATOM     41  C   UNL A   1      40.487  34.451  36.450  1.00  0.00     0.041 A 
ATOM     42  F   UNL A   1      41.902  33.903  34.661  1.00  0.00    -0.206 F 
ATOM     43  C   UNL A   1      39.445  34.113  37.314  1.00  0.00     0.022 A 
BRANCH  40  44
ATOM     44  S   UNL A   1      37.420  32.394  38.176  1.00  0.00     0.124 S 
ATOM     45  O   UNL A   1      36.458  33.175  37.403  1.00  0.00    -0.237 OA
ATOM     46  O   UNL A   1      37.339  30.944  38.015  1.00  0.00    -0.237 OA
ATOM     47  O   UNL A   1      37.636  32.859  39.542  1.00  0.00    -0.744 OA
ENDBRANCH  40  44
ENDBRANCH  23  37
BRANCH  24  48
ATOM     48  C   UNL A   1      42.018  26.368  27.573  1.00  0.00     0.023 A 
ATOM     49  C   UNL A   1      41.844  24.981  27.439  1.00  0.00     0.031 A 
ATOM     50  C   UNL A   1      42.554  27.070  26.476  1.00  0.00     0.131 A 
ATOM     51  C   UNL A   1      42.234  24.332  26.251  1.00  0.00     0.055 A 
ATOM     52  C   UNL A   1      42.918  26.424  25.288  1.00  0.00     0.041 A 
ATOM     53  F   UNL A   1      42.752  28.395  26.550  1.00  0.00    -0.206 F 
ATOM     54  C   UNL A   1      42.767  25.045  25.175  1.00  0.00     0.022 A 
BRANCH  51  55
ATOM     55  S   UNL A   1      42.082  22.525  26.148  1.00  0.00     0.124 S 
ATOM     56  O   UNL A   1      42.735  22.240  24.875  1.00  0.00    -0.237 OA
ATOM     57  O   UNL A   1      42.796  22.094  27.346  1.00  0.00    -0.237 OA
ATOM     58  O   UNL A   1      40.638  22.298  26.173  1.00  0.00    -0.744 OA
ENDBRANCH  51  55
ENDBRANCH  24  48
BRANCH  36  59
ATOM     59  C   UNL A   1      45.002  26.689  33.887  1.00  0.00     0.023 A 
ATOM     60  C   UNL A   1      44.683  25.480  34.522  1.00  0.00     0.031 A 
ATOM     61  C   UNL A   1      46.353  27.081  33.829  1.00  0.00     0.131 A 
ATOM     62  C   UNL A   1      45.707  24.708  35.089  1.00  0.00     0.055 A 
ATOM     63  C   UNL A   1      47.370  26.279  34.341  1.00  0.00     0.041 A 
ATOM     64  F   UNL A   1      46.705  28.233  33.237  1.00  0.00    -0.206 F 
ATOM     65  C   UNL A   1      47.049  25.086  34.978  1.00  0.00     0.022 A 
BRANCH  62  66
ATOM     66  S   UNL A   1      45.260  23.213  36.009  1.00  0.00     0.124 S 
ATOM     67  O   UNL A   1      43.981  22.857  35.403  1.00  0.00    -0.237 OA
ATOM     68  O   UNL A   1      46.375  22.318  35.716  1.00  0.00    -0.237 OA
ATOM     69  O   UNL A   1      45.183  23.672  37.394  1.00  0.00    -0.744 OA
ENDBRANCH  62  66
ENDBRANCH  36  59
ENDBRANCH  10  11
ENDBRANCH   3   5
ENDBRANCH   2   3
ENDBRANCH   1   2
BRANCH   1  70
ATOM     70  C   UNL A   1      31.396  31.729  26.508  1.00  0.00     0.274 C 
BRANCH  70  71
ATOM     71  O   UNL A   1      32.356  30.656  26.438  1.00  0.00    -0.462 OA
BRANCH  71  72
ATOM     72  C   UNL A   1      31.887  29.377  26.403  1.00  0.00     0.312 C 
ATOM     73  O   UNL A   1      31.624  28.718  27.404  1.00  0.00    -0.252 OA
BRANCH  72  74
ATOM     74  C   UNL A   1      31.789  28.772  24.996  1.00  0.00     0.143 C 
ATOM     75  C   UNL A   1      31.868  27.243  24.983  1.00  0.00     0.124 C 
ATOM     76  C   UNL A   1      33.000  29.155  24.184  1.00  0.00     0.133 C 
ATOM     77  C   UNL A   1      33.158  27.010  24.190  1.00  0.00     0.132 C 
ATOM     78  C   UNL A   1      32.842  28.825  22.705  1.00  0.00     0.036 C 
ATOM     79  O   UNL A   1      33.924  28.149  24.625  1.00  0.00    -0.373 OA
ATOM     80  C   UNL A   1      33.079  27.321  22.697  1.00  0.00     0.035 C 
BRANCH  75  81
ATOM     81  C   UNL A   1      30.793  26.342  24.400  1.00  0.00     0.229 C 
ATOM     82  O   UNL A   1      30.090  26.741  23.468  1.00  0.00    -0.274 OA
ATOM     83  N   UNL A   1      30.797  25.004  24.709  1.00  0.00    -0.339 N 
ATOM     84  C   UNL A   1      30.713  24.086  23.565  1.00  0.00     0.141 C 
ATOM     85  C   UNL A   1      31.353  24.380  25.902  1.00  0.00     0.141 C 
ATOM     86  C   UNL A   1      32.148  23.616  23.217  1.00  0.00     0.138 C 
ATOM     87  C   UNL A   1      32.778  23.887  25.623  1.00  0.00     0.138 C 
ATOM     88  N   UNL A   1      32.801  23.043  24.419  1.00  0.00    -0.368 N 
BRANCH  88  89
ATOM     89  C   UNL A   1      32.774  21.666  24.562  1.00  0.00     0.038 A 
ATOM     90  C   UNL A   1      33.037  21.024  25.779  1.00  0.00     0.026 A 
ATOM     91  C   UNL A   1      32.491  20.877  23.444  1.00  0.00     0.046 A 
ATOM     92  C   UNL A   1      33.014  19.635  25.886  1.00  0.00     0.004 A 
ATOM     93  C   UNL A   1      32.490  19.489  23.541  1.00  0.00     0.043 A 
ATOM     94  C   UNL A   1      32.745  18.864  24.761  1.00  0.00     0.020 A 
ATOM     95  Cl  UNL A   1      32.189  18.537  22.141  1.00  0.00    -0.084 Cl
ENDBRANCH  88  89
ENDBRANCH  75  81
ENDBRANCH  72  74
ENDBRANCH  71  72
ENDBRANCH  70  71
ENDBRANCH   1  70
TORSDOF 16
ENDMDL
