MODEL 1
REMARK VINA RESULT:     -12.5      0.000      0.000
REMARK SMILES Cc1c(N[C@@H]2CC[C@@H]([NH3+])C2)cccc1C(=O)OCCOC(=O)c1ccc(-c2c3nc(c(-c4cc(S(=O)(=O)[O-])ccc4F)c4ccc([nH]4)c(-c4cc(S(=O)(=O)[O-])ccc4F)c4nc(c(-c5cc(S(=O)(=O)[O-])ccc5F)c5ccc2[nH]5)C=C4)C=C3)cc1
REMARK SMILES IDX 18 1 17 2 15 3 16 4 14 5 1 6 2 7 3 8 11 9 13 10 12 11 4 12
REMARK SMILES IDX 5 14 6 15 10 16 7 17 8 18 9 19 19 23 20 24 21 25 22 26 23 27
REMARK SMILES IDX 24 28 85 29 25 30 84 31 26 32 27 33 28 34 78 35 29 36 83 37
REMARK SMILES IDX 77 38 79 39 30 40 82 41 76 42 75 43 31 45 63 46 43 47 62 48
REMARK SMILES IDX 44 49 47 50 61 51 80 52 45 53 46 54 60 56 81 57 48 58 32 59
REMARK SMILES IDX 33 60 41 61 34 62 40 63 42 64 39 65 35 66 36 67 37 68 38 69
REMARK SMILES IDX 64 70 65 71 73 72 66 73 72 74 74 75 71 76 67 77 68 78 69 79
REMARK SMILES IDX 70 80 49 81 50 82 58 83 51 84 57 85 59 86 56 87 52 88 53 89
REMARK SMILES IDX 54 90 55 91
REMARK H PARENT 4 13 9 20 9 21 9 22 79 44 47 55
REMARK Flexibility Score: inf
ROOT
ATOM      1  C   UNL A   1      31.627  30.857  26.588  1.00  0.00     0.275 C 
ENDROOT
BRANCH   1   2
ATOM      2  O   UNL A   1      31.898  29.453  26.479  1.00  0.00    -0.458 OA
BRANCH   2   3
ATOM      3  C   UNL A   1      32.229  29.101  25.212  1.00  0.00     0.338 C 
ATOM      4  O   UNL A   1      33.164  29.566  24.575  1.00  0.00    -0.246 OA
BRANCH   3   5
ATOM      5  C   UNL A   1      31.295  28.144  24.585  1.00  0.00     0.065 A 
ATOM      6  C   UNL A   1      32.472  26.282  25.855  1.00  0.00     0.047 C 
ATOM      7  C   UNL A   1      31.317  26.807  25.031  1.00  0.00    -0.013 A 
ATOM      8  C   UNL A   1      30.269  25.932  24.668  1.00  0.00     0.038 A 
ATOM      9  C   UNL A   1      29.230  26.431  23.873  1.00  0.00     0.026 A 
ATOM     10  C   UNL A   1      30.301  28.580  23.705  1.00  0.00     0.016 A 
ATOM     11  C   UNL A   1      29.245  27.735  23.381  1.00  0.00     0.003 A 
BRANCH   8  12
ATOM     12  N   UNL A   1      30.357  24.606  25.040  1.00  0.00    -0.382 N 
ATOM     13  H   UNL A   1      29.981  24.385  25.923  1.00  0.00     0.160 HD
BRANCH  12  14
ATOM     14  C   UNL A   1      30.924  23.496  24.310  1.00  0.00     0.085 C 
ATOM     15  C   UNL A   1      31.937  22.635  25.077  1.00  0.00     0.031 C 
ATOM     16  C   UNL A   1      31.592  23.918  23.007  1.00  0.00     0.089 C 
ATOM     17  C   UNL A   1      33.127  22.479  24.128  1.00  0.00     0.067 C 
ATOM     18  C   UNL A   1      32.581  22.788  22.732  1.00  0.00     0.182 C 
BRANCH  18  19
ATOM     19  N   UNL A   1      31.923  21.612  22.154  1.00  0.00    -0.355 N 
ATOM     20  H   UNL A   1      31.386  21.134  22.877  1.00  0.00     0.344 HD
ATOM     21  H   UNL A   1      32.628  20.977  21.780  1.00  0.00     0.344 HD
ATOM     22  H   UNL A   1      31.298  21.907  21.404  1.00  0.00     0.344 HD
ENDBRANCH  18  19
ENDBRANCH  12  14
ENDBRANCH   8  12
ENDBRANCH   3   5
ENDBRANCH   2   3
ENDBRANCH   1   2
BRANCH   1  23
ATOM     23  C   UNL A   1      32.726  31.651  27.307  1.00  0.00     0.275 C 
BRANCH  23  24
ATOM     24  O   UNL A   1      32.762  33.102  27.272  1.00  0.00    -0.458 OA
BRANCH  24  25
ATOM     25  C   UNL A   1      33.072  33.851  28.355  1.00  0.00     0.338 C 
ATOM     26  O   UNL A   1      32.290  34.657  28.858  1.00  0.00    -0.246 OA
BRANCH  25  27
ATOM     27  C   UNL A   1      34.372  33.495  28.968  1.00  0.00     0.060 A 
ATOM     28  C   UNL A   1      34.492  32.285  29.675  1.00  0.00     0.016 A 
ATOM     29  C   UNL A   1      35.501  34.229  28.622  1.00  0.00     0.016 A 
ATOM     30  C   UNL A   1      35.743  31.739  29.920  1.00  0.00     0.010 A 
ATOM     31  C   UNL A   1      36.725  33.623  28.705  1.00  0.00     0.010 A 
ATOM     32  C   UNL A   1      36.846  32.411  29.403  1.00  0.00    -0.014 A 
BRANCH  32  33
ATOM     33  C   UNL A   1      38.198  32.182  29.867  1.00  0.00     0.031 A 
ATOM     34  C   UNL A   1      38.954  30.987  29.475  1.00  0.00     0.074 A 
ATOM     35  C   UNL A   1      38.634  33.265  30.554  1.00  0.00     0.049 A 
ATOM     36  N   UNL A   1      39.985  30.556  30.105  1.00  0.00    -0.248 NA
ATOM     37  C   UNL A   1      38.593  30.112  28.361  1.00  0.00     0.031 C 
ATOM     38  C   UNL A   1      39.941  33.700  30.997  1.00  0.00     0.029 A 
ATOM     39  N   UNL A   1      37.775  34.193  31.148  1.00  0.00    -0.354 N 
ATOM     40  C   UNL A   1      40.619  29.631  29.297  1.00  0.00     0.074 A 
ATOM     41  C   UNL A   1      39.637  29.273  28.310  1.00  0.00     0.031 C 
ATOM     42  C   UNL A   1      39.771  34.582  32.009  1.00  0.00     0.029 A 
ATOM     43  C   UNL A   1      38.343  34.636  32.325  1.00  0.00     0.049 A 
ATOM     44  H   UNL A   1      36.907  34.484  30.786  1.00  0.00     0.167 HD
ATOM     45  C   UNL A   1      41.959  29.451  29.473  1.00  0.00     0.034 A 
ATOM     46  C   UNL A   1      37.751  34.183  33.473  1.00  0.00     0.034 A 
ATOM     47  C   UNL A   1      42.390  30.253  30.618  1.00  0.00     0.049 A 
ATOM     48  C   UNL A   1      38.673  33.183  34.133  1.00  0.00     0.074 A 
ATOM     49  C   UNL A   1      42.929  31.527  30.696  1.00  0.00     0.029 A 
ATOM     50  N   UNL A   1      41.884  29.952  31.874  1.00  0.00    -0.354 N 
ATOM     51  N   UNL A   1      39.449  32.344  33.492  1.00  0.00    -0.248 NA
ATOM     52  C   UNL A   1      38.901  33.200  35.569  1.00  0.00     0.031 C 
ATOM     53  C   UNL A   1      42.618  32.038  31.987  1.00  0.00     0.029 A 
ATOM     54  C   UNL A   1      41.906  31.072  32.683  1.00  0.00     0.049 A 
ATOM     55  H   UNL A   1      41.556  29.067  32.150  1.00  0.00     0.167 HD
ATOM     56  C   UNL A   1      40.346  31.808  34.382  1.00  0.00     0.074 A 
ATOM     57  C   UNL A   1      39.945  32.364  35.669  1.00  0.00     0.031 C 
ATOM     58  C   UNL A   1      41.394  30.995  34.038  1.00  0.00     0.034 A 
BRANCH  45  59
ATOM     59  C   UNL A   1      42.955  28.845  28.504  1.00  0.00     0.023 A 
ATOM     60  C   UNL A   1      43.932  29.703  27.947  1.00  0.00     0.031 A 
ATOM     61  C   UNL A   1      42.995  27.517  28.038  1.00  0.00     0.131 A 
ATOM     62  C   UNL A   1      44.831  29.273  26.954  1.00  0.00     0.055 A 
ATOM     63  C   UNL A   1      43.890  27.086  27.043  1.00  0.00     0.041 A 
ATOM     64  F   UNL A   1      42.194  26.565  28.528  1.00  0.00    -0.206 F 
ATOM     65  C   UNL A   1      44.809  27.965  26.489  1.00  0.00     0.022 A 
BRANCH  62  66
ATOM     66  S   UNL A   1      46.012  30.466  26.269  1.00  0.00     0.124 S 
ATOM     67  O   UNL A   1      46.479  29.782  25.067  1.00  0.00    -0.237 OA
ATOM     68  O   UNL A   1      45.180  31.645  26.060  1.00  0.00    -0.237 OA
ATOM     69  O   UNL A   1      47.012  30.599  27.328  1.00  0.00    -0.744 OA
ENDBRANCH  62  66
ENDBRANCH  45  59
BRANCH  46  70
ATOM     70  C   UNL A   1      36.241  34.118  33.423  1.00  0.00     0.023 A 
ATOM     71  C   UNL A   1      35.530  35.341  33.306  1.00  0.00     0.031 A 
ATOM     72  C   UNL A   1      35.498  32.946  33.231  1.00  0.00     0.131 A 
ATOM     73  C   UNL A   1      34.194  35.378  32.873  1.00  0.00     0.055 A 
ATOM     74  C   UNL A   1      34.136  32.982  32.864  1.00  0.00     0.041 A 
ATOM     75  F   UNL A   1      36.080  31.742  33.310  1.00  0.00    -0.206 F 
ATOM     76  C   UNL A   1      33.485  34.200  32.651  1.00  0.00     0.022 A 
BRANCH  73  77
ATOM     77  S   UNL A   1      33.495  36.980  32.359  1.00  0.00     0.124 S 
ATOM     78  O   UNL A   1      32.128  36.894  32.864  1.00  0.00    -0.237 OA
ATOM     79  O   UNL A   1      34.367  37.937  33.037  1.00  0.00    -0.237 OA
ATOM     80  O   UNL A   1      33.630  36.962  30.906  1.00  0.00    -0.744 OA
ENDBRANCH  73  77
ENDBRANCH  46  70
BRANCH  58  81
ATOM     81  C   UNL A   1      42.106  30.098  35.018  1.00  0.00     0.023 A 
ATOM     82  C   UNL A   1      41.785  28.746  35.136  1.00  0.00     0.031 A 
ATOM     83  C   UNL A   1      43.203  30.542  35.796  1.00  0.00     0.131 A 
ATOM     84  C   UNL A   1      42.400  27.938  36.096  1.00  0.00     0.055 A 
ATOM     85  C   UNL A   1      43.917  29.695  36.645  1.00  0.00     0.041 A 
ATOM     86  F   UNL A   1      43.641  31.809  35.760  1.00  0.00    -0.206 F 
ATOM     87  C   UNL A   1      43.492  28.388  36.828  1.00  0.00     0.022 A 
BRANCH  84  88
ATOM     88  S   UNL A   1      41.615  26.353  36.452  1.00  0.00     0.124 S 
ATOM     89  O   UNL A   1      40.910  26.086  35.200  1.00  0.00    -0.237 OA
ATOM     90  O   UNL A   1      42.757  25.489  36.729  1.00  0.00    -0.237 OA
ATOM     91  O   UNL A   1      40.759  26.645  37.598  1.00  0.00    -0.744 OA
ENDBRANCH  84  88
ENDBRANCH  58  81
ENDBRANCH  32  33
ENDBRANCH  25  27
ENDBRANCH  24  25
ENDBRANCH  23  24
ENDBRANCH   1  23
TORSDOF 17
ENDMDL
MODEL 2
REMARK VINA RESULT:     -12.3      3.690      9.672
REMARK SMILES Cc1c(N[C@@H]2CC[C@@H]([NH3+])C2)cccc1C(=O)OCCOC(=O)c1ccc(-c2c3nc(c(-c4cc(S(=O)(=O)[O-])ccc4F)c4ccc([nH]4)c(-c4cc(S(=O)(=O)[O-])ccc4F)c4nc(c(-c5cc(S(=O)(=O)[O-])ccc5F)c5ccc2[nH]5)C=C4)C=C3)cc1
REMARK SMILES IDX 18 1 17 2 15 3 16 4 14 5 1 6 2 7 3 8 11 9 13 10 12 11 4 12
REMARK SMILES IDX 5 14 6 15 10 16 7 17 8 18 9 19 19 23 20 24 21 25 22 26 23 27
REMARK SMILES IDX 24 28 85 29 25 30 84 31 26 32 27 33 28 34 78 35 29 36 83 37
REMARK SMILES IDX 77 38 79 39 30 40 82 41 76 42 75 43 31 45 63 46 43 47 62 48
REMARK SMILES IDX 44 49 47 50 61 51 80 52 45 53 46 54 60 56 81 57 48 58 32 59
REMARK SMILES IDX 33 60 41 61 34 62 40 63 42 64 39 65 35 66 36 67 37 68 38 69
REMARK SMILES IDX 64 70 65 71 73 72 66 73 72 74 74 75 71 76 67 77 68 78 69 79
REMARK SMILES IDX 70 80 49 81 50 82 58 83 51 84 57 85 59 86 56 87 52 88 53 89
REMARK SMILES IDX 54 90 55 91
REMARK H PARENT 4 13 9 20 9 21 9 22 79 44 47 55
REMARK Flexibility Score: inf
ROOT
ATOM      1  C   UNL A   1      36.743  22.004  25.754  1.00  0.00     0.275 C 
ENDROOT
BRANCH   1   2
ATOM      2  O   UNL A   1      35.650  21.791  24.850  1.00  0.00    -0.458 OA
BRANCH   2   3
ATOM      3  C   UNL A   1      34.467  21.694  25.506  1.00  0.00     0.338 C 
ATOM      4  O   UNL A   1      34.301  21.122  26.575  1.00  0.00    -0.246 OA
BRANCH   3   5
ATOM      5  C   UNL A   1      33.319  22.269  24.776  1.00  0.00     0.065 A 
ATOM      6  C   UNL A   1      33.654  24.417  26.096  1.00  0.00     0.047 C 
ATOM      7  C   UNL A   1      33.040  23.640  24.952  1.00  0.00    -0.013 A 
ATOM      8  C   UNL A   1      32.144  24.288  24.074  1.00  0.00     0.038 A 
ATOM      9  C   UNL A   1      31.559  23.539  23.045  1.00  0.00     0.026 A 
ATOM     10  C   UNL A   1      32.639  21.527  23.808  1.00  0.00     0.016 A 
ATOM     11  C   UNL A   1      31.788  22.169  22.915  1.00  0.00     0.003 A 
BRANCH   8  12
ATOM     12  N   UNL A   1      31.817  25.607  24.319  1.00  0.00    -0.382 N 
ATOM     13  H   UNL A   1      31.422  25.790  25.202  1.00  0.00     0.160 HD
BRANCH  12  14
ATOM     14  C   UNL A   1      31.975  26.754  23.457  1.00  0.00     0.085 C 
ATOM     15  C   UNL A   1      33.250  26.782  22.603  1.00  0.00     0.031 C 
ATOM     16  C   UNL A   1      31.911  28.079  24.208  1.00  0.00     0.089 C 
ATOM     17  C   UNL A   1      33.825  28.186  22.791  1.00  0.00     0.067 C 
ATOM     18  C   UNL A   1      32.661  29.043  23.292  1.00  0.00     0.182 C 
BRANCH  18  19
ATOM     19  N   UNL A   1      31.827  29.499  22.176  1.00  0.00    -0.355 N 
ATOM     20  H   UNL A   1      32.324  29.350  21.298  1.00  0.00     0.344 HD
ATOM     21  H   UNL A   1      31.623  30.492  22.286  1.00  0.00     0.344 HD
ATOM     22  H   UNL A   1      30.953  28.971  22.167  1.00  0.00     0.344 HD
ENDBRANCH  18  19
ENDBRANCH  12  14
ENDBRANCH   8  12
ENDBRANCH   3   5
ENDBRANCH   2   3
ENDBRANCH   1   2
BRANCH   1  23
ATOM     23  C   UNL A   1      37.267  23.445  25.773  1.00  0.00     0.275 C 
BRANCH  23  24
ATOM     24  O   UNL A   1      38.685  23.740  25.666  1.00  0.00    -0.458 OA
BRANCH  24  25
ATOM     25  C   UNL A   1      39.533  23.639  26.716  1.00  0.00     0.338 C 
ATOM     26  O   UNL A   1      40.136  22.604  26.992  1.00  0.00    -0.246 OA
BRANCH  25  27
ATOM     27  C   UNL A   1      39.785  24.928  27.399  1.00  0.00     0.060 A 
ATOM     28  C   UNL A   1      40.277  26.017  26.657  1.00  0.00     0.016 A 
ATOM     29  C   UNL A   1      39.296  25.112  28.688  1.00  0.00     0.016 A 
ATOM     30  C   UNL A   1      40.158  27.309  27.148  1.00  0.00     0.010 A 
ATOM     31  C   UNL A   1      39.020  26.385  29.107  1.00  0.00     0.010 A 
ATOM     32  C   UNL A   1      39.502  27.473  28.364  1.00  0.00    -0.014 A 
BRANCH  32  33
ATOM     33  C   UNL A   1      39.616  28.673  29.166  1.00  0.00     0.031 A 
ATOM     34  C   UNL A   1      38.656  29.776  29.042  1.00  0.00     0.074 A 
ATOM     35  C   UNL A   1      40.611  28.524  30.072  1.00  0.00     0.049 A 
ATOM     36  N   UNL A   1      38.885  30.971  29.446  1.00  0.00    -0.248 NA
ATOM     37  C   UNL A   1      37.351  29.662  28.393  1.00  0.00     0.031 C 
ATOM     38  C   UNL A   1      40.987  29.253  31.264  1.00  0.00     0.029 A 
ATOM     39  N   UNL A   1      41.660  27.614  29.917  1.00  0.00    -0.354 N 
ATOM     40  C   UNL A   1      37.680  31.649  29.467  1.00  0.00     0.074 A 
ATOM     41  C   UNL A   1      36.798  30.854  28.656  1.00  0.00     0.031 C 
ATOM     42  C   UNL A   1      42.284  28.982  31.534  1.00  0.00     0.029 A 
ATOM     43  C   UNL A   1      42.811  28.167  30.438  1.00  0.00     0.049 A 
ATOM     44  H   UNL A   1      41.589  26.723  29.503  1.00  0.00     0.167 HD
ATOM     45  C   UNL A   1      37.556  32.691  30.338  1.00  0.00     0.034 A 
ATOM     46  C   UNL A   1      43.747  28.556  29.518  1.00  0.00     0.034 A 
ATOM     47  C   UNL A   1      38.848  32.910  30.989  1.00  0.00     0.049 A 
ATOM     48  C   UNL A   1      43.786  30.067  29.474  1.00  0.00     0.074 A 
ATOM     49  C   UNL A   1      39.359  32.452  32.192  1.00  0.00     0.029 A 
ATOM     50  N   UNL A   1      39.931  33.298  30.213  1.00  0.00    -0.354 N 
ATOM     51  N   UNL A   1      42.745  30.847  29.631  1.00  0.00    -0.248 NA
ATOM     52  C   UNL A   1      45.048  30.789  29.425  1.00  0.00     0.031 C 
ATOM     53  C   UNL A   1      40.777  32.448  32.073  1.00  0.00     0.029 A 
ATOM     54  C   UNL A   1      41.115  32.912  30.810  1.00  0.00     0.049 A 
ATOM     55  H   UNL A   1      39.865  33.782  29.358  1.00  0.00     0.167 HD
ATOM     56  C   UNL A   1      43.185  32.132  29.825  1.00  0.00     0.074 A 
ATOM     57  C   UNL A   1      44.631  32.041  29.668  1.00  0.00     0.031 C 
ATOM     58  C   UNL A   1      42.379  33.190  30.156  1.00  0.00     0.034 A 
BRANCH  45  59
ATOM     59  C   UNL A   1      36.283  33.324  30.861  1.00  0.00     0.023 A 
ATOM     60  C   UNL A   1      35.458  34.001  29.932  1.00  0.00     0.031 A 
ATOM     61  C   UNL A   1      35.836  33.370  32.196  1.00  0.00     0.131 A 
ATOM     62  C   UNL A   1      34.314  34.720  30.327  1.00  0.00     0.055 A 
ATOM     63  C   UNL A   1      34.696  34.090  32.594  1.00  0.00     0.041 A 
ATOM     64  F   UNL A   1      36.458  32.710  33.179  1.00  0.00    -0.206 F 
ATOM     65  C   UNL A   1      33.932  34.777  31.661  1.00  0.00     0.022 A 
BRANCH  62  66
ATOM     66  S   UNL A   1      33.353  35.595  29.064  1.00  0.00     0.124 S 
ATOM     67  O   UNL A   1      32.570  36.531  29.864  1.00  0.00    -0.237 OA
ATOM     68  O   UNL A   1      34.395  36.175  28.224  1.00  0.00    -0.237 OA
ATOM     69  O   UNL A   1      32.576  34.528  28.431  1.00  0.00    -0.744 OA
ENDBRANCH  62  66
ENDBRANCH  45  59
BRANCH  46  70
ATOM     70  C   UNL A   1      43.909  27.617  28.344  1.00  0.00     0.023 A 
ATOM     71  C   UNL A   1      44.068  26.234  28.620  1.00  0.00     0.031 A 
ATOM     72  C   UNL A   1      43.666  27.961  27.007  1.00  0.00     0.131 A 
ATOM     73  C   UNL A   1      43.844  25.256  27.637  1.00  0.00     0.055 A 
ATOM     74  C   UNL A   1      43.510  26.979  26.005  1.00  0.00     0.041 A 
ATOM     75  F   UNL A   1      43.492  29.240  26.647  1.00  0.00    -0.206 F 
ATOM     76  C   UNL A   1      43.566  25.620  26.322  1.00  0.00     0.022 A 
BRANCH  73  77
ATOM     77  S   UNL A   1      43.664  23.522  28.166  1.00  0.00     0.124 S 
ATOM     78  O   UNL A   1      42.561  23.605  29.117  1.00  0.00    -0.237 OA
ATOM     79  O   UNL A   1      43.372  22.836  26.908  1.00  0.00    -0.237 OA
ATOM     80  O   UNL A   1      44.966  23.202  28.740  1.00  0.00    -0.744 OA
ENDBRANCH  73  77
ENDBRANCH  46  70
BRANCH  58  81
ATOM     81  C   UNL A   1      42.781  34.631  29.968  1.00  0.00     0.023 A 
ATOM     82  C   UNL A   1      42.530  35.308  28.774  1.00  0.00     0.031 A 
ATOM     83  C   UNL A   1      43.335  35.409  31.013  1.00  0.00     0.131 A 
ATOM     84  C   UNL A   1      42.968  36.620  28.581  1.00  0.00     0.055 A 
ATOM     85  C   UNL A   1      43.632  36.765  30.867  1.00  0.00     0.041 A 
ATOM     86  F   UNL A   1      43.599  34.897  32.224  1.00  0.00    -0.206 F 
ATOM     87  C   UNL A   1      43.484  37.372  29.630  1.00  0.00     0.022 A 
BRANCH  84  88
ATOM     88  S   UNL A   1      42.982  37.235  26.885  1.00  0.00     0.124 S 
ATOM     89  O   UNL A   1      44.332  37.786  26.784  1.00  0.00    -0.237 OA
ATOM     90  O   UNL A   1      42.735  36.026  26.107  1.00  0.00    -0.237 OA
ATOM     91  O   UNL A   1      41.906  38.222  26.869  1.00  0.00    -0.744 OA
ENDBRANCH  84  88
ENDBRANCH  58  81
ENDBRANCH  32  33
ENDBRANCH  25  27
ENDBRANCH  24  25
ENDBRANCH  23  24
ENDBRANCH   1  23
TORSDOF 17
ENDMDL
MODEL 3
REMARK VINA RESULT:     -12.3      4.157      5.517
REMARK SMILES Cc1c(N[C@@H]2CC[C@@H]([NH3+])C2)cccc1C(=O)OCCOC(=O)c1ccc(-c2c3nc(c(-c4cc(S(=O)(=O)[O-])ccc4F)c4ccc([nH]4)c(-c4cc(S(=O)(=O)[O-])ccc4F)c4nc(c(-c5cc(S(=O)(=O)[O-])ccc5F)c5ccc2[nH]5)C=C4)C=C3)cc1
REMARK SMILES IDX 18 1 17 2 15 3 16 4 14 5 1 6 2 7 3 8 11 9 13 10 12 11 4 12
REMARK SMILES IDX 5 14 6 15 10 16 7 17 8 18 9 19 19 23 20 24 21 25 22 26 23 27
REMARK SMILES IDX 24 28 85 29 25 30 84 31 26 32 27 33 28 34 78 35 29 36 83 37
REMARK SMILES IDX 77 38 79 39 30 40 82 41 76 42 75 43 31 45 63 46 43 47 62 48
REMARK SMILES IDX 44 49 47 50 61 51 80 52 45 53 46 54 60 56 81 57 48 58 32 59
REMARK SMILES IDX 33 60 41 61 34 62 40 63 42 64 39 65 35 66 36 67 37 68 38 69
REMARK SMILES IDX 64 70 65 71 73 72 66 73 72 74 74 75 71 76 67 77 68 78 69 79
REMARK SMILES IDX 70 80 49 81 50 82 58 83 51 84 57 85 59 86 56 87 52 88 53 89
REMARK SMILES IDX 54 90 55 91
REMARK H PARENT 4 13 9 20 9 21 9 22 79 44 47 55
REMARK Flexibility Score: inf
ROOT
ATOM      1  C   UNL A   1      32.508  28.794  26.870  1.00  0.00     0.275 C 
ENDROOT
BRANCH   1   2
ATOM      2  O   UNL A   1      32.031  29.426  25.675  1.00  0.00    -0.458 OA
BRANCH   2   3
ATOM      3  C   UNL A   1      32.491  28.806  24.560  1.00  0.00     0.338 C 
ATOM      4  O   UNL A   1      33.395  29.220  23.848  1.00  0.00    -0.246 OA
BRANCH   3   5
ATOM      5  C   UNL A   1      31.741  27.588  24.191  1.00  0.00     0.065 A 
ATOM      6  C   UNL A   1      33.928  26.297  24.306  1.00  0.00     0.047 C 
ATOM      7  C   UNL A   1      32.418  26.353  24.232  1.00  0.00    -0.013 A 
ATOM      8  C   UNL A   1      31.681  25.150  24.162  1.00  0.00     0.038 A 
ATOM      9  C   UNL A   1      30.287  25.227  24.057  1.00  0.00     0.026 A 
ATOM     10  C   UNL A   1      30.361  27.632  23.977  1.00  0.00     0.016 A 
ATOM     11  C   UNL A   1      29.627  26.452  23.951  1.00  0.00     0.003 A 
BRANCH   8  12
ATOM     12  N   UNL A   1      32.370  23.955  24.114  1.00  0.00    -0.382 N 
ATOM     13  H   UNL A   1      32.851  23.774  23.274  1.00  0.00     0.160 HD
BRANCH  12  14
ATOM     14  C   UNL A   1      32.483  22.933  25.128  1.00  0.00     0.085 C 
ATOM     15  C   UNL A   1      31.486  23.028  26.291  1.00  0.00     0.031 C 
ATOM     16  C   UNL A   1      33.876  22.848  25.738  1.00  0.00     0.089 C 
ATOM     17  C   UNL A   1      32.333  22.868  27.555  1.00  0.00     0.067 C 
ATOM     18  C   UNL A   1      33.630  22.198  27.098  1.00  0.00     0.182 C 
BRANCH  18  19
ATOM     19  N   UNL A   1      33.460  20.746  26.988  1.00  0.00    -0.355 N 
ATOM     20  H   UNL A   1      34.059  20.281  27.669  1.00  0.00     0.344 HD
ATOM     21  H   UNL A   1      33.715  20.444  26.048  1.00  0.00     0.344 HD
ATOM     22  H   UNL A   1      32.485  20.504  27.170  1.00  0.00     0.344 HD
ENDBRANCH  18  19
ENDBRANCH  12  14
ENDBRANCH   8  12
ENDBRANCH   3   5
ENDBRANCH   2   3
ENDBRANCH   1   2
BRANCH   1  23
ATOM     23  C   UNL A   1      34.011  28.978  27.118  1.00  0.00     0.275 C 
BRANCH  23  24
ATOM     24  O   UNL A   1      34.610  30.298  27.210  1.00  0.00    -0.458 OA
BRANCH  24  25
ATOM     25  C   UNL A   1      35.206  30.752  28.338  1.00  0.00     0.338 C 
ATOM     26  O   UNL A   1      34.630  31.467  29.157  1.00  0.00    -0.246 OA
BRANCH  25  27
ATOM     27  C   UNL A   1      36.552  30.181  28.568  1.00  0.00     0.060 A 
ATOM     28  C   UNL A   1      36.773  29.372  29.697  1.00  0.00     0.016 A 
ATOM     29  C   UNL A   1      37.491  30.241  27.544  1.00  0.00     0.016 A 
ATOM     30  C   UNL A   1      37.868  28.522  29.745  1.00  0.00     0.010 A 
ATOM     31  C   UNL A   1      38.475  29.291  27.503  1.00  0.00     0.010 A 
ATOM     32  C   UNL A   1      38.692  28.477  28.625  1.00  0.00    -0.014 A 
BRANCH  32  33
ATOM     33  C   UNL A   1      40.036  27.938  28.655  1.00  0.00     0.031 A 
ATOM     34  C   UNL A   1      40.306  26.528  28.352  1.00  0.00     0.074 A 
ATOM     35  C   UNL A   1      40.925  28.939  28.858  1.00  0.00     0.049 A 
ATOM     36  N   UNL A   1      41.383  25.918  28.691  1.00  0.00    -0.248 NA
ATOM     37  C   UNL A   1      39.363  25.633  27.684  1.00  0.00     0.031 C 
ATOM     38  C   UNL A   1      42.361  29.036  28.715  1.00  0.00     0.029 A 
ATOM     39  N   UNL A   1      40.584  30.160  29.446  1.00  0.00    -0.354 N 
ATOM     40  C   UNL A   1      41.439  24.733  27.982  1.00  0.00     0.074 A 
ATOM     41  C   UNL A   1      40.099  24.528  27.504  1.00  0.00     0.031 C 
ATOM     42  C   UNL A   1      42.791  30.077  29.465  1.00  0.00     0.029 A 
ATOM     43  C   UNL A   1      41.645  30.596  30.213  1.00  0.00     0.049 A 
ATOM     44  H   UNL A   1      39.727  30.632  29.333  1.00  0.00     0.167 HD
ATOM     45  C   UNL A   1      42.670  24.198  27.742  1.00  0.00     0.034 A 
ATOM     46  C   UNL A   1      41.463  30.523  31.568  1.00  0.00     0.034 A 
ATOM     47  C   UNL A   1      43.673  25.008  28.433  1.00  0.00     0.049 A 
ATOM     48  C   UNL A   1      42.332  29.413  32.115  1.00  0.00     0.074 A 
ATOM     49  C   UNL A   1      44.458  26.064  28.001  1.00  0.00     0.029 A 
ATOM     50  N   UNL A   1      43.642  25.070  29.819  1.00  0.00    -0.354 N 
ATOM     51  N   UNL A   1      42.600  28.294  31.489  1.00  0.00    -0.248 NA
ATOM     52  C   UNL A   1      43.098  29.588  33.340  1.00  0.00     0.031 C 
ATOM     53  C   UNL A   1      44.790  26.840  29.146  1.00  0.00     0.029 A 
ATOM     54  C   UNL A   1      44.215  26.247  30.262  1.00  0.00     0.049 A 
ATOM     55  H   UNL A   1      43.266  24.375  30.405  1.00  0.00     0.167 HD
ATOM     56  C   UNL A   1      43.634  27.665  32.135  1.00  0.00     0.074 A 
ATOM     57  C   UNL A   1      43.893  28.509  33.296  1.00  0.00     0.031 C 
ATOM     58  C   UNL A   1      44.266  26.538  31.682  1.00  0.00     0.034 A 
BRANCH  45  59
ATOM     59  C   UNL A   1      43.056  23.183  26.685  1.00  0.00     0.023 A 
ATOM     60  C   UNL A   1      42.656  21.841  26.888  1.00  0.00     0.031 A 
ATOM     61  C   UNL A   1      43.827  23.404  25.528  1.00  0.00     0.131 A 
ATOM     62  C   UNL A   1      43.057  20.800  26.032  1.00  0.00     0.055 A 
ATOM     63  C   UNL A   1      44.232  22.364  24.672  1.00  0.00     0.041 A 
ATOM     64  F   UNL A   1      44.212  24.628  25.150  1.00  0.00    -0.206 F 
ATOM     65  C   UNL A   1      43.855  21.053  24.924  1.00  0.00     0.022 A 
BRANCH  62  66
ATOM     66  S   UNL A   1      42.531  19.106  26.410  1.00  0.00     0.124 S 
ATOM     67  O   UNL A   1      43.674  18.319  25.957  1.00  0.00    -0.237 OA
ATOM     68  O   UNL A   1      42.314  19.161  27.851  1.00  0.00    -0.237 OA
ATOM     69  O   UNL A   1      41.316  18.943  25.611  1.00  0.00    -0.744 OA
ENDBRANCH  62  66
ENDBRANCH  45  59
BRANCH  46  70
ATOM     70  C   UNL A   1      40.076  30.896  32.041  1.00  0.00     0.023 A 
ATOM     71  C   UNL A   1      39.522  32.115  31.570  1.00  0.00     0.031 A 
ATOM     72  C   UNL A   1      39.197  30.028  32.702  1.00  0.00     0.131 A 
ATOM     73  C   UNL A   1      38.141  32.369  31.628  1.00  0.00     0.055 A 
ATOM     74  C   UNL A   1      37.820  30.315  32.822  1.00  0.00     0.041 A 
ATOM     75  F   UNL A   1      39.622  28.848  33.175  1.00  0.00    -0.206 F 
ATOM     76  C   UNL A   1      37.280  31.473  32.256  1.00  0.00     0.022 A 
BRANCH  73  77
ATOM     77  S   UNL A   1      37.472  33.748  30.644  1.00  0.00     0.124 S 
ATOM     78  O   UNL A   1      37.774  33.326  29.281  1.00  0.00    -0.237 OA
ATOM     79  O   UNL A   1      36.058  33.744  31.016  1.00  0.00    -0.237 OA
ATOM     80  O   UNL A   1      38.220  34.905  31.124  1.00  0.00    -0.744 OA
ENDBRANCH  73  77
ENDBRANCH  46  70
BRANCH  58  81
ATOM     81  C   UNL A   1      45.094  25.637  32.563  1.00  0.00     0.023 A 
ATOM     82  C   UNL A   1      44.521  24.576  33.265  1.00  0.00     0.031 A 
ATOM     83  C   UNL A   1      46.503  25.746  32.651  1.00  0.00     0.131 A 
ATOM     84  C   UNL A   1      45.281  23.791  34.135  1.00  0.00     0.055 A 
ATOM     85  C   UNL A   1      47.281  24.864  33.402  1.00  0.00     0.041 A 
ATOM     86  F   UNL A   1      47.189  26.699  32.004  1.00  0.00    -0.206 F 
ATOM     87  C   UNL A   1      46.666  23.898  34.183  1.00  0.00     0.022 A 
BRANCH  84  88
ATOM     88  S   UNL A   1      44.375  22.753  35.300  1.00  0.00     0.124 S 
ATOM     89  O   UNL A   1      43.005  23.226  35.111  1.00  0.00    -0.237 OA
ATOM     90  O   UNL A   1      44.651  21.408  34.807  1.00  0.00    -0.237 OA
ATOM     91  O   UNL A   1      44.974  23.083  36.590  1.00  0.00    -0.744 OA
ENDBRANCH  84  88
ENDBRANCH  58  81
ENDBRANCH  32  33
ENDBRANCH  25  27
ENDBRANCH  24  25
ENDBRANCH  23  24
ENDBRANCH   1  23
TORSDOF 17
ENDMDL
