MODEL 1
REMARK VINA RESULT:     -12.7      0.000      0.000
REMARK SMILES CC[C@H]1Sc2ccc(S(=O)(=O)N3CCC(C(=O)OCCOC(=O)c4ccc(-c5c6nc(c(-c7cc(S(=O)(=O)[O-])ccc7F)c7ccc([nH]7)c(-c7cc(S(=O)(=O)[O-])ccc7F)c7nc(c(-c8cc(S(=O)(=O)[O-])ccc8F)c8ccc5[nH]8)C=C7)C=C6)cc4)CC3)cc2NC1=O
REMARK SMILES IDX 19 1 18 2 16 3 17 4 15 5 12 6 13 7 88 8 14 9 87 10 9 11
REMARK SMILES IDX 10 12 11 13 8 14 3 15 4 16 92 17 5 18 91 19 93 20 6 21 90 22
REMARK SMILES IDX 7 24 89 25 2 26 1 27 20 28 21 29 22 30 23 31 24 32 25 33
REMARK SMILES IDX 86 34 26 35 85 36 27 37 28 38 29 39 79 40 30 41 84 42 78 43
REMARK SMILES IDX 80 44 31 45 83 46 77 47 76 48 32 50 64 51 44 52 63 53 45 54
REMARK SMILES IDX 48 55 62 56 81 57 46 58 47 59 61 61 82 62 49 63 33 64 34 65
REMARK SMILES IDX 42 66 35 67 41 68 43 69 40 70 36 71 37 72 38 73 39 74 65 75
REMARK SMILES IDX 66 76 74 77 67 78 73 79 75 80 72 81 68 82 69 83 70 84 71 85
REMARK SMILES IDX 50 86 51 87 59 88 52 89 58 90 60 91 57 92 53 93 54 94 55 95
REMARK SMILES IDX 56 96
REMARK H PARENT 91 23 80 49 48 60
REMARK Flexibility Score: inf
ROOT
ATOM      1  C   UNL A   1      35.150  20.457  25.002  1.00  0.00     0.274 C 
ENDROOT
BRANCH   1   2
ATOM      2  O   UNL A   1      34.794  21.685  25.664  1.00  0.00    -0.462 OA
BRANCH   2   3
ATOM      3  C   UNL A   1      33.502  22.072  25.533  1.00  0.00     0.309 C 
ATOM      4  O   UNL A   1      32.530  21.368  25.787  1.00  0.00    -0.252 OA
BRANCH   3   5
ATOM      5  C   UNL A   1      33.347  23.483  25.013  1.00  0.00     0.102 C 
ATOM      6  N   UNL A   1      33.836  26.074  23.890  1.00  0.00    -0.198 NA
ATOM      7  C   UNL A   1      33.546  25.952  25.343  1.00  0.00     0.103 C 
ATOM      8  C   UNL A   1      33.497  24.935  23.002  1.00  0.00     0.103 C 
ATOM      9  C   UNL A   1      33.939  24.583  25.886  1.00  0.00     0.032 C 
ATOM     10  C   UNL A   1      33.918  23.605  23.610  1.00  0.00     0.032 C 
BRANCH   6  11
ATOM     11  S   UNL A   1      33.669  27.632  23.210  1.00  0.00     0.243 S 
ATOM     12  O   UNL A   1      34.017  27.536  21.807  1.00  0.00    -0.207 OA
ATOM     13  O   UNL A   1      34.349  28.564  24.085  1.00  0.00    -0.207 OA
BRANCH  11  14
ATOM     14  C   UNL A   1      31.941  28.080  23.259  1.00  0.00     0.084 A 
ATOM     15  C   UNL A   1      27.532  30.666  22.420  1.00  0.00     0.141 C 
ATOM     16  S   UNL A   1      27.450  28.960  23.088  1.00  0.00    -0.111 SA
ATOM     17  C   UNL A   1      28.485  31.512  23.260  1.00  0.00     0.237 C 
ATOM     18  C   UNL A   1      29.197  28.636  23.153  1.00  0.00     0.032 A 
ATOM     19  N   UNL A   1      29.713  30.992  23.583  1.00  0.00    -0.324 N 
ATOM     20  O   UNL A   1      28.256  32.687  23.540  1.00  0.00    -0.273 OA
ATOM     21  C   UNL A   1      29.653  27.327  22.985  1.00  0.00     0.018 A 
ATOM     22  C   UNL A   1      30.119  29.663  23.402  1.00  0.00     0.056 A 
ATOM     23  H   UNL A   1      30.370  31.611  23.979  1.00  0.00     0.170 HD
ATOM     24  C   UNL A   1      31.022  27.050  23.023  1.00  0.00     0.023 A 
ATOM     25  C   UNL A   1      31.485  29.381  23.480  1.00  0.00     0.049 A 
BRANCH  15  26
ATOM     26  C   UNL A   1      27.984  30.651  20.947  1.00  0.00     0.021 C 
ATOM     27  C   UNL A   1      27.958  32.043  20.329  1.00  0.00     0.005 C 
ENDBRANCH  15  26
ENDBRANCH  11  14
ENDBRANCH   6  11
ENDBRANCH   3   5
ENDBRANCH   2   3
ENDBRANCH   1   2
BRANCH   1  28
ATOM     28  C   UNL A   1      36.669  20.274  24.941  1.00  0.00     0.275 C 
BRANCH  28  29
ATOM     29  O   UNL A   1      37.369  21.317  25.645  1.00  0.00    -0.458 OA
BRANCH  29  30
ATOM     30  C   UNL A   1      38.670  21.054  25.913  1.00  0.00     0.338 C 
ATOM     31  O   UNL A   1      39.280  20.029  25.660  1.00  0.00    -0.246 OA
BRANCH  30  32
ATOM     32  C   UNL A   1      39.328  22.252  26.457  1.00  0.00     0.060 A 
ATOM     33  C   UNL A   1      38.838  23.501  26.071  1.00  0.00     0.016 A 
ATOM     34  C   UNL A   1      40.476  22.155  27.243  1.00  0.00     0.016 A 
ATOM     35  C   UNL A   1      39.495  24.664  26.461  1.00  0.00     0.010 A 
ATOM     36  C   UNL A   1      41.128  23.327  27.649  1.00  0.00     0.010 A 
ATOM     37  C   UNL A   1      40.648  24.588  27.252  1.00  0.00    -0.014 A 
BRANCH  37  38
ATOM     38  C   UNL A   1      41.356  25.837  27.634  1.00  0.00     0.031 A 
ATOM     39  C   UNL A   1      40.658  26.875  28.468  1.00  0.00     0.074 A 
ATOM     40  C   UNL A   1      42.634  26.021  27.253  1.00  0.00     0.049 A 
ATOM     41  N   UNL A   1      41.072  28.059  28.837  1.00  0.00    -0.248 NA
ATOM     42  C   UNL A   1      39.308  26.534  28.940  1.00  0.00     0.031 C 
ATOM     43  C   UNL A   1      43.429  25.062  26.482  1.00  0.00     0.029 A 
ATOM     44  N   UNL A   1      43.492  27.071  27.461  1.00  0.00    -0.354 N 
ATOM     45  C   UNL A   1      40.031  28.615  29.573  1.00  0.00     0.074 A 
ATOM     46  C   UNL A   1      38.953  27.647  29.565  1.00  0.00     0.031 C 
ATOM     47  C   UNL A   1      44.661  25.564  26.297  1.00  0.00     0.029 A 
ATOM     48  C   UNL A   1      44.725  26.901  26.878  1.00  0.00     0.049 A 
ATOM     49  H   UNL A   1      43.248  27.871  27.981  1.00  0.00     0.167 HD
ATOM     50  C   UNL A   1      39.986  29.818  30.199  1.00  0.00     0.034 A 
ATOM     51  C   UNL A   1      45.777  27.739  26.792  1.00  0.00     0.034 A 
ATOM     52  C   UNL A   1      41.075  30.767  30.196  1.00  0.00     0.049 A 
ATOM     53  C   UNL A   1      45.674  29.101  27.431  1.00  0.00     0.074 A 
ATOM     54  C   UNL A   1      41.139  32.010  30.802  1.00  0.00     0.029 A 
ATOM     55  N   UNL A   1      42.294  30.580  29.552  1.00  0.00    -0.354 N 
ATOM     56  N   UNL A   1      44.674  29.626  28.102  1.00  0.00    -0.248 NA
ATOM     57  C   UNL A   1      46.838  29.984  27.297  1.00  0.00     0.031 C 
ATOM     58  C   UNL A   1      42.361  32.603  30.465  1.00  0.00     0.029 A 
ATOM     59  C   UNL A   1      43.097  31.700  29.716  1.00  0.00     0.049 A 
ATOM     60  H   UNL A   1      42.549  29.771  29.053  1.00  0.00     0.167 HD
ATOM     61  C   UNL A   1      45.102  30.892  28.491  1.00  0.00     0.074 A 
ATOM     62  C   UNL A   1      46.455  31.042  27.995  1.00  0.00     0.031 C 
ATOM     63  C   UNL A   1      44.438  31.844  29.197  1.00  0.00     0.034 A 
BRANCH  50  64
ATOM     64  C   UNL A   1      38.693  30.196  30.884  1.00  0.00     0.023 A 
ATOM     65  C   UNL A   1      37.664  30.874  30.208  1.00  0.00     0.031 A 
ATOM     66  C   UNL A   1      38.500  29.898  32.245  1.00  0.00     0.131 A 
ATOM     67  C   UNL A   1      36.524  31.295  30.911  1.00  0.00     0.055 A 
ATOM     68  C   UNL A   1      37.328  30.248  32.918  1.00  0.00     0.041 A 
ATOM     69  F   UNL A   1      39.456  29.271  32.950  1.00  0.00    -0.206 F 
ATOM     70  C   UNL A   1      36.337  30.965  32.256  1.00  0.00     0.022 A 
BRANCH  67  71
ATOM     71  S   UNL A   1      35.356  32.408  30.080  1.00  0.00     0.124 S 
ATOM     72  O   UNL A   1      34.369  32.640  31.133  1.00  0.00    -0.237 OA
ATOM     73  O   UNL A   1      36.198  33.548  29.733  1.00  0.00    -0.237 OA
ATOM     74  O   UNL A   1      34.875  31.618  28.949  1.00  0.00    -0.744 OA
ENDBRANCH  67  71
ENDBRANCH  50  64
BRANCH  51  75
ATOM     75  C   UNL A   1      46.996  27.344  26.029  1.00  0.00     0.023 A 
ATOM     76  C   UNL A   1      47.180  27.737  24.694  1.00  0.00     0.031 A 
ATOM     77  C   UNL A   1      47.979  26.525  26.616  1.00  0.00     0.131 A 
ATOM     78  C   UNL A   1      48.298  27.279  23.978  1.00  0.00     0.055 A 
ATOM     79  C   UNL A   1      49.117  26.120  25.918  1.00  0.00     0.041 A 
ATOM     80  F   UNL A   1      47.853  26.118  27.889  1.00  0.00    -0.206 F 
ATOM     81  C   UNL A   1      49.275  26.486  24.586  1.00  0.00     0.022 A 
BRANCH  78  82
ATOM     82  S   UNL A   1      48.415  27.661  22.209  1.00  0.00     0.124 S 
ATOM     83  O   UNL A   1      48.494  26.328  21.620  1.00  0.00    -0.237 OA
ATOM     84  O   UNL A   1      47.175  28.394  21.974  1.00  0.00    -0.237 OA
ATOM     85  O   UNL A   1      49.635  28.459  22.113  1.00  0.00    -0.744 OA
ENDBRANCH  78  82
ENDBRANCH  51  75
BRANCH  63  86
ATOM     86  C   UNL A   1      45.193  33.117  29.500  1.00  0.00     0.023 A 
ATOM     87  C   UNL A   1      45.102  34.246  28.668  1.00  0.00     0.031 A 
ATOM     88  C   UNL A   1      46.033  33.190  30.625  1.00  0.00     0.131 A 
ATOM     89  C   UNL A   1      45.887  35.378  28.937  1.00  0.00     0.055 A 
ATOM     90  C   UNL A   1      46.763  34.343  30.923  1.00  0.00     0.041 A 
ATOM     91  F   UNL A   1      46.159  32.142  31.454  1.00  0.00    -0.206 F 
ATOM     92  C   UNL A   1      46.704  35.440  30.069  1.00  0.00     0.022 A 
BRANCH  89  93
ATOM     93  S   UNL A   1      45.903  36.735  27.733  1.00  0.00     0.124 S 
ATOM     94  O   UNL A   1      44.899  36.297  26.769  1.00  0.00    -0.237 OA
ATOM     95  O   UNL A   1      45.539  37.886  28.554  1.00  0.00    -0.237 OA
ATOM     96  O   UNL A   1      47.278  36.739  27.238  1.00  0.00    -0.744 OA
ENDBRANCH  89  93
ENDBRANCH  63  86
ENDBRANCH  37  38
ENDBRANCH  30  32
ENDBRANCH  29  30
ENDBRANCH  28  29
ENDBRANCH   1  28
TORSDOF 17
ENDMDL
MODEL 2
REMARK VINA RESULT:     -11.9      5.628      9.228
REMARK SMILES CC[C@H]1Sc2ccc(S(=O)(=O)N3CCC(C(=O)OCCOC(=O)c4ccc(-c5c6nc(c(-c7cc(S(=O)(=O)[O-])ccc7F)c7ccc([nH]7)c(-c7cc(S(=O)(=O)[O-])ccc7F)c7nc(c(-c8cc(S(=O)(=O)[O-])ccc8F)c8ccc5[nH]8)C=C7)C=C6)cc4)CC3)cc2NC1=O
REMARK SMILES IDX 19 1 18 2 16 3 17 4 15 5 12 6 13 7 88 8 14 9 87 10 9 11
REMARK SMILES IDX 10 12 11 13 8 14 3 15 4 16 92 17 5 18 91 19 93 20 6 21 90 22
REMARK SMILES IDX 7 24 89 25 2 26 1 27 20 28 21 29 22 30 23 31 24 32 25 33
REMARK SMILES IDX 86 34 26 35 85 36 27 37 28 38 29 39 79 40 30 41 84 42 78 43
REMARK SMILES IDX 80 44 31 45 83 46 77 47 76 48 32 50 64 51 44 52 63 53 45 54
REMARK SMILES IDX 48 55 62 56 81 57 46 58 47 59 61 61 82 62 49 63 33 64 34 65
REMARK SMILES IDX 42 66 35 67 41 68 43 69 40 70 36 71 37 72 38 73 39 74 65 75
REMARK SMILES IDX 66 76 74 77 67 78 73 79 75 80 72 81 68 82 69 83 70 84 71 85
REMARK SMILES IDX 50 86 51 87 59 88 52 89 58 90 60 91 57 92 53 93 54 94 55 95
REMARK SMILES IDX 56 96
REMARK H PARENT 91 23 80 49 48 60
REMARK Flexibility Score: inf
ROOT
ATOM      1  C   UNL A   1      33.872  32.693  27.646  1.00  0.00     0.274 C 
ENDROOT
BRANCH   1   2
ATOM      2  O   UNL A   1      33.153  31.469  27.409  1.00  0.00    -0.462 OA
BRANCH   2   3
ATOM      3  C   UNL A   1      33.914  30.355  27.276  1.00  0.00     0.309 C 
ATOM      4  O   UNL A   1      35.079  30.253  27.646  1.00  0.00    -0.252 OA
BRANCH   3   5
ATOM      5  C   UNL A   1      33.194  29.213  26.597  1.00  0.00     0.102 C 
ATOM      6  N   UNL A   1      31.219  27.564  25.332  1.00  0.00    -0.198 NA
ATOM      7  C   UNL A   1      31.675  27.232  26.707  1.00  0.00     0.103 C 
ATOM      8  C   UNL A   1      32.047  28.486  24.516  1.00  0.00     0.103 C 
ATOM      9  C   UNL A   1      32.179  28.463  27.451  1.00  0.00     0.032 C 
ATOM     10  C   UNL A   1      32.512  29.688  25.324  1.00  0.00     0.032 C 
BRANCH   6  11
ATOM     11  S   UNL A   1      30.410  26.326  24.479  1.00  0.00     0.243 S 
ATOM     12  O   UNL A   1      30.274  26.760  23.103  1.00  0.00    -0.207 OA
ATOM     13  O   UNL A   1      29.250  25.946  25.259  1.00  0.00    -0.207 OA
BRANCH  11  14
ATOM     14  C   UNL A   1      31.470  24.890  24.440  1.00  0.00     0.084 A 
ATOM     15  C   UNL A   1      35.732  21.949  24.593  1.00  0.00     0.141 C 
ATOM     16  S   UNL A   1      34.089  21.144  24.726  1.00  0.00    -0.111 SA
ATOM     17  C   UNL A   1      35.769  22.864  23.372  1.00  0.00     0.237 C 
ATOM     18  C   UNL A   1      33.086  22.608  24.608  1.00  0.00     0.032 A 
ATOM     19  N   UNL A   1      34.720  23.724  23.163  1.00  0.00    -0.324 N 
ATOM     20  O   UNL A   1      36.757  22.962  22.646  1.00  0.00    -0.273 OA
ATOM     21  C   UNL A   1      31.854  22.643  25.264  1.00  0.00     0.018 A 
ATOM     22  C   UNL A   1      33.495  23.710  23.845  1.00  0.00     0.056 A 
ATOM     23  H   UNL A   1      34.839  24.415  22.471  1.00  0.00     0.170 HD
ATOM     24  C   UNL A   1      31.053  23.785  25.193  1.00  0.00     0.023 A 
ATOM     25  C   UNL A   1      32.677  24.839  23.741  1.00  0.00     0.049 A 
BRANCH  15  26
ATOM     26  C   UNL A   1      36.050  22.748  25.871  1.00  0.00     0.021 C 
ATOM     27  C   UNL A   1      37.465  23.313  25.853  1.00  0.00     0.005 C 
ENDBRANCH  15  26
ENDBRANCH  11  14
ENDBRANCH   6  11
ENDBRANCH   3   5
ENDBRANCH   2   3
ENDBRANCH   1   2
BRANCH   1  28
ATOM     28  C   UNL A   1      32.925  33.835  28.022  1.00  0.00     0.275 C 
BRANCH  28  29
ATOM     29  O   UNL A   1      33.606  34.900  28.712  1.00  0.00    -0.458 OA
BRANCH  29  30
ATOM     30  C   UNL A   1      33.463  34.893  30.058  1.00  0.00     0.338 C 
ATOM     31  O   UNL A   1      32.508  35.302  30.697  1.00  0.00    -0.246 OA
BRANCH  30  32
ATOM     32  C   UNL A   1      34.592  34.189  30.685  1.00  0.00     0.060 A 
ATOM     33  C   UNL A   1      35.882  34.504  30.252  1.00  0.00     0.016 A 
ATOM     34  C   UNL A   1      34.385  33.158  31.602  1.00  0.00     0.016 A 
ATOM     35  C   UNL A   1      36.975  33.786  30.726  1.00  0.00     0.010 A 
ATOM     36  C   UNL A   1      35.488  32.446  32.090  1.00  0.00     0.010 A 
ATOM     37  C   UNL A   1      36.789  32.748  31.648  1.00  0.00    -0.014 A 
BRANCH  37  38
ATOM     38  C   UNL A   1      37.963  31.970  32.121  1.00  0.00     0.031 A 
ATOM     39  C   UNL A   1      38.589  32.283  33.451  1.00  0.00     0.074 A 
ATOM     40  C   UNL A   1      38.446  30.967  31.364  1.00  0.00     0.049 A 
ATOM     41  N   UNL A   1      39.661  31.777  34.003  1.00  0.00    -0.248 NA
ATOM     42  C   UNL A   1      37.921  33.311  34.262  1.00  0.00     0.031 C 
ATOM     43  C   UNL A   1      37.890  30.542  30.077  1.00  0.00     0.029 A 
ATOM     44  N   UNL A   1      39.506  30.120  31.563  1.00  0.00    -0.354 N 
ATOM     45  C   UNL A   1      39.809  32.433  35.221  1.00  0.00     0.074 A 
ATOM     46  C   UNL A   1      38.732  33.400  35.306  1.00  0.00     0.031 C 
ATOM     47  C   UNL A   1      38.606  29.506  29.612  1.00  0.00     0.029 A 
ATOM     48  C   UNL A   1      39.706  29.234  30.532  1.00  0.00     0.049 A 
ATOM     49  H   UNL A   1      40.070  30.144  32.371  1.00  0.00     0.167 HD
ATOM     50  C   UNL A   1      40.752  32.240  36.177  1.00  0.00     0.034 A 
ATOM     51  C   UNL A   1      40.684  28.327  30.333  1.00  0.00     0.034 A 
ATOM     52  C   UNL A   1      41.815  31.267  36.072  1.00  0.00     0.049 A 
ATOM     53  C   UNL A   1      41.765  28.185  31.375  1.00  0.00     0.074 A 
ATOM     54  C   UNL A   1      42.819  30.984  36.982  1.00  0.00     0.029 A 
ATOM     55  N   UNL A   1      42.016  30.419  34.989  1.00  0.00    -0.354 N 
ATOM     56  N   UNL A   1      41.909  28.830  32.511  1.00  0.00    -0.248 NA
ATOM     57  C   UNL A   1      42.815  27.196  31.107  1.00  0.00     0.031 C 
ATOM     58  C   UNL A   1      43.665  30.021  36.420  1.00  0.00     0.029 A 
ATOM     59  C   UNL A   1      43.147  29.642  35.193  1.00  0.00     0.049 A 
ATOM     60  H   UNL A   1      41.439  30.377  34.192  1.00  0.00     0.167 HD
ATOM     61  C   UNL A   1      43.054  28.304  33.102  1.00  0.00     0.074 A 
ATOM     62  C   UNL A   1      43.549  27.279  32.206  1.00  0.00     0.031 C 
ATOM     63  C   UNL A   1      43.642  28.637  34.281  1.00  0.00     0.034 A 
BRANCH  50  64
ATOM     64  C   UNL A   1      40.708  33.143  37.388  1.00  0.00     0.023 A 
ATOM     65  C   UNL A   1      40.053  32.766  38.573  1.00  0.00     0.031 A 
ATOM     66  C   UNL A   1      41.306  34.416  37.344  1.00  0.00     0.131 A 
ATOM     67  C   UNL A   1      39.949  33.678  39.636  1.00  0.00     0.055 A 
ATOM     68  C   UNL A   1      41.269  35.287  38.434  1.00  0.00     0.041 A 
ATOM     69  F   UNL A   1      41.926  34.842  36.232  1.00  0.00    -0.206 F 
ATOM     70  C   UNL A   1      40.574  34.926  39.584  1.00  0.00     0.022 A 
BRANCH  67  71
ATOM     71  S   UNL A   1      38.861  33.265  41.028  1.00  0.00     0.124 S 
ATOM     72  O   UNL A   1      39.387  34.131  42.081  1.00  0.00    -0.237 OA
ATOM     73  O   UNL A   1      37.542  33.616  40.513  1.00  0.00    -0.237 OA
ATOM     74  O   UNL A   1      39.093  31.837  41.232  1.00  0.00    -0.744 OA
ENDBRANCH  67  71
ENDBRANCH  50  64
BRANCH  51  75
ATOM     75  C   UNL A   1      40.723  27.524  29.077  1.00  0.00     0.023 A 
ATOM     76  C   UNL A   1      41.635  27.818  28.051  1.00  0.00     0.031 A 
ATOM     77  C   UNL A   1      39.813  26.471  28.868  1.00  0.00     0.131 A 
ATOM     78  C   UNL A   1      41.590  27.096  26.848  1.00  0.00     0.055 A 
ATOM     79  C   UNL A   1      39.811  25.718  27.693  1.00  0.00     0.041 A 
ATOM     80  F   UNL A   1      38.918  26.147  29.814  1.00  0.00    -0.206 F 
ATOM     81  C   UNL A   1      40.695  26.038  26.668  1.00  0.00     0.022 A 
BRANCH  78  82
ATOM     82  S   UNL A   1      42.662  27.615  25.480  1.00  0.00     0.124 S 
ATOM     83  O   UNL A   1      43.917  27.891  26.173  1.00  0.00    -0.237 OA
ATOM     84  O   UNL A   1      42.649  26.438  24.619  1.00  0.00    -0.237 OA
ATOM     85  O   UNL A   1      41.978  28.787  24.938  1.00  0.00    -0.744 OA
ENDBRANCH  78  82
ENDBRANCH  51  75
BRANCH  63  86
ATOM     86  C   UNL A   1      44.869  27.849  34.675  1.00  0.00     0.023 A 
ATOM     87  C   UNL A   1      44.772  26.577  35.266  1.00  0.00     0.031 A 
ATOM     88  C   UNL A   1      46.151  28.392  34.480  1.00  0.00     0.131 A 
ATOM     89  C   UNL A   1      45.933  25.916  35.697  1.00  0.00     0.055 A 
ATOM     90  C   UNL A   1      47.306  27.702  34.853  1.00  0.00     0.041 A 
ATOM     91  F   UNL A   1      46.303  29.603  33.922  1.00  0.00    -0.206 F 
ATOM     92  C   UNL A   1      47.200  26.463  35.479  1.00  0.00     0.022 A 
BRANCH  89  93
ATOM     93  S   UNL A   1      45.760  24.375  36.639  1.00  0.00     0.124 S 
ATOM     94  O   UNL A   1      46.863  23.575  36.116  1.00  0.00    -0.237 OA
ATOM     95  O   UNL A   1      45.902  24.833  38.018  1.00  0.00    -0.237 OA
ATOM     96  O   UNL A   1      44.425  23.901  36.280  1.00  0.00    -0.744 OA
ENDBRANCH  89  93
ENDBRANCH  63  86
ENDBRANCH  37  38
ENDBRANCH  30  32
ENDBRANCH  29  30
ENDBRANCH  28  29
ENDBRANCH   1  28
TORSDOF 17
ENDMDL
MODEL 3
REMARK VINA RESULT:     -11.9      5.134      8.790
REMARK SMILES CC[C@H]1Sc2ccc(S(=O)(=O)N3CCC(C(=O)OCCOC(=O)c4ccc(-c5c6nc(c(-c7cc(S(=O)(=O)[O-])ccc7F)c7ccc([nH]7)c(-c7cc(S(=O)(=O)[O-])ccc7F)c7nc(c(-c8cc(S(=O)(=O)[O-])ccc8F)c8ccc5[nH]8)C=C7)C=C6)cc4)CC3)cc2NC1=O
REMARK SMILES IDX 19 1 18 2 16 3 17 4 15 5 12 6 13 7 88 8 14 9 87 10 9 11
REMARK SMILES IDX 10 12 11 13 8 14 3 15 4 16 92 17 5 18 91 19 93 20 6 21 90 22
REMARK SMILES IDX 7 24 89 25 2 26 1 27 20 28 21 29 22 30 23 31 24 32 25 33
REMARK SMILES IDX 86 34 26 35 85 36 27 37 28 38 29 39 79 40 30 41 84 42 78 43
REMARK SMILES IDX 80 44 31 45 83 46 77 47 76 48 32 50 64 51 44 52 63 53 45 54
REMARK SMILES IDX 48 55 62 56 81 57 46 58 47 59 61 61 82 62 49 63 33 64 34 65
REMARK SMILES IDX 42 66 35 67 41 68 43 69 40 70 36 71 37 72 38 73 39 74 65 75
REMARK SMILES IDX 66 76 74 77 67 78 73 79 75 80 72 81 68 82 69 83 70 84 71 85
REMARK SMILES IDX 50 86 51 87 59 88 52 89 58 90 60 91 57 92 53 93 54 94 55 95
REMARK SMILES IDX 56 96
REMARK H PARENT 91 23 80 49 48 60
REMARK Flexibility Score: inf
ROOT
ATOM      1  C   UNL A   1      31.363  32.147  27.142  1.00  0.00     0.274 C 
ENDROOT
BRANCH   1   2
ATOM      2  O   UNL A   1      31.748  31.262  26.075  1.00  0.00    -0.462 OA
BRANCH   2   3
ATOM      3  C   UNL A   1      32.435  30.154  26.447  1.00  0.00     0.309 C 
ATOM      4  O   UNL A   1      33.085  30.047  27.482  1.00  0.00    -0.252 OA
BRANCH   3   5
ATOM      5  C   UNL A   1      32.349  29.028  25.443  1.00  0.00     0.102 C 
ATOM      6  N   UNL A   1      32.430  27.467  23.040  1.00  0.00    -0.198 NA
ATOM      7  C   UNL A   1      31.115  27.818  23.638  1.00  0.00     0.103 C 
ATOM      8  C   UNL A   1      33.646  27.596  23.880  1.00  0.00     0.103 C 
ATOM      9  C   UNL A   1      31.189  29.101  24.457  1.00  0.00     0.032 C 
ATOM     10  C   UNL A   1      33.649  28.899  24.667  1.00  0.00     0.032 C 
BRANCH   6  11
ATOM     11  S   UNL A   1      32.432  26.190  21.906  1.00  0.00     0.243 S 
ATOM     12  O   UNL A   1      33.650  26.300  21.128  1.00  0.00    -0.207 OA
ATOM     13  O   UNL A   1      31.135  26.176  21.263  1.00  0.00    -0.207 OA
BRANCH  11  14
ATOM     14  C   UNL A   1      32.557  24.649  22.799  1.00  0.00     0.084 A 
ATOM     15  C   UNL A   1      34.268  21.014  26.070  1.00  0.00     0.141 C 
ATOM     16  S   UNL A   1      32.593  20.841  25.343  1.00  0.00    -0.111 SA
ATOM     17  C   UNL A   1      35.294  21.253  24.966  1.00  0.00     0.237 C 
ATOM     18  C   UNL A   1      32.597  22.321  24.357  1.00  0.00     0.032 A 
ATOM     19  N   UNL A   1      35.017  22.189  24.002  1.00  0.00    -0.324 N 
ATOM     20  O   UNL A   1      36.414  20.744  24.981  1.00  0.00    -0.273 OA
ATOM     21  C   UNL A   1      31.390  22.980  24.114  1.00  0.00     0.018 A 
ATOM     22  C   UNL A   1      33.781  22.816  23.794  1.00  0.00     0.056 A 
ATOM     23  H   UNL A   1      35.755  22.445  23.402  1.00  0.00     0.170 HD
ATOM     24  C   UNL A   1      31.370  24.149  23.350  1.00  0.00     0.023 A 
ATOM     25  C   UNL A   1      33.757  23.964  22.997  1.00  0.00     0.049 A 
BRANCH  15  26
ATOM     26  C   UNL A   1      34.299  22.167  27.091  1.00  0.00     0.021 C 
ATOM     27  C   UNL A   1      32.966  22.329  27.809  1.00  0.00     0.005 C 
ENDBRANCH  15  26
ENDBRANCH  11  14
ENDBRANCH   6  11
ENDBRANCH   3   5
ENDBRANCH   2   3
ENDBRANCH   1   2
BRANCH   1  28
ATOM     28  C   UNL A   1      32.045  33.512  27.010  1.00  0.00     0.275 C 
BRANCH  28  29
ATOM     29  O   UNL A   1      33.467  33.429  27.216  1.00  0.00    -0.458 OA
BRANCH  29  30
ATOM     30  C   UNL A   1      33.952  34.223  28.200  1.00  0.00     0.338 C 
ATOM     31  O   UNL A   1      33.539  35.322  28.526  1.00  0.00    -0.246 OA
BRANCH  30  32
ATOM     32  C   UNL A   1      35.005  33.519  28.947  1.00  0.00     0.060 A 
ATOM     33  C   UNL A   1      36.328  33.921  28.751  1.00  0.00     0.016 A 
ATOM     34  C   UNL A   1      34.714  32.410  29.741  1.00  0.00     0.016 A 
ATOM     35  C   UNL A   1      37.371  33.214  29.341  1.00  0.00     0.010 A 
ATOM     36  C   UNL A   1      35.763  31.708  30.347  1.00  0.00     0.010 A 
ATOM     37  C   UNL A   1      37.099  32.099  30.143  1.00  0.00    -0.014 A 
BRANCH  37  38
ATOM     38  C   UNL A   1      38.225  31.336  30.740  1.00  0.00     0.031 A 
ATOM     39  C   UNL A   1      38.688  31.644  32.137  1.00  0.00     0.074 A 
ATOM     40  C   UNL A   1      38.810  30.350  30.034  1.00  0.00     0.049 A 
ATOM     41  N   UNL A   1      39.699  31.150  32.804  1.00  0.00    -0.248 NA
ATOM     42  C   UNL A   1      37.912  32.652  32.875  1.00  0.00     0.031 C 
ATOM     43  C   UNL A   1      38.414  29.930  28.688  1.00  0.00     0.029 A 
ATOM     44  N   UNL A   1      39.855  29.519  30.347  1.00  0.00    -0.354 N 
ATOM     45  C   UNL A   1      39.694  31.794  34.037  1.00  0.00     0.074 A 
ATOM     46  C   UNL A   1      38.597  32.742  34.007  1.00  0.00     0.031 C 
ATOM     47  C   UNL A   1      39.198  28.912  28.299  1.00  0.00     0.029 A 
ATOM     48  C   UNL A   1      40.190  28.648  29.337  1.00  0.00     0.049 A 
ATOM     49  H   UNL A   1      40.323  29.544  31.214  1.00  0.00     0.167 HD
ATOM     50  C   UNL A   1      40.524  31.607  35.093  1.00  0.00     0.034 A 
ATOM     51  C   UNL A   1      41.200  27.761  29.243  1.00  0.00     0.034 A 
ATOM     52  C   UNL A   1      41.609  30.654  35.102  1.00  0.00     0.049 A 
ATOM     53  C   UNL A   1      42.156  27.626  30.401  1.00  0.00     0.074 A 
ATOM     54  C   UNL A   1      42.507  30.377  36.119  1.00  0.00     0.029 A 
ATOM     55  N   UNL A   1      41.949  29.821  34.041  1.00  0.00    -0.354 N 
ATOM     56  N   UNL A   1      42.157  28.260  31.552  1.00  0.00    -0.248 NA
ATOM     57  C   UNL A   1      43.249  26.658  30.246  1.00  0.00     0.031 C 
ATOM     58  C   UNL A   1      43.430  29.435  35.649  1.00  0.00     0.029 A 
ATOM     59  C   UNL A   1      43.063  29.061  34.367  1.00  0.00     0.049 A 
ATOM     60  H   UNL A   1      41.468  29.778  33.183  1.00  0.00     0.167 HD
ATOM     61  C   UNL A   1      43.235  27.746  32.267  1.00  0.00     0.074 A 
ATOM     62  C   UNL A   1      43.850  26.740  31.424  1.00  0.00     0.031 C 
ATOM     63  C   UNL A   1      43.678  28.075  33.508  1.00  0.00     0.034 A 
BRANCH  50  64
ATOM     64  C   UNL A   1      40.324  32.495  36.299  1.00  0.00     0.023 A 
ATOM     65  C   UNL A   1      39.368  32.203  37.287  1.00  0.00     0.031 A 
ATOM     66  C   UNL A   1      41.084  33.670  36.447  1.00  0.00     0.131 A 
ATOM     67  C   UNL A   1      39.146  33.110  38.336  1.00  0.00     0.055 A 
ATOM     68  C   UNL A   1      40.915  34.526  37.536  1.00  0.00     0.041 A 
ATOM     69  F   UNL A   1      41.997  34.014  35.524  1.00  0.00    -0.206 F 
ATOM     70  C   UNL A   1      39.930  34.257  38.481  1.00  0.00     0.022 A 
BRANCH  67  71
ATOM     71  S   UNL A   1      37.719  32.842  39.425  1.00  0.00     0.124 S 
ATOM     72  O   UNL A   1      36.626  32.743  38.461  1.00  0.00    -0.237 OA
ATOM     73  O   UNL A   1      38.075  31.606  40.115  1.00  0.00    -0.237 OA
ATOM     74  O   UNL A   1      37.696  34.040  40.261  1.00  0.00    -0.744 OA
ENDBRANCH  67  71
ENDBRANCH  50  64
BRANCH  51  75
ATOM     75  C   UNL A   1      41.398  26.973  27.993  1.00  0.00     0.023 A 
ATOM     76  C   UNL A   1      41.016  25.625  27.912  1.00  0.00     0.031 A 
ATOM     77  C   UNL A   1      42.016  27.550  26.868  1.00  0.00     0.131 A 
ATOM     78  C   UNL A   1      41.292  24.888  26.749  1.00  0.00     0.055 A 
ATOM     79  C   UNL A   1      42.237  26.830  25.693  1.00  0.00     0.041 A 
ATOM     80  F   UNL A   1      42.404  28.836  26.890  1.00  0.00    -0.206 F 
ATOM     81  C   UNL A   1      41.886  25.485  25.635  1.00  0.00     0.022 A 
BRANCH  78  82
ATOM     82  S   UNL A   1      40.945  23.107  26.744  1.00  0.00     0.124 S 
ATOM     83  O   UNL A   1      41.321  22.726  28.100  1.00  0.00    -0.237 OA
ATOM     84  O   UNL A   1      39.518  23.077  26.440  1.00  0.00    -0.237 OA
ATOM     85  O   UNL A   1      41.815  22.595  25.687  1.00  0.00    -0.744 OA
ENDBRANCH  78  82
ENDBRANCH  51  75
BRANCH  63  86
ATOM     86  C   UNL A   1      44.866  27.305  34.034  1.00  0.00     0.023 A 
ATOM     87  C   UNL A   1      44.713  26.075  34.698  1.00  0.00     0.031 A 
ATOM     88  C   UNL A   1      46.165  27.821  33.889  1.00  0.00     0.131 A 
ATOM     89  C   UNL A   1      45.834  25.433  35.248  1.00  0.00     0.055 A 
ATOM     90  C   UNL A   1      47.283  27.147  34.383  1.00  0.00     0.041 A 
ATOM     91  F   UNL A   1      46.370  28.992  33.265  1.00  0.00    -0.206 F 
ATOM     92  C   UNL A   1      47.120  25.954  35.080  1.00  0.00     0.022 A 
BRANCH  89  93
ATOM     93  S   UNL A   1      45.580  23.959  36.274  1.00  0.00     0.124 S 
ATOM     94  O   UNL A   1      44.222  23.567  35.911  1.00  0.00    -0.237 OA
ATOM     95  O   UNL A   1      46.644  23.071  35.815  1.00  0.00    -0.237 OA
ATOM     96  O   UNL A   1      45.737  24.458  37.638  1.00  0.00    -0.744 OA
ENDBRANCH  89  93
ENDBRANCH  63  86
ENDBRANCH  37  38
ENDBRANCH  30  32
ENDBRANCH  29  30
ENDBRANCH  28  29
ENDBRANCH   1  28
TORSDOF 17
ENDMDL
