MODEL 1
REMARK VINA RESULT:     -10.7      0.000      0.000
REMARK SMILES COc1ccc(C(=O)C[C@H](C)CC(=O)OCCOC(=O)c2ccc(-c3c4nc(c(-c5cc(S(=O)(=O)[O-])ccc5F)c5ccc([nH]5)c(-c5cc(S(=O)(=O)[O-])ccc5F)c5nc(c(-c6cc(S(=O)(=O)[O-])ccc6F)c6ccc3[nH]6)C=C5)C=C4)cc2)c(OC)c1
REMARK SMILES IDX 16 1 15 2 13 3 14 4 12 5 10 6 11 7 9 8 7 9 8 10 6 11 3 12
REMARK SMILES IDX 4 13 87 14 5 15 84 16 2 17 1 18 85 19 86 20 17 21 18 22
REMARK SMILES IDX 19 23 20 24 21 25 22 26 83 27 23 28 82 29 24 30 25 31 26 32
REMARK SMILES IDX 76 33 27 34 81 35 75 36 77 37 28 38 80 39 74 40 73 41 29 43
REMARK SMILES IDX 61 44 41 45 60 46 42 47 45 48 59 49 78 50 43 51 44 52 58 54
REMARK SMILES IDX 79 55 46 56 30 57 31 58 39 59 32 60 38 61 40 62 37 63 33 64
REMARK SMILES IDX 34 65 35 66 36 67 62 68 63 69 71 70 64 71 70 72 72 73 69 74
REMARK SMILES IDX 65 75 66 76 67 77 68 78 47 79 48 80 56 81 49 82 55 83 57 84
REMARK SMILES IDX 54 85 50 86 51 87 52 88 53 89
REMARK H PARENT 77 42 45 53
REMARK Flexibility Score: inf
ROOT
ATOM      1  C   UNL A   1      31.249  29.560  24.411  1.00  0.00     0.274 C 
ENDROOT
BRANCH   1   2
ATOM      2  O   UNL A   1      30.741  28.270  24.027  1.00  0.00    -0.462 OA
BRANCH   2   3
ATOM      3  C   UNL A   1      30.588  28.055  22.695  1.00  0.00     0.306 C 
ATOM      4  O   UNL A   1      30.125  28.863  21.902  1.00  0.00    -0.252 OA
BRANCH   3   5
ATOM      5  C   UNL A   1      30.963  26.640  22.318  1.00  0.00     0.126 C 
BRANCH   5   6
ATOM      6  C   UNL A   1      32.361  26.437  21.705  1.00  0.00     0.005 C 
ATOM      7  C   UNL A   1      33.421  27.360  22.316  1.00  0.00     0.009 C 
BRANCH   6   8
ATOM      8  C   UNL A   1      32.864  24.967  21.676  1.00  0.00     0.085 C 
BRANCH   8   9
ATOM      9  C   UNL A   1      33.456  24.305  22.916  1.00  0.00     0.166 C 
ATOM     10  O   UNL A   1      34.668  24.092  22.995  1.00  0.00    -0.294 OA
BRANCH   9  11
ATOM     11  C   UNL A   1      32.611  23.884  24.063  1.00  0.00     0.060 A 
ATOM     12  C   UNL A   1      31.263  23.235  26.420  1.00  0.00     0.122 A 
ATOM     13  C   UNL A   1      31.685  24.544  26.206  1.00  0.00     0.047 A 
ATOM     14  C   UNL A   1      31.450  22.266  25.429  1.00  0.00     0.093 A 
ATOM     15  C   UNL A   1      32.361  24.869  25.033  1.00  0.00     0.019 A 
ATOM     16  C   UNL A   1      32.123  22.580  24.238  1.00  0.00     0.133 A 
BRANCH  12  17
ATOM     17  O   UNL A   1      30.621  23.006  27.607  1.00  0.00    -0.497 OA
ATOM     18  C   UNL A   1      29.226  22.744  27.482  1.00  0.00     0.278 C 
ENDBRANCH  12  17
BRANCH  16  19
ATOM     19  O   UNL A   1      32.312  21.695  23.213  1.00  0.00    -0.496 OA
ATOM     20  C   UNL A   1      32.437  20.316  23.541  1.00  0.00     0.278 C 
ENDBRANCH  16  19
ENDBRANCH   9  11
ENDBRANCH   8   9
ENDBRANCH   6   8
ENDBRANCH   5   6
ENDBRANCH   3   5
ENDBRANCH   2   3
ENDBRANCH   1   2
BRANCH   1  21
ATOM     21  C   UNL A   1      31.747  29.544  25.857  1.00  0.00     0.275 C 
BRANCH  21  22
ATOM     22  O   UNL A   1      33.041  30.162  25.954  1.00  0.00    -0.458 OA
BRANCH  22  23
ATOM     23  C   UNL A   1      33.164  31.151  26.869  1.00  0.00     0.338 C 
ATOM     24  O   UNL A   1      32.355  32.018  27.142  1.00  0.00    -0.246 OA
BRANCH  23  25
ATOM     25  C   UNL A   1      34.445  30.980  27.569  1.00  0.00     0.060 A 
ATOM     26  C   UNL A   1      34.808  29.712  28.029  1.00  0.00     0.016 A 
ATOM     27  C   UNL A   1      35.266  32.084  27.793  1.00  0.00     0.016 A 
ATOM     28  C   UNL A   1      36.011  29.534  28.706  1.00  0.00     0.010 A 
ATOM     29  C   UNL A   1      36.478  31.902  28.458  1.00  0.00     0.010 A 
ATOM     30  C   UNL A   1      36.860  30.627  28.912  1.00  0.00    -0.014 A 
BRANCH  30  31
ATOM     31  C   UNL A   1      38.157  30.451  29.603  1.00  0.00     0.031 A 
ATOM     32  C   UNL A   1      39.199  29.557  29.004  1.00  0.00     0.074 A 
ATOM     33  C   UNL A   1      38.368  31.062  30.784  1.00  0.00     0.049 A 
ATOM     34  N   UNL A   1      40.305  29.106  29.532  1.00  0.00    -0.248 NA
ATOM     35  C   UNL A   1      38.956  29.107  27.625  1.00  0.00     0.031 C 
ATOM     36  C   UNL A   1      37.444  31.999  31.426  1.00  0.00     0.029 A 
ATOM     37  N   UNL A   1      39.414  30.967  31.664  1.00  0.00    -0.354 N 
ATOM     38  C   UNL A   1      40.885  28.298  28.560  1.00  0.00     0.074 A 
ATOM     39  C   UNL A   1      39.995  28.310  27.417  1.00  0.00     0.031 C 
ATOM     40  C   UNL A   1      37.957  32.378  32.607  1.00  0.00     0.029 A 
ATOM     41  C   UNL A   1      39.206  31.660  32.836  1.00  0.00     0.049 A 
ATOM     42  H   UNL A   1      40.234  30.454  31.478  1.00  0.00     0.167 HD
ATOM     43  C   UNL A   1      42.051  27.610  28.627  1.00  0.00     0.034 A 
ATOM     44  C   UNL A   1      39.911  31.663  33.983  1.00  0.00     0.034 A 
ATOM     45  C   UNL A   1      42.914  27.616  29.783  1.00  0.00     0.049 A 
ATOM     46  C   UNL A   1      41.142  30.799  34.077  1.00  0.00     0.074 A 
ATOM     47  C   UNL A   1      44.134  26.983  29.955  1.00  0.00     0.029 A 
ATOM     48  N   UNL A   1      42.641  28.278  30.974  1.00  0.00    -0.354 N 
ATOM     49  N   UNL A   1      41.674  30.019  33.164  1.00  0.00    -0.248 NA
ATOM     50  C   UNL A   1      41.856  30.800  35.360  1.00  0.00     0.031 C 
ATOM     51  C   UNL A   1      44.561  27.206  31.269  1.00  0.00     0.029 A 
ATOM     52  C   UNL A   1      43.644  28.033  31.899  1.00  0.00     0.049 A 
ATOM     53  H   UNL A   1      41.850  28.841  31.138  1.00  0.00     0.167 HD
ATOM     54  C   UNL A   1      42.792  29.443  33.760  1.00  0.00     0.074 A 
ATOM     55  C   UNL A   1      42.866  29.980  35.104  1.00  0.00     0.031 C 
ATOM     56  C   UNL A   1      43.678  28.555  33.245  1.00  0.00     0.034 A 
BRANCH  43  57
ATOM     57  C   UNL A   1      42.416  26.749  27.444  1.00  0.00     0.023 A 
ATOM     58  C   UNL A   1      42.006  25.409  27.343  1.00  0.00     0.031 A 
ATOM     59  C   UNL A   1      43.216  27.273  26.413  1.00  0.00     0.131 A 
ATOM     60  C   UNL A   1      42.451  24.620  26.271  1.00  0.00     0.055 A 
ATOM     61  C   UNL A   1      43.598  26.503  25.313  1.00  0.00     0.041 A 
ATOM     62  F   UNL A   1      43.658  28.540  26.467  1.00  0.00    -0.206 F 
ATOM     63  C   UNL A   1      43.225  25.164  25.244  1.00  0.00     0.022 A 
BRANCH  60  64
ATOM     64  S   UNL A   1      42.111  22.838  26.301  1.00  0.00     0.124 S 
ATOM     65  O   UNL A   1      42.799  22.426  27.522  1.00  0.00    -0.237 OA
ATOM     66  O   UNL A   1      40.653  22.796  26.341  1.00  0.00    -0.237 OA
ATOM     67  O   UNL A   1      42.715  22.353  25.061  1.00  0.00    -0.744 OA
ENDBRANCH  60  64
ENDBRANCH  43  57
BRANCH  44  68
ATOM     68  C   UNL A   1      39.427  32.436  35.162  1.00  0.00     0.023 A 
ATOM     69  C   UNL A   1      38.753  31.803  36.217  1.00  0.00     0.031 A 
ATOM     70  C   UNL A   1      39.605  33.830  35.232  1.00  0.00     0.131 A 
ATOM     71  C   UNL A   1      38.253  32.568  37.283  1.00  0.00     0.055 A 
ATOM     72  C   UNL A   1      39.149  34.579  36.317  1.00  0.00     0.041 A 
ATOM     73  F   UNL A   1      40.239  34.484  34.246  1.00  0.00    -0.206 F 
ATOM     74  C   UNL A   1      38.458  33.949  37.347  1.00  0.00     0.022 A 
BRANCH  71  75
ATOM     75  S   UNL A   1      37.261  31.741  38.557  1.00  0.00     0.124 S 
ATOM     76  O   UNL A   1      38.090  31.918  39.743  1.00  0.00    -0.237 OA
ATOM     77  O   UNL A   1      36.020  32.507  38.519  1.00  0.00    -0.237 OA
ATOM     78  O   UNL A   1      37.157  30.366  38.068  1.00  0.00    -0.744 OA
ENDBRANCH  71  75
ENDBRANCH  44  68
BRANCH  56  79
ATOM     79  C   UNL A   1      44.808  28.127  34.146  1.00  0.00     0.023 A 
ATOM     80  C   UNL A   1      44.706  26.984  34.956  1.00  0.00     0.031 A 
ATOM     81  C   UNL A   1      45.994  28.880  34.202  1.00  0.00     0.131 A 
ATOM     82  C   UNL A   1      45.758  26.645  35.819  1.00  0.00     0.055 A 
ATOM     83  C   UNL A   1      47.056  28.511  35.027  1.00  0.00     0.041 A 
ATOM     84  F   UNL A   1      46.139  29.983  33.451  1.00  0.00    -0.206 F 
ATOM     85  C   UNL A   1      46.939  27.393  35.848  1.00  0.00     0.022 A 
BRANCH  82  86
ATOM     86  S   UNL A   1      45.542  25.247  36.954  1.00  0.00     0.124 S 
ATOM     87  O   UNL A   1      46.898  24.715  37.041  1.00  0.00    -0.237 OA
ATOM     88  O   UNL A   1      45.033  25.895  38.159  1.00  0.00    -0.237 OA
ATOM     89  O   UNL A   1      44.582  24.389  36.262  1.00  0.00    -0.744 OA
ENDBRANCH  82  86
ENDBRANCH  56  79
ENDBRANCH  30  31
ENDBRANCH  23  25
ENDBRANCH  22  23
ENDBRANCH  21  22
ENDBRANCH   1  21
TORSDOF 20
ENDMDL
MODEL 2
REMARK VINA RESULT:     -10.7      1.806      2.384
REMARK SMILES COc1ccc(C(=O)C[C@H](C)CC(=O)OCCOC(=O)c2ccc(-c3c4nc(c(-c5cc(S(=O)(=O)[O-])ccc5F)c5ccc([nH]5)c(-c5cc(S(=O)(=O)[O-])ccc5F)c5nc(c(-c6cc(S(=O)(=O)[O-])ccc6F)c6ccc3[nH]6)C=C5)C=C4)cc2)c(OC)c1
REMARK SMILES IDX 16 1 15 2 13 3 14 4 12 5 10 6 11 7 9 8 7 9 8 10 6 11 3 12
REMARK SMILES IDX 4 13 87 14 5 15 84 16 2 17 1 18 85 19 86 20 17 21 18 22
REMARK SMILES IDX 19 23 20 24 21 25 22 26 83 27 23 28 82 29 24 30 25 31 26 32
REMARK SMILES IDX 76 33 27 34 81 35 75 36 77 37 28 38 80 39 74 40 73 41 29 43
REMARK SMILES IDX 61 44 41 45 60 46 42 47 45 48 59 49 78 50 43 51 44 52 58 54
REMARK SMILES IDX 79 55 46 56 30 57 31 58 39 59 32 60 38 61 40 62 37 63 33 64
REMARK SMILES IDX 34 65 35 66 36 67 62 68 63 69 71 70 64 71 70 72 72 73 69 74
REMARK SMILES IDX 65 75 66 76 67 77 68 78 47 79 48 80 56 81 49 82 55 83 57 84
REMARK SMILES IDX 54 85 50 86 51 87 52 88 53 89
REMARK H PARENT 77 42 45 53
REMARK Flexibility Score: inf
ROOT
ATOM      1  C   UNL A   1      31.190  29.561  24.508  1.00  0.00     0.274 C 
ENDROOT
BRANCH   1   2
ATOM      2  O   UNL A   1      30.318  28.443  24.266  1.00  0.00    -0.462 OA
BRANCH   2   3
ATOM      3  C   UNL A   1      30.417  27.853  23.047  1.00  0.00     0.306 C 
ATOM      4  O   UNL A   1      30.321  28.436  21.976  1.00  0.00    -0.252 OA
BRANCH   3   5
ATOM      5  C   UNL A   1      30.558  26.354  23.168  1.00  0.00     0.126 C 
BRANCH   5   6
ATOM      6  C   UNL A   1      31.961  25.769  22.924  1.00  0.00     0.005 C 
ATOM      7  C   UNL A   1      33.037  26.410  23.808  1.00  0.00     0.009 C 
BRANCH   6   8
ATOM      8  C   UNL A   1      32.053  24.219  22.985  1.00  0.00     0.085 C 
BRANCH   8   9
ATOM      9  C   UNL A   1      33.275  23.474  22.461  1.00  0.00     0.166 C 
ATOM     10  O   UNL A   1      33.453  23.335  21.248  1.00  0.00    -0.294 OA
BRANCH   9  11
ATOM     11  C   UNL A   1      34.288  22.882  23.372  1.00  0.00     0.060 A 
ATOM     12  C   UNL A   1      36.369  21.691  24.803  1.00  0.00     0.122 A 
ATOM     13  C   UNL A   1      36.656  22.663  23.850  1.00  0.00     0.047 A 
ATOM     14  C   UNL A   1      35.040  21.364  25.093  1.00  0.00     0.093 A 
ATOM     15  C   UNL A   1      35.620  23.256  23.133  1.00  0.00     0.019 A 
ATOM     16  C   UNL A   1      33.985  21.958  24.384  1.00  0.00     0.133 A 
BRANCH  12  17
ATOM     17  O   UNL A   1      37.450  21.153  25.447  1.00  0.00    -0.497 OA
ATOM     18  C   UNL A   1      37.850  19.875  24.961  1.00  0.00     0.278 C 
ENDBRANCH  12  17
BRANCH  16  19
ATOM     19  O   UNL A   1      32.663  21.713  24.636  1.00  0.00    -0.496 OA
ATOM     20  C   UNL A   1      32.260  20.359  24.810  1.00  0.00     0.278 C 
ENDBRANCH  16  19
ENDBRANCH   9  11
ENDBRANCH   8   9
ENDBRANCH   6   8
ENDBRANCH   5   6
ENDBRANCH   3   5
ENDBRANCH   2   3
ENDBRANCH   1   2
BRANCH   1  21
ATOM     21  C   UNL A   1      31.786  29.496  25.914  1.00  0.00     0.275 C 
BRANCH  21  22
ATOM     22  O   UNL A   1      33.081  30.118  25.944  1.00  0.00    -0.458 OA
BRANCH  22  23
ATOM     23  C   UNL A   1      33.245  31.117  26.843  1.00  0.00     0.338 C 
ATOM     24  O   UNL A   1      32.481  32.032  27.087  1.00  0.00    -0.246 OA
BRANCH  23  25
ATOM     25  C   UNL A   1      34.503  30.890  27.566  1.00  0.00     0.060 A 
ATOM     26  C   UNL A   1      34.772  29.623  28.090  1.00  0.00     0.016 A 
ATOM     27  C   UNL A   1      35.398  31.943  27.749  1.00  0.00     0.016 A 
ATOM     28  C   UNL A   1      35.953  29.394  28.789  1.00  0.00     0.010 A 
ATOM     29  C   UNL A   1      36.588  31.709  28.437  1.00  0.00     0.010 A 
ATOM     30  C   UNL A   1      36.875  30.433  28.956  1.00  0.00    -0.014 A 
BRANCH  30  31
ATOM     31  C   UNL A   1      38.150  30.200  29.670  1.00  0.00     0.031 A 
ATOM     32  C   UNL A   1      39.152  29.243  29.102  1.00  0.00     0.074 A 
ATOM     33  C   UNL A   1      38.374  30.818  30.845  1.00  0.00     0.049 A 
ATOM     34  N   UNL A   1      40.224  28.742  29.655  1.00  0.00    -0.248 NA
ATOM     35  C   UNL A   1      38.908  28.784  27.726  1.00  0.00     0.031 C 
ATOM     36  C   UNL A   1      37.491  31.813  31.457  1.00  0.00     0.029 A 
ATOM     37  N   UNL A   1      39.400  30.682  31.744  1.00  0.00    -0.354 N 
ATOM     38  C   UNL A   1      40.776  27.889  28.705  1.00  0.00     0.074 A 
ATOM     39  C   UNL A   1      39.906  27.930  27.548  1.00  0.00     0.031 C 
ATOM     40  C   UNL A   1      38.005  32.182  32.641  1.00  0.00     0.029 A 
ATOM     41  C   UNL A   1      39.210  31.403  32.901  1.00  0.00     0.049 A 
ATOM     42  H   UNL A   1      40.194  30.123  31.580  1.00  0.00     0.167 HD
ATOM     43  C   UNL A   1      41.903  27.142  28.802  1.00  0.00     0.034 A 
ATOM     44  C   UNL A   1      39.897  31.387  34.060  1.00  0.00     0.034 A 
ATOM     45  C   UNL A   1      42.747  27.120  29.972  1.00  0.00     0.049 A 
ATOM     46  C   UNL A   1      41.078  30.461  34.187  1.00  0.00     0.074 A 
ATOM     47  C   UNL A   1      43.928  26.426  30.174  1.00  0.00     0.029 A 
ATOM     48  N   UNL A   1      42.490  27.815  31.148  1.00  0.00    -0.354 N 
ATOM     49  N   UNL A   1      41.582  29.639  33.295  1.00  0.00    -0.248 NA
ATOM     50  C   UNL A   1      41.771  30.444  35.482  1.00  0.00     0.031 C 
ATOM     51  C   UNL A   1      44.346  26.648  31.491  1.00  0.00     0.029 A 
ATOM     52  C   UNL A   1      43.464  27.532  32.093  1.00  0.00     0.049 A 
ATOM     53  H   UNL A   1      41.727  28.422  31.290  1.00  0.00     0.167 HD
ATOM     54  C   UNL A   1      42.658  29.015  33.918  1.00  0.00     0.074 A 
ATOM     55  C   UNL A   1      42.740  29.568  35.256  1.00  0.00     0.031 C 
ATOM     56  C   UNL A   1      43.504  28.073  33.432  1.00  0.00     0.034 A 
BRANCH  43  57
ATOM     57  C   UNL A   1      42.240  26.244  27.639  1.00  0.00     0.023 A 
ATOM     58  C   UNL A   1      41.784  24.917  27.565  1.00  0.00     0.031 A 
ATOM     59  C   UNL A   1      43.060  26.718  26.599  1.00  0.00     0.131 A 
ATOM     60  C   UNL A   1      42.204  24.091  26.510  1.00  0.00     0.055 A 
ATOM     61  C   UNL A   1      43.417  25.913  25.516  1.00  0.00     0.041 A 
ATOM     62  F   UNL A   1      43.544  27.970  26.627  1.00  0.00    -0.206 F 
ATOM     63  C   UNL A   1      42.998  24.586  25.474  1.00  0.00     0.022 A 
BRANCH  60  64
ATOM     64  S   UNL A   1      41.803  22.323  26.576  1.00  0.00     0.124 S 
ATOM     65  O   UNL A   1      42.433  21.830  25.354  1.00  0.00    -0.237 OA
ATOM     66  O   UNL A   1      42.422  21.905  27.830  1.00  0.00    -0.237 OA
ATOM     67  O   UNL A   1      40.341  22.302  26.567  1.00  0.00    -0.744 OA
ENDBRANCH  60  64
ENDBRANCH  43  57
BRANCH  44  68
ATOM     68  C   UNL A   1      39.436  32.203  35.219  1.00  0.00     0.023 A 
ATOM     69  C   UNL A   1      39.919  33.504  35.429  1.00  0.00     0.031 A 
ATOM     70  C   UNL A   1      38.528  31.675  36.155  1.00  0.00     0.131 A 
ATOM     71  C   UNL A   1      39.515  34.222  36.565  1.00  0.00     0.055 A 
ATOM     72  C   UNL A   1      38.092  32.412  37.257  1.00  0.00     0.041 A 
ATOM     73  F   UNL A   1      38.040  30.434  36.004  1.00  0.00    -0.206 F 
ATOM     74  C   UNL A   1      38.595  33.691  37.473  1.00  0.00     0.022 A 
BRANCH  71  75
ATOM     75  S   UNL A   1      40.268  35.841  36.883  1.00  0.00     0.124 S 
ATOM     76  O   UNL A   1      39.854  36.099  38.257  1.00  0.00    -0.237 OA
ATOM     77  O   UNL A   1      41.685  35.561  36.681  1.00  0.00    -0.237 OA
ATOM     78  O   UNL A   1      39.656  36.706  35.874  1.00  0.00    -0.744 OA
ENDBRANCH  71  75
ENDBRANCH  44  68
BRANCH  56  79
ATOM     79  C   UNL A   1      44.595  27.600  34.358  1.00  0.00     0.023 A 
ATOM     80  C   UNL A   1      44.454  26.427  35.117  1.00  0.00     0.031 A 
ATOM     81  C   UNL A   1      45.784  28.340  34.488  1.00  0.00     0.131 A 
ATOM     82  C   UNL A   1      45.470  26.045  36.006  1.00  0.00     0.055 A 
ATOM     83  C   UNL A   1      46.811  27.930  35.338  1.00  0.00     0.041 A 
ATOM     84  F   UNL A   1      45.965  29.470  33.787  1.00  0.00    -0.206 F 
ATOM     85  C   UNL A   1      46.654  26.782  36.109  1.00  0.00     0.022 A 
BRANCH  82  86
ATOM     86  S   UNL A   1      45.200  24.606  37.076  1.00  0.00     0.124 S 
ATOM     87  O   UNL A   1      46.567  24.192  37.376  1.00  0.00    -0.237 OA
ATOM     88  O   UNL A   1      44.448  25.177  38.189  1.00  0.00    -0.237 OA
ATOM     89  O   UNL A   1      44.444  23.685  36.228  1.00  0.00    -0.744 OA
ENDBRANCH  82  86
ENDBRANCH  56  79
ENDBRANCH  30  31
ENDBRANCH  23  25
ENDBRANCH  22  23
ENDBRANCH  21  22
ENDBRANCH   1  21
TORSDOF 20
ENDMDL
MODEL 3
REMARK VINA RESULT:     -10.6      1.834      2.086
REMARK SMILES COc1ccc(C(=O)C[C@H](C)CC(=O)OCCOC(=O)c2ccc(-c3c4nc(c(-c5cc(S(=O)(=O)[O-])ccc5F)c5ccc([nH]5)c(-c5cc(S(=O)(=O)[O-])ccc5F)c5nc(c(-c6cc(S(=O)(=O)[O-])ccc6F)c6ccc3[nH]6)C=C5)C=C4)cc2)c(OC)c1
REMARK SMILES IDX 16 1 15 2 13 3 14 4 12 5 10 6 11 7 9 8 7 9 8 10 6 11 3 12
REMARK SMILES IDX 4 13 87 14 5 15 84 16 2 17 1 18 85 19 86 20 17 21 18 22
REMARK SMILES IDX 19 23 20 24 21 25 22 26 83 27 23 28 82 29 24 30 25 31 26 32
REMARK SMILES IDX 76 33 27 34 81 35 75 36 77 37 28 38 80 39 74 40 73 41 29 43
REMARK SMILES IDX 61 44 41 45 60 46 42 47 45 48 59 49 78 50 43 51 44 52 58 54
REMARK SMILES IDX 79 55 46 56 30 57 31 58 39 59 32 60 38 61 40 62 37 63 33 64
REMARK SMILES IDX 34 65 35 66 36 67 62 68 63 69 71 70 64 71 70 72 72 73 69 74
REMARK SMILES IDX 65 75 66 76 67 77 68 78 47 79 48 80 56 81 49 82 55 83 57 84
REMARK SMILES IDX 54 85 50 86 51 87 52 88 53 89
REMARK H PARENT 77 42 45 53
REMARK Flexibility Score: inf
ROOT
ATOM      1  C   UNL A   1      31.209  29.514  24.405  1.00  0.00     0.274 C 
ENDROOT
BRANCH   1   2
ATOM      2  O   UNL A   1      30.771  28.193  24.041  1.00  0.00    -0.462 OA
BRANCH   2   3
ATOM      3  C   UNL A   1      30.610  27.955  22.714  1.00  0.00     0.306 C 
ATOM      4  O   UNL A   1      30.093  28.728  21.920  1.00  0.00    -0.252 OA
BRANCH   3   5
ATOM      5  C   UNL A   1      31.058  26.559  22.345  1.00  0.00     0.126 C 
BRANCH   5   6
ATOM      6  C   UNL A   1      32.460  26.425  21.723  1.00  0.00     0.005 C 
ATOM      7  C   UNL A   1      33.479  27.396  22.332  1.00  0.00     0.009 C 
BRANCH   6   8
ATOM      8  C   UNL A   1      33.033  24.982  21.686  1.00  0.00     0.085 C 
BRANCH   8   9
ATOM      9  C   UNL A   1      33.544  24.296  22.948  1.00  0.00     0.166 C 
ATOM     10  O   UNL A   1      34.736  24.003  23.064  1.00  0.00    -0.294 OA
BRANCH   9  11
ATOM     11  C   UNL A   1      32.641  23.947  24.075  1.00  0.00     0.060 A 
ATOM     12  C   UNL A   1      31.204  23.378  26.401  1.00  0.00     0.122 A 
ATOM     13  C   UNL A   1      31.838  24.610  26.266  1.00  0.00     0.047 A 
ATOM     14  C   UNL A   1      31.228  22.458  25.347  1.00  0.00     0.093 A 
ATOM     15  C   UNL A   1      32.558  24.894  25.109  1.00  0.00     0.019 A 
ATOM     16  C   UNL A   1      31.943  22.733  24.172  1.00  0.00     0.133 A 
BRANCH  12  17
ATOM     17  O   UNL A   1      30.533  23.182  27.578  1.00  0.00    -0.497 OA
ATOM     18  C   UNL A   1      29.214  22.665  27.425  1.00  0.00     0.278 C 
ENDBRANCH  12  17
BRANCH  16  19
ATOM     19  O   UNL A   1      31.983  21.898  23.090  1.00  0.00    -0.496 OA
ATOM     20  C   UNL A   1      32.394  20.552  23.304  1.00  0.00     0.278 C 
ENDBRANCH  16  19
ENDBRANCH   9  11
ENDBRANCH   8   9
ENDBRANCH   6   8
ENDBRANCH   5   6
ENDBRANCH   3   5
ENDBRANCH   2   3
ENDBRANCH   1   2
BRANCH   1  21
ATOM     21  C   UNL A   1      31.636  29.564  25.873  1.00  0.00     0.275 C 
BRANCH  21  22
ATOM     22  O   UNL A   1      32.961  30.107  25.996  1.00  0.00    -0.458 OA
BRANCH  22  23
ATOM     23  C   UNL A   1      33.112  31.123  26.877  1.00  0.00     0.338 C 
ATOM     24  O   UNL A   1      32.326  32.018  27.123  1.00  0.00    -0.246 OA
BRANCH  23  25
ATOM     25  C   UNL A   1      34.391  30.944  27.578  1.00  0.00     0.060 A 
ATOM     26  C   UNL A   1      34.735  29.679  28.061  1.00  0.00     0.016 A 
ATOM     27  C   UNL A   1      35.230  32.039  27.780  1.00  0.00     0.016 A 
ATOM     28  C   UNL A   1      35.937  29.495  28.739  1.00  0.00     0.010 A 
ATOM     29  C   UNL A   1      36.441  31.850  28.447  1.00  0.00     0.010 A 
ATOM     30  C   UNL A   1      36.803  30.578  28.924  1.00  0.00    -0.014 A 
BRANCH  30  31
ATOM     31  C   UNL A   1      38.099  30.394  29.616  1.00  0.00     0.031 A 
ATOM     32  C   UNL A   1      39.142  29.508  29.009  1.00  0.00     0.074 A 
ATOM     33  C   UNL A   1      38.306  30.991  30.805  1.00  0.00     0.049 A 
ATOM     34  N   UNL A   1      40.247  29.051  29.535  1.00  0.00    -0.248 NA
ATOM     35  C   UNL A   1      38.903  29.074  27.625  1.00  0.00     0.031 C 
ATOM     36  C   UNL A   1      37.380  31.921  31.455  1.00  0.00     0.029 A 
ATOM     37  N   UNL A   1      39.350  30.887  31.687  1.00  0.00    -0.354 N 
ATOM     38  C   UNL A   1      40.829  28.254  28.555  1.00  0.00     0.074 A 
ATOM     39  C   UNL A   1      39.943  28.280  27.410  1.00  0.00     0.031 C 
ATOM     40  C   UNL A   1      37.890  32.286  32.642  1.00  0.00     0.029 A 
ATOM     41  C   UNL A   1      39.138  31.565  32.865  1.00  0.00     0.049 A 
ATOM     42  H   UNL A   1      40.170  30.376  31.497  1.00  0.00     0.167 HD
ATOM     43  C   UNL A   1      41.996  27.566  28.617  1.00  0.00     0.034 A 
ATOM     44  C   UNL A   1      39.841  31.555  34.015  1.00  0.00     0.034 A 
ATOM     45  C   UNL A   1      42.856  27.558  29.775  1.00  0.00     0.049 A 
ATOM     46  C   UNL A   1      41.072  30.691  34.102  1.00  0.00     0.074 A 
ATOM     47  C   UNL A   1      44.075  26.924  29.943  1.00  0.00     0.029 A 
ATOM     48  N   UNL A   1      42.580  28.207  30.973  1.00  0.00    -0.354 N 
ATOM     49  N   UNL A   1      41.606  29.921  33.181  1.00  0.00    -0.248 NA
ATOM     50  C   UNL A   1      41.783  30.676  35.386  1.00  0.00     0.031 C 
ATOM     51  C   UNL A   1      44.499  27.132  31.261  1.00  0.00     0.029 A 
ATOM     52  C   UNL A   1      43.580  27.951  31.898  1.00  0.00     0.049 A 
ATOM     53  H   UNL A   1      41.788  28.768  31.141  1.00  0.00     0.167 HD
ATOM     54  C   UNL A   1      42.723  29.339  33.773  1.00  0.00     0.074 A 
ATOM     55  C   UNL A   1      42.793  29.860  35.124  1.00  0.00     0.031 C 
ATOM     56  C   UNL A   1      43.610  28.457  33.250  1.00  0.00     0.034 A 
BRANCH  43  57
ATOM     57  C   UNL A   1      42.364  26.719  27.425  1.00  0.00     0.023 A 
ATOM     58  C   UNL A   1      41.988  25.369  27.326  1.00  0.00     0.031 A 
ATOM     59  C   UNL A   1      43.133  27.268  26.383  1.00  0.00     0.131 A 
ATOM     60  C   UNL A   1      42.436  24.596  26.242  1.00  0.00     0.055 A 
ATOM     61  C   UNL A   1      43.517  26.512  25.274  1.00  0.00     0.041 A 
ATOM     62  F   UNL A   1      43.542  28.546  26.435  1.00  0.00    -0.206 F 
ATOM     63  C   UNL A   1      43.179  25.164  25.206  1.00  0.00     0.022 A 
BRANCH  60  64
ATOM     64  S   UNL A   1      42.144  22.806  26.271  1.00  0.00     0.124 S 
ATOM     65  O   UNL A   1      42.883  22.404  27.465  1.00  0.00    -0.237 OA
ATOM     66  O   UNL A   1      40.690  22.724  26.360  1.00  0.00    -0.237 OA
ATOM     67  O   UNL A   1      42.717  22.345  25.008  1.00  0.00    -0.744 OA
ENDBRANCH  60  64
ENDBRANCH  43  57
BRANCH  44  68
ATOM     68  C   UNL A   1      39.354  32.314  35.202  1.00  0.00     0.023 A 
ATOM     69  C   UNL A   1      39.799  33.619  35.462  1.00  0.00     0.031 A 
ATOM     70  C   UNL A   1      38.458  31.726  36.113  1.00  0.00     0.131 A 
ATOM     71  C   UNL A   1      39.371  34.282  36.622  1.00  0.00     0.055 A 
ATOM     72  C   UNL A   1      37.998  32.409  37.240  1.00  0.00     0.041 A 
ATOM     73  F   UNL A   1      38.006  30.478  35.914  1.00  0.00    -0.206 F 
ATOM     74  C   UNL A   1      38.464  33.692  37.506  1.00  0.00     0.022 A 
BRANCH  71  75
ATOM     75  S   UNL A   1      40.077  35.909  37.003  1.00  0.00     0.124 S 
ATOM     76  O   UNL A   1      39.744  36.668  35.804  1.00  0.00    -0.237 OA
ATOM     77  O   UNL A   1      39.356  36.276  38.217  1.00  0.00    -0.237 OA
ATOM     78  O   UNL A   1      41.500  35.628  37.188  1.00  0.00    -0.744 OA
ENDBRANCH  71  75
ENDBRANCH  44  68
BRANCH  56  79
ATOM     79  C   UNL A   1      44.738  28.019  34.149  1.00  0.00     0.023 A 
ATOM     80  C   UNL A   1      45.943  28.738  34.216  1.00  0.00     0.031 A 
ATOM     81  C   UNL A   1      44.607  26.862  34.939  1.00  0.00     0.131 A 
ATOM     82  C   UNL A   1      46.989  28.272  35.026  1.00  0.00     0.055 A 
ATOM     83  C   UNL A   1      45.633  26.431  35.779  1.00  0.00     0.041 A 
ATOM     84  F   UNL A   1      43.477  26.139  34.907  1.00  0.00    -0.206 F 
ATOM     85  C   UNL A   1      46.835  27.131  35.820  1.00  0.00     0.022 A 
BRANCH  82  86
ATOM     86  S   UNL A   1      48.580  29.140  34.984  1.00  0.00     0.124 S 
ATOM     87  O   UNL A   1      49.179  28.615  33.761  1.00  0.00    -0.237 OA
ATOM     88  O   UNL A   1      48.174  30.542  34.944  1.00  0.00    -0.237 OA
ATOM     89  O   UNL A   1      49.232  28.722  36.223  1.00  0.00    -0.744 OA
ENDBRANCH  82  86
ENDBRANCH  56  79
ENDBRANCH  30  31
ENDBRANCH  23  25
ENDBRANCH  22  23
ENDBRANCH  21  22
ENDBRANCH   1  21
TORSDOF 20
ENDMDL
