MODEL 1
REMARK VINA RESULT:     -10.9      0.000      0.000
REMARK SMILES O=C(OCCOC(=O)[C@H]1CCCN1S(=O)(=O)c1ccccc1Cl)c1ccc(-c2c3nc(c(-c4cc(S(=O)(=O)[O-])ccc4F)c4ccc([nH]4)c(-c4cc(S(=O)(=O)[O-])ccc4F)c4nc(c(-c5cc(S(=O)(=O)[O-])ccc5F)c5ccc2[nH]5)C=C4)C=C3)cc1
REMARK SMILES IDX 4 1 3 2 2 3 1 4 24 5 25 6 86 7 26 8 85 9 27 10 28 11 29 12
REMARK SMILES IDX 79 13 30 14 84 15 78 16 80 17 31 18 83 19 77 20 76 21 32 23
REMARK SMILES IDX 64 24 44 25 63 26 45 27 48 28 62 29 81 30 46 31 47 32 61 34
REMARK SMILES IDX 82 35 49 36 33 37 34 38 42 39 35 40 41 41 43 42 40 43 36 44
REMARK SMILES IDX 37 45 38 46 39 47 65 48 66 49 74 50 67 51 73 52 75 53 72 54
REMARK SMILES IDX 68 55 69 56 70 57 71 58 50 59 51 60 59 61 52 62 58 63 60 64
REMARK SMILES IDX 57 65 53 66 54 67 55 68 56 69 5 70 6 71 7 72 8 73 9 74 10 75
REMARK SMILES IDX 13 76 11 77 12 78 14 79 15 80 16 81 17 82 18 83 22 84 19 85
REMARK SMILES IDX 21 86 23 87 20 88
REMARK H PARENT 80 22 48 33
REMARK Flexibility Score: inf
ROOT
ATOM      1  C   UNL A   1      33.736  32.891  28.462  1.00  0.00     0.275 C 
ENDROOT
BRANCH   1   2
ATOM      2  O   UNL A   1      33.579  31.838  27.494  1.00  0.00    -0.458 OA
BRANCH   2   3
ATOM      3  C   UNL A   1      34.233  30.661  27.342  1.00  0.00     0.338 C 
ATOM      4  O   UNL A   1      33.702  29.825  26.608  1.00  0.00    -0.246 OA
BRANCH   3   5
ATOM      5  C   UNL A   1      35.509  30.249  28.040  1.00  0.00     0.060 A 
ATOM      6  C   UNL A   1      35.665  29.778  29.347  1.00  0.00     0.016 A 
ATOM      7  C   UNL A   1      36.677  30.304  27.256  1.00  0.00     0.016 A 
ATOM      8  C   UNL A   1      36.900  29.265  29.806  1.00  0.00     0.010 A 
ATOM      9  C   UNL A   1      37.908  29.802  27.712  1.00  0.00     0.010 A 
ATOM     10  C   UNL A   1      38.025  29.231  28.978  1.00  0.00    -0.014 A 
BRANCH  10  11
ATOM     11  C   UNL A   1      39.341  28.738  29.482  1.00  0.00     0.031 A 
ATOM     12  C   UNL A   1      39.940  29.440  30.651  1.00  0.00     0.074 A 
ATOM     13  C   UNL A   1      40.003  27.705  28.915  1.00  0.00     0.049 A 
ATOM     14  N   UNL A   1      41.067  29.192  31.257  1.00  0.00    -0.248 NA
ATOM     15  C   UNL A   1      39.197  30.593  31.184  1.00  0.00     0.031 C 
ATOM     16  C   UNL A   1      39.576  27.057  27.700  1.00  0.00     0.029 A 
ATOM     17  N   UNL A   1      41.154  27.020  29.219  1.00  0.00    -0.354 N 
ATOM     18  C   UNL A   1      41.174  30.160  32.240  1.00  0.00     0.074 A 
ATOM     19  C   UNL A   1      40.024  31.029  32.118  1.00  0.00     0.031 C 
ATOM     20  C   UNL A   1      40.378  26.046  27.363  1.00  0.00     0.029 A 
ATOM     21  C   UNL A   1      41.459  26.006  28.322  1.00  0.00     0.049 A 
ATOM     22  H   UNL A   1      41.713  27.230  30.001  1.00  0.00     0.167 HD
ATOM     23  C   UNL A   1      42.151  30.293  33.163  1.00  0.00     0.034 A 
ATOM     24  C   UNL A   1      42.511  25.168  28.236  1.00  0.00     0.034 A 
ATOM     25  C   UNL A   1      43.301  29.429  33.221  1.00  0.00     0.049 A 
ATOM     26  C   UNL A   1      43.586  25.360  29.263  1.00  0.00     0.074 A 
ATOM     27  C   UNL A   1      44.343  29.448  34.127  1.00  0.00     0.029 A 
ATOM     28  N   UNL A   1      43.572  28.403  32.319  1.00  0.00    -0.354 N 
ATOM     29  N   UNL A   1      43.627  26.237  30.239  1.00  0.00    -0.248 NA
ATOM     30  C   UNL A   1      44.753  24.482  29.177  1.00  0.00     0.031 C 
ATOM     31  C   UNL A   1      45.273  28.479  33.738  1.00  0.00     0.029 A 
ATOM     32  C   UNL A   1      44.776  27.798  32.635  1.00  0.00     0.049 A 
ATOM     33  H   UNL A   1      42.990  28.146  31.567  1.00  0.00     0.167 HD
ATOM     34  C   UNL A   1      44.829  26.014  30.890  1.00  0.00     0.074 A 
ATOM     35  C   UNL A   1      45.459  24.890  30.220  1.00  0.00     0.031 C 
ATOM     36  C   UNL A   1      45.372  26.684  31.937  1.00  0.00     0.034 A 
BRANCH  23  37
ATOM     37  C   UNL A   1      42.013  31.437  34.125  1.00  0.00     0.023 A 
ATOM     38  C   UNL A   1      41.113  31.378  35.204  1.00  0.00     0.031 A 
ATOM     39  C   UNL A   1      42.725  32.630  33.919  1.00  0.00     0.131 A 
ATOM     40  C   UNL A   1      40.892  32.515  35.991  1.00  0.00     0.055 A 
ATOM     41  C   UNL A   1      42.560  33.733  34.758  1.00  0.00     0.041 A 
ATOM     42  F   UNL A   1      43.567  32.752  32.882  1.00  0.00    -0.206 F 
ATOM     43  C   UNL A   1      41.629  33.685  35.792  1.00  0.00     0.022 A 
BRANCH  40  44
ATOM     44  S   UNL A   1      39.528  32.489  37.186  1.00  0.00     0.124 S 
ATOM     45  O   UNL A   1      40.250  32.495  38.457  1.00  0.00    -0.237 OA
ATOM     46  O   UNL A   1      38.799  33.710  36.864  1.00  0.00    -0.237 OA
ATOM     47  O   UNL A   1      38.828  31.244  36.879  1.00  0.00    -0.744 OA
ENDBRANCH  40  44
ENDBRANCH  23  37
BRANCH  24  48
ATOM     48  C   UNL A   1      42.651  24.158  27.135  1.00  0.00     0.023 A 
ATOM     49  C   UNL A   1      42.016  22.905  27.205  1.00  0.00     0.031 A 
ATOM     50  C   UNL A   1      43.484  24.395  26.024  1.00  0.00     0.131 A 
ATOM     51  C   UNL A   1      42.268  21.926  26.227  1.00  0.00     0.055 A 
ATOM     52  C   UNL A   1      43.672  23.446  25.015  1.00  0.00     0.041 A 
ATOM     53  F   UNL A   1      44.133  25.563  25.898  1.00  0.00    -0.206 F 
ATOM     54  C   UNL A   1      43.078  22.195  25.122  1.00  0.00     0.022 A 
BRANCH  51  55
ATOM     55  S   UNL A   1      41.635  20.243  26.489  1.00  0.00     0.124 S 
ATOM     56  O   UNL A   1      40.193  20.464  26.483  1.00  0.00    -0.237 OA
ATOM     57  O   UNL A   1      42.179  19.533  25.336  1.00  0.00    -0.237 OA
ATOM     58  O   UNL A   1      42.203  19.861  27.780  1.00  0.00    -0.744 OA
ENDBRANCH  51  55
ENDBRANCH  24  48
BRANCH  36  59
ATOM     59  C   UNL A   1      46.687  26.159  32.434  1.00  0.00     0.023 A 
ATOM     60  C   UNL A   1      46.753  25.103  33.358  1.00  0.00     0.031 A 
ATOM     61  C   UNL A   1      47.885  26.754  32.006  1.00  0.00     0.131 A 
ATOM     62  C   UNL A   1      47.994  24.719  33.878  1.00  0.00     0.055 A 
ATOM     63  C   UNL A   1      49.122  26.316  32.469  1.00  0.00     0.041 A 
ATOM     64  F   UNL A   1      47.867  27.774  31.133  1.00  0.00    -0.206 F 
ATOM     65  C   UNL A   1      49.180  25.302  33.423  1.00  0.00     0.022 A 
BRANCH  62  66
ATOM     66  S   UNL A   1      48.027  23.529  35.243  1.00  0.00     0.124 S 
ATOM     67  O   UNL A   1      48.954  22.521  34.740  1.00  0.00    -0.237 OA
ATOM     68  O   UNL A   1      48.511  24.341  36.356  1.00  0.00    -0.237 OA
ATOM     69  O   UNL A   1      46.635  23.096  35.352  1.00  0.00    -0.744 OA
ENDBRANCH  62  66
ENDBRANCH  36  59
ENDBRANCH  10  11
ENDBRANCH   3   5
ENDBRANCH   2   3
ENDBRANCH   1   2
BRANCH   1  70
ATOM     70  C   UNL A   1      32.893  34.128  28.141  1.00  0.00     0.274 C 
BRANCH  70  71
ATOM     71  O   UNL A   1      32.558  34.817  29.349  1.00  0.00    -0.461 OA
BRANCH  71  72
ATOM     72  C   UNL A   1      33.097  36.044  29.643  1.00  0.00     0.324 C 
ATOM     73  O   UNL A   1      32.829  37.077  29.049  1.00  0.00    -0.250 OA
BRANCH  72  74
ATOM     74  C   UNL A   1      34.011  35.907  30.868  1.00  0.00     0.183 C 
ATOM     75  C   UNL A   1      33.603  36.953  31.876  1.00  0.00     0.034 C 
ATOM     76  N   UNL A   1      33.938  34.642  31.695  1.00  0.00    -0.184 NA
ATOM     77  C   UNL A   1      32.441  36.327  32.614  1.00  0.00     0.019 C 
ATOM     78  C   UNL A   1      32.748  34.840  32.619  1.00  0.00     0.103 C 
BRANCH  76  79
ATOM     79  S   UNL A   1      35.334  34.255  32.687  1.00  0.00     0.245 S 
ATOM     80  O   UNL A   1      35.529  35.341  33.623  1.00  0.00    -0.207 OA
ATOM     81  O   UNL A   1      35.094  32.922  33.203  1.00  0.00    -0.207 OA
BRANCH  79  82
ATOM     82  C   UNL A   1      36.715  34.133  31.587  1.00  0.00     0.101 A 
ATOM     83  C   UNL A   1      36.465  33.565  30.328  1.00  0.00     0.023 A 
ATOM     84  C   UNL A   1      38.031  34.435  31.937  1.00  0.00     0.061 A 
ATOM     85  C   UNL A   1      37.496  33.405  29.402  1.00  0.00     0.002 A 
ATOM     86  C   UNL A   1      39.044  34.366  30.970  1.00  0.00     0.022 A 
ATOM     87  Cl  UNL A   1      38.579  34.751  33.530  1.00  0.00    -0.083 Cl
ATOM     88  C   UNL A   1      38.777  33.853  29.704  1.00  0.00     0.002 A 
ENDBRANCH  79  82
ENDBRANCH  76  79
ENDBRANCH  72  74
ENDBRANCH  71  72
ENDBRANCH  70  71
ENDBRANCH   1  70
TORSDOF 16
ENDMDL
MODEL 2
REMARK VINA RESULT:     -10.8      4.135      6.434
REMARK SMILES O=C(OCCOC(=O)[C@H]1CCCN1S(=O)(=O)c1ccccc1Cl)c1ccc(-c2c3nc(c(-c4cc(S(=O)(=O)[O-])ccc4F)c4ccc([nH]4)c(-c4cc(S(=O)(=O)[O-])ccc4F)c4nc(c(-c5cc(S(=O)(=O)[O-])ccc5F)c5ccc2[nH]5)C=C4)C=C3)cc1
REMARK SMILES IDX 4 1 3 2 2 3 1 4 24 5 25 6 86 7 26 8 85 9 27 10 28 11 29 12
REMARK SMILES IDX 79 13 30 14 84 15 78 16 80 17 31 18 83 19 77 20 76 21 32 23
REMARK SMILES IDX 64 24 44 25 63 26 45 27 48 28 62 29 81 30 46 31 47 32 61 34
REMARK SMILES IDX 82 35 49 36 33 37 34 38 42 39 35 40 41 41 43 42 40 43 36 44
REMARK SMILES IDX 37 45 38 46 39 47 65 48 66 49 74 50 67 51 73 52 75 53 72 54
REMARK SMILES IDX 68 55 69 56 70 57 71 58 50 59 51 60 59 61 52 62 58 63 60 64
REMARK SMILES IDX 57 65 53 66 54 67 55 68 56 69 5 70 6 71 7 72 8 73 9 74 10 75
REMARK SMILES IDX 13 76 11 77 12 78 14 79 15 80 16 81 17 82 18 83 22 84 19 85
REMARK SMILES IDX 21 86 23 87 20 88
REMARK H PARENT 80 22 48 33
REMARK Flexibility Score: inf
ROOT
ATOM      1  C   UNL A   1      31.360  31.701  26.587  1.00  0.00     0.275 C 
ENDROOT
BRANCH   1   2
ATOM      2  O   UNL A   1      32.171  32.891  26.610  1.00  0.00    -0.458 OA
BRANCH   2   3
ATOM      3  C   UNL A   1      32.938  33.428  27.589  1.00  0.00     0.338 C 
ATOM      4  O   UNL A   1      32.555  34.499  28.064  1.00  0.00    -0.246 OA
BRANCH   3   5
ATOM      5  C   UNL A   1      34.251  32.880  28.101  1.00  0.00     0.060 A 
ATOM      6  C   UNL A   1      35.497  33.513  28.131  1.00  0.00     0.016 A 
ATOM      7  C   UNL A   1      34.195  31.589  28.658  1.00  0.00     0.016 A 
ATOM      8  C   UNL A   1      36.602  32.938  28.801  1.00  0.00     0.010 A 
ATOM      9  C   UNL A   1      35.294  31.012  29.318  1.00  0.00     0.010 A 
ATOM     10  C   UNL A   1      36.499  31.700  29.440  1.00  0.00    -0.014 A 
BRANCH  10  11
ATOM     11  C   UNL A   1      37.681  31.071  30.101  1.00  0.00     0.031 A 
ATOM     12  C   UNL A   1      37.973  31.459  31.510  1.00  0.00     0.074 A 
ATOM     13  C   UNL A   1      38.488  30.189  29.473  1.00  0.00     0.049 A 
ATOM     14  N   UNL A   1      38.939  31.046  32.281  1.00  0.00    -0.248 NA
ATOM     15  C   UNL A   1      37.090  32.467  32.116  1.00  0.00     0.031 C 
ATOM     16  C   UNL A   1      38.373  29.860  28.073  1.00  0.00     0.029 A 
ATOM     17  N   UNL A   1      39.562  29.424  29.861  1.00  0.00    -0.354 N 
ATOM     18  C   UNL A   1      38.786  31.748  33.464  1.00  0.00     0.074 A 
ATOM     19  C   UNL A   1      37.666  32.647  33.291  1.00  0.00     0.031 C 
ATOM     20  C   UNL A   1      39.264  28.941  27.699  1.00  0.00     0.029 A 
ATOM     21  C   UNL A   1      40.098  28.648  28.843  1.00  0.00     0.049 A 
ATOM     22  H   UNL A   1      39.919  29.427  30.778  1.00  0.00     0.167 HD
ATOM     23  C   UNL A   1      39.521  31.634  34.592  1.00  0.00     0.034 A 
ATOM     24  C   UNL A   1      41.168  27.830  28.804  1.00  0.00     0.034 A 
ATOM     25  C   UNL A   1      40.655  30.754  34.706  1.00  0.00     0.049 A 
ATOM     26  C   UNL A   1      41.972  27.745  30.067  1.00  0.00     0.074 A 
ATOM     27  C   UNL A   1      41.460  30.531  35.804  1.00  0.00     0.029 A 
ATOM     28  N   UNL A   1      41.158  29.968  33.672  1.00  0.00    -0.354 N 
ATOM     29  N   UNL A   1      41.760  28.362  31.207  1.00  0.00    -0.248 NA
ATOM     30  C   UNL A   1      43.157  26.886  30.045  1.00  0.00     0.031 C 
ATOM     31  C   UNL A   1      42.486  29.662  35.421  1.00  0.00     0.029 A 
ATOM     32  C   UNL A   1      42.278  29.277  34.104  1.00  0.00     0.049 A 
ATOM     33  H   UNL A   1      40.774  29.912  32.767  1.00  0.00     0.167 HD
ATOM     34  C   UNL A   1      42.787  27.962  32.044  1.00  0.00     0.074 A 
ATOM     35  C   UNL A   1      43.591  27.017  31.289  1.00  0.00     0.031 C 
ATOM     36  C   UNL A   1      43.054  28.349  33.316  1.00  0.00     0.034 A 
BRANCH  23  37
ATOM     37  C   UNL A   1      39.128  32.517  35.740  1.00  0.00     0.023 A 
ATOM     38  C   UNL A   1      39.576  33.847  35.824  1.00  0.00     0.031 A 
ATOM     39  C   UNL A   1      38.366  32.005  36.803  1.00  0.00     0.131 A 
ATOM     40  C   UNL A   1      39.324  34.597  36.980  1.00  0.00     0.055 A 
ATOM     41  C   UNL A   1      38.049  32.784  37.916  1.00  0.00     0.041 A 
ATOM     42  F   UNL A   1      37.947  30.730  36.790  1.00  0.00    -0.206 F 
ATOM     43  C   UNL A   1      38.540  34.084  38.016  1.00  0.00     0.022 A 
BRANCH  40  44
ATOM     44  S   UNL A   1      40.152  36.199  37.171  1.00  0.00     0.124 S 
ATOM     45  O   UNL A   1      39.930  36.803  35.859  1.00  0.00    -0.237 OA
ATOM     46  O   UNL A   1      39.424  36.803  38.280  1.00  0.00    -0.237 OA
ATOM     47  O   UNL A   1      41.538  35.835  37.458  1.00  0.00    -0.744 OA
ENDBRANCH  40  44
ENDBRANCH  23  37
BRANCH  24  48
ATOM     48  C   UNL A   1      41.590  27.110  27.557  1.00  0.00     0.023 A 
ATOM     49  C   UNL A   1      41.456  25.715  27.436  1.00  0.00     0.031 A 
ATOM     50  C   UNL A   1      42.206  27.791  26.490  1.00  0.00     0.131 A 
ATOM     51  C   UNL A   1      41.979  25.046  26.314  1.00  0.00     0.055 A 
ATOM     52  C   UNL A   1      42.656  27.132  25.342  1.00  0.00     0.041 A 
ATOM     53  F   UNL A   1      42.380  29.121  26.542  1.00  0.00    -0.206 F 
ATOM     54  C   UNL A   1      42.561  25.749  25.258  1.00  0.00     0.022 A 
BRANCH  51  55
ATOM     55  S   UNL A   1      42.014  23.230  26.315  1.00  0.00     0.124 S 
ATOM     56  O   UNL A   1      42.854  22.949  27.473  1.00  0.00    -0.237 OA
ATOM     57  O   UNL A   1      40.599  22.901  26.454  1.00  0.00    -0.237 OA
ATOM     58  O   UNL A   1      42.605  22.900  25.020  1.00  0.00    -0.744 OA
ENDBRANCH  51  55
ENDBRANCH  24  48
BRANCH  36  59
ATOM     59  C   UNL A   1      44.237  27.689  33.963  1.00  0.00     0.023 A 
ATOM     60  C   UNL A   1      44.103  26.500  34.697  1.00  0.00     0.031 A 
ATOM     61  C   UNL A   1      45.506  28.286  33.874  1.00  0.00     0.131 A 
ATOM     62  C   UNL A   1      45.211  25.980  35.375  1.00  0.00     0.055 A 
ATOM     63  C   UNL A   1      46.621  27.721  34.487  1.00  0.00     0.041 A 
ATOM     64  F   UNL A   1      45.677  29.430  33.192  1.00  0.00    -0.206 F 
ATOM     65  C   UNL A   1      46.473  26.569  35.256  1.00  0.00     0.022 A 
BRANCH  62  66
ATOM     66  S   UNL A   1      44.956  24.590  36.508  1.00  0.00     0.124 S 
ATOM     67  O   UNL A   1      46.303  24.370  37.022  1.00  0.00    -0.237 OA
ATOM     68  O   UNL A   1      43.992  25.133  37.459  1.00  0.00    -0.237 OA
ATOM     69  O   UNL A   1      44.441  23.533  35.640  1.00  0.00    -0.744 OA
ENDBRANCH  62  66
ENDBRANCH  36  59
ENDBRANCH  10  11
ENDBRANCH   3   5
ENDBRANCH   2   3
ENDBRANCH   1   2
BRANCH   1  70
ATOM     70  C   UNL A   1      32.147  30.451  26.187  1.00  0.00     0.274 C 
BRANCH  70  71
ATOM     71  O   UNL A   1      32.200  29.536  27.287  1.00  0.00    -0.461 OA
BRANCH  71  72
ATOM     72  C   UNL A   1      31.865  28.215  27.132  1.00  0.00     0.324 C 
ATOM     73  O   UNL A   1      31.384  27.515  28.010  1.00  0.00    -0.250 OA
BRANCH  72  74
ATOM     74  C   UNL A   1      32.120  27.804  25.675  1.00  0.00     0.183 C 
ATOM     75  C   UNL A   1      33.477  27.148  25.604  1.00  0.00     0.034 C 
ATOM     76  N   UNL A   1      31.237  26.745  25.051  1.00  0.00    -0.184 NA
ATOM     77  C   UNL A   1      33.220  25.715  26.014  1.00  0.00     0.019 C 
ATOM     78  C   UNL A   1      31.816  25.420  25.515  1.00  0.00     0.103 C 
BRANCH  76  79
ATOM     79  S   UNL A   1      31.147  26.712  23.298  1.00  0.00     0.245 S 
ATOM     80  O   UNL A   1      32.452  27.060  22.780  1.00  0.00    -0.207 OA
ATOM     81  O   UNL A   1      30.580  25.423  22.956  1.00  0.00    -0.207 OA
BRANCH  79  82
ATOM     82  C   UNL A   1      29.953  27.932  22.832  1.00  0.00     0.101 A 
ATOM     83  C   UNL A   1      30.455  29.129  22.299  1.00  0.00     0.023 A 
ATOM     84  C   UNL A   1      28.584  27.833  23.083  1.00  0.00     0.061 A 
ATOM     85  C   UNL A   1      29.592  30.160  21.924  1.00  0.00     0.002 A 
ATOM     86  C   UNL A   1      27.715  28.827  22.615  1.00  0.00     0.022 A 
ATOM     87  Cl  UNL A   1      27.849  26.644  24.075  1.00  0.00    -0.083 Cl
ATOM     88  C   UNL A   1      28.217  29.988  22.035  1.00  0.00     0.002 A 
ENDBRANCH  79  82
ENDBRANCH  76  79
ENDBRANCH  72  74
ENDBRANCH  71  72
ENDBRANCH  70  71
ENDBRANCH   1  70
TORSDOF 16
ENDMDL
MODEL 3
REMARK VINA RESULT:     -10.7      4.390     12.369
REMARK SMILES O=C(OCCOC(=O)[C@H]1CCCN1S(=O)(=O)c1ccccc1Cl)c1ccc(-c2c3nc(c(-c4cc(S(=O)(=O)[O-])ccc4F)c4ccc([nH]4)c(-c4cc(S(=O)(=O)[O-])ccc4F)c4nc(c(-c5cc(S(=O)(=O)[O-])ccc5F)c5ccc2[nH]5)C=C4)C=C3)cc1
REMARK SMILES IDX 4 1 3 2 2 3 1 4 24 5 25 6 86 7 26 8 85 9 27 10 28 11 29 12
REMARK SMILES IDX 79 13 30 14 84 15 78 16 80 17 31 18 83 19 77 20 76 21 32 23
REMARK SMILES IDX 64 24 44 25 63 26 45 27 48 28 62 29 81 30 46 31 47 32 61 34
REMARK SMILES IDX 82 35 49 36 33 37 34 38 42 39 35 40 41 41 43 42 40 43 36 44
REMARK SMILES IDX 37 45 38 46 39 47 65 48 66 49 74 50 67 51 73 52 75 53 72 54
REMARK SMILES IDX 68 55 69 56 70 57 71 58 50 59 51 60 59 61 52 62 58 63 60 64
REMARK SMILES IDX 57 65 53 66 54 67 55 68 56 69 5 70 6 71 7 72 8 73 9 74 10 75
REMARK SMILES IDX 13 76 11 77 12 78 14 79 15 80 16 81 17 82 18 83 22 84 19 85
REMARK SMILES IDX 21 86 23 87 20 88
REMARK H PARENT 80 22 48 33
REMARK Flexibility Score: inf
ROOT
ATOM      1  C   UNL A   1      39.554  20.170  25.708  1.00  0.00     0.275 C 
ENDROOT
BRANCH   1   2
ATOM      2  O   UNL A   1      39.730  21.519  26.178  1.00  0.00    -0.458 OA
BRANCH   2   3
ATOM      3  C   UNL A   1      38.847  22.536  26.325  1.00  0.00     0.338 C 
ATOM      4  O   UNL A   1      37.709  22.344  25.891  1.00  0.00    -0.246 OA
BRANCH   3   5
ATOM      5  C   UNL A   1      39.141  23.902  26.902  1.00  0.00     0.060 A 
ATOM      6  C   UNL A   1      38.916  24.355  28.205  1.00  0.00     0.016 A 
ATOM      7  C   UNL A   1      39.761  24.811  26.026  1.00  0.00     0.016 A 
ATOM      8  C   UNL A   1      39.403  25.606  28.647  1.00  0.00     0.010 A 
ATOM      9  C   UNL A   1      40.240  26.060  26.460  1.00  0.00     0.010 A 
ATOM     10  C   UNL A   1      40.110  26.454  27.791  1.00  0.00    -0.014 A 
BRANCH  10  11
ATOM     11  C   UNL A   1      40.578  27.797  28.244  1.00  0.00     0.031 A 
ATOM     12  C   UNL A   1      42.039  28.080  28.177  1.00  0.00     0.074 A 
ATOM     13  C   UNL A   1      39.738  28.744  28.718  1.00  0.00     0.049 A 
ATOM     14  N   UNL A   1      42.672  29.168  28.514  1.00  0.00    -0.248 NA
ATOM     15  C   UNL A   1      42.904  26.987  27.705  1.00  0.00     0.031 C 
ATOM     16  C   UNL A   1      38.334  28.516  28.955  1.00  0.00     0.029 A 
ATOM     17  N   UNL A   1      39.890  30.050  29.115  1.00  0.00    -0.354 N 
ATOM     18  C   UNL A   1      44.011  28.891  28.303  1.00  0.00     0.074 A 
ATOM     19  C   UNL A   1      44.104  27.519  27.856  1.00  0.00     0.031 C 
ATOM     20  C   UNL A   1      37.716  29.614  29.393  1.00  0.00     0.029 A 
ATOM     21  C   UNL A   1      38.715  30.647  29.549  1.00  0.00     0.049 A 
ATOM     22  H   UNL A   1      40.754  30.521  29.094  1.00  0.00     0.167 HD
ATOM     23  C   UNL A   1      45.061  29.726  28.466  1.00  0.00     0.034 A 
ATOM     24  C   UNL A   1      38.463  31.866  30.066  1.00  0.00     0.034 A 
ATOM     25  C   UNL A   1      44.926  31.073  28.953  1.00  0.00     0.049 A 
ATOM     26  C   UNL A   1      39.654  32.756  30.252  1.00  0.00     0.074 A 
ATOM     27  C   UNL A   1      45.912  32.023  29.134  1.00  0.00     0.029 A 
ATOM     28  N   UNL A   1      43.729  31.655  29.362  1.00  0.00    -0.354 N 
ATOM     29  N   UNL A   1      40.911  32.500  29.969  1.00  0.00    -0.248 NA
ATOM     30  C   UNL A   1      39.415  34.076  30.838  1.00  0.00     0.031 C 
ATOM     31  C   UNL A   1      45.324  33.154  29.709  1.00  0.00     0.029 A 
ATOM     32  C   UNL A   1      43.957  32.944  29.815  1.00  0.00     0.049 A 
ATOM     33  H   UNL A   1      42.848  31.215  29.332  1.00  0.00     0.167 HD
ATOM     34  C   UNL A   1      41.616  33.632  30.339  1.00  0.00     0.074 A 
ATOM     35  C   UNL A   1      40.635  34.588  30.826  1.00  0.00     0.031 C 
ATOM     36  C   UNL A   1      42.951  33.861  30.298  1.00  0.00     0.034 A 
BRANCH  23  37
ATOM     37  C   UNL A   1      46.418  29.165  28.153  1.00  0.00     0.023 A 
ATOM     38  C   UNL A   1      46.801  28.877  26.830  1.00  0.00     0.031 A 
ATOM     39  C   UNL A   1      47.308  28.838  29.188  1.00  0.00     0.131 A 
ATOM     40  C   UNL A   1      48.009  28.212  26.583  1.00  0.00     0.055 A 
ATOM     41  C   UNL A   1      48.546  28.249  28.928  1.00  0.00     0.041 A 
ATOM     42  F   UNL A   1      46.975  29.056  30.469  1.00  0.00    -0.206 F 
ATOM     43  C   UNL A   1      48.897  27.919  27.621  1.00  0.00     0.022 A 
BRANCH  40  44
ATOM     44  S   UNL A   1      48.336  27.609  24.904  1.00  0.00     0.124 S 
ATOM     45  O   UNL A   1      47.424  28.431  24.113  1.00  0.00    -0.237 OA
ATOM     46  O   UNL A   1      49.756  27.893  24.736  1.00  0.00    -0.237 OA
ATOM     47  O   UNL A   1      47.987  26.192  24.976  1.00  0.00    -0.744 OA
ENDBRANCH  40  44
ENDBRANCH  23  37
BRANCH  24  48
ATOM     48  C   UNL A   1      37.093  32.287  30.511  1.00  0.00     0.023 A 
ATOM     49  C   UNL A   1      36.154  32.805  29.601  1.00  0.00     0.031 A 
ATOM     50  C   UNL A   1      36.721  32.252  31.869  1.00  0.00     0.131 A 
ATOM     51  C   UNL A   1      34.927  33.315  30.061  1.00  0.00     0.055 A 
ATOM     52  C   UNL A   1      35.469  32.691  32.313  1.00  0.00     0.041 A 
ATOM     53  F   UNL A   1      37.571  31.785  32.796  1.00  0.00    -0.206 F 
ATOM     54  C   UNL A   1      34.571  33.245  31.409  1.00  0.00     0.022 A 
BRANCH  51  55
ATOM     55  S   UNL A   1      33.855  34.203  28.894  1.00  0.00     0.124 S 
ATOM     56  O   UNL A   1      34.790  35.143  28.286  1.00  0.00    -0.237 OA
ATOM     57  O   UNL A   1      33.384  33.122  28.034  1.00  0.00    -0.237 OA
ATOM     58  O   UNL A   1      32.837  34.803  29.753  1.00  0.00    -0.744 OA
ENDBRANCH  51  55
ENDBRANCH  24  48
BRANCH  36  59
ATOM     59  C   UNL A   1      43.394  35.224  30.743  1.00  0.00     0.023 A 
ATOM     60  C   UNL A   1      43.522  35.544  32.104  1.00  0.00     0.031 A 
ATOM     61  C   UNL A   1      43.650  36.223  29.790  1.00  0.00     0.131 A 
ATOM     62  C   UNL A   1      43.830  36.858  32.477  1.00  0.00     0.055 A 
ATOM     63  C   UNL A   1      44.032  37.508  30.165  1.00  0.00     0.041 A 
ATOM     64  F   UNL A   1      43.528  35.963  28.478  1.00  0.00    -0.206 F 
ATOM     65  C   UNL A   1      44.108  37.835  31.517  1.00  0.00     0.022 A 
BRANCH  62  66
ATOM     66  S   UNL A   1      43.747  37.300  34.232  1.00  0.00     0.124 S 
ATOM     67  O   UNL A   1      44.875  38.214  34.365  1.00  0.00    -0.237 OA
ATOM     68  O   UNL A   1      42.422  37.902  34.341  1.00  0.00    -0.237 OA
ATOM     69  O   UNL A   1      43.902  36.016  34.914  1.00  0.00    -0.744 OA
ENDBRANCH  62  66
ENDBRANCH  36  59
ENDBRANCH  10  11
ENDBRANCH   3   5
ENDBRANCH   2   3
ENDBRANCH   1   2
BRANCH   1  70
ATOM     70  C   UNL A   1      40.719  19.251  26.082  1.00  0.00     0.274 C 
BRANCH  70  71
ATOM     71  O   UNL A   1      41.895  19.638  25.364  1.00  0.00    -0.461 OA
BRANCH  71  72
ATOM     72  C   UNL A   1      43.086  18.980  25.540  1.00  0.00     0.324 C 
ATOM     73  O   UNL A   1      43.214  17.765  25.528  1.00  0.00    -0.250 OA
BRANCH  72  74
ATOM     74  C   UNL A   1      44.213  20.014  25.671  1.00  0.00     0.183 C 
ATOM     75  C   UNL A   1      45.481  19.396  25.136  1.00  0.00     0.034 C 
ATOM     76  N   UNL A   1      44.130  21.290  24.861  1.00  0.00    -0.184 NA
ATOM     77  C   UNL A   1      45.397  19.607  23.641  1.00  0.00     0.019 C 
ATOM     78  C   UNL A   1      44.647  20.918  23.482  1.00  0.00     0.103 C 
BRANCH  76  79
ATOM     79  S   UNL A   1      45.062  22.662  25.435  1.00  0.00     0.245 S 
ATOM     80  O   UNL A   1      46.442  22.245  25.552  1.00  0.00    -0.207 OA
ATOM     81  O   UNL A   1      44.736  23.760  24.548  1.00  0.00    -0.207 OA
BRANCH  79  82
ATOM     82  C   UNL A   1      44.408  23.084  27.025  1.00  0.00     0.101 A 
ATOM     83  C   UNL A   1      43.038  22.854  27.221  1.00  0.00     0.023 A 
ATOM     84  C   UNL A   1      45.127  23.741  28.025  1.00  0.00     0.061 A 
ATOM     85  C   UNL A   1      42.427  23.177  28.433  1.00  0.00     0.002 A 
ATOM     86  C   UNL A   1      44.534  23.971  29.273  1.00  0.00     0.022 A 
ATOM     87  Cl  UNL A   1      46.672  24.454  27.819  1.00  0.00    -0.083 Cl
ATOM     88  C   UNL A   1      43.187  23.689  29.479  1.00  0.00     0.002 A 
ENDBRANCH  79  82
ENDBRANCH  76  79
ENDBRANCH  72  74
ENDBRANCH  71  72
ENDBRANCH  70  71
ENDBRANCH   1  70
TORSDOF 16
ENDMDL
