MODEL 1
REMARK VINA RESULT:     -12.0      0.000      0.000
REMARK SMILES O=C(Cc1ccn(-c2ccccc2F)c1)OCCOC(=O)c1ccc(-c2c3nc(c(-c4cc(S(=O)(=O)[O-])ccc4F)c4ccc([nH]4)c(-c4cc(S(=O)(=O)[O-])ccc4F)c4nc(c(-c5cc(S(=O)(=O)[O-])ccc5F)c5ccc2[nH]5)C=C4)C=C3)cc1
REMARK SMILES IDX 18 1 17 2 16 3 2 4 1 5 3 6 4 7 5 8 15 9 6 10 7 11 8 12 9 13
REMARK SMILES IDX 13 14 10 15 12 16 14 17 11 18 19 19 20 20 21 21 22 22 23 23
REMARK SMILES IDX 84 24 24 25 83 26 25 27 26 28 27 29 77 30 28 31 82 32 76 33
REMARK SMILES IDX 78 34 29 35 81 36 75 37 74 38 30 40 62 41 42 42 61 43 43 44
REMARK SMILES IDX 46 45 60 46 79 47 44 48 45 49 59 51 80 52 47 53 31 54 32 55
REMARK SMILES IDX 40 56 33 57 39 58 41 59 38 60 34 61 35 62 36 63 37 64 63 65
REMARK SMILES IDX 64 66 72 67 65 68 71 69 73 70 70 71 66 72 67 73 68 74 69 75
REMARK SMILES IDX 48 76 49 77 57 78 50 79 56 80 58 81 55 82 51 83 52 84 53 85
REMARK SMILES IDX 54 86
REMARK H PARENT 78 39 46 50
REMARK Flexibility Score: inf
ROOT
ATOM      1  C   UNL A   1      39.252  22.617  26.696  1.00  0.00     0.275 C 
ENDROOT
BRANCH   1   2
ATOM      2  C   UNL A   1      38.452  22.093  25.518  1.00  0.00     0.274 C 
BRANCH   2   3
ATOM      3  O   UNL A   1      37.109  22.635  25.463  1.00  0.00    -0.462 OA
BRANCH   3   4
ATOM      4  C   UNL A   1      36.324  22.809  24.366  1.00  0.00     0.310 C 
ATOM      5  O   UNL A   1      36.832  22.771  23.243  1.00  0.00    -0.252 OA
BRANCH   4   6
ATOM      6  C   UNL A   1      34.823  22.992  24.520  1.00  0.00     0.159 C 
BRANCH   6   7
ATOM      7  C   UNL A   1      34.046  21.732  24.380  1.00  0.00    -0.019 A 
ATOM      8  C   UNL A   1      32.830  21.525  23.670  1.00  0.00     0.024 A 
ATOM      9  C   UNL A   1      34.372  20.524  24.951  1.00  0.00     0.095 A 
ATOM     10  C   UNL A   1      32.493  20.192  23.804  1.00  0.00     0.091 A 
ATOM     11  N   UNL A   1      33.409  19.604  24.641  1.00  0.00    -0.321 N 
BRANCH  11  12
ATOM     12  C   UNL A   1      33.514  18.264  25.022  1.00  0.00     0.081 A 
ATOM     13  C   UNL A   1      32.385  17.618  25.526  1.00  0.00     0.030 A 
ATOM     14  C   UNL A   1      34.651  17.545  24.651  1.00  0.00     0.147 A 
ATOM     15  C   UNL A   1      32.397  16.227  25.611  1.00  0.00     0.002 A 
ATOM     16  C   UNL A   1      34.674  16.165  24.777  1.00  0.00     0.041 A 
ATOM     17  F   UNL A   1      35.735  18.170  24.168  1.00  0.00    -0.205 F 
ATOM     18  C   UNL A   1      33.536  15.503  25.238  1.00  0.00     0.003 A 
ENDBRANCH  11  12
ENDBRANCH   6   7
ENDBRANCH   4   6
ENDBRANCH   3   4
ENDBRANCH   2   3
ENDBRANCH   1   2
BRANCH   1  19
ATOM     19  O   UNL A   1      39.158  24.034  26.741  1.00  0.00    -0.458 OA
BRANCH  19  20
ATOM     20  C   UNL A   1      40.204  24.629  27.357  1.00  0.00     0.338 C 
ATOM     21  O   UNL A   1      41.292  24.156  27.594  1.00  0.00    -0.246 OA
BRANCH  20  22
ATOM     22  C   UNL A   1      39.787  25.956  27.795  1.00  0.00     0.060 A 
ATOM     23  C   UNL A   1      40.005  26.997  26.892  1.00  0.00     0.016 A 
ATOM     24  C   UNL A   1      39.520  26.163  29.155  1.00  0.00     0.016 A 
ATOM     25  C   UNL A   1      40.181  28.257  27.402  1.00  0.00     0.010 A 
ATOM     26  C   UNL A   1      39.757  27.406  29.673  1.00  0.00     0.010 A 
ATOM     27  C   UNL A   1      40.135  28.420  28.791  1.00  0.00    -0.014 A 
BRANCH  27  28
ATOM     28  C   UNL A   1      40.342  29.762  29.309  1.00  0.00     0.031 A 
ATOM     29  C   UNL A   1      38.952  30.369  29.630  1.00  0.00     0.074 A 
ATOM     30  C   UNL A   1      41.659  30.163  29.309  1.00  0.00     0.049 A 
ATOM     31  N   UNL A   1      38.558  31.598  29.585  1.00  0.00    -0.248 NA
ATOM     32  C   UNL A   1      37.790  29.474  29.954  1.00  0.00     0.031 C 
ATOM     33  C   UNL A   1      42.837  29.311  28.963  1.00  0.00     0.029 A 
ATOM     34  N   UNL A   1      42.295  31.348  29.584  1.00  0.00    -0.354 N 
ATOM     35  C   UNL A   1      37.249  31.655  30.114  1.00  0.00     0.074 A 
ATOM     36  C   UNL A   1      36.777  30.311  30.186  1.00  0.00     0.031 C 
ATOM     37  C   UNL A   1      43.985  30.034  28.934  1.00  0.00     0.029 A 
ATOM     38  C   UNL A   1      43.692  31.409  29.285  1.00  0.00     0.049 A 
ATOM     39  H   UNL A   1      41.814  32.116  29.968  1.00  0.00     0.167 HD
ATOM     40  C   UNL A   1      36.705  32.809  30.594  1.00  0.00     0.034 A 
ATOM     41  C   UNL A   1      44.510  32.515  29.277  1.00  0.00     0.034 A 
ATOM     42  C   UNL A   1      37.640  33.870  30.422  1.00  0.00     0.049 A 
ATOM     43  C   UNL A   1      43.642  33.566  29.837  1.00  0.00     0.074 A 
ATOM     44  C   UNL A   1      38.075  34.506  29.291  1.00  0.00     0.029 A 
ATOM     45  N   UNL A   1      38.553  34.052  31.436  1.00  0.00    -0.354 N 
ATOM     46  N   UNL A   1      43.248  33.626  31.074  1.00  0.00    -0.248 NA
ATOM     47  C   UNL A   1      43.054  34.541  28.911  1.00  0.00     0.031 C 
ATOM     48  C   UNL A   1      39.467  34.553  29.496  1.00  0.00     0.029 A 
ATOM     49  C   UNL A   1      39.766  34.276  30.836  1.00  0.00     0.049 A 
ATOM     50  H   UNL A   1      38.371  34.027  32.403  1.00  0.00     0.167 HD
ATOM     51  C   UNL A   1      42.128  34.412  30.988  1.00  0.00     0.074 A 
ATOM     52  C   UNL A   1      42.249  35.173  29.759  1.00  0.00     0.031 C 
ATOM     53  C   UNL A   1      40.974  34.018  31.586  1.00  0.00     0.034 A 
BRANCH  40  54
ATOM     54  C   UNL A   1      35.490  33.115  31.412  1.00  0.00     0.023 A 
ATOM     55  C   UNL A   1      34.716  34.219  30.978  1.00  0.00     0.031 A 
ATOM     56  C   UNL A   1      35.263  32.655  32.713  1.00  0.00     0.131 A 
ATOM     57  C   UNL A   1      33.875  34.909  31.856  1.00  0.00     0.055 A 
ATOM     58  C   UNL A   1      34.373  33.312  33.576  1.00  0.00     0.041 A 
ATOM     59  F   UNL A   1      35.955  31.623  33.217  1.00  0.00    -0.206 F 
ATOM     60  C   UNL A   1      33.703  34.466  33.163  1.00  0.00     0.022 A 
BRANCH  57  61
ATOM     61  S   UNL A   1      33.146  36.469  31.285  1.00  0.00     0.124 S 
ATOM     62  O   UNL A   1      33.980  37.465  31.949  1.00  0.00    -0.237 OA
ATOM     63  O   UNL A   1      33.304  36.369  29.836  1.00  0.00    -0.237 OA
ATOM     64  O   UNL A   1      31.766  36.393  31.761  1.00  0.00    -0.744 OA
ENDBRANCH  57  61
ENDBRANCH  40  54
BRANCH  41  65
ATOM     65  C   UNL A   1      45.882  32.994  28.795  1.00  0.00     0.023 A 
ATOM     66  C   UNL A   1      46.212  33.543  27.542  1.00  0.00     0.031 A 
ATOM     67  C   UNL A   1      46.957  33.024  29.747  1.00  0.00     0.131 A 
ATOM     68  C   UNL A   1      47.488  34.163  27.343  1.00  0.00     0.055 A 
ATOM     69  C   UNL A   1      48.154  33.720  29.581  1.00  0.00     0.041 A 
ATOM     70  F   UNL A   1      46.887  32.377  30.919  1.00  0.00    -0.206 F 
ATOM     71  C   UNL A   1      48.419  34.315  28.375  1.00  0.00     0.022 A 
BRANCH  68  72
ATOM     72  S   UNL A   1      47.998  34.829  25.725  1.00  0.00     0.124 S 
ATOM     73  O   UNL A   1      46.837  34.524  24.895  1.00  0.00    -0.237 OA
ATOM     74  O   UNL A   1      48.231  36.240  26.008  1.00  0.00    -0.237 OA
ATOM     75  O   UNL A   1      49.201  34.058  25.412  1.00  0.00    -0.744 OA
ENDBRANCH  68  72
ENDBRANCH  41  65
BRANCH  53  76
ATOM     76  C   UNL A   1      41.129  33.069  32.768  1.00  0.00     0.023 A 
ATOM     77  C   UNL A   1      40.828  31.708  32.603  1.00  0.00     0.031 A 
ATOM     78  C   UNL A   1      41.491  33.459  34.071  1.00  0.00     0.131 A 
ATOM     79  C   UNL A   1      40.890  30.811  33.690  1.00  0.00     0.055 A 
ATOM     80  C   UNL A   1      41.536  32.577  35.161  1.00  0.00     0.041 A 
ATOM     81  F   UNL A   1      41.819  34.718  34.341  1.00  0.00    -0.206 F 
ATOM     82  C   UNL A   1      41.236  31.238  34.973  1.00  0.00     0.022 A 
BRANCH  79  83
ATOM     83  S   UNL A   1      40.587  29.050  33.391  1.00  0.00     0.124 S 
ATOM     84  O   UNL A   1      40.753  28.469  34.717  1.00  0.00    -0.237 OA
ATOM     85  O   UNL A   1      39.228  29.055  32.859  1.00  0.00    -0.237 OA
ATOM     86  O   UNL A   1      41.620  28.687  32.421  1.00  0.00    -0.744 OA
ENDBRANCH  79  83
ENDBRANCH  53  76
ENDBRANCH  27  28
ENDBRANCH  20  22
ENDBRANCH  19  20
ENDBRANCH   1  19
TORSDOF 16
ENDMDL
MODEL 2
REMARK VINA RESULT:     -11.8      4.186      9.023
REMARK SMILES O=C(Cc1ccn(-c2ccccc2F)c1)OCCOC(=O)c1ccc(-c2c3nc(c(-c4cc(S(=O)(=O)[O-])ccc4F)c4ccc([nH]4)c(-c4cc(S(=O)(=O)[O-])ccc4F)c4nc(c(-c5cc(S(=O)(=O)[O-])ccc5F)c5ccc2[nH]5)C=C4)C=C3)cc1
REMARK SMILES IDX 18 1 17 2 16 3 2 4 1 5 3 6 4 7 5 8 15 9 6 10 7 11 8 12 9 13
REMARK SMILES IDX 13 14 10 15 12 16 14 17 11 18 19 19 20 20 21 21 22 22 23 23
REMARK SMILES IDX 84 24 24 25 83 26 25 27 26 28 27 29 77 30 28 31 82 32 76 33
REMARK SMILES IDX 78 34 29 35 81 36 75 37 74 38 30 40 62 41 42 42 61 43 43 44
REMARK SMILES IDX 46 45 60 46 79 47 44 48 45 49 59 51 80 52 47 53 31 54 32 55
REMARK SMILES IDX 40 56 33 57 39 58 41 59 38 60 34 61 35 62 36 63 37 64 63 65
REMARK SMILES IDX 64 66 72 67 65 68 71 69 73 70 70 71 66 72 67 73 68 74 69 75
REMARK SMILES IDX 48 76 49 77 57 78 50 79 56 80 58 81 55 82 51 83 52 84 53 85
REMARK SMILES IDX 54 86
REMARK H PARENT 78 39 46 50
REMARK Flexibility Score: inf
ROOT
ATOM      1  C   UNL A   1      44.773  22.451  23.853  1.00  0.00     0.275 C 
ENDROOT
BRANCH   1   2
ATOM      2  C   UNL A   1      44.953  21.002  24.267  1.00  0.00     0.274 C 
BRANCH   2   3
ATOM      3  O   UNL A   1      43.797  20.466  24.955  1.00  0.00    -0.462 OA
BRANCH   3   4
ATOM      4  C   UNL A   1      43.590  19.186  25.365  1.00  0.00     0.310 C 
ATOM      5  O   UNL A   1      44.424  18.319  25.097  1.00  0.00    -0.252 OA
BRANCH   4   6
ATOM      6  C   UNL A   1      42.366  18.836  26.196  1.00  0.00     0.159 C 
BRANCH   6   7
ATOM      7  C   UNL A   1      41.455  19.986  26.440  1.00  0.00    -0.019 A 
ATOM      8  C   UNL A   1      41.596  21.030  27.395  1.00  0.00     0.024 A 
ATOM      9  C   UNL A   1      40.275  20.226  25.774  1.00  0.00     0.095 A 
ATOM     10  C   UNL A   1      40.520  21.882  27.241  1.00  0.00     0.091 A 
ATOM     11  N   UNL A   1      39.686  21.347  26.290  1.00  0.00    -0.321 N 
BRANCH  11  12
ATOM     12  C   UNL A   1      38.510  21.880  25.756  1.00  0.00     0.081 A 
ATOM     13  C   UNL A   1      37.565  21.009  25.212  1.00  0.00     0.030 A 
ATOM     14  C   UNL A   1      38.197  23.216  26.014  1.00  0.00     0.147 A 
ATOM     15  C   UNL A   1      36.280  21.491  24.969  1.00  0.00     0.002 A 
ATOM     16  C   UNL A   1      36.931  23.701  25.730  1.00  0.00     0.041 A 
ATOM     17  F   UNL A   1      39.110  24.049  26.536  1.00  0.00    -0.205 F 
ATOM     18  C   UNL A   1      35.963  22.831  25.227  1.00  0.00     0.003 A 
ENDBRANCH  11  12
ENDBRANCH   6   7
ENDBRANCH   4   6
ENDBRANCH   3   4
ENDBRANCH   2   3
ENDBRANCH   1   2
BRANCH   1  19
ATOM     19  O   UNL A   1      44.345  23.215  24.971  1.00  0.00    -0.458 OA
BRANCH  19  20
ATOM     20  C   UNL A   1      44.853  24.467  25.001  1.00  0.00     0.338 C 
ATOM     21  O   UNL A   1      45.970  24.821  24.700  1.00  0.00    -0.246 OA
BRANCH  20  22
ATOM     22  C   UNL A   1      43.845  25.362  25.558  1.00  0.00     0.060 A 
ATOM     23  C   UNL A   1      44.204  26.707  25.654  1.00  0.00     0.016 A 
ATOM     24  C   UNL A   1      42.757  24.807  26.243  1.00  0.00     0.016 A 
ATOM     25  C   UNL A   1      43.601  27.458  26.630  1.00  0.00     0.010 A 
ATOM     26  C   UNL A   1      42.199  25.535  27.257  1.00  0.00     0.010 A 
ATOM     27  C   UNL A   1      42.670  26.833  27.465  1.00  0.00    -0.014 A 
BRANCH  27  28
ATOM     28  C   UNL A   1      42.057  27.646  28.503  1.00  0.00     0.031 A 
ATOM     29  C   UNL A   1      42.804  27.364  29.831  1.00  0.00     0.074 A 
ATOM     30  C   UNL A   1      40.967  28.368  28.075  1.00  0.00     0.049 A 
ATOM     31  N   UNL A   1      42.365  27.382  31.046  1.00  0.00    -0.248 NA
ATOM     32  C   UNL A   1      44.231  26.891  29.814  1.00  0.00     0.031 C 
ATOM     33  C   UNL A   1      40.482  28.476  26.665  1.00  0.00     0.029 A 
ATOM     34  N   UNL A   1      40.035  29.152  28.708  1.00  0.00    -0.354 N 
ATOM     35  C   UNL A   1      43.468  27.205  31.911  1.00  0.00     0.074 A 
ATOM     36  C   UNL A   1      44.557  26.765  31.102  1.00  0.00     0.031 C 
ATOM     37  C   UNL A   1      39.311  29.157  26.591  1.00  0.00     0.029 A 
ATOM     38  C   UNL A   1      38.926  29.592  27.919  1.00  0.00     0.049 A 
ATOM     39  H   UNL A   1      40.125  29.400  29.656  1.00  0.00     0.167 HD
ATOM     40  C   UNL A   1      43.436  27.581  33.221  1.00  0.00     0.034 A 
ATOM     41  C   UNL A   1      37.772  30.208  28.346  1.00  0.00     0.034 A 
ATOM     42  C   UNL A   1      42.146  28.107  33.523  1.00  0.00     0.049 A 
ATOM     43  C   UNL A   1      38.052  30.473  29.767  1.00  0.00     0.074 A 
ATOM     44  C   UNL A   1      40.931  27.487  33.636  1.00  0.00     0.029 A 
ATOM     45  N   UNL A   1      41.961  29.450  33.284  1.00  0.00    -0.354 N 
ATOM     46  N   UNL A   1      38.911  31.344  30.208  1.00  0.00    -0.248 NA
ATOM     47  C   UNL A   1      37.430  29.598  30.768  1.00  0.00     0.031 C 
ATOM     48  C   UNL A   1      40.090  28.349  32.906  1.00  0.00     0.029 A 
ATOM     49  C   UNL A   1      40.730  29.577  32.691  1.00  0.00     0.049 A 
ATOM     50  H   UNL A   1      42.588  30.177  33.498  1.00  0.00     0.167 HD
ATOM     51  C   UNL A   1      39.173  30.885  31.473  1.00  0.00     0.074 A 
ATOM     52  C   UNL A   1      38.046  30.054  31.854  1.00  0.00     0.031 C 
ATOM     53  C   UNL A   1      40.457  30.750  31.894  1.00  0.00     0.034 A 
BRANCH  40  54
ATOM     54  C   UNL A   1      44.487  27.747  34.273  1.00  0.00     0.023 A 
ATOM     55  C   UNL A   1      44.308  26.980  35.450  1.00  0.00     0.031 A 
ATOM     56  C   UNL A   1      45.391  28.811  34.342  1.00  0.00     0.131 A 
ATOM     57  C   UNL A   1      44.890  27.359  36.662  1.00  0.00     0.055 A 
ATOM     58  C   UNL A   1      46.023  29.156  35.547  1.00  0.00     0.041 A 
ATOM     59  F   UNL A   1      45.619  29.601  33.283  1.00  0.00    -0.206 F 
ATOM     60  C   UNL A   1      45.746  28.454  36.722  1.00  0.00     0.022 A 
BRANCH  57  61
ATOM     61  S   UNL A   1      44.378  26.479  38.165  1.00  0.00     0.124 S 
ATOM     62  O   UNL A   1      45.125  25.230  38.065  1.00  0.00    -0.237 OA
ATOM     63  O   UNL A   1      44.808  27.395  39.218  1.00  0.00    -0.237 OA
ATOM     64  O   UNL A   1      42.930  26.355  38.008  1.00  0.00    -0.744 OA
ENDBRANCH  57  61
ENDBRANCH  40  54
BRANCH  41  65
ATOM     65  C   UNL A   1      36.356  30.564  27.884  1.00  0.00     0.023 A 
ATOM     66  C   UNL A   1      35.373  29.697  27.372  1.00  0.00     0.031 A 
ATOM     67  C   UNL A   1      35.894  31.906  28.104  1.00  0.00     0.131 A 
ATOM     68  C   UNL A   1      34.024  30.152  27.219  1.00  0.00     0.055 A 
ATOM     69  C   UNL A   1      34.561  32.312  28.053  1.00  0.00     0.041 A 
ATOM     70  F   UNL A   1      36.735  32.907  28.404  1.00  0.00    -0.206 F 
ATOM     71  C   UNL A   1      33.608  31.424  27.626  1.00  0.00     0.022 A 
BRANCH  68  72
ATOM     72  S   UNL A   1      32.723  29.099  26.498  1.00  0.00     0.124 S 
ATOM     73  O   UNL A   1      33.483  27.922  26.088  1.00  0.00    -0.237 OA
ATOM     74  O   UNL A   1      31.797  28.911  27.609  1.00  0.00    -0.237 OA
ATOM     75  O   UNL A   1      32.206  29.914  25.398  1.00  0.00    -0.744 OA
ENDBRANCH  68  72
ENDBRANCH  41  65
BRANCH  53  76
ATOM     76  C   UNL A   1      41.481  31.637  31.197  1.00  0.00     0.023 A 
ATOM     77  C   UNL A   1      42.353  31.072  30.252  1.00  0.00     0.031 A 
ATOM     78  C   UNL A   1      41.684  33.003  31.473  1.00  0.00     0.131 A 
ATOM     79  C   UNL A   1      43.362  31.844  29.638  1.00  0.00     0.055 A 
ATOM     80  C   UNL A   1      42.697  33.772  30.880  1.00  0.00     0.041 A 
ATOM     81  F   UNL A   1      40.904  33.649  32.333  1.00  0.00    -0.206 F 
ATOM     82  C   UNL A   1      43.545  33.192  29.951  1.00  0.00     0.022 A 
BRANCH  79  83
ATOM     83  S   UNL A   1      44.390  31.081  28.357  1.00  0.00     0.124 S 
ATOM     84  O   UNL A   1      45.303  32.160  27.997  1.00  0.00    -0.237 OA
ATOM     85  O   UNL A   1      44.982  29.951  29.065  1.00  0.00    -0.237 OA
ATOM     86  O   UNL A   1      43.426  30.714  27.320  1.00  0.00    -0.744 OA
ENDBRANCH  79  83
ENDBRANCH  53  76
ENDBRANCH  27  28
ENDBRANCH  20  22
ENDBRANCH  19  20
ENDBRANCH   1  19
TORSDOF 16
ENDMDL
MODEL 3
REMARK VINA RESULT:     -11.6      2.252      3.654
REMARK SMILES O=C(Cc1ccn(-c2ccccc2F)c1)OCCOC(=O)c1ccc(-c2c3nc(c(-c4cc(S(=O)(=O)[O-])ccc4F)c4ccc([nH]4)c(-c4cc(S(=O)(=O)[O-])ccc4F)c4nc(c(-c5cc(S(=O)(=O)[O-])ccc5F)c5ccc2[nH]5)C=C4)C=C3)cc1
REMARK SMILES IDX 18 1 17 2 16 3 2 4 1 5 3 6 4 7 5 8 15 9 6 10 7 11 8 12 9 13
REMARK SMILES IDX 13 14 10 15 12 16 14 17 11 18 19 19 20 20 21 21 22 22 23 23
REMARK SMILES IDX 84 24 24 25 83 26 25 27 26 28 27 29 77 30 28 31 82 32 76 33
REMARK SMILES IDX 78 34 29 35 81 36 75 37 74 38 30 40 62 41 42 42 61 43 43 44
REMARK SMILES IDX 46 45 60 46 79 47 44 48 45 49 59 51 80 52 47 53 31 54 32 55
REMARK SMILES IDX 40 56 33 57 39 58 41 59 38 60 34 61 35 62 36 63 37 64 63 65
REMARK SMILES IDX 64 66 72 67 65 68 71 69 73 70 70 71 66 72 67 73 68 74 69 75
REMARK SMILES IDX 48 76 49 77 57 78 50 79 56 80 58 81 55 82 51 83 52 84 53 85
REMARK SMILES IDX 54 86
REMARK H PARENT 78 39 46 50
REMARK Flexibility Score: inf
ROOT
ATOM      1  C   UNL A   1      38.018  24.039  26.500  1.00  0.00     0.275 C 
ENDROOT
BRANCH   1   2
ATOM      2  C   UNL A   1      37.627  22.845  25.648  1.00  0.00     0.274 C 
BRANCH   2   3
ATOM      3  O   UNL A   1      36.528  23.131  24.748  1.00  0.00    -0.462 OA
BRANCH   3   4
ATOM      4  C   UNL A   1      35.212  22.834  24.919  1.00  0.00     0.310 C 
ATOM      5  O   UNL A   1      34.566  22.371  23.976  1.00  0.00    -0.252 OA
BRANCH   4   6
ATOM      6  C   UNL A   1      34.554  23.019  26.277  1.00  0.00     0.159 C 
BRANCH   6   7
ATOM      7  C   UNL A   1      33.354  23.896  26.249  1.00  0.00    -0.019 A 
ATOM      8  C   UNL A   1      31.985  23.513  26.315  1.00  0.00     0.024 A 
ATOM      9  C   UNL A   1      33.367  25.267  26.128  1.00  0.00     0.095 A 
ATOM     10  C   UNL A   1      31.229  24.668  26.276  1.00  0.00     0.091 A 
ATOM     11  N   UNL A   1      32.081  25.730  26.097  1.00  0.00    -0.321 N 
BRANCH  11  12
ATOM     12  C   UNL A   1      31.785  27.095  26.058  1.00  0.00     0.081 A 
ATOM     13  C   UNL A   1      31.811  27.823  27.247  1.00  0.00     0.030 A 
ATOM     14  C   UNL A   1      31.731  27.737  24.819  1.00  0.00     0.147 A 
ATOM     15  C   UNL A   1      31.826  29.215  27.175  1.00  0.00     0.002 A 
ATOM     16  C   UNL A   1      31.703  29.121  24.754  1.00  0.00     0.041 A 
ATOM     17  F   UNL A   1      31.705  27.033  23.678  1.00  0.00    -0.205 F 
ATOM     18  C   UNL A   1      31.773  29.861  25.934  1.00  0.00     0.003 A 
ENDBRANCH  11  12
ENDBRANCH   6   7
ENDBRANCH   4   6
ENDBRANCH   3   4
ENDBRANCH   2   3
ENDBRANCH   1   2
BRANCH   1  19
ATOM     19  O   UNL A   1      39.400  24.315  26.325  1.00  0.00    -0.458 OA
BRANCH  19  20
ATOM     20  C   UNL A   1      40.046  24.609  27.475  1.00  0.00     0.338 C 
ATOM     21  O   UNL A   1      40.780  23.893  28.117  1.00  0.00    -0.246 OA
BRANCH  20  22
ATOM     22  C   UNL A   1      39.645  25.945  27.902  1.00  0.00     0.060 A 
ATOM     23  C   UNL A   1      39.866  26.973  26.986  1.00  0.00     0.016 A 
ATOM     24  C   UNL A   1      39.389  26.168  29.262  1.00  0.00     0.016 A 
ATOM     25  C   UNL A   1      40.058  28.237  27.482  1.00  0.00     0.010 A 
ATOM     26  C   UNL A   1      39.642  27.415  29.765  1.00  0.00     0.010 A 
ATOM     27  C   UNL A   1      40.023  28.416  28.869  1.00  0.00    -0.014 A 
BRANCH  27  28
ATOM     28  C   UNL A   1      40.248  29.761  29.371  1.00  0.00     0.031 A 
ATOM     29  C   UNL A   1      38.866  30.386  29.691  1.00  0.00     0.074 A 
ATOM     30  C   UNL A   1      41.568  30.147  29.361  1.00  0.00     0.049 A 
ATOM     31  N   UNL A   1      38.485  31.619  29.634  1.00  0.00    -0.248 NA
ATOM     32  C   UNL A   1      37.695  29.507  30.030  1.00  0.00     0.031 C 
ATOM     33  C   UNL A   1      42.736  29.279  29.019  1.00  0.00     0.029 A 
ATOM     34  N   UNL A   1      42.218  31.329  29.620  1.00  0.00    -0.354 N 
ATOM     35  C   UNL A   1      37.178  31.696  30.168  1.00  0.00     0.074 A 
ATOM     36  C   UNL A   1      36.693  30.358  30.258  1.00  0.00     0.031 C 
ATOM     37  C   UNL A   1      43.891  29.990  28.977  1.00  0.00     0.029 A 
ATOM     38  C   UNL A   1      43.615  31.372  29.314  1.00  0.00     0.049 A 
ATOM     39  H   UNL A   1      41.747  32.106  29.998  1.00  0.00     0.167 HD
ATOM     40  C   UNL A   1      36.649  32.861  30.637  1.00  0.00     0.034 A 
ATOM     41  C   UNL A   1      44.445  32.469  29.291  1.00  0.00     0.034 A 
ATOM     42  C   UNL A   1      37.594  33.910  30.450  1.00  0.00     0.049 A 
ATOM     43  C   UNL A   1      43.591  33.534  29.842  1.00  0.00     0.074 A 
ATOM     44  C   UNL A   1      38.032  34.529  29.310  1.00  0.00     0.029 A 
ATOM     45  N   UNL A   1      38.514  34.093  31.458  1.00  0.00    -0.354 N 
ATOM     46  N   UNL A   1      43.202  33.612  31.080  1.00  0.00    -0.248 NA
ATOM     47  C   UNL A   1      43.009  34.506  28.908  1.00  0.00     0.031 C 
ATOM     48  C   UNL A   1      39.425  34.563  29.508  1.00  0.00     0.029 A 
ATOM     49  C   UNL A   1      39.727  34.297  30.850  1.00  0.00     0.049 A 
ATOM     50  H   UNL A   1      38.336  34.081  32.426  1.00  0.00     0.167 HD
ATOM     51  C   UNL A   1      42.091  34.410  30.990  1.00  0.00     0.074 A 
ATOM     52  C   UNL A   1      42.215  35.156  29.752  1.00  0.00     0.031 C 
ATOM     53  C   UNL A   1      40.935  34.035  31.597  1.00  0.00     0.034 A 
BRANCH  40  54
ATOM     54  C   UNL A   1      35.441  33.189  31.457  1.00  0.00     0.023 A 
ATOM     55  C   UNL A   1      34.659  34.277  30.997  1.00  0.00     0.031 A 
ATOM     56  C   UNL A   1      35.228  32.769  32.774  1.00  0.00     0.131 A 
ATOM     57  C   UNL A   1      33.825  34.992  31.861  1.00  0.00     0.055 A 
ATOM     58  C   UNL A   1      34.344  33.451  33.625  1.00  0.00     0.041 A 
ATOM     59  F   UNL A   1      35.928  31.755  33.303  1.00  0.00    -0.206 F 
ATOM     60  C   UNL A   1      33.667  34.589  33.182  1.00  0.00     0.022 A 
BRANCH  57  61
ATOM     61  S   UNL A   1      33.086  36.532  31.248  1.00  0.00     0.124 S 
ATOM     62  O   UNL A   1      31.730  36.460  31.782  1.00  0.00    -0.237 OA
ATOM     63  O   UNL A   1      33.951  37.546  31.845  1.00  0.00    -0.237 OA
ATOM     64  O   UNL A   1      33.193  36.406  29.797  1.00  0.00    -0.744 OA
ENDBRANCH  57  61
ENDBRANCH  40  54
BRANCH  41  65
ATOM     65  C   UNL A   1      45.820  32.927  28.798  1.00  0.00     0.023 A 
ATOM     66  C   UNL A   1      46.120  33.646  27.625  1.00  0.00     0.031 A 
ATOM     67  C   UNL A   1      46.946  32.735  29.668  1.00  0.00     0.131 A 
ATOM     68  C   UNL A   1      47.425  34.204  27.439  1.00  0.00     0.055 A 
ATOM     69  C   UNL A   1      48.180  33.369  29.532  1.00  0.00     0.041 A 
ATOM     70  F   UNL A   1      46.893  31.916  30.729  1.00  0.00    -0.206 F 
ATOM     71  C   UNL A   1      48.421  34.130  28.417  1.00  0.00     0.022 A 
BRANCH  68  72
ATOM     72  S   UNL A   1      47.892  35.084  25.913  1.00  0.00     0.124 S 
ATOM     73  O   UNL A   1      47.699  36.479  26.300  1.00  0.00    -0.237 OA
ATOM     74  O   UNL A   1      49.272  34.664  25.699  1.00  0.00    -0.237 OA
ATOM     75  O   UNL A   1      46.935  34.578  24.929  1.00  0.00    -0.744 OA
ENDBRANCH  68  72
ENDBRANCH  41  65
BRANCH  53  76
ATOM     76  C   UNL A   1      41.085  33.098  32.790  1.00  0.00     0.023 A 
ATOM     77  C   UNL A   1      40.777  31.736  32.639  1.00  0.00     0.031 A 
ATOM     78  C   UNL A   1      41.450  33.500  34.089  1.00  0.00     0.131 A 
ATOM     79  C   UNL A   1      40.834  30.850  33.735  1.00  0.00     0.055 A 
ATOM     80  C   UNL A   1      41.490  32.628  35.188  1.00  0.00     0.041 A 
ATOM     81  F   UNL A   1      41.784  34.760  34.345  1.00  0.00    -0.206 F 
ATOM     82  C   UNL A   1      41.182  31.289  35.013  1.00  0.00     0.022 A 
BRANCH  79  83
ATOM     83  S   UNL A   1      40.521  29.089  33.455  1.00  0.00     0.124 S 
ATOM     84  O   UNL A   1      40.772  28.508  34.768  1.00  0.00    -0.237 OA
ATOM     85  O   UNL A   1      39.131  29.087  33.009  1.00  0.00    -0.237 OA
ATOM     86  O   UNL A   1      41.493  28.730  32.422  1.00  0.00    -0.744 OA
ENDBRANCH  79  83
ENDBRANCH  53  76
ENDBRANCH  27  28
ENDBRANCH  20  22
ENDBRANCH  19  20
ENDBRANCH   1  19
TORSDOF 16
ENDMDL
