MODEL 1
REMARK VINA RESULT:     -11.4      0.000      0.000
REMARK SMILES CCc1ccc(OCC(=O)Nc2cc(C)c(O)c(C(=O)OCCOC(=O)c3ccc(-c4c5nc(c(-c6cc(S(=O)(=O)[O-])ccc6F)c6ccc([nH]6)c(-c6cc(S(=O)(=O)[O-])ccc6F)c6nc(c(-c7cc(S(=O)(=O)[O-])ccc7F)c7ccc4[nH]7)C=C6)C=C5)cc3)c2)cc1
REMARK SMILES IDX 22 1 21 2 19 3 20 4 18 5 12 6 13 7 90 8 14 9 15 10 16 11
REMARK SMILES IDX 11 12 9 13 10 14 8 16 7 17 6 18 3 19 4 20 92 21 5 22 91 23
REMARK SMILES IDX 2 24 1 25 17 26 23 28 24 29 25 30 26 31 27 32 28 33 89 34
REMARK SMILES IDX 29 35 88 36 30 37 31 38 32 39 82 40 33 41 87 42 81 43 83 44
REMARK SMILES IDX 34 45 86 46 80 47 79 48 35 50 67 51 47 52 66 53 48 54 51 55
REMARK SMILES IDX 65 56 84 57 49 58 50 59 64 61 85 62 52 63 36 64 37 65 45 66
REMARK SMILES IDX 38 67 44 68 46 69 43 70 39 71 40 72 41 73 42 74 68 75 69 76
REMARK SMILES IDX 77 77 70 78 76 79 78 80 75 81 71 82 72 83 73 84 74 85 53 86
REMARK SMILES IDX 54 87 62 88 55 89 61 90 63 91 60 92 56 93 57 94 58 95 59 96
REMARK H PARENT 11 15 17 27 83 49 51 60
REMARK Flexibility Score: inf
ROOT
ATOM      1  C   UNL A   1      38.393  21.189  25.633  1.00  0.00     0.275 C 
ENDROOT
BRANCH   1   2
ATOM      2  O   UNL A   1      37.431  21.420  24.583  1.00  0.00    -0.458 OA
BRANCH   2   3
ATOM      3  C   UNL A   1      36.702  22.562  24.639  1.00  0.00     0.342 C 
ATOM      4  O   UNL A   1      37.078  23.648  25.053  1.00  0.00    -0.246 OA
BRANCH   3   5
ATOM      5  C   UNL A   1      35.368  22.374  24.013  1.00  0.00     0.104 A 
ATOM      6  C   UNL A   1      33.653  23.106  22.463  1.00  0.00     0.042 A 
ATOM      7  C   UNL A   1      32.751  22.224  23.059  1.00  0.00     0.033 A 
ATOM      8  C   UNL A   1      34.917  23.246  23.022  1.00  0.00     0.045 A 
ATOM      9  C   UNL A   1      33.170  21.350  24.075  1.00  0.00    -0.006 A 
ATOM     10  C   UNL A   1      32.164  20.432  24.712  1.00  0.00     0.048 C 
ATOM     11  C   UNL A   1      34.518  21.355  24.457  1.00  0.00     0.133 A 
BRANCH   6  12
ATOM     12  N   UNL A   1      33.224  23.821  21.338  1.00  0.00    -0.323 N 
ATOM     13  C   UNL A   1      32.981  25.159  21.174  1.00  0.00     0.262 C 
ATOM     14  O   UNL A   1      32.629  25.548  20.053  1.00  0.00    -0.271 OA
ATOM     15  H   UNL A   1      33.071  23.273  20.535  1.00  0.00     0.170 HD
BRANCH  13  16
ATOM     16  C   UNL A   1      33.289  26.191  22.286  1.00  0.00     0.329 C 
BRANCH  16  17
ATOM     17  O   UNL A   1      32.354  26.525  23.297  1.00  0.00    -0.484 OA
BRANCH  17  18
ATOM     18  C   UNL A   1      32.213  25.653  24.336  1.00  0.00     0.120 A 
ATOM     19  C   UNL A   1      32.176  23.839  26.490  1.00  0.00    -0.048 A 
ATOM     20  C   UNL A   1      33.348  24.532  26.158  1.00  0.00     0.007 A 
ATOM     21  C   UNL A   1      31.019  24.097  25.742  1.00  0.00     0.007 A 
ATOM     22  C   UNL A   1      33.360  25.438  25.099  1.00  0.00     0.047 A 
ATOM     23  C   UNL A   1      31.035  25.003  24.677  1.00  0.00     0.047 A 
BRANCH  19  24
ATOM     24  C   UNL A   1      32.211  22.895  27.667  1.00  0.00     0.032 C 
ATOM     25  C   UNL A   1      33.547  22.225  27.956  1.00  0.00     0.009 C 
ENDBRANCH  19  24
ENDBRANCH  17  18
ENDBRANCH  16  17
ENDBRANCH  13  16
ENDBRANCH   6  12
BRANCH  11  26
ATOM     26  O   UNL A   1      34.939  20.381  25.322  1.00  0.00    -0.507 OA
ATOM     27  H   UNL A   1      34.320  19.779  25.686  1.00  0.00     0.293 HD
ENDBRANCH  11  26
ENDBRANCH   3   5
ENDBRANCH   2   3
ENDBRANCH   1   2
BRANCH   1  28
ATOM     28  C   UNL A   1      39.146  19.875  25.403  1.00  0.00     0.275 C 
BRANCH  28  29
ATOM     29  O   UNL A   1      40.091  19.646  26.464  1.00  0.00    -0.458 OA
BRANCH  29  30
ATOM     30  C   UNL A   1      41.380  19.932  26.159  1.00  0.00     0.338 C 
ATOM     31  O   UNL A   1      42.119  19.284  25.435  1.00  0.00    -0.246 OA
BRANCH  30  32
ATOM     32  C   UNL A   1      41.686  21.295  26.627  1.00  0.00     0.060 A 
ATOM     33  C   UNL A   1      41.880  22.256  25.639  1.00  0.00     0.016 A 
ATOM     34  C   UNL A   1      41.760  21.654  27.974  1.00  0.00     0.016 A 
ATOM     35  C   UNL A   1      42.069  23.591  25.974  1.00  0.00     0.010 A 
ATOM     36  C   UNL A   1      42.003  22.994  28.316  1.00  0.00     0.010 A 
ATOM     37  C   UNL A   1      42.140  23.974  27.315  1.00  0.00    -0.014 A 
BRANCH  37  38
ATOM     38  C   UNL A   1      42.479  25.385  27.623  1.00  0.00     0.031 A 
ATOM     39  C   UNL A   1      43.825  25.911  27.219  1.00  0.00     0.074 A 
ATOM     40  C   UNL A   1      41.561  26.216  28.152  1.00  0.00     0.049 A 
ATOM     41  N   UNL A   1      44.350  27.092  27.416  1.00  0.00    -0.248 NA
ATOM     42  C   UNL A   1      44.691  24.979  26.481  1.00  0.00     0.031 C 
ATOM     43  C   UNL A   1      40.180  25.853  28.469  1.00  0.00     0.029 A 
ATOM     44  N   UNL A   1      41.647  27.542  28.502  1.00  0.00    -0.354 N 
ATOM     45  C   UNL A   1      45.612  27.047  26.834  1.00  0.00     0.074 A 
ATOM     46  C   UNL A   1      45.779  25.712  26.298  1.00  0.00     0.031 C 
ATOM     47  C   UNL A   1      39.551  26.929  28.975  1.00  0.00     0.029 A 
ATOM     48  C   UNL A   1      40.497  28.039  29.070  1.00  0.00     0.049 A 
ATOM     49  H   UNL A   1      42.456  28.084  28.360  1.00  0.00     0.167 HD
ATOM     50  C   UNL A   1      46.542  28.029  26.759  1.00  0.00     0.034 A 
ATOM     51  C   UNL A   1      40.249  29.239  29.636  1.00  0.00     0.034 A 
ATOM     52  C   UNL A   1      46.361  29.351  27.309  1.00  0.00     0.049 A 
ATOM     53  C   UNL A   1      41.352  30.273  29.662  1.00  0.00     0.074 A 
ATOM     54  C   UNL A   1      47.248  30.414  27.308  1.00  0.00     0.029 A 
ATOM     55  N   UNL A   1      45.220  29.791  27.970  1.00  0.00    -0.354 N 
ATOM     56  N   UNL A   1      42.562  30.207  29.153  1.00  0.00    -0.248 NA
ATOM     57  C   UNL A   1      41.057  31.541  30.340  1.00  0.00     0.031 C 
ATOM     58  C   UNL A   1      46.679  31.463  28.037  1.00  0.00     0.029 A 
ATOM     59  C   UNL A   1      45.398  31.093  28.415  1.00  0.00     0.049 A 
ATOM     60  H   UNL A   1      44.404  29.257  28.103  1.00  0.00     0.167 HD
ATOM     61  C   UNL A   1      43.157  31.437  29.424  1.00  0.00     0.074 A 
ATOM     62  C   UNL A   1      42.166  32.230  30.121  1.00  0.00     0.031 C 
ATOM     63  C   UNL A   1      44.408  31.873  29.124  1.00  0.00     0.034 A 
BRANCH  50  64
ATOM     64  C   UNL A   1      47.868  27.678  26.129  1.00  0.00     0.023 A 
ATOM     65  C   UNL A   1      48.087  27.778  24.744  1.00  0.00     0.031 A 
ATOM     66  C   UNL A   1      48.920  27.199  26.930  1.00  0.00     0.131 A 
ATOM     67  C   UNL A   1      49.304  27.342  24.196  1.00  0.00     0.055 A 
ATOM     68  C   UNL A   1      50.156  26.844  26.388  1.00  0.00     0.041 A 
ATOM     69  F   UNL A   1      48.758  27.054  28.254  1.00  0.00    -0.206 F 
ATOM     70  C   UNL A   1      50.349  26.900  25.012  1.00  0.00     0.022 A 
BRANCH  67  71
ATOM     71  S   UNL A   1      49.451  27.217  22.392  1.00  0.00     0.124 S 
ATOM     72  O   UNL A   1      48.980  28.533  21.966  1.00  0.00    -0.237 OA
ATOM     73  O   UNL A   1      50.873  26.957  22.209  1.00  0.00    -0.237 OA
ATOM     74  O   UNL A   1      48.563  26.106  22.052  1.00  0.00    -0.744 OA
ENDBRANCH  67  71
ENDBRANCH  50  64
BRANCH  51  75
ATOM     75  C   UNL A   1      38.939  29.517  30.299  1.00  0.00     0.023 A 
ATOM     76  C   UNL A   1      37.970  30.339  29.697  1.00  0.00     0.031 A 
ATOM     77  C   UNL A   1      38.672  29.030  31.592  1.00  0.00     0.131 A 
ATOM     78  C   UNL A   1      36.811  30.691  30.408  1.00  0.00     0.055 A 
ATOM     79  C   UNL A   1      37.488  29.330  32.268  1.00  0.00     0.041 A 
ATOM     80  F   UNL A   1      39.567  28.254  32.225  1.00  0.00    -0.206 F 
ATOM     81  C   UNL A   1      36.556  30.179  31.682  1.00  0.00     0.022 A 
BRANCH  78  82
ATOM     82  S   UNL A   1      35.687  31.922  29.690  1.00  0.00     0.124 S 
ATOM     83  O   UNL A   1      34.829  32.238  30.826  1.00  0.00    -0.237 OA
ATOM     84  O   UNL A   1      36.612  32.971  29.273  1.00  0.00    -0.237 OA
ATOM     85  O   UNL A   1      35.040  31.196  28.600  1.00  0.00    -0.744 OA
ENDBRANCH  78  82
ENDBRANCH  51  75
BRANCH  63  86
ATOM     86  C   UNL A   1      44.755  33.293  29.510  1.00  0.00     0.023 A 
ATOM     87  C   UNL A   1      44.549  34.373  28.633  1.00  0.00     0.031 A 
ATOM     88  C   UNL A   1      45.319  33.567  30.770  1.00  0.00     0.131 A 
ATOM     89  C   UNL A   1      44.965  35.663  29.000  1.00  0.00     0.055 A 
ATOM     90  C   UNL A   1      45.664  34.862  31.157  1.00  0.00     0.041 A 
ATOM     91  F   UNL A   1      45.543  32.577  31.648  1.00  0.00    -0.206 F 
ATOM     92  C   UNL A   1      45.504  35.917  30.265  1.00  0.00     0.022 A 
BRANCH  89  93
ATOM     93  S   UNL A   1      44.901  36.985  27.760  1.00  0.00     0.124 S 
ATOM     94  O   UNL A   1      46.169  36.807  27.060  1.00  0.00    -0.237 OA
ATOM     95  O   UNL A   1      43.702  36.645  27.003  1.00  0.00    -0.237 OA
ATOM     96  O   UNL A   1      44.802  38.204  28.562  1.00  0.00    -0.744 OA
ENDBRANCH  89  93
ENDBRANCH  63  86
ENDBRANCH  37  38
ENDBRANCH  30  32
ENDBRANCH  29  30
ENDBRANCH  28  29
ENDBRANCH   1  28
TORSDOF 20
ENDMDL
MODEL 2
REMARK VINA RESULT:     -11.3      5.223     10.686
REMARK SMILES CCc1ccc(OCC(=O)Nc2cc(C)c(O)c(C(=O)OCCOC(=O)c3ccc(-c4c5nc(c(-c6cc(S(=O)(=O)[O-])ccc6F)c6ccc([nH]6)c(-c6cc(S(=O)(=O)[O-])ccc6F)c6nc(c(-c7cc(S(=O)(=O)[O-])ccc7F)c7ccc4[nH]7)C=C6)C=C5)cc3)c2)cc1
REMARK SMILES IDX 22 1 21 2 19 3 20 4 18 5 12 6 13 7 90 8 14 9 15 10 16 11
REMARK SMILES IDX 11 12 9 13 10 14 8 16 7 17 6 18 3 19 4 20 92 21 5 22 91 23
REMARK SMILES IDX 2 24 1 25 17 26 23 28 24 29 25 30 26 31 27 32 28 33 89 34
REMARK SMILES IDX 29 35 88 36 30 37 31 38 32 39 82 40 33 41 87 42 81 43 83 44
REMARK SMILES IDX 34 45 86 46 80 47 79 48 35 50 67 51 47 52 66 53 48 54 51 55
REMARK SMILES IDX 65 56 84 57 49 58 50 59 64 61 85 62 52 63 36 64 37 65 45 66
REMARK SMILES IDX 38 67 44 68 46 69 43 70 39 71 40 72 41 73 42 74 68 75 69 76
REMARK SMILES IDX 77 77 70 78 76 79 78 80 75 81 71 82 72 83 73 84 74 85 53 86
REMARK SMILES IDX 54 87 62 88 55 89 61 90 63 91 60 92 56 93 57 94 58 95 59 96
REMARK H PARENT 11 15 17 27 83 49 51 60
REMARK Flexibility Score: inf
ROOT
ATOM      1  C   UNL A   1      31.967  31.027  26.889  1.00  0.00     0.275 C 
ENDROOT
BRANCH   1   2
ATOM      2  O   UNL A   1      33.307  30.710  26.461  1.00  0.00    -0.458 OA
BRANCH   2   3
ATOM      3  C   UNL A   1      33.779  29.470  26.741  1.00  0.00     0.342 C 
ATOM      4  O   UNL A   1      34.643  29.184  27.556  1.00  0.00    -0.246 OA
BRANCH   3   5
ATOM      5  C   UNL A   1      33.023  28.432  25.994  1.00  0.00     0.104 A 
ATOM      6  C   UNL A   1      31.750  26.369  25.972  1.00  0.00     0.042 A 
ATOM      7  C   UNL A   1      31.878  26.315  24.584  1.00  0.00     0.033 A 
ATOM      8  C   UNL A   1      32.420  27.369  26.666  1.00  0.00     0.045 A 
ATOM      9  C   UNL A   1      32.502  27.359  23.882  1.00  0.00    -0.006 A 
ATOM     10  C   UNL A   1      32.645  27.253  22.389  1.00  0.00     0.048 C 
ATOM     11  C   UNL A   1      32.963  28.472  24.597  1.00  0.00     0.133 A 
BRANCH   6  12
ATOM     12  N   UNL A   1      30.964  25.392  26.596  1.00  0.00    -0.323 N 
ATOM     13  C   UNL A   1      31.164  24.044  26.735  1.00  0.00     0.262 C 
ATOM     14  O   UNL A   1      30.316  23.398  27.363  1.00  0.00    -0.271 OA
ATOM     15  H   UNL A   1      30.132  25.729  27.001  1.00  0.00     0.170 HD
BRANCH  13  16
ATOM     16  C   UNL A   1      32.474  23.358  26.278  1.00  0.00     0.329 C 
BRANCH  16  17
ATOM     17  O   UNL A   1      32.772  23.115  24.914  1.00  0.00    -0.484 OA
BRANCH  17  18
ATOM     18  C   UNL A   1      32.821  21.814  24.504  1.00  0.00     0.120 A 
ATOM     19  C   UNL A   1      32.747  19.191  23.482  1.00  0.00    -0.048 A 
ATOM     20  C   UNL A   1      32.216  20.260  22.748  1.00  0.00     0.007 A 
ATOM     21  C   UNL A   1      33.340  19.468  24.721  1.00  0.00     0.007 A 
ATOM     22  C   UNL A   1      32.265  21.559  23.251  1.00  0.00     0.047 A 
ATOM     23  C   UNL A   1      33.385  20.771  25.225  1.00  0.00     0.047 A 
BRANCH  19  24
ATOM     24  C   UNL A   1      32.696  17.810  22.874  1.00  0.00     0.032 C 
ATOM     25  C   UNL A   1      33.800  16.848  23.291  1.00  0.00     0.009 C 
ENDBRANCH  19  24
ENDBRANCH  17  18
ENDBRANCH  16  17
ENDBRANCH  13  16
ENDBRANCH   6  12
BRANCH  11  26
ATOM     26  O   UNL A   1      33.409  29.549  23.879  1.00  0.00    -0.507 OA
ATOM     27  H   UNL A   1      33.782  30.286  24.321  1.00  0.00     0.293 HD
ENDBRANCH  11  26
ENDBRANCH   3   5
ENDBRANCH   2   3
ENDBRANCH   1   2
BRANCH   1  28
ATOM     28  C   UNL A   1      31.743  32.542  26.905  1.00  0.00     0.275 C 
BRANCH  28  29
ATOM     29  O   UNL A   1      33.004  33.236  26.879  1.00  0.00    -0.458 OA
BRANCH  29  30
ATOM     30  C   UNL A   1      33.337  33.869  28.030  1.00  0.00     0.338 C 
ATOM     31  O   UNL A   1      32.642  34.653  28.658  1.00  0.00    -0.246 OA
BRANCH  30  32
ATOM     32  C   UNL A   1      34.574  33.268  28.560  1.00  0.00     0.060 A 
ATOM     33  C   UNL A   1      34.411  32.222  29.462  1.00  0.00     0.016 A 
ATOM     34  C   UNL A   1      35.855  33.676  28.186  1.00  0.00     0.016 A 
ATOM     35  C   UNL A   1      35.511  31.519  29.939  1.00  0.00     0.010 A 
ATOM     36  C   UNL A   1      36.970  33.001  28.708  1.00  0.00     0.010 A 
ATOM     37  C   UNL A   1      36.802  31.905  29.573  1.00  0.00    -0.014 A 
BRANCH  37  38
ATOM     38  C   UNL A   1      37.947  31.212  30.215  1.00  0.00     0.031 A 
ATOM     39  C   UNL A   1      38.295  31.550  31.634  1.00  0.00     0.074 A 
ATOM     40  C   UNL A   1      38.595  30.218  29.579  1.00  0.00     0.049 A 
ATOM     41  N   UNL A   1      39.270  31.102  32.381  1.00  0.00    -0.248 NA
ATOM     42  C   UNL A   1      37.414  32.517  32.306  1.00  0.00     0.031 C 
ATOM     43  C   UNL A   1      38.266  29.713  28.246  1.00  0.00     0.029 A 
ATOM     44  N   UNL A   1      39.657  29.441  29.977  1.00  0.00    -0.354 N 
ATOM     45  C   UNL A   1      39.128  31.737  33.610  1.00  0.00     0.074 A 
ATOM     46  C   UNL A   1      37.984  32.618  33.496  1.00  0.00     0.031 C 
ATOM     47  C   UNL A   1      39.114  28.718  27.933  1.00  0.00     0.029 A 
ATOM     48  C   UNL A   1      40.081  28.551  29.017  1.00  0.00     0.049 A 
ATOM     49  H   UNL A   1      40.075  29.516  30.865  1.00  0.00     0.167 HD
ATOM     50  C   UNL A   1      39.885  31.596  34.725  1.00  0.00     0.034 A 
ATOM     51  C   UNL A   1      41.148  27.724  29.001  1.00  0.00     0.034 A 
ATOM     52  C   UNL A   1      41.028  30.720  34.815  1.00  0.00     0.049 A 
ATOM     53  C   UNL A   1      42.058  27.688  30.208  1.00  0.00     0.074 A 
ATOM     54  C   UNL A   1      41.877  30.519  35.890  1.00  0.00     0.029 A 
ATOM     55  N   UNL A   1      41.492  29.905  33.788  1.00  0.00    -0.354 N 
ATOM     56  N   UNL A   1      41.946  28.328  31.351  1.00  0.00    -0.248 NA
ATOM     57  C   UNL A   1      43.239  26.819  30.123  1.00  0.00     0.031 C 
ATOM     58  C   UNL A   1      42.898  29.652  35.488  1.00  0.00     0.029 A 
ATOM     59  C   UNL A   1      42.637  29.235  34.192  1.00  0.00     0.049 A 
ATOM     60  H   UNL A   1      41.070  29.818  32.903  1.00  0.00     0.167 HD
ATOM     61  C   UNL A   1      43.025  27.913  32.128  1.00  0.00     0.074 A 
ATOM     62  C   UNL A   1      43.762  26.953  31.332  1.00  0.00     0.031 C 
ATOM     63  C   UNL A   1      43.376  28.289  33.385  1.00  0.00     0.034 A 
BRANCH  50  64
ATOM     64  C   UNL A   1      39.544  32.472  35.906  1.00  0.00     0.023 A 
ATOM     65  C   UNL A   1      38.707  32.033  36.946  1.00  0.00     0.031 A 
ATOM     66  C   UNL A   1      40.040  33.787  35.969  1.00  0.00     0.131 A 
ATOM     67  C   UNL A   1      38.339  32.921  37.969  1.00  0.00     0.055 A 
ATOM     68  C   UNL A   1      39.735  34.639  37.031  1.00  0.00     0.041 A 
ATOM     69  F   UNL A   1      40.818  34.271  34.989  1.00  0.00    -0.206 F 
ATOM     70  C   UNL A   1      38.869  34.213  38.032  1.00  0.00     0.022 A 
BRANCH  67  71
ATOM     71  S   UNL A   1      37.042  32.417  39.134  1.00  0.00     0.124 S 
ATOM     72  O   UNL A   1      37.312  30.989  39.277  1.00  0.00    -0.237 OA
ATOM     73  O   UNL A   1      37.329  33.242  40.301  1.00  0.00    -0.237 OA
ATOM     74  O   UNL A   1      35.803  32.742  38.429  1.00  0.00    -0.744 OA
ENDBRANCH  67  71
ENDBRANCH  50  64
BRANCH  51  75
ATOM     75  C   UNL A   1      41.475  26.921  27.785  1.00  0.00     0.023 A 
ATOM     76  C   UNL A   1      41.185  25.547  27.712  1.00  0.00     0.031 A 
ATOM     77  C   UNL A   1      42.166  27.503  26.706  1.00  0.00     0.131 A 
ATOM     78  C   UNL A   1      41.632  24.795  26.612  1.00  0.00     0.055 A 
ATOM     79  C   UNL A   1      42.550  26.763  25.585  1.00  0.00     0.041 A 
ATOM     80  F   UNL A   1      42.485  28.806  26.726  1.00  0.00    -0.206 F 
ATOM     81  C   UNL A   1      42.297  25.396  25.542  1.00  0.00     0.022 A 
BRANCH  78  82
ATOM     82  S   UNL A   1      41.432  22.991  26.650  1.00  0.00     0.124 S 
ATOM     83  O   UNL A   1      39.979  22.855  26.627  1.00  0.00    -0.237 OA
ATOM     84  O   UNL A   1      42.134  22.582  25.439  1.00  0.00    -0.237 OA
ATOM     85  O   UNL A   1      42.076  22.604  27.903  1.00  0.00    -0.744 OA
ENDBRANCH  78  82
ENDBRANCH  51  75
BRANCH  63  86
ATOM     86  C   UNL A   1      44.589  27.621  33.992  1.00  0.00     0.023 A 
ATOM     87  C   UNL A   1      44.486  26.435  34.742  1.00  0.00     0.031 A 
ATOM     88  C   UNL A   1      45.865  28.190  33.833  1.00  0.00     0.131 A 
ATOM     89  C   UNL A   1      45.627  25.896  35.359  1.00  0.00     0.055 A 
ATOM     90  C   UNL A   1      47.006  27.610  34.389  1.00  0.00     0.041 A 
ATOM     91  F   UNL A   1      46.026  29.324  33.131  1.00  0.00    -0.206 F 
ATOM     92  C   UNL A   1      46.889  26.466  35.171  1.00  0.00     0.022 A 
BRANCH  89  93
ATOM     93  S   UNL A   1      45.421  24.506  36.507  1.00  0.00     0.124 S 
ATOM     94  O   UNL A   1      44.936  23.452  35.622  1.00  0.00    -0.237 OA
ATOM     95  O   UNL A   1      46.772  24.330  37.028  1.00  0.00    -0.237 OA
ATOM     96  O   UNL A   1      44.444  25.002  37.475  1.00  0.00    -0.744 OA
ENDBRANCH  89  93
ENDBRANCH  63  86
ENDBRANCH  37  38
ENDBRANCH  30  32
ENDBRANCH  29  30
ENDBRANCH  28  29
ENDBRANCH   1  28
TORSDOF 20
ENDMDL
MODEL 3
REMARK VINA RESULT:     -11.2      5.344     10.747
REMARK SMILES CCc1ccc(OCC(=O)Nc2cc(C)c(O)c(C(=O)OCCOC(=O)c3ccc(-c4c5nc(c(-c6cc(S(=O)(=O)[O-])ccc6F)c6ccc([nH]6)c(-c6cc(S(=O)(=O)[O-])ccc6F)c6nc(c(-c7cc(S(=O)(=O)[O-])ccc7F)c7ccc4[nH]7)C=C6)C=C5)cc3)c2)cc1
REMARK SMILES IDX 22 1 21 2 19 3 20 4 18 5 12 6 13 7 90 8 14 9 15 10 16 11
REMARK SMILES IDX 11 12 9 13 10 14 8 16 7 17 6 18 3 19 4 20 92 21 5 22 91 23
REMARK SMILES IDX 2 24 1 25 17 26 23 28 24 29 25 30 26 31 27 32 28 33 89 34
REMARK SMILES IDX 29 35 88 36 30 37 31 38 32 39 82 40 33 41 87 42 81 43 83 44
REMARK SMILES IDX 34 45 86 46 80 47 79 48 35 50 67 51 47 52 66 53 48 54 51 55
REMARK SMILES IDX 65 56 84 57 49 58 50 59 64 61 85 62 52 63 36 64 37 65 45 66
REMARK SMILES IDX 38 67 44 68 46 69 43 70 39 71 40 72 41 73 42 74 68 75 69 76
REMARK SMILES IDX 77 77 70 78 76 79 78 80 75 81 71 82 72 83 73 84 74 85 53 86
REMARK SMILES IDX 54 87 62 88 55 89 61 90 63 91 60 92 56 93 57 94 58 95 59 96
REMARK H PARENT 11 15 17 27 83 49 51 60
REMARK Flexibility Score: inf
ROOT
ATOM      1  C   UNL A   1      32.109  30.956  26.927  1.00  0.00     0.275 C 
ENDROOT
BRANCH   1   2
ATOM      2  O   UNL A   1      33.266  30.725  26.098  1.00  0.00    -0.458 OA
BRANCH   2   3
ATOM      3  C   UNL A   1      34.070  29.681  26.417  1.00  0.00     0.342 C 
ATOM      4  O   UNL A   1      34.962  29.674  27.252  1.00  0.00    -0.246 OA
BRANCH   3   5
ATOM      5  C   UNL A   1      33.663  28.452  25.688  1.00  0.00     0.104 A 
ATOM      6  C   UNL A   1      32.967  26.130  25.709  1.00  0.00     0.042 A 
ATOM      7  C   UNL A   1      33.205  26.055  24.336  1.00  0.00     0.033 A 
ATOM      8  C   UNL A   1      33.305  27.297  26.383  1.00  0.00     0.045 A 
ATOM      9  C   UNL A   1      33.589  27.196  23.614  1.00  0.00    -0.006 A 
ATOM     10  C   UNL A   1      33.862  27.072  22.141  1.00  0.00     0.048 C 
ATOM     11  C   UNL A   1      33.696  28.419  24.290  1.00  0.00     0.133 A 
BRANCH   6  12
ATOM     12  N   UNL A   1      32.415  25.008  26.341  1.00  0.00    -0.323 N 
ATOM     13  C   UNL A   1      31.108  24.638  26.514  1.00  0.00     0.262 C 
ATOM     14  O   UNL A   1      30.884  23.568  27.095  1.00  0.00    -0.271 OA
ATOM     15  H   UNL A   1      33.074  24.384  26.723  1.00  0.00     0.170 HD
BRANCH  13  16
ATOM     16  C   UNL A   1      29.941  25.426  25.872  1.00  0.00     0.329 C 
BRANCH  16  17
ATOM     17  O   UNL A   1      29.749  25.499  24.470  1.00  0.00    -0.484 OA
BRANCH  17  18
ATOM     18  C   UNL A   1      29.138  26.615  23.977  1.00  0.00     0.120 A 
ATOM     19  C   UNL A   1      28.105  29.033  22.967  1.00  0.00    -0.048 A 
ATOM     20  C   UNL A   1      29.486  28.790  22.968  1.00  0.00     0.007 A 
ATOM     21  C   UNL A   1      27.255  28.030  23.452  1.00  0.00     0.007 A 
ATOM     22  C   UNL A   1      29.992  27.587  23.458  1.00  0.00     0.047 A 
ATOM     23  C   UNL A   1      27.766  26.826  23.946  1.00  0.00     0.047 A 
BRANCH  19  24
ATOM     24  C   UNL A   1      27.609  30.338  22.395  1.00  0.00     0.032 C 
ATOM     25  C   UNL A   1      28.315  30.838  21.142  1.00  0.00     0.009 C 
ENDBRANCH  19  24
ENDBRANCH  17  18
ENDBRANCH  16  17
ENDBRANCH  13  16
ENDBRANCH   6  12
BRANCH  11  26
ATOM     26  O   UNL A   1      33.901  29.545  23.539  1.00  0.00    -0.507 OA
ATOM     27  H   UNL A   1      33.772  29.520  22.611  1.00  0.00     0.293 HD
ENDBRANCH  11  26
ENDBRANCH   3   5
ENDBRANCH   2   3
ENDBRANCH   1   2
BRANCH   1  28
ATOM     28  C   UNL A   1      31.771  32.449  26.987  1.00  0.00     0.275 C 
BRANCH  28  29
ATOM     29  O   UNL A   1      32.971  33.239  26.903  1.00  0.00    -0.458 OA
BRANCH  29  30
ATOM     30  C   UNL A   1      33.322  33.875  28.047  1.00  0.00     0.338 C 
ATOM     31  O   UNL A   1      32.641  34.667  28.680  1.00  0.00    -0.246 OA
BRANCH  30  32
ATOM     32  C   UNL A   1      34.562  33.269  28.564  1.00  0.00     0.060 A 
ATOM     33  C   UNL A   1      34.407  32.312  29.562  1.00  0.00     0.016 A 
ATOM     34  C   UNL A   1      35.836  33.586  28.091  1.00  0.00     0.016 A 
ATOM     35  C   UNL A   1      35.503  31.605  30.043  1.00  0.00     0.010 A 
ATOM     36  C   UNL A   1      36.950  32.910  28.613  1.00  0.00     0.010 A 
ATOM     37  C   UNL A   1      36.786  31.901  29.579  1.00  0.00    -0.014 A 
BRANCH  37  38
ATOM     38  C   UNL A   1      37.936  31.216  30.220  1.00  0.00     0.031 A 
ATOM     39  C   UNL A   1      38.298  31.574  31.632  1.00  0.00     0.074 A 
ATOM     40  C   UNL A   1      38.577  30.212  29.593  1.00  0.00     0.049 A 
ATOM     41  N   UNL A   1      39.279  31.136  32.376  1.00  0.00    -0.248 NA
ATOM     42  C   UNL A   1      37.423  32.552  32.297  1.00  0.00     0.031 C 
ATOM     43  C   UNL A   1      38.236  29.688  28.271  1.00  0.00     0.029 A 
ATOM     44  N   UNL A   1      39.642  29.440  29.993  1.00  0.00    -0.354 N 
ATOM     45  C   UNL A   1      39.149  31.789  33.596  1.00  0.00     0.074 A 
ATOM     46  C   UNL A   1      38.005  32.670  33.481  1.00  0.00     0.031 C 
ATOM     47  C   UNL A   1      39.080  28.687  27.965  1.00  0.00     0.029 A 
ATOM     48  C   UNL A   1      40.056  28.535  29.043  1.00  0.00     0.049 A 
ATOM     49  H   UNL A   1      40.068  29.526  30.876  1.00  0.00     0.167 HD
ATOM     50  C   UNL A   1      39.916  31.663  34.707  1.00  0.00     0.034 A 
ATOM     51  C   UNL A   1      41.122  27.707  29.028  1.00  0.00     0.034 A 
ATOM     52  C   UNL A   1      41.059  30.787  34.799  1.00  0.00     0.049 A 
ATOM     53  C   UNL A   1      42.043  27.687  30.228  1.00  0.00     0.074 A 
ATOM     54  C   UNL A   1      41.917  30.601  35.869  1.00  0.00     0.029 A 
ATOM     55  N   UNL A   1      41.513  29.957  33.780  1.00  0.00    -0.354 N 
ATOM     56  N   UNL A   1      41.942  28.344  31.362  1.00  0.00    -0.248 NA
ATOM     57  C   UNL A   1      43.222  26.816  30.144  1.00  0.00     0.031 C 
ATOM     58  C   UNL A   1      42.933  29.726  35.470  1.00  0.00     0.029 A 
ATOM     59  C   UNL A   1      42.661  29.291  34.183  1.00  0.00     0.049 A 
ATOM     60  H   UNL A   1      41.082  29.857  32.900  1.00  0.00     0.167 HD
ATOM     61  C   UNL A   1      43.028  27.938  32.135  1.00  0.00     0.074 A 
ATOM     62  C   UNL A   1      43.756  26.967  31.346  1.00  0.00     0.031 C 
ATOM     63  C   UNL A   1      43.391  28.332  33.383  1.00  0.00     0.034 A 
BRANCH  50  64
ATOM     64  C   UNL A   1      39.586  32.557  35.878  1.00  0.00     0.023 A 
ATOM     65  C   UNL A   1      38.781  32.124  36.945  1.00  0.00     0.031 A 
ATOM     66  C   UNL A   1      40.061  33.881  35.904  1.00  0.00     0.131 A 
ATOM     67  C   UNL A   1      38.421  33.027  37.959  1.00  0.00     0.055 A 
ATOM     68  C   UNL A   1      39.767  34.748  36.956  1.00  0.00     0.041 A 
ATOM     69  F   UNL A   1      40.809  34.358  34.897  1.00  0.00    -0.206 F 
ATOM     70  C   UNL A   1      38.930  34.329  37.984  1.00  0.00     0.022 A 
BRANCH  67  71
ATOM     71  S   UNL A   1      37.160  32.525  39.162  1.00  0.00     0.124 S 
ATOM     72  O   UNL A   1      35.926  32.785  38.424  1.00  0.00    -0.237 OA
ATOM     73  O   UNL A   1      37.484  31.123  39.392  1.00  0.00    -0.237 OA
ATOM     74  O   UNL A   1      37.396  33.415  40.298  1.00  0.00    -0.744 OA
ENDBRANCH  67  71
ENDBRANCH  50  64
BRANCH  51  75
ATOM     75  C   UNL A   1      41.437  26.885  27.821  1.00  0.00     0.023 A 
ATOM     76  C   UNL A   1      41.232  25.495  27.805  1.00  0.00     0.031 A 
ATOM     77  C   UNL A   1      42.034  27.473  26.690  1.00  0.00     0.131 A 
ATOM     78  C   UNL A   1      41.669  24.735  26.706  1.00  0.00     0.055 A 
ATOM     79  C   UNL A   1      42.406  26.722  25.574  1.00  0.00     0.041 A 
ATOM     80  F   UNL A   1      42.270  28.794  26.654  1.00  0.00    -0.206 F 
ATOM     81  C   UNL A   1      42.239  25.341  25.584  1.00  0.00     0.022 A 
BRANCH  78  82
ATOM     82  S   UNL A   1      41.586  22.925  26.808  1.00  0.00     0.124 S 
ATOM     83  O   UNL A   1      41.621  22.709  28.251  1.00  0.00    -0.237 OA
ATOM     84  O   UNL A   1      40.316  22.642  26.147  1.00  0.00    -0.237 OA
ATOM     85  O   UNL A   1      42.776  22.488  26.082  1.00  0.00    -0.744 OA
ENDBRANCH  78  82
ENDBRANCH  51  75
BRANCH  63  86
ATOM     86  C   UNL A   1      44.608  27.672  33.988  1.00  0.00     0.023 A 
ATOM     87  C   UNL A   1      44.514  26.487  34.741  1.00  0.00     0.031 A 
ATOM     88  C   UNL A   1      45.882  28.247  33.826  1.00  0.00     0.131 A 
ATOM     89  C   UNL A   1      45.658  25.955  35.357  1.00  0.00     0.055 A 
ATOM     90  C   UNL A   1      47.026  27.674  34.380  1.00  0.00     0.041 A 
ATOM     91  F   UNL A   1      46.035  29.380  33.121  1.00  0.00    -0.206 F 
ATOM     92  C   UNL A   1      46.917  26.531  35.165  1.00  0.00     0.022 A 
BRANCH  89  93
ATOM     93  S   UNL A   1      45.462  24.567  36.508  1.00  0.00     0.124 S 
ATOM     94  O   UNL A   1      46.565  23.694  36.120  1.00  0.00    -0.237 OA
ATOM     95  O   UNL A   1      45.591  25.218  37.807  1.00  0.00    -0.237 OA
ATOM     96  O   UNL A   1      44.128  24.053  36.203  1.00  0.00    -0.744 OA
ENDBRANCH  89  93
ENDBRANCH  63  86
ENDBRANCH  37  38
ENDBRANCH  30  32
ENDBRANCH  29  30
ENDBRANCH  28  29
ENDBRANCH   1  28
TORSDOF 20
ENDMDL
