MODEL 1
REMARK VINA RESULT:     -12.1      0.000      0.000
REMARK SMILES CCN(CCC(=O)OCCOC(=O)c1ccc(-c2c3nc(c(-c4cc(S(=O)(=O)[O-])ccc4F)c4ccc([nH]4)c(-c4cc(S(=O)(=O)[O-])ccc4F)c4nc(c(-c5cc(S(=O)(=O)[O-])ccc5F)c5ccc2[nH]5)C=C4)C=C3)cc1)C(=O)c1cc(Cl)ccc1F
REMARK SMILES IDX 9 1 8 2 6 3 7 4 5 5 4 6 3 7 2 8 1 9 77 10 78 11 79 12 80 13
REMARK SMILES IDX 85 14 81 15 84 16 86 17 82 18 83 19 10 20 11 21 12 22 13 23
REMARK SMILES IDX 14 24 15 25 76 26 16 27 75 28 17 29 18 30 19 31 69 32 20 33
REMARK SMILES IDX 74 34 68 35 70 36 21 37 73 38 67 39 66 40 22 42 54 43 34 44
REMARK SMILES IDX 53 45 35 46 38 47 52 48 71 49 36 50 37 51 51 53 72 54 39 55
REMARK SMILES IDX 23 56 24 57 32 58 25 59 31 60 33 61 30 62 26 63 27 64 28 65
REMARK SMILES IDX 29 66 55 67 56 68 64 69 57 70 63 71 65 72 62 73 58 74 59 75
REMARK SMILES IDX 60 76 61 77 40 78 41 79 49 80 42 81 48 82 50 83 47 84 43 85
REMARK SMILES IDX 44 86 45 87 46 88
REMARK H PARENT 70 41 38 52
REMARK Flexibility Score: inf
ROOT
ATOM      1  C   UNL A   1      35.942  20.091  24.982  1.00  0.00     0.274 C 
ENDROOT
BRANCH   1   2
ATOM      2  O   UNL A   1      34.560  19.511  24.646  1.00  0.00    -0.462 OA
BRANCH   2   3
ATOM      3  C   UNL A   1      33.236  19.618  25.082  1.00  0.00     0.307 C 
ATOM      4  O   UNL A   1      32.736  18.623  25.614  1.00  0.00    -0.252 OA
BRANCH   3   5
ATOM      5  C   UNL A   1      32.339  20.970  24.984  1.00  0.00     0.144 C 
BRANCH   5   6
ATOM      6  C   UNL A   1      32.169  21.850  23.613  1.00  0.00     0.131 C 
BRANCH   6   7
ATOM      7  N   UNL A   1      32.461  23.369  23.713  1.00  0.00    -0.338 N 
BRANCH   7   8
ATOM      8  C   UNL A   1      31.383  24.113  24.382  1.00  0.00     0.116 C 
ATOM      9  C   UNL A   1      30.284  24.668  23.483  1.00  0.00     0.027 C 
ENDBRANCH   7   8
BRANCH   7  10
ATOM     10  C   UNL A   1      33.551  24.164  23.168  1.00  0.00     0.256 C 
ATOM     11  O   UNL A   1      34.388  23.694  22.394  1.00  0.00    -0.269 OA
BRANCH  10  12
ATOM     12  C   UNL A   1      33.837  25.579  23.581  1.00  0.00     0.077 A 
ATOM     13  C   UNL A   1      33.931  26.172  25.268  1.00  0.00     0.037 A 
ATOM     14  C   UNL A   1      33.396  26.739  22.332  1.00  0.00     0.136 A 
ATOM     15  C   UNL A   1      33.638  27.907  25.638  1.00  0.00     0.042 A 
ATOM     16  C   UNL A   1      33.049  28.507  22.658  1.00  0.00     0.041 A 
ATOM     17  F   UNL A   1      32.479  26.069  21.728  1.00  0.00    -0.206 F 
ATOM     18  Cl  UNL A   1      33.789  28.470  27.254  1.00  0.00    -0.084 Cl
ATOM     19  C   UNL A   1      33.206  29.090  24.347  1.00  0.00     0.023 A 
ENDBRANCH  10  12
ENDBRANCH   7  10
ENDBRANCH   6   7
ENDBRANCH   5   6
ENDBRANCH   3   5
ENDBRANCH   2   3
ENDBRANCH   1   2
BRANCH   1  20
ATOM     20  C   UNL A   1      37.558  19.264  25.000  1.00  0.00     0.275 C 
BRANCH  20  21
ATOM     21  O   UNL A   1      39.276  19.755  25.944  1.00  0.00    -0.458 OA
BRANCH  21  22
ATOM     22  C   UNL A   1      40.356  20.309  26.686  1.00  0.00     0.338 C 
ATOM     23  O   UNL A   1      41.234  19.579  27.140  1.00  0.00    -0.246 OA
BRANCH  22  24
ATOM     24  C   UNL A   1      40.481  21.777  26.945  1.00  0.00     0.060 A 
ATOM     25  C   UNL A   1      39.668  22.754  26.341  1.00  0.00     0.016 A 
ATOM     26  C   UNL A   1      41.544  22.178  27.755  1.00  0.00     0.016 A 
ATOM     27  C   UNL A   1      39.895  24.116  26.579  1.00  0.00     0.010 A 
ATOM     28  C   UNL A   1      41.781  23.536  27.977  1.00  0.00     0.010 A 
ATOM     29  C   UNL A   1      40.971  24.517  27.378  1.00  0.00    -0.014 A 
BRANCH  29  30
ATOM     30  C   UNL A   1      41.366  25.945  27.488  1.00  0.00     0.031 A 
ATOM     31  C   UNL A   1      42.688  26.372  26.907  1.00  0.00     0.074 A 
ATOM     32  C   UNL A   1      40.595  26.830  28.147  1.00  0.00     0.049 A 
ATOM     33  N   UNL A   1      43.323  27.508  27.034  1.00  0.00    -0.248 NA
ATOM     34  C   UNL A   1      43.390  25.379  26.078  1.00  0.00     0.031 C 
ATOM     35  C   UNL A   1      39.276  26.547  28.712  1.00  0.00     0.029 A 
ATOM     36  N   UNL A   1      40.826  28.143  28.480  1.00  0.00    -0.354 N 
ATOM     37  C   UNL A   1      44.513  27.357  26.330  1.00  0.00     0.074 A 
ATOM     38  C   UNL A   1      44.514  26.017  25.784  1.00  0.00     0.031 C 
ATOM     39  C   UNL A   1      38.829  27.643  29.349  1.00  0.00     0.029 A 
ATOM     40  C   UNL A   1      39.849  28.688  29.284  1.00  0.00     0.049 A 
ATOM     41  H   UNL A   1      41.615  28.646  28.173  1.00  0.00     0.167 HD
ATOM     42  C   UNL A   1      45.514  28.256  26.163  1.00  0.00     0.034 A 
ATOM     43  C   UNL A   1      39.807  29.872  29.929  1.00  0.00     0.034 A 
ATOM     44  C   UNL A   1      45.491  29.591  26.705  1.00  0.00     0.049 A 
ATOM     45  C   UNL A   1      40.973  30.826  29.786  1.00  0.00     0.074 A 
ATOM     46  C   UNL A   1      46.424  30.601  26.538  1.00  0.00     0.029 A 
ATOM     47  N   UNL A   1      44.500  30.099  27.530  1.00  0.00    -0.354 N 
ATOM     48  N   UNL A   1      42.076  30.685  29.088  1.00  0.00    -0.248 NA
ATOM     49  C   UNL A   1      40.889  32.097  30.522  1.00  0.00     0.031 C 
ATOM     50  C   UNL A   1      46.035  31.689  27.326  1.00  0.00     0.029 A 
ATOM     51  C   UNL A   1      44.821  31.388  27.923  1.00  0.00     0.049 A 
ATOM     52  H   UNL A   1      43.685  29.614  27.799  1.00  0.00     0.167 HD
ATOM     53  C   UNL A   1      42.801  31.860  29.280  1.00  0.00     0.074 A 
ATOM     54  C   UNL A   1      42.002  32.706  30.142  1.00  0.00     0.031 C 
ATOM     55  C   UNL A   1      44.017  32.213  28.791  1.00  0.00     0.034 A 
BRANCH  42  56
ATOM     56  C   UNL A   1      46.744  27.809  25.416  1.00  0.00     0.023 A 
ATOM     57  C   UNL A   1      46.929  28.077  24.049  1.00  0.00     0.031 A 
ATOM     58  C   UNL A   1      47.765  27.123  26.100  1.00  0.00     0.131 A 
ATOM     59  C   UNL A   1      48.091  27.629  23.402  1.00  0.00     0.055 A 
ATOM     60  C   UNL A   1      48.943  26.733  25.464  1.00  0.00     0.041 A 
ATOM     61  F   UNL A   1      47.631  26.822  27.401  1.00  0.00    -0.206 F 
ATOM     62  C   UNL A   1      49.109  26.980  24.104  1.00  0.00     0.022 A 
BRANCH  59  63
ATOM     63  S   UNL A   1      48.221  27.831  21.604  1.00  0.00     0.124 S 
ATOM     64  O   UNL A   1      49.213  28.898  21.495  1.00  0.00    -0.237 OA
ATOM     65  O   UNL A   1      48.654  26.509  21.167  1.00  0.00    -0.237 OA
ATOM     66  O   UNL A   1      46.867  28.206  21.201  1.00  0.00    -0.744 OA
ENDBRANCH  59  63
ENDBRANCH  42  56
BRANCH  43  67
ATOM     67  C   UNL A   1      38.667  30.214  30.834  1.00  0.00     0.023 A 
ATOM     68  C   UNL A   1      37.578  30.974  30.378  1.00  0.00     0.031 A 
ATOM     69  C   UNL A   1      38.698  29.865  32.197  1.00  0.00     0.131 A 
ATOM     70  C   UNL A   1      36.599  31.412  31.284  1.00  0.00     0.055 A 
ATOM     71  C   UNL A   1      37.688  30.249  33.082  1.00  0.00     0.041 A 
ATOM     72  F   UNL A   1      39.719  29.148  32.694  1.00  0.00    -0.206 F 
ATOM     73  C   UNL A   1      36.640  31.043  32.630  1.00  0.00     0.022 A 
BRANCH  70  74
ATOM     74  S   UNL A   1      35.339  32.583  30.704  1.00  0.00     0.124 S 
ATOM     75  O   UNL A   1      34.812  31.894  29.532  1.00  0.00    -0.237 OA
ATOM     76  O   UNL A   1      34.448  32.662  31.856  1.00  0.00    -0.237 OA
ATOM     77  O   UNL A   1      36.104  33.796  30.424  1.00  0.00    -0.744 OA
ENDBRANCH  70  74
ENDBRANCH  43  67
BRANCH  55  78
ATOM     78  C   UNL A   1      44.532  33.585  29.151  1.00  0.00     0.023 A 
ATOM     79  C   UNL A   1      44.138  34.730  28.439  1.00  0.00     0.031 A 
ATOM     80  C   UNL A   1      45.433  33.745  30.219  1.00  0.00     0.131 A 
ATOM     81  C   UNL A   1      44.684  35.980  28.770  1.00  0.00     0.055 A 
ATOM     82  C   UNL A   1      45.928  34.999  30.581  1.00  0.00     0.041 A 
ATOM     83  F   UNL A   1      45.844  32.685  30.933  1.00  0.00    -0.206 F 
ATOM     84  C   UNL A   1      45.563  36.124  29.846  1.00  0.00     0.022 A 
BRANCH  81  85
ATOM     85  S   UNL A   1      44.292  37.408  27.721  1.00  0.00     0.124 S 
ATOM     86  O   UNL A   1      45.619  37.916  27.392  1.00  0.00    -0.237 OA
ATOM     87  O   UNL A   1      43.553  36.796  26.622  1.00  0.00    -0.237 OA
ATOM     88  O   UNL A   1      43.498  38.269  28.596  1.00  0.00    -0.744 OA
ENDBRANCH  81  85
ENDBRANCH  55  78
ENDBRANCH  29  30
ENDBRANCH  22  24
ENDBRANCH  21  22
ENDBRANCH  20  21
ENDBRANCH   1  20
TORSDOF 19
ENDMDL
MODEL 2
REMARK VINA RESULT:     -11.8      5.038     10.754
REMARK SMILES CCN(CCC(=O)OCCOC(=O)c1ccc(-c2c3nc(c(-c4cc(S(=O)(=O)[O-])ccc4F)c4ccc([nH]4)c(-c4cc(S(=O)(=O)[O-])ccc4F)c4nc(c(-c5cc(S(=O)(=O)[O-])ccc5F)c5ccc2[nH]5)C=C4)C=C3)cc1)C(=O)c1cc(Cl)ccc1F
REMARK SMILES IDX 9 1 8 2 6 3 7 4 5 5 4 6 3 7 2 8 1 9 77 10 78 11 79 12 80 13
REMARK SMILES IDX 85 14 81 15 84 16 86 17 82 18 83 19 10 20 11 21 12 22 13 23
REMARK SMILES IDX 14 24 15 25 76 26 16 27 75 28 17 29 18 30 19 31 69 32 20 33
REMARK SMILES IDX 74 34 68 35 70 36 21 37 73 38 67 39 66 40 22 42 54 43 34 44
REMARK SMILES IDX 53 45 35 46 38 47 52 48 71 49 36 50 37 51 51 53 72 54 39 55
REMARK SMILES IDX 23 56 24 57 32 58 25 59 31 60 33 61 30 62 26 63 27 64 28 65
REMARK SMILES IDX 29 66 55 67 56 68 64 69 57 70 63 71 65 72 62 73 58 74 59 75
REMARK SMILES IDX 60 76 61 77 40 78 41 79 49 80 42 81 48 82 50 83 47 84 43 85
REMARK SMILES IDX 44 86 45 87 46 88
REMARK H PARENT 70 41 38 52
REMARK Flexibility Score: inf
ROOT
ATOM      1  C   UNL A   1      31.117  30.093  24.721  1.00  0.00     0.274 C 
ENDROOT
BRANCH   1   2
ATOM      2  O   UNL A   1      30.107  29.161  24.034  1.00  0.00    -0.462 OA
BRANCH   2   3
ATOM      3  C   UNL A   1      30.093  27.945  23.344  1.00  0.00     0.307 C 
ATOM      4  O   UNL A   1      30.274  27.987  22.124  1.00  0.00    -0.252 OA
BRANCH   3   5
ATOM      5  C   UNL A   1      29.912  26.490  24.045  1.00  0.00     0.144 C 
BRANCH   5   6
ATOM      6  C   UNL A   1      30.053  26.235  25.656  1.00  0.00     0.131 C 
BRANCH   6   7
ATOM      7  N   UNL A   1      31.400  25.653  26.160  1.00  0.00    -0.338 N 
BRANCH   7   8
ATOM      8  C   UNL A   1      32.447  26.677  26.291  1.00  0.00     0.116 C 
ATOM      9  C   UNL A   1      33.240  27.000  25.030  1.00  0.00     0.027 C 
ENDBRANCH   7   8
BRANCH   7  10
ATOM     10  C   UNL A   1      31.806  24.279  26.411  1.00  0.00     0.256 C 
ATOM     11  O   UNL A   1      31.227  23.558  27.227  1.00  0.00    -0.269 OA
BRANCH  10  12
ATOM     12  C   UNL A   1      33.025  23.647  25.805  1.00  0.00     0.077 A 
ATOM     13  C   UNL A   1      34.709  23.881  26.368  1.00  0.00     0.037 A 
ATOM     14  C   UNL A   1      32.783  23.222  24.112  1.00  0.00     0.136 A 
ATOM     15  C   UNL A   1      36.087  23.629  25.242  1.00  0.00     0.042 A 
ATOM     16  C   UNL A   1      34.147  22.991  22.913  1.00  0.00     0.041 A 
ATOM     17  F   UNL A   1      31.876  24.079  23.801  1.00  0.00    -0.206 F 
ATOM     18  Cl  UNL A   1      37.697  23.801  25.815  1.00  0.00    -0.084 Cl
ATOM     19  C   UNL A   1      35.827  23.175  23.515  1.00  0.00     0.023 A 
ENDBRANCH  10  12
ENDBRANCH   7  10
ENDBRANCH   6   7
ENDBRANCH   5   6
ENDBRANCH   3   5
ENDBRANCH   2   3
ENDBRANCH   1   2
BRANCH   1  20
ATOM     20  C   UNL A   1      30.809  31.571  25.730  1.00  0.00     0.275 C 
BRANCH  20  21
ATOM     21  O   UNL A   1      32.067  32.674  26.863  1.00  0.00    -0.458 OA
BRANCH  21  22
ATOM     22  C   UNL A   1      33.090  33.236  27.677  1.00  0.00     0.338 C 
ATOM     23  O   UNL A   1      33.017  34.404  28.046  1.00  0.00    -0.246 OA
BRANCH  22  24
ATOM     24  C   UNL A   1      34.283  32.448  28.120  1.00  0.00     0.060 A 
ATOM     25  C   UNL A   1      34.375  31.047  28.037  1.00  0.00     0.016 A 
ATOM     26  C   UNL A   1      35.303  33.165  28.746  1.00  0.00     0.016 A 
ATOM     27  C   UNL A   1      35.497  30.375  28.541  1.00  0.00     0.010 A 
ATOM     28  C   UNL A   1      36.413  32.494  29.264  1.00  0.00     0.010 A 
ATOM     29  C   UNL A   1      36.512  31.094  29.182  1.00  0.00    -0.014 A 
BRANCH  29  30
ATOM     30  C   UNL A   1      37.612  30.405  29.905  1.00  0.00     0.031 A 
ATOM     31  C   UNL A   1      37.850  30.752  31.352  1.00  0.00     0.074 A 
ATOM     32  C   UNL A   1      38.422  29.536  29.273  1.00  0.00     0.049 A 
ATOM     33  N   UNL A   1      38.847  30.423  32.132  1.00  0.00    -0.248 NA
ATOM     34  C   UNL A   1      36.830  31.592  32.000  1.00  0.00     0.031 C 
ATOM     35  C   UNL A   1      38.264  29.085  27.891  1.00  0.00     0.029 A 
ATOM     36  N   UNL A   1      39.561  28.898  29.704  1.00  0.00    -0.354 N 
ATOM     37  C   UNL A   1      38.592  31.040  33.352  1.00  0.00     0.074 A 
ATOM     38  C   UNL A   1      37.350  31.769  33.206  1.00  0.00     0.031 C 
ATOM     39  C   UNL A   1      39.287  28.270  27.577  1.00  0.00     0.029 A 
ATOM     40  C   UNL A   1      40.199  28.181  28.715  1.00  0.00     0.049 A 
ATOM     41  H   UNL A   1      39.889  28.950  30.631  1.00  0.00     0.167 HD
ATOM     42  C   UNL A   1      39.332  31.004  34.486  1.00  0.00     0.034 A 
ATOM     43  C   UNL A   1      41.401  27.568  28.717  1.00  0.00     0.034 A 
ATOM     44  C   UNL A   1      40.562  30.263  34.618  1.00  0.00     0.049 A 
ATOM     45  C   UNL A   1      42.242  27.608  29.974  1.00  0.00     0.074 A 
ATOM     46  C   UNL A   1      41.354  30.107  35.743  1.00  0.00     0.029 A 
ATOM     47  N   UNL A   1      41.187  29.570  33.593  1.00  0.00    -0.354 N 
ATOM     48  N   UNL A   1      41.972  28.165  31.133  1.00  0.00    -0.248 NA
ATOM     49  C   UNL A   1      43.551  26.940  29.922  1.00  0.00     0.031 C 
ATOM     50  C   UNL A   1      42.496  29.388  35.378  1.00  0.00     0.029 A 
ATOM     51  C   UNL A   1      42.380  29.028  34.044  1.00  0.00     0.049 A 
ATOM     52  H   UNL A   1      40.836  29.477  32.678  1.00  0.00     0.167 HD
ATOM     53  C   UNL A   1      43.066  27.889  31.951  1.00  0.00     0.074 A 
ATOM     54  C   UNL A   1      43.988  27.100  31.163  1.00  0.00     0.031 C 
ATOM     55  C   UNL A   1      43.292  28.253  33.240  1.00  0.00     0.034 A 
BRANCH  42  56
ATOM     56  C   UNL A   1      38.871  31.835  35.656  1.00  0.00     0.023 A 
ATOM     57  C   UNL A   1      38.231  31.268  36.771  1.00  0.00     0.031 A 
ATOM     58  C   UNL A   1      39.104  33.223  35.661  1.00  0.00     0.131 A 
ATOM     59  C   UNL A   1      37.813  32.091  37.829  1.00  0.00     0.055 A 
ATOM     60  C   UNL A   1      38.740  34.026  36.742  1.00  0.00     0.041 A 
ATOM     61  F   UNL A   1      39.693  33.819  34.613  1.00  0.00    -0.206 F 
ATOM     62  C   UNL A   1      38.084  33.462  37.832  1.00  0.00     0.022 A 
BRANCH  59  63
ATOM     63  S   UNL A   1      36.832  31.360  39.168  1.00  0.00     0.124 S 
ATOM     64  O   UNL A   1      36.562  30.024  38.643  1.00  0.00    -0.237 OA
ATOM     65  O   UNL A   1      37.746  31.428  40.303  1.00  0.00    -0.237 OA
ATOM     66  O   UNL A   1      35.665  32.235  39.256  1.00  0.00    -0.744 OA
ENDBRANCH  59  63
ENDBRANCH  42  56
BRANCH  43  67
ATOM     67  C   UNL A   1      41.935  26.922  27.479  1.00  0.00     0.023 A 
ATOM     68  C   UNL A   1      41.819  25.539  27.273  1.00  0.00     0.031 A 
ATOM     69  C   UNL A   1      42.655  27.669  26.529  1.00  0.00     0.131 A 
ATOM     70  C   UNL A   1      42.464  24.935  26.180  1.00  0.00     0.055 A 
ATOM     71  C   UNL A   1      43.241  27.074  25.409  1.00  0.00     0.041 A 
ATOM     72  F   UNL A   1      42.809  28.995  26.678  1.00  0.00    -0.206 F 
ATOM     73  C   UNL A   1      43.162  25.696  25.240  1.00  0.00     0.022 A 
BRANCH  70  74
ATOM     74  S   UNL A   1      42.487  23.123  26.077  1.00  0.00     0.124 S 
ATOM     75  O   UNL A   1      43.394  22.776  27.165  1.00  0.00    -0.237 OA
ATOM     76  O   UNL A   1      41.081  22.792  26.283  1.00  0.00    -0.237 OA
ATOM     77  O   UNL A   1      42.997  22.865  24.733  1.00  0.00    -0.744 OA
ENDBRANCH  70  74
ENDBRANCH  43  67
BRANCH  55  78
ATOM     78  C   UNL A   1      44.570  27.766  33.878  1.00  0.00     0.023 A 
ATOM     79  C   UNL A   1      44.618  26.570  34.614  1.00  0.00     0.031 A 
ATOM     80  C   UNL A   1      45.754  28.513  33.750  1.00  0.00     0.131 A 
ATOM     81  C   UNL A   1      45.813  26.181  35.238  1.00  0.00     0.055 A 
ATOM     82  C   UNL A   1      46.955  28.092  34.325  1.00  0.00     0.041 A 
ATOM     83  F   UNL A   1      45.766  29.665  33.059  1.00  0.00    -0.206 F 
ATOM     84  C   UNL A   1      46.985  26.926  35.085  1.00  0.00     0.022 A 
BRANCH  81  85
ATOM     85  S   UNL A   1      45.796  24.728  36.324  1.00  0.00     0.124 S 
ATOM     86  O   UNL A   1      45.188  23.716  35.467  1.00  0.00    -0.237 OA
ATOM     87  O   UNL A   1      47.212  24.543  36.622  1.00  0.00    -0.237 OA
ATOM     88  O   UNL A   1      44.977  25.155  37.457  1.00  0.00    -0.744 OA
ENDBRANCH  81  85
ENDBRANCH  55  78
ENDBRANCH  29  30
ENDBRANCH  22  24
ENDBRANCH  21  22
ENDBRANCH  20  21
ENDBRANCH   1  20
TORSDOF 19
ENDMDL
MODEL 3
REMARK VINA RESULT:     -11.8      1.767      7.852
REMARK SMILES CCN(CCC(=O)OCCOC(=O)c1ccc(-c2c3nc(c(-c4cc(S(=O)(=O)[O-])ccc4F)c4ccc([nH]4)c(-c4cc(S(=O)(=O)[O-])ccc4F)c4nc(c(-c5cc(S(=O)(=O)[O-])ccc5F)c5ccc2[nH]5)C=C4)C=C3)cc1)C(=O)c1cc(Cl)ccc1F
REMARK SMILES IDX 9 1 8 2 6 3 7 4 5 5 4 6 3 7 2 8 1 9 77 10 78 11 79 12 80 13
REMARK SMILES IDX 85 14 81 15 84 16 86 17 82 18 83 19 10 20 11 21 12 22 13 23
REMARK SMILES IDX 14 24 15 25 76 26 16 27 75 28 17 29 18 30 19 31 69 32 20 33
REMARK SMILES IDX 74 34 68 35 70 36 21 37 73 38 67 39 66 40 22 42 54 43 34 44
REMARK SMILES IDX 53 45 35 46 38 47 52 48 71 49 36 50 37 51 51 53 72 54 39 55
REMARK SMILES IDX 23 56 24 57 32 58 25 59 31 60 33 61 30 62 26 63 27 64 28 65
REMARK SMILES IDX 29 66 55 67 56 68 64 69 57 70 63 71 65 72 62 73 58 74 59 75
REMARK SMILES IDX 60 76 61 77 40 78 41 79 49 80 42 81 48 82 50 83 47 84 43 85
REMARK SMILES IDX 44 86 45 87 46 88
REMARK H PARENT 70 41 38 52
REMARK Flexibility Score: inf
ROOT
ATOM      1  C   UNL A   1      34.945  20.378  25.281  1.00  0.00     0.274 C 
ENDROOT
BRANCH   1   2
ATOM      2  O   UNL A   1      33.697  19.885  24.533  1.00  0.00    -0.462 OA
BRANCH   2   3
ATOM      3  C   UNL A   1      32.527  20.408  23.975  1.00  0.00     0.307 C 
ATOM      4  O   UNL A   1      32.176  19.959  22.880  1.00  0.00    -0.252 OA
BRANCH   3   5
ATOM      5  C   UNL A   1      31.577  21.515  24.691  1.00  0.00     0.144 C 
BRANCH   5   6
ATOM      6  C   UNL A   1      31.379  23.041  24.130  1.00  0.00     0.131 C 
BRANCH   6   7
ATOM      7  N   UNL A   1      31.744  24.197  25.095  1.00  0.00    -0.338 N 
BRANCH   7   8
ATOM      8  C   UNL A   1      33.196  24.374  25.247  1.00  0.00     0.116 C 
ATOM      9  C   UNL A   1      33.820  23.798  26.514  1.00  0.00     0.027 C 
ENDBRANCH   7   8
BRANCH   7  10
ATOM     10  C   UNL A   1      30.902  25.038  25.932  1.00  0.00     0.256 C 
ATOM     11  O   UNL A   1      30.243  24.586  26.870  1.00  0.00    -0.269 OA
BRANCH  10  12
ATOM     12  C   UNL A   1      30.654  26.495  25.666  1.00  0.00     0.077 A 
ATOM     13  C   UNL A   1      30.295  27.216  24.066  1.00  0.00     0.037 A 
ATOM     14  C   UNL A   1      31.408  27.529  26.876  1.00  0.00     0.136 A 
ATOM     15  C   UNL A   1      30.648  28.951  23.752  1.00  0.00     0.042 A 
ATOM     16  C   UNL A   1      31.824  29.290  26.597  1.00  0.00     0.041 A 
ATOM     17  F   UNL A   1      32.367  26.759  27.253  1.00  0.00    -0.206 F 
ATOM     18  Cl  UNL A   1      30.243  29.639  22.232  1.00  0.00    -0.084 Cl
ATOM     19  C   UNL A   1      31.403  30.004  25.007  1.00  0.00     0.023 A 
ENDBRANCH  10  12
ENDBRANCH   7  10
ENDBRANCH   6   7
ENDBRANCH   5   6
ENDBRANCH   3   5
ENDBRANCH   2   3
ENDBRANCH   1   2
BRANCH   1  20
ATOM     20  C   UNL A   1      36.649  20.551  24.678  1.00  0.00     0.275 C 
BRANCH  20  21
ATOM     21  O   UNL A   1      38.316  21.202  25.617  1.00  0.00    -0.458 OA
BRANCH  21  22
ATOM     22  C   UNL A   1      39.522  21.414  26.341  1.00  0.00     0.338 C 
ATOM     23  O   UNL A   1      40.296  20.482  26.541  1.00  0.00    -0.246 OA
BRANCH  22  24
ATOM     24  C   UNL A   1      39.906  22.755  26.882  1.00  0.00     0.060 A 
ATOM     25  C   UNL A   1      39.410  23.974  26.386  1.00  0.00     0.016 A 
ATOM     26  C   UNL A   1      40.897  22.769  27.865  1.00  0.00     0.016 A 
ATOM     27  C   UNL A   1      39.874  25.194  26.898  1.00  0.00     0.010 A 
ATOM     28  C   UNL A   1      41.372  23.985  28.362  1.00  0.00     0.010 A 
ATOM     29  C   UNL A   1      40.878  25.206  27.872  1.00  0.00    -0.014 A 
BRANCH  29  30
ATOM     30  C   UNL A   1      41.537  26.470  28.290  1.00  0.00     0.031 A 
ATOM     31  C   UNL A   1      40.700  27.533  28.951  1.00  0.00     0.074 A 
ATOM     32  C   UNL A   1      42.839  26.694  28.031  1.00  0.00     0.049 A 
ATOM     33  N   UNL A   1      41.004  28.772  29.238  1.00  0.00    -0.248 NA
ATOM     34  C   UNL A   1      39.331  27.147  29.330  1.00  0.00     0.031 C 
ATOM     35  C   UNL A   1      43.762  25.726  27.440  1.00  0.00     0.029 A 
ATOM     36  N   UNL A   1      43.605  27.822  28.206  1.00  0.00    -0.354 N 
ATOM     37  C   UNL A   1      39.858  29.323  29.801  1.00  0.00     0.074 A 
ATOM     38  C   UNL A   1      38.850  28.285  29.808  1.00  0.00     0.031 C 
ATOM     39  C   UNL A   1      44.961  26.312  27.270  1.00  0.00     0.029 A 
ATOM     40  C   UNL A   1      44.878  27.709  27.691  1.00  0.00     0.049 A 
ATOM     41  H   UNL A   1      43.274  28.634  28.655  1.00  0.00     0.167 HD
ATOM     42  C   UNL A   1      39.667  30.583  30.262  1.00  0.00     0.034 A 
ATOM     43  C   UNL A   1      45.844  28.639  27.535  1.00  0.00     0.034 A 
ATOM     44  C   UNL A   1      40.686  31.602  30.258  1.00  0.00     0.049 A 
ATOM     45  C   UNL A   1      45.576  30.057  27.990  1.00  0.00     0.074 A 
ATOM     46  C   UNL A   1      40.616  32.890  30.763  1.00  0.00     0.029 A 
ATOM     47  N   UNL A   1      41.952  31.459  29.710  1.00  0.00    -0.354 N 
ATOM     48  N   UNL A   1      44.499  30.556  28.554  1.00  0.00    -0.248 NA
ATOM     49  C   UNL A   1      46.652  31.038  27.784  1.00  0.00     0.031 C 
ATOM     50  C   UNL A   1      41.809  33.548  30.449  1.00  0.00     0.029 A 
ATOM     51  C   UNL A   1      42.654  32.650  29.818  1.00  0.00     0.049 A 
ATOM     52  H   UNL A   1      42.302  30.633  29.304  1.00  0.00     0.167 HD
ATOM     53  C   UNL A   1      44.783  31.899  28.792  1.00  0.00     0.074 A 
ATOM     54  C   UNL A   1      46.136  32.128  28.331  1.00  0.00     0.031 C 
ATOM     55  C   UNL A   1      43.999  32.862  29.343  1.00  0.00     0.034 A 
BRANCH  42  56
ATOM     56  C   UNL A   1      38.291  30.953  30.754  1.00  0.00     0.023 A 
ATOM     57  C   UNL A   1      37.343  31.579  29.927  1.00  0.00     0.031 A 
ATOM     58  C   UNL A   1      37.917  30.645  32.075  1.00  0.00     0.131 A 
ATOM     59  C   UNL A   1      36.079  31.909  30.441  1.00  0.00     0.055 A 
ATOM     60  C   UNL A   1      36.639  30.922  32.562  1.00  0.00     0.041 A 
ATOM     61  F   UNL A   1      38.790  30.066  32.914  1.00  0.00    -0.206 F 
ATOM     62  C   UNL A   1      35.713  31.564  31.745  1.00  0.00     0.022 A 
BRANCH  59  63
ATOM     63  S   UNL A   1      34.943  32.875  29.408  1.00  0.00     0.124 S 
ATOM     64  O   UNL A   1      34.030  33.426  30.407  1.00  0.00    -0.237 OA
ATOM     65  O   UNL A   1      35.836  33.831  28.764  1.00  0.00    -0.237 OA
ATOM     66  O   UNL A   1      34.354  31.877  28.519  1.00  0.00    -0.744 OA
ENDBRANCH  59  63
ENDBRANCH  42  56
BRANCH  43  67
ATOM     67  C   UNL A   1      47.131  28.301  26.856  1.00  0.00     0.023 A 
ATOM     68  C   UNL A   1      47.219  28.227  25.457  1.00  0.00     0.031 A 
ATOM     69  C   UNL A   1      48.272  27.951  27.604  1.00  0.00     0.131 A 
ATOM     70  C   UNL A   1      48.395  27.757  24.850  1.00  0.00     0.055 A 
ATOM     71  C   UNL A   1      49.461  27.545  26.993  1.00  0.00     0.041 A 
ATOM     72  F   UNL A   1      48.246  27.992  28.946  1.00  0.00    -0.206 F 
ATOM     73  C   UNL A   1      49.521  27.429  25.609  1.00  0.00     0.022 A 
BRANCH  70  74
ATOM     74  S   UNL A   1      48.390  27.455  23.061  1.00  0.00     0.124 S 
ATOM     75  O   UNL A   1      49.675  28.016  22.661  1.00  0.00    -0.237 OA
ATOM     76  O   UNL A   1      48.278  26.001  23.001  1.00  0.00    -0.237 OA
ATOM     77  O   UNL A   1      47.216  28.190  22.595  1.00  0.00    -0.744 OA
ENDBRANCH  70  74
ENDBRANCH  43  67
BRANCH  55  78
ATOM     78  C   UNL A   1      44.606  34.234  29.505  1.00  0.00     0.023 A 
ATOM     79  C   UNL A   1      44.507  35.207  28.497  1.00  0.00     0.031 A 
ATOM     80  C   UNL A   1      45.295  34.568  30.684  1.00  0.00     0.131 A 
ATOM     81  C   UNL A   1      45.134  36.452  28.664  1.00  0.00     0.055 A 
ATOM     82  C   UNL A   1      45.867  35.828  30.869  1.00  0.00     0.041 A 
ATOM     83  F   UNL A   1      45.421  33.676  31.680  1.00  0.00    -0.206 F 
ATOM     84  C   UNL A   1      45.798  36.774  29.850  1.00  0.00     0.022 A 
BRANCH  81  85
ATOM     85  S   UNL A   1      45.138  37.619  27.275  1.00  0.00     0.124 S 
ATOM     86  O   UNL A   1      43.735  37.622  26.877  1.00  0.00    -0.237 OA
ATOM     87  O   UNL A   1      45.626  38.845  27.898  1.00  0.00    -0.237 OA
ATOM     88  O   UNL A   1      46.054  37.006  26.314  1.00  0.00    -0.744 OA
ENDBRANCH  81  85
ENDBRANCH  55  78
ENDBRANCH  29  30
ENDBRANCH  22  24
ENDBRANCH  21  22
ENDBRANCH  20  21
ENDBRANCH   1  20
TORSDOF 19
ENDMDL
