MODEL 1
REMARK VINA RESULT:     -11.1      0.000      0.000
REMARK SMILES N#CCC1(C[N@@H+]2CCO[C@H](CC(=O)OCCOC(=O)c3ccc(-c4c5nc(c(-c6cc(S(=O)(=O)[O-])ccc6F)c6ccc([nH]6)c(-c6cc(S(=O)(=O)[O-])ccc6F)c6nc(c(-c7cc(S(=O)(=O)[O-])ccc7F)c7ccc4[nH]7)C=C6)C=C5)cc3)C2)CC1
REMARK SMILES IDX 15 1 14 2 12 3 13 4 11 5 10 6 6 7 7 8 83 9 8 11 9 12 5 13
REMARK SMILES IDX 4 14 84 15 85 16 3 17 2 18 1 19 16 20 17 21 18 22 19 23
REMARK SMILES IDX 20 24 21 25 82 26 22 27 81 28 23 29 24 30 25 31 75 32 26 33
REMARK SMILES IDX 80 34 74 35 76 36 27 37 79 38 73 39 72 40 28 42 60 43 40 44
REMARK SMILES IDX 59 45 41 46 44 47 58 48 77 49 42 50 43 51 57 53 78 54 45 55
REMARK SMILES IDX 29 56 30 57 38 58 31 59 37 60 39 61 36 62 32 63 33 64 34 65
REMARK SMILES IDX 35 66 61 67 62 68 70 69 63 70 69 71 71 72 68 73 64 74 65 75
REMARK SMILES IDX 66 76 67 77 46 78 47 79 55 80 48 81 54 82 56 83 53 84 49 85
REMARK SMILES IDX 50 86 51 87 52 88
REMARK H PARENT 6 10 76 41 44 52
REMARK Flexibility Score: inf
ROOT
ATOM      1  C   UNL A   1      32.813  27.903  24.552  1.00  0.00     0.274 C 
ENDROOT
BRANCH   1   2
ATOM      2  O   UNL A   1      32.543  26.614  25.383  1.00  0.00    -0.462 OA
BRANCH   2   3
ATOM      3  C   UNL A   1      32.246  25.551  26.141  1.00  0.00     0.308 C 
ATOM      4  O   UNL A   1      31.087  25.543  26.581  1.00  0.00    -0.252 OA
BRANCH   3   5
ATOM      5  C   UNL A   1      33.110  24.239  26.423  1.00  0.00     0.160 C 
BRANCH   5   6
ATOM      6  C   UNL A   1      32.941  22.636  26.589  1.00  0.00     0.184 C 
ATOM      7  N   UNL A   1      34.569  20.725  26.060  1.00  0.00    -0.330 N 
ATOM      8  C   UNL A   1      33.571  20.092  25.218  1.00  0.00     0.291 C 
ATOM      9  C   UNL A   1      34.010  21.626  27.067  1.00  0.00     0.295 C 
ATOM     10  H   UNL A   1      34.939  19.956  26.619  1.00  0.00     0.348 HD
ATOM     11  C   UNL A   1      32.296  20.888  24.921  1.00  0.00     0.222 C 
ATOM     12  O   UNL A   1      31.956  22.010  25.739  1.00  0.00    -0.366 OA
BRANCH   7  13
ATOM     13  C   UNL A   1      35.781  21.142  25.411  1.00  0.00     0.270 C 
BRANCH  13  14
ATOM     14  C   UNL A   1      35.692  22.575  24.939  1.00  0.00     0.032 C 
ATOM     15  C   UNL A   1      37.065  23.263  24.750  1.00  0.00     0.015 C 
ATOM     16  C   UNL A   1      36.275  23.577  25.954  1.00  0.00     0.015 C 
BRANCH  14  17
ATOM     17  C   UNL A   1      34.858  22.723  23.674  1.00  0.00     0.133 C 
BRANCH  17  18
ATOM     18  C   UNL A   1      34.256  23.955  23.020  1.00  0.00     0.063 C 
ATOM     19  N   UNL A   1      33.756  24.978  22.478  1.00  0.00    -0.198 NA
ENDBRANCH  17  18
ENDBRANCH  14  17
ENDBRANCH  13  14
ENDBRANCH   7  13
ENDBRANCH   5   6
ENDBRANCH   3   5
ENDBRANCH   2   3
ENDBRANCH   1   2
BRANCH   1  20
ATOM     20  C   UNL A   1      32.619  29.315  25.137  1.00  0.00     0.275 C 
BRANCH  20  21
ATOM     21  O   UNL A   1      33.653  29.540  26.084  1.00  0.00    -0.458 OA
BRANCH  21  22
ATOM     22  C   UNL A   1      33.444  30.575  26.931  1.00  0.00     0.338 C 
ATOM     23  O   UNL A   1      32.421  31.200  27.123  1.00  0.00    -0.246 OA
BRANCH  22  24
ATOM     24  C   UNL A   1      34.716  30.685  27.651  1.00  0.00     0.060 A 
ATOM     25  C   UNL A   1      35.237  29.492  28.159  1.00  0.00     0.016 A 
ATOM     26  C   UNL A   1      35.421  31.868  27.744  1.00  0.00     0.016 A 
ATOM     27  C   UNL A   1      36.497  29.418  28.703  1.00  0.00     0.010 A 
ATOM     28  C   UNL A   1      36.695  31.811  28.296  1.00  0.00     0.010 A 
ATOM     29  C   UNL A   1      37.235  30.586  28.757  1.00  0.00    -0.014 A 
BRANCH  29  30
ATOM     30  C   UNL A   1      38.558  30.596  29.386  1.00  0.00     0.031 A 
ATOM     31  C   UNL A   1      39.566  29.677  28.797  1.00  0.00     0.074 A 
ATOM     32  C   UNL A   1      38.750  31.297  30.513  1.00  0.00     0.049 A 
ATOM     33  N   UNL A   1      40.544  29.047  29.374  1.00  0.00    -0.248 NA
ATOM     34  C   UNL A   1      39.390  29.375  27.367  1.00  0.00     0.031 C 
ATOM     35  C   UNL A   1      37.839  32.311  31.054  1.00  0.00     0.029 A 
ATOM     36  N   UNL A   1      39.745  31.206  31.445  1.00  0.00    -0.354 N 
ATOM     37  C   UNL A   1      41.050  28.193  28.400  1.00  0.00     0.074 A 
ATOM     38  C   UNL A   1      40.277  28.408  27.196  1.00  0.00     0.031 C 
ATOM     39  C   UNL A   1      38.286  32.700  32.258  1.00  0.00     0.029 A 
ATOM     40  C   UNL A   1      39.448  31.893  32.600  1.00  0.00     0.049 A 
ATOM     41  H   UNL A   1      40.581  30.704  31.305  1.00  0.00     0.167 HD
ATOM     42  C   UNL A   1      42.044  27.289  28.554  1.00  0.00     0.034 A 
ATOM     43  C   UNL A   1      40.003  31.788  33.822  1.00  0.00     0.034 A 
ATOM     44  C   UNL A   1      42.739  27.145  29.813  1.00  0.00     0.049 A 
ATOM     45  C   UNL A   1      41.102  30.771  33.982  1.00  0.00     0.074 A 
ATOM     46  C   UNL A   1      43.746  26.270  30.167  1.00  0.00     0.029 A 
ATOM     47  N   UNL A   1      42.476  27.928  30.940  1.00  0.00    -0.354 N 
ATOM     48  N   UNL A   1      41.543  29.890  33.107  1.00  0.00    -0.248 NA
ATOM     49  C   UNL A   1      41.778  30.733  35.278  1.00  0.00     0.031 C 
ATOM     50  C   UNL A   1      44.061  26.496  31.514  1.00  0.00     0.029 A 
ATOM     51  C   UNL A   1      43.302  27.559  31.986  1.00  0.00     0.049 A 
ATOM     52  H   UNL A   1      41.801  28.642  30.983  1.00  0.00     0.167 HD
ATOM     53  C   UNL A   1      42.573  29.206  33.741  1.00  0.00     0.074 A 
ATOM     54  C   UNL A   1      42.689  29.794  35.066  1.00  0.00     0.031 C 
ATOM     55  C   UNL A   1      43.356  28.191  33.286  1.00  0.00     0.034 A 
BRANCH  42  56
ATOM     56  C   UNL A   1      42.328  26.369  27.389  1.00  0.00     0.023 A 
ATOM     57  C   UNL A   1      41.790  25.070  27.315  1.00  0.00     0.031 A 
ATOM     58  C   UNL A   1      43.236  26.754  26.388  1.00  0.00     0.131 A 
ATOM     59  C   UNL A   1      42.235  24.177  26.325  1.00  0.00     0.055 A 
ATOM     60  C   UNL A   1      43.608  25.890  25.353  1.00  0.00     0.041 A 
ATOM     61  F   UNL A   1      43.812  27.967  26.414  1.00  0.00    -0.206 F 
ATOM     62  C   UNL A   1      43.122  24.587  25.328  1.00  0.00     0.022 A 
BRANCH  59  63
ATOM     63  S   UNL A   1      41.760  22.430  26.451  1.00  0.00     0.124 S 
ATOM     64  O   UNL A   1      42.314  22.068  27.754  1.00  0.00    -0.237 OA
ATOM     65  O   UNL A   1      40.306  22.489  26.371  1.00  0.00    -0.237 OA
ATOM     66  O   UNL A   1      42.422  21.810  25.305  1.00  0.00    -0.744 OA
ENDBRANCH  59  63
ENDBRANCH  42  56
BRANCH  43  67
ATOM     67  C   UNL A   1      39.498  32.611  34.955  1.00  0.00     0.023 A 
ATOM     68  C   UNL A   1      38.807  32.014  36.019  1.00  0.00     0.031 A 
ATOM     69  C   UNL A   1      39.727  34.000  35.020  1.00  0.00     0.131 A 
ATOM     70  C   UNL A   1      38.353  32.796  37.092  1.00  0.00     0.055 A 
ATOM     71  C   UNL A   1      39.312  34.769  36.110  1.00  0.00     0.041 A 
ATOM     72  F   UNL A   1      40.391  34.626  34.035  1.00  0.00    -0.206 F 
ATOM     73  C   UNL A   1      38.613  34.167  37.152  1.00  0.00     0.022 A 
BRANCH  70  74
ATOM     74  S   UNL A   1      37.369  32.000  38.391  1.00  0.00     0.124 S 
ATOM     75  O   UNL A   1      37.254  30.637  37.887  1.00  0.00    -0.237 OA
ATOM     76  O   UNL A   1      38.218  32.181  39.565  1.00  0.00    -0.237 OA
ATOM     77  O   UNL A   1      36.128  32.771  38.399  1.00  0.00    -0.744 OA
ENDBRANCH  70  74
ENDBRANCH  43  67
BRANCH  55  78
ATOM     78  C   UNL A   1      44.434  27.731  34.228  1.00  0.00     0.023 A 
ATOM     79  C   UNL A   1      44.156  26.860  35.293  1.00  0.00     0.031 A 
ATOM     80  C   UNL A   1      45.746  28.207  34.073  1.00  0.00     0.131 A 
ATOM     81  C   UNL A   1      45.166  26.549  36.211  1.00  0.00     0.055 A 
ATOM     82  C   UNL A   1      46.763  27.840  34.952  1.00  0.00     0.041 A 
ATOM     83  F   UNL A   1      46.056  29.044  33.070  1.00  0.00    -0.206 F 
ATOM     84  C   UNL A   1      46.471  27.020  36.038  1.00  0.00     0.022 A 
BRANCH  81  85
ATOM     85  S   UNL A   1      44.721  25.619  37.700  1.00  0.00     0.124 S 
ATOM     86  O   UNL A   1      43.688  24.718  37.195  1.00  0.00    -0.237 OA
ATOM     87  O   UNL A   1      45.987  24.993  38.069  1.00  0.00    -0.237 OA
ATOM     88  O   UNL A   1      44.248  26.651  38.620  1.00  0.00    -0.744 OA
ENDBRANCH  81  85
ENDBRANCH  55  78
ENDBRANCH  29  30
ENDBRANCH  22  24
ENDBRANCH  21  22
ENDBRANCH  20  21
ENDBRANCH   1  20
TORSDOF 19
ENDMDL
MODEL 2
REMARK VINA RESULT:     -11.1      3.257      9.201
REMARK SMILES N#CCC1(C[N@@H+]2CCO[C@H](CC(=O)OCCOC(=O)c3ccc(-c4c5nc(c(-c6cc(S(=O)(=O)[O-])ccc6F)c6ccc([nH]6)c(-c6cc(S(=O)(=O)[O-])ccc6F)c6nc(c(-c7cc(S(=O)(=O)[O-])ccc7F)c7ccc4[nH]7)C=C6)C=C5)cc3)C2)CC1
REMARK SMILES IDX 15 1 14 2 12 3 13 4 11 5 10 6 6 7 7 8 83 9 8 11 9 12 5 13
REMARK SMILES IDX 4 14 84 15 85 16 3 17 2 18 1 19 16 20 17 21 18 22 19 23
REMARK SMILES IDX 20 24 21 25 82 26 22 27 81 28 23 29 24 30 25 31 75 32 26 33
REMARK SMILES IDX 80 34 74 35 76 36 27 37 79 38 73 39 72 40 28 42 60 43 40 44
REMARK SMILES IDX 59 45 41 46 44 47 58 48 77 49 42 50 43 51 57 53 78 54 45 55
REMARK SMILES IDX 29 56 30 57 38 58 31 59 37 60 39 61 36 62 32 63 33 64 34 65
REMARK SMILES IDX 35 66 61 67 62 68 70 69 63 70 69 71 71 72 68 73 64 74 65 75
REMARK SMILES IDX 66 76 67 77 46 78 47 79 55 80 48 81 54 82 56 83 53 84 49 85
REMARK SMILES IDX 50 86 51 87 52 88
REMARK H PARENT 6 10 76 41 44 52
REMARK Flexibility Score: inf
ROOT
ATOM      1  C   UNL A   1      33.153  34.163  28.174  1.00  0.00     0.274 C 
ENDROOT
BRANCH   1   2
ATOM      2  O   UNL A   1      33.973  32.846  28.038  1.00  0.00    -0.462 OA
BRANCH   2   3
ATOM      3  C   UNL A   1      34.703  31.741  27.838  1.00  0.00     0.308 C 
ATOM      4  O   UNL A   1      35.883  31.832  28.211  1.00  0.00    -0.252 OA
BRANCH   3   5
ATOM      5  C   UNL A   1      34.237  30.297  27.343  1.00  0.00     0.160 C 
BRANCH   5   6
ATOM      6  C   UNL A   1      32.892  29.451  27.030  1.00  0.00     0.184 C 
ATOM      7  N   UNL A   1      32.587  27.153  25.929  1.00  0.00    -0.330 N 
ATOM      8  C   UNL A   1      31.677  27.728  24.956  1.00  0.00     0.291 C 
ATOM      9  C   UNL A   1      32.693  27.924  27.168  1.00  0.00     0.295 C 
ATOM     10  H   UNL A   1      32.116  26.299  26.229  1.00  0.00     0.348 HD
ATOM     11  C   UNL A   1      31.547  29.253  24.930  1.00  0.00     0.222 C 
ATOM     12  O   UNL A   1      31.998  30.020  26.049  1.00  0.00    -0.366 OA
BRANCH   7  13
ATOM     13  C   UNL A   1      33.798  26.579  25.411  1.00  0.00     0.270 C 
BRANCH  13  14
ATOM     14  C   UNL A   1      33.653  25.093  25.181  1.00  0.00     0.032 C 
ATOM     15  C   UNL A   1      34.942  24.406  24.670  1.00  0.00     0.015 C 
ATOM     16  C   UNL A   1      33.863  24.691  23.708  1.00  0.00     0.015 C 
BRANCH  14  17
ATOM     17  C   UNL A   1      33.125  24.360  26.406  1.00  0.00     0.133 C 
BRANCH  17  18
ATOM     18  C   UNL A   1      31.710  23.962  26.793  1.00  0.00     0.063 C 
ATOM     19  N   UNL A   1      30.536  23.632  27.113  1.00  0.00    -0.198 NA
ENDBRANCH  17  18
ENDBRANCH  14  17
ENDBRANCH  13  14
ENDBRANCH   7  13
ENDBRANCH   5   6
ENDBRANCH   3   5
ENDBRANCH   2   3
ENDBRANCH   1   2
BRANCH   1  20
ATOM     20  C   UNL A   1      33.570  35.295  29.131  1.00  0.00     0.275 C 
BRANCH  20  21
ATOM     21  O   UNL A   1      32.633  35.333  30.197  1.00  0.00    -0.458 OA
BRANCH  21  22
ATOM     22  C   UNL A   1      32.994  36.095  31.256  1.00  0.00     0.338 C 
ATOM     23  O   UNL A   1      32.551  37.172  31.598  1.00  0.00    -0.246 OA
BRANCH  22  24
ATOM     24  C   UNL A   1      33.965  35.255  31.962  1.00  0.00     0.060 A 
ATOM     25  C   UNL A   1      33.447  34.124  32.600  1.00  0.00     0.016 A 
ATOM     26  C   UNL A   1      35.325  35.493  31.926  1.00  0.00     0.016 A 
ATOM     27  C   UNL A   1      34.258  33.160  33.151  1.00  0.00     0.010 A 
ATOM     28  C   UNL A   1      36.157  34.530  32.484  1.00  0.00     0.010 A 
ATOM     29  C   UNL A   1      35.624  33.361  33.078  1.00  0.00    -0.014 A 
BRANCH  29  30
ATOM     30  C   UNL A   1      36.545  32.411  33.705  1.00  0.00     0.031 A 
ATOM     31  C   UNL A   1      37.092  32.810  35.027  1.00  0.00     0.074 A 
ATOM     32  C   UNL A   1      36.953  31.333  33.019  1.00  0.00     0.049 A 
ATOM     33  N   UNL A   1      38.247  32.544  35.557  1.00  0.00    -0.248 NA
ATOM     34  C   UNL A   1      36.233  33.700  35.826  1.00  0.00     0.031 C 
ATOM     35  C   UNL A   1      36.351  30.830  31.781  1.00  0.00     0.029 A 
ATOM     36  N   UNL A   1      38.023  30.510  33.233  1.00  0.00    -0.354 N 
ATOM     37  C   UNL A   1      38.301  33.310  36.716  1.00  0.00     0.074 A 
ATOM     38  C   UNL A   1      37.051  34.033  36.812  1.00  0.00     0.031 C 
ATOM     39  C   UNL A   1      37.103  29.823  31.308  1.00  0.00     0.029 A 
ATOM     40  C   UNL A   1      38.276  29.687  32.159  1.00  0.00     0.049 A 
ATOM     41  H   UNL A   1      38.553  30.506  34.063  1.00  0.00     0.167 HD
ATOM     42  C   UNL A   1      39.343  33.410  37.573  1.00  0.00     0.034 A 
ATOM     43  C   UNL A   1      39.387  28.989  31.862  1.00  0.00     0.034 A 
ATOM     44  C   UNL A   1      40.557  32.653  37.368  1.00  0.00     0.049 A 
ATOM     45  C   UNL A   1      40.543  29.116  32.819  1.00  0.00     0.074 A 
ATOM     46  C   UNL A   1      41.722  32.644  38.108  1.00  0.00     0.029 A 
ATOM     47  N   UNL A   1      40.743  31.751  36.318  1.00  0.00    -0.354 N 
ATOM     48  N   UNL A   1      40.658  29.898  33.873  1.00  0.00    -0.248 NA
ATOM     49  C   UNL A   1      41.710  28.275  32.555  1.00  0.00     0.031 C 
ATOM     50  C   UNL A   1      42.624  31.772  37.482  1.00  0.00     0.029 A 
ATOM     51  C   UNL A   1      42.000  31.180  36.390  1.00  0.00     0.049 A 
ATOM     52  H   UNL A   1      40.075  31.550  35.625  1.00  0.00     0.167 HD
ATOM     53  C   UNL A   1      41.904  29.621  34.419  1.00  0.00     0.074 A 
ATOM     54  C   UNL A   1      42.491  28.590  33.579  1.00  0.00     0.031 C 
ATOM     55  C   UNL A   1      42.519  30.157  35.508  1.00  0.00     0.034 A 
BRANCH  42  56
ATOM     56  C   UNL A   1      39.223  34.418  38.692  1.00  0.00     0.023 A 
ATOM     57  C   UNL A   1      38.873  34.042  40.003  1.00  0.00     0.031 A 
ATOM     58  C   UNL A   1      39.356  35.792  38.424  1.00  0.00     0.131 A 
ATOM     59  C   UNL A   1      38.576  35.023  40.963  1.00  0.00     0.055 A 
ATOM     60  C   UNL A   1      39.144  36.762  39.408  1.00  0.00     0.041 A 
ATOM     61  F   UNL A   1      39.655  36.224  37.188  1.00  0.00    -0.206 F 
ATOM     62  C   UNL A   1      38.734  36.381  40.682  1.00  0.00     0.022 A 
BRANCH  59  63
ATOM     63  S   UNL A   1      37.830  34.506  42.535  1.00  0.00     0.124 S 
ATOM     64  O   UNL A   1      38.396  35.483  43.464  1.00  0.00    -0.237 OA
ATOM     65  O   UNL A   1      36.403  34.635  42.266  1.00  0.00    -0.237 OA
ATOM     66  O   UNL A   1      38.310  33.138  42.710  1.00  0.00    -0.744 OA
ENDBRANCH  59  63
ENDBRANCH  42  56
BRANCH  43  67
ATOM     67  C   UNL A   1      39.463  28.181  30.613  1.00  0.00     0.023 A 
ATOM     68  C   UNL A   1      40.166  28.657  29.497  1.00  0.00     0.031 A 
ATOM     69  C   UNL A   1      38.870  26.907  30.520  1.00  0.00     0.131 A 
ATOM     70  C   UNL A   1      40.247  27.878  28.332  1.00  0.00     0.055 A 
ATOM     71  C   UNL A   1      38.990  26.116  29.375  1.00  0.00     0.041 A 
ATOM     72  F   UNL A   1      38.192  26.395  31.560  1.00  0.00    -0.206 F 
ATOM     73  C   UNL A   1      39.677  26.605  28.268  1.00  0.00     0.022 A 
BRANCH  70  74
ATOM     74  S   UNL A   1      41.072  28.578  26.877  1.00  0.00     0.124 S 
ATOM     75  O   UNL A   1      39.987  29.318  26.243  1.00  0.00    -0.237 OA
ATOM     76  O   UNL A   1      42.127  29.384  27.487  1.00  0.00    -0.237 OA
ATOM     77  O   UNL A   1      41.536  27.400  26.148  1.00  0.00    -0.744 OA
ENDBRANCH  70  74
ENDBRANCH  43  67
BRANCH  55  78
ATOM     78  C   UNL A   1      43.856  29.565  35.857  1.00  0.00     0.023 A 
ATOM     79  C   UNL A   1      43.982  28.546  36.813  1.00  0.00     0.031 A 
ATOM     80  C   UNL A   1      45.019  30.062  35.245  1.00  0.00     0.131 A 
ATOM     81  C   UNL A   1      45.257  28.106  37.188  1.00  0.00     0.055 A 
ATOM     82  C   UNL A   1      46.281  29.571  35.574  1.00  0.00     0.041 A 
ATOM     83  F   UNL A   1      44.946  31.037  34.326  1.00  0.00    -0.206 F 
ATOM     84  C   UNL A   1      46.406  28.600  36.563  1.00  0.00     0.022 A 
BRANCH  81  85
ATOM     85  S   UNL A   1      45.398  26.966  38.589  1.00  0.00     0.124 S 
ATOM     86  O   UNL A   1      46.135  25.853  37.998  1.00  0.00    -0.237 OA
ATOM     87  O   UNL A   1      46.127  27.764  39.570  1.00  0.00    -0.237 OA
ATOM     88  O   UNL A   1      44.008  26.675  38.935  1.00  0.00    -0.744 OA
ENDBRANCH  81  85
ENDBRANCH  55  78
ENDBRANCH  29  30
ENDBRANCH  22  24
ENDBRANCH  21  22
ENDBRANCH  20  21
ENDBRANCH   1  20
TORSDOF 19
ENDMDL
MODEL 3
REMARK VINA RESULT:     -11.0      3.545      9.553
REMARK SMILES N#CCC1(C[N@@H+]2CCO[C@H](CC(=O)OCCOC(=O)c3ccc(-c4c5nc(c(-c6cc(S(=O)(=O)[O-])ccc6F)c6ccc([nH]6)c(-c6cc(S(=O)(=O)[O-])ccc6F)c6nc(c(-c7cc(S(=O)(=O)[O-])ccc7F)c7ccc4[nH]7)C=C6)C=C5)cc3)C2)CC1
REMARK SMILES IDX 15 1 14 2 12 3 13 4 11 5 10 6 6 7 7 8 83 9 8 11 9 12 5 13
REMARK SMILES IDX 4 14 84 15 85 16 3 17 2 18 1 19 16 20 17 21 18 22 19 23
REMARK SMILES IDX 20 24 21 25 82 26 22 27 81 28 23 29 24 30 25 31 75 32 26 33
REMARK SMILES IDX 80 34 74 35 76 36 27 37 79 38 73 39 72 40 28 42 60 43 40 44
REMARK SMILES IDX 59 45 41 46 44 47 58 48 77 49 42 50 43 51 57 53 78 54 45 55
REMARK SMILES IDX 29 56 30 57 38 58 31 59 37 60 39 61 36 62 32 63 33 64 34 65
REMARK SMILES IDX 35 66 61 67 62 68 70 69 63 70 69 71 71 72 68 73 64 74 65 75
REMARK SMILES IDX 66 76 67 77 46 78 47 79 55 80 48 81 54 82 56 83 53 84 49 85
REMARK SMILES IDX 50 86 51 87 52 88
REMARK H PARENT 6 10 76 41 44 52
REMARK Flexibility Score: inf
ROOT
ATOM      1  C   UNL A   1      33.003  34.268  28.256  1.00  0.00     0.274 C 
ENDROOT
BRANCH   1   2
ATOM      2  O   UNL A   1      33.704  32.909  27.962  1.00  0.00    -0.462 OA
BRANCH   2   3
ATOM      3  C   UNL A   1      34.247  31.701  27.761  1.00  0.00     0.308 C 
ATOM      4  O   UNL A   1      35.420  31.595  28.148  1.00  0.00    -0.252 OA
BRANCH   3   5
ATOM      5  C   UNL A   1      33.557  30.357  27.247  1.00  0.00     0.160 C 
BRANCH   5   6
ATOM      6  C   UNL A   1      33.594  29.324  25.999  1.00  0.00     0.184 C 
ATOM      7  N   UNL A   1      31.765  28.669  24.322  1.00  0.00    -0.330 N 
ATOM      8  C   UNL A   1      31.948  27.268  24.652  1.00  0.00     0.291 C 
ATOM      9  C   UNL A   1      32.931  29.504  24.614  1.00  0.00     0.295 C 
ATOM     10  H   UNL A   1      31.727  28.677  23.303  1.00  0.00     0.348 HD
ATOM     11  C   UNL A   1      32.856  26.939  25.841  1.00  0.00     0.222 C 
ATOM     12  O   UNL A   1      33.761  27.929  26.335  1.00  0.00    -0.366 OA
BRANCH   7  13
ATOM     13  C   UNL A   1      30.473  29.230  24.606  1.00  0.00     0.270 C 
BRANCH  13  14
ATOM     14  C   UNL A   1      29.860  29.861  23.378  1.00  0.00     0.032 C 
ATOM     15  C   UNL A   1      29.214  28.847  22.404  1.00  0.00     0.015 C 
ATOM     16  C   UNL A   1      30.535  29.406  22.070  1.00  0.00     0.015 C 
BRANCH  14  17
ATOM     17  C   UNL A   1      28.864  30.960  23.721  1.00  0.00     0.133 C 
BRANCH  17  18
ATOM     18  C   UNL A   1      28.758  32.394  23.229  1.00  0.00     0.063 C 
ATOM     19  N   UNL A   1      28.671  33.584  22.821  1.00  0.00    -0.198 NA
ENDBRANCH  17  18
ENDBRANCH  14  17
ENDBRANCH  13  14
ENDBRANCH   7  13
ENDBRANCH   5   6
ENDBRANCH   3   5
ENDBRANCH   2   3
ENDBRANCH   1   2
BRANCH   1  20
ATOM     20  C   UNL A   1      33.577  35.290  29.255  1.00  0.00     0.275 C 
BRANCH  20  21
ATOM     21  O   UNL A   1      32.749  35.285  30.408  1.00  0.00    -0.458 OA
BRANCH  21  22
ATOM     22  C   UNL A   1      33.175  36.067  31.429  1.00  0.00     0.338 C 
ATOM     23  O   UNL A   1      32.785  37.170  31.749  1.00  0.00    -0.246 OA
BRANCH  22  24
ATOM     24  C   UNL A   1      34.139  35.213  32.128  1.00  0.00     0.060 A 
ATOM     25  C   UNL A   1      33.619  34.057  32.716  1.00  0.00     0.016 A 
ATOM     26  C   UNL A   1      35.496  35.467  32.132  1.00  0.00     0.016 A 
ATOM     27  C   UNL A   1      34.427  33.083  33.254  1.00  0.00     0.010 A 
ATOM     28  C   UNL A   1      36.326  34.494  32.677  1.00  0.00     0.010 A 
ATOM     29  C   UNL A   1      35.792  33.301  33.219  1.00  0.00    -0.014 A 
BRANCH  29  30
ATOM     30  C   UNL A   1      36.710  32.339  33.835  1.00  0.00     0.031 A 
ATOM     31  C   UNL A   1      37.220  32.699  35.184  1.00  0.00     0.074 A 
ATOM     32  C   UNL A   1      37.147  31.290  33.123  1.00  0.00     0.049 A 
ATOM     33  N   UNL A   1      38.365  32.427  35.732  1.00  0.00    -0.248 NA
ATOM     34  C   UNL A   1      36.331  33.551  35.992  1.00  0.00     0.031 C 
ATOM     35  C   UNL A   1      36.581  30.824  31.854  1.00  0.00     0.029 A 
ATOM     36  N   UNL A   1      38.221  30.471  33.335  1.00  0.00    -0.354 N 
ATOM     37  C   UNL A   1      38.382  33.153  36.917  1.00  0.00     0.074 A 
ATOM     38  C   UNL A   1      37.122  33.858  37.008  1.00  0.00     0.031 C 
ATOM     39  C   UNL A   1      37.355  29.842  31.366  1.00  0.00     0.029 A 
ATOM     40  C   UNL A   1      38.509  29.690  32.240  1.00  0.00     0.049 A 
ATOM     41  H   UNL A   1      38.731  30.445  34.177  1.00  0.00     0.167 HD
ATOM     42  C   UNL A   1      39.402  33.234  37.803  1.00  0.00     0.034 A 
ATOM     43  C   UNL A   1      39.635  29.014  31.947  1.00  0.00     0.034 A 
ATOM     44  C   UNL A   1      40.629  32.498  37.602  1.00  0.00     0.049 A 
ATOM     45  C   UNL A   1      40.766  29.121  32.935  1.00  0.00     0.074 A 
ATOM     46  C   UNL A   1      41.776  32.476  38.369  1.00  0.00     0.029 A 
ATOM     47  N   UNL A   1      40.851  31.636  36.526  1.00  0.00    -0.354 N 
ATOM     48  N   UNL A   1      40.846  29.867  34.018  1.00  0.00    -0.248 NA
ATOM     49  C   UNL A   1      41.949  28.302  32.671  1.00  0.00     0.031 C 
ATOM     50  C   UNL A   1      42.703  31.636  37.735  1.00  0.00     0.029 A 
ATOM     51  C   UNL A   1      42.113  31.076  36.609  1.00  0.00     0.049 A 
ATOM     52  H   UNL A   1      40.202  31.451  35.810  1.00  0.00     0.167 HD
ATOM     53  C   UNL A   1      42.083  29.585  34.585  1.00  0.00     0.074 A 
ATOM     54  C   UNL A   1      42.701  28.590  33.723  1.00  0.00     0.031 C 
ATOM     55  C   UNL A   1      42.664  30.090  35.706  1.00  0.00     0.034 A 
BRANCH  42  56
ATOM     56  C   UNL A   1      39.244  34.202  38.952  1.00  0.00     0.023 A 
ATOM     57  C   UNL A   1      38.667  33.818  40.178  1.00  0.00     0.031 A 
ATOM     58  C   UNL A   1      39.575  35.558  38.787  1.00  0.00     0.131 A 
ATOM     59  C   UNL A   1      38.354  34.788  41.145  1.00  0.00     0.055 A 
ATOM     60  C   UNL A   1      39.341  36.505  39.788  1.00  0.00     0.041 A 
ATOM     61  F   UNL A   1      40.098  36.000  37.632  1.00  0.00    -0.206 F 
ATOM     62  C   UNL A   1      38.710  36.126  40.969  1.00  0.00     0.022 A 
BRANCH  59  63
ATOM     63  S   UNL A   1      37.334  34.304  42.566  1.00  0.00     0.124 S 
ATOM     64  O   UNL A   1      37.539  35.432  43.473  1.00  0.00    -0.237 OA
ATOM     65  O   UNL A   1      36.004  34.192  41.979  1.00  0.00    -0.237 OA
ATOM     66  O   UNL A   1      37.930  33.044  43.004  1.00  0.00    -0.744 OA
ENDBRANCH  59  63
ENDBRANCH  42  56
BRANCH  43  67
ATOM     67  C   UNL A   1      39.750  28.251  30.673  1.00  0.00     0.023 A 
ATOM     68  C   UNL A   1      40.595  28.698  29.647  1.00  0.00     0.031 A 
ATOM     69  C   UNL A   1      39.052  27.045  30.468  1.00  0.00     0.131 A 
ATOM     70  C   UNL A   1      40.711  27.959  28.458  1.00  0.00     0.055 A 
ATOM     71  C   UNL A   1      39.203  26.290  29.302  1.00  0.00     0.041 A 
ATOM     72  F   UNL A   1      38.235  26.562  31.419  1.00  0.00    -0.206 F 
ATOM     73  C   UNL A   1      40.032  26.751  28.285  1.00  0.00     0.022 A 
BRANCH  70  74
ATOM     74  S   UNL A   1      41.729  28.631  27.117  1.00  0.00     0.124 S 
ATOM     75  O   UNL A   1      42.517  27.467  26.725  1.00  0.00    -0.237 OA
ATOM     76  O   UNL A   1      40.717  29.071  26.161  1.00  0.00    -0.237 OA
ATOM     77  O   UNL A   1      42.481  29.705  27.763  1.00  0.00    -0.744 OA
ENDBRANCH  70  74
ENDBRANCH  43  67
BRANCH  55  78
ATOM     78  C   UNL A   1      44.000  29.501  36.066  1.00  0.00     0.023 A 
ATOM     79  C   UNL A   1      44.108  28.386  36.912  1.00  0.00     0.031 A 
ATOM     80  C   UNL A   1      45.178  30.094  35.582  1.00  0.00     0.131 A 
ATOM     81  C   UNL A   1      45.373  27.943  37.312  1.00  0.00     0.055 A 
ATOM     82  C   UNL A   1      46.435  29.606  35.930  1.00  0.00     0.041 A 
ATOM     83  F   UNL A   1      45.122  31.163  34.771  1.00  0.00    -0.206 F 
ATOM     84  C   UNL A   1      46.538  28.535  36.813  1.00  0.00     0.022 A 
BRANCH  81  85
ATOM     85  S   UNL A   1      45.476  26.660  38.587  1.00  0.00     0.124 S 
ATOM     86  O   UNL A   1      46.632  27.098  39.362  1.00  0.00    -0.237 OA
ATOM     87  O   UNL A   1      44.182  26.775  39.251  1.00  0.00    -0.237 OA
ATOM     88  O   UNL A   1      45.672  25.432  37.820  1.00  0.00    -0.744 OA
ENDBRANCH  81  85
ENDBRANCH  55  78
ENDBRANCH  29  30
ENDBRANCH  22  24
ENDBRANCH  21  22
ENDBRANCH  20  21
ENDBRANCH   1  20
TORSDOF 19
ENDMDL
