MODEL 1
REMARK VINA RESULT:     -12.9      0.000      0.000
REMARK SMILES O=C(OCCOC(=O)c1ccc([C@H]2Nc3ccc(Cl)cc3[C@@H]3C=CC[C@@H]23)cc1)c1ccc(-c2c3nc(c(-c4cc(S(=O)(=O)[O-])ccc4F)c4ccc([nH]4)c(-c4cc(S(=O)(=O)[O-])ccc4F)c4nc(c(-c5cc(S(=O)(=O)[O-])ccc5F)c5ccc2[nH]5)C=C4)C=C3)cc1
REMARK SMILES IDX 4 1 3 2 2 3 1 4 29 5 30 6 91 7 31 8 90 9 32 10 33 11 34 12
REMARK SMILES IDX 84 13 35 14 89 15 83 16 85 17 36 18 88 19 82 20 81 21 37 23
REMARK SMILES IDX 69 24 49 25 68 26 50 27 53 28 67 29 86 30 51 31 52 32 66 34
REMARK SMILES IDX 87 35 54 36 38 37 39 38 47 39 40 40 46 41 48 42 45 43 41 44
REMARK SMILES IDX 42 45 43 46 44 47 70 48 71 49 79 50 72 51 78 52 80 53 77 54
REMARK SMILES IDX 73 55 74 56 75 57 76 58 55 59 56 60 64 61 57 62 63 63 65 64
REMARK SMILES IDX 62 65 58 66 59 67 60 68 61 69 5 70 6 71 7 72 8 73 9 74 10 75
REMARK SMILES IDX 28 76 11 77 27 78 12 79 13 80 14 81 26 82 15 83 22 85 25 86
REMARK SMILES IDX 16 87 21 88 23 89 24 90 17 91 20 92 18 93 19 94
REMARK H PARENT 85 22 53 33 14 84
REMARK Flexibility Score: inf
ROOT
ATOM      1  C   UNL A   1      36.430  20.190  25.001  1.00  0.00     0.275 C 
ENDROOT
BRANCH   1   2
ATOM      2  O   UNL A   1      37.216  21.180  25.675  1.00  0.00    -0.458 OA
BRANCH   2   3
ATOM      3  C   UNL A   1      38.550  21.202  25.900  1.00  0.00     0.338 C 
ATOM      4  O   UNL A   1      39.177  20.153  25.750  1.00  0.00    -0.246 OA
BRANCH   3   5
ATOM      5  C   UNL A   1      39.291  22.398  26.422  1.00  0.00     0.060 A 
ATOM      6  C   UNL A   1      40.437  22.400  27.226  1.00  0.00     0.016 A 
ATOM      7  C   UNL A   1      38.777  23.642  26.035  1.00  0.00     0.016 A 
ATOM      8  C   UNL A   1      41.118  23.582  27.535  1.00  0.00     0.010 A 
ATOM      9  C   UNL A   1      39.445  24.822  26.359  1.00  0.00     0.010 A 
ATOM     10  C   UNL A   1      40.644  24.806  27.078  1.00  0.00    -0.014 A 
BRANCH  10  11
ATOM     11  C   UNL A   1      41.371  26.058  27.400  1.00  0.00     0.031 A 
ATOM     12  C   UNL A   1      40.660  27.141  28.155  1.00  0.00     0.074 A 
ATOM     13  C   UNL A   1      42.643  26.231  26.983  1.00  0.00     0.049 A 
ATOM     14  N   UNL A   1      41.089  28.328  28.494  1.00  0.00    -0.248 NA
ATOM     15  C   UNL A   1      39.274  26.858  28.559  1.00  0.00     0.031 C 
ATOM     16  C   UNL A   1      43.423  25.241  26.238  1.00  0.00     0.029 A 
ATOM     17  N   UNL A   1      43.498  27.299  27.095  1.00  0.00    -0.354 N 
ATOM     18  C   UNL A   1      40.032  28.925  29.171  1.00  0.00     0.074 A 
ATOM     19  C   UNL A   1      38.914  28.009  29.103  1.00  0.00     0.031 C 
ATOM     20  C   UNL A   1      44.627  25.755  25.938  1.00  0.00     0.029 A 
ATOM     21  C   UNL A   1      44.710  27.110  26.467  1.00  0.00     0.049 A 
ATOM     22  H   UNL A   1      43.265  28.124  27.578  1.00  0.00     0.167 HD
ATOM     23  C   UNL A   1      40.013  30.108  29.831  1.00  0.00     0.034 A 
ATOM     24  C   UNL A   1      45.767  27.938  26.342  1.00  0.00     0.034 A 
ATOM     25  C   UNL A   1      41.137  31.008  29.877  1.00  0.00     0.049 A 
ATOM     26  C   UNL A   1      45.699  29.281  27.030  1.00  0.00     0.074 A 
ATOM     27  C   UNL A   1      41.246  32.223  30.526  1.00  0.00     0.029 A 
ATOM     28  N   UNL A   1      42.353  30.785  29.240  1.00  0.00    -0.354 N 
ATOM     29  N   UNL A   1      44.714  29.800  27.728  1.00  0.00    -0.248 NA
ATOM     30  C   UNL A   1      46.893  30.130  26.950  1.00  0.00     0.031 C 
ATOM     31  C   UNL A   1      42.505  32.761  30.236  1.00  0.00     0.029 A 
ATOM     32  C   UNL A   1      43.210  31.850  29.464  1.00  0.00     0.049 A 
ATOM     33  H   UNL A   1      42.572  29.987  28.707  1.00  0.00     0.167 HD
ATOM     34  C   UNL A   1      45.191  31.015  28.212  1.00  0.00     0.074 A 
ATOM     35  C   UNL A   1      46.555  31.138  27.738  1.00  0.00     0.031 C 
ATOM     36  C   UNL A   1      44.567  31.944  28.980  1.00  0.00     0.034 A 
BRANCH  23  37
ATOM     37  C   UNL A   1      38.733  30.472  30.538  1.00  0.00     0.023 A 
ATOM     38  C   UNL A   1      37.784  31.313  29.929  1.00  0.00     0.031 A 
ATOM     39  C   UNL A   1      38.481  30.038  31.850  1.00  0.00     0.131 A 
ATOM     40  C   UNL A   1      36.681  31.773  30.661  1.00  0.00     0.055 A 
ATOM     41  C   UNL A   1      37.333  30.428  32.544  1.00  0.00     0.041 A 
ATOM     42  F   UNL A   1      39.359  29.251  32.489  1.00  0.00    -0.206 F 
ATOM     43  C   UNL A   1      36.434  31.316  31.956  1.00  0.00     0.022 A 
BRANCH  40  44
ATOM     44  S   UNL A   1      35.667  33.098  29.950  1.00  0.00     0.124 S 
ATOM     45  O   UNL A   1      34.381  32.426  29.784  1.00  0.00    -0.237 OA
ATOM     46  O   UNL A   1      35.720  34.127  30.981  1.00  0.00    -0.237 OA
ATOM     47  O   UNL A   1      36.358  33.427  28.705  1.00  0.00    -0.744 OA
ENDBRANCH  40  44
ENDBRANCH  23  37
BRANCH  24  48
ATOM     48  C   UNL A   1      46.979  27.543  25.562  1.00  0.00     0.023 A 
ATOM     49  C   UNL A   1      47.154  27.957  24.231  1.00  0.00     0.031 A 
ATOM     50  C   UNL A   1      47.942  26.673  26.107  1.00  0.00     0.131 A 
ATOM     51  C   UNL A   1      48.213  27.442  23.465  1.00  0.00     0.055 A 
ATOM     52  C   UNL A   1      49.027  26.207  25.358  1.00  0.00     0.041 A 
ATOM     53  F   UNL A   1      47.838  26.254  27.379  1.00  0.00    -0.206 F 
ATOM     54  C   UNL A   1      49.155  26.575  24.022  1.00  0.00     0.022 A 
BRANCH  51  55
ATOM     55  S   UNL A   1      48.271  27.828  21.693  1.00  0.00     0.124 S 
ATOM     56  O   UNL A   1      46.957  28.425  21.477  1.00  0.00    -0.237 OA
ATOM     57  O   UNL A   1      49.409  28.737  21.622  1.00  0.00    -0.237 OA
ATOM     58  O   UNL A   1      48.475  26.524  21.068  1.00  0.00    -0.744 OA
ENDBRANCH  51  55
ENDBRANCH  24  48
BRANCH  36  59
ATOM     59  C   UNL A   1      45.384  33.143  29.393  1.00  0.00     0.023 A 
ATOM     60  C   UNL A   1      45.418  34.313  28.617  1.00  0.00     0.031 A 
ATOM     61  C   UNL A   1      46.152  33.104  30.570  1.00  0.00     0.131 A 
ATOM     62  C   UNL A   1      46.260  35.370  28.988  1.00  0.00     0.055 A 
ATOM     63  C   UNL A   1      46.930  34.189  30.974  1.00  0.00     0.041 A 
ATOM     64  F   UNL A   1      46.158  32.009  31.347  1.00  0.00    -0.206 F 
ATOM     65  C   UNL A   1      47.000  35.325  30.172  1.00  0.00     0.022 A 
BRANCH  62  66
ATOM     66  S   UNL A   1      46.462  36.759  27.839  1.00  0.00     0.124 S 
ATOM     67  O   UNL A   1      45.366  37.637  28.233  1.00  0.00    -0.237 OA
ATOM     68  O   UNL A   1      47.805  37.234  28.159  1.00  0.00    -0.237 OA
ATOM     69  O   UNL A   1      46.320  36.138  26.524  1.00  0.00    -0.744 OA
ENDBRANCH  62  66
ENDBRANCH  36  59
ENDBRANCH  10  11
ENDBRANCH   3   5
ENDBRANCH   2   3
ENDBRANCH   1   2
BRANCH   1  70
ATOM     70  C   UNL A   1      34.989  20.608  24.675  1.00  0.00     0.275 C 
BRANCH  70  71
ATOM     71  O   UNL A   1      33.981  19.607  24.931  1.00  0.00    -0.458 OA
BRANCH  71  72
ATOM     72  C   UNL A   1      32.867  19.682  24.150  1.00  0.00     0.338 C 
ATOM     73  O   UNL A   1      32.351  18.751  23.557  1.00  0.00    -0.246 OA
BRANCH  72  74
ATOM     74  C   UNL A   1      32.274  21.049  24.177  1.00  0.00     0.060 A 
ATOM     75  C   UNL A   1      31.819  21.552  25.401  1.00  0.00     0.016 A 
ATOM     76  C   UNL A   1      32.122  21.828  23.031  1.00  0.00     0.016 A 
ATOM     77  C   UNL A   1      31.281  22.848  25.490  1.00  0.00     0.007 A 
ATOM     78  C   UNL A   1      31.579  23.126  23.125  1.00  0.00     0.007 A 
ATOM     79  C   UNL A   1      31.186  23.678  24.362  1.00  0.00    -0.025 A 
BRANCH  79  80
ATOM     80  C   UNL A   1      30.772  25.156  24.443  1.00  0.00     0.114 C 
ATOM     81  N   UNL A   1      30.786  25.698  25.827  1.00  0.00    -0.378 N 
ATOM     82  C   UNL A   1      31.622  26.106  23.595  1.00  0.00     0.031 C 
ATOM     83  C   UNL A   1      31.692  26.695  26.210  1.00  0.00     0.038 A 
ATOM     84  H   UNL A   1      30.145  25.348  26.487  1.00  0.00     0.161 HD
ATOM     85  C   UNL A   1      33.041  26.157  24.187  1.00  0.00     0.049 C 
ATOM     86  C   UNL A   1      31.783  25.972  22.094  1.00  0.00     0.034 C 
ATOM     87  C   UNL A   1      31.402  27.568  27.261  1.00  0.00     0.027 A 
ATOM     88  C   UNL A   1      32.883  26.921  25.474  1.00  0.00    -0.016 A 
ATOM     89  C   UNL A   1      33.781  26.789  23.051  1.00  0.00    -0.023 C 
ATOM     90  C   UNL A   1      33.092  26.685  21.907  1.00  0.00    -0.030 C 
ATOM     91  C   UNL A   1      32.284  28.608  27.594  1.00  0.00     0.022 A 
ATOM     92  C   UNL A   1      33.811  27.891  25.874  1.00  0.00     0.027 A 
ATOM     93  C   UNL A   1      33.495  28.745  26.920  1.00  0.00     0.041 A 
ATOM     94  Cl  UNL A   1      34.581  30.012  27.340  1.00  0.00    -0.084 Cl
ENDBRANCH  79  80
ENDBRANCH  72  74
ENDBRANCH  71  72
ENDBRANCH  70  71
ENDBRANCH   1  70
TORSDOF 15
ENDMDL
MODEL 2
REMARK VINA RESULT:     -12.9      0.744      7.424
REMARK SMILES O=C(OCCOC(=O)c1ccc([C@H]2Nc3ccc(Cl)cc3[C@@H]3C=CC[C@@H]23)cc1)c1ccc(-c2c3nc(c(-c4cc(S(=O)(=O)[O-])ccc4F)c4ccc([nH]4)c(-c4cc(S(=O)(=O)[O-])ccc4F)c4nc(c(-c5cc(S(=O)(=O)[O-])ccc5F)c5ccc2[nH]5)C=C4)C=C3)cc1
REMARK SMILES IDX 4 1 3 2 2 3 1 4 29 5 30 6 91 7 31 8 90 9 32 10 33 11 34 12
REMARK SMILES IDX 84 13 35 14 89 15 83 16 85 17 36 18 88 19 82 20 81 21 37 23
REMARK SMILES IDX 69 24 49 25 68 26 50 27 53 28 67 29 86 30 51 31 52 32 66 34
REMARK SMILES IDX 87 35 54 36 38 37 39 38 47 39 40 40 46 41 48 42 45 43 41 44
REMARK SMILES IDX 42 45 43 46 44 47 70 48 71 49 79 50 72 51 78 52 80 53 77 54
REMARK SMILES IDX 73 55 74 56 75 57 76 58 55 59 56 60 64 61 57 62 63 63 65 64
REMARK SMILES IDX 62 65 58 66 59 67 60 68 61 69 5 70 6 71 7 72 8 73 9 74 10 75
REMARK SMILES IDX 28 76 11 77 27 78 12 79 13 80 14 81 26 82 15 83 22 85 25 86
REMARK SMILES IDX 16 87 21 88 23 89 24 90 17 91 20 92 18 93 19 94
REMARK H PARENT 85 22 53 33 14 84
REMARK Flexibility Score: inf
ROOT
ATOM      1  C   UNL A   1      36.506  20.397  25.011  1.00  0.00     0.275 C 
ENDROOT
BRANCH   1   2
ATOM      2  O   UNL A   1      37.224  21.457  25.652  1.00  0.00    -0.458 OA
BRANCH   2   3
ATOM      3  C   UNL A   1      38.547  21.550  25.919  1.00  0.00     0.338 C 
ATOM      4  O   UNL A   1      39.244  20.551  25.738  1.00  0.00    -0.246 OA
BRANCH   3   5
ATOM      5  C   UNL A   1      39.196  22.762  26.523  1.00  0.00     0.060 A 
ATOM      6  C   UNL A   1      40.276  22.790  27.413  1.00  0.00     0.016 A 
ATOM      7  C   UNL A   1      38.662  23.993  26.123  1.00  0.00     0.016 A 
ATOM      8  C   UNL A   1      40.881  23.990  27.798  1.00  0.00     0.010 A 
ATOM      9  C   UNL A   1      39.254  25.191  26.522  1.00  0.00     0.010 A 
ATOM     10  C   UNL A   1      40.394  25.205  27.331  1.00  0.00    -0.014 A 
BRANCH  10  11
ATOM     11  C   UNL A   1      41.042  26.477  27.735  1.00  0.00     0.031 A 
ATOM     12  C   UNL A   1      42.496  26.683  27.434  1.00  0.00     0.074 A 
ATOM     13  C   UNL A   1      40.336  27.416  28.398  1.00  0.00     0.049 A 
ATOM     14  N   UNL A   1      43.268  27.692  27.742  1.00  0.00    -0.248 NA
ATOM     15  C   UNL A   1      43.178  25.597  26.713  1.00  0.00     0.031 C 
ATOM     16  C   UNL A   1      38.918  27.312  28.744  1.00  0.00     0.029 A 
ATOM     17  N   UNL A   1      40.709  28.627  28.926  1.00  0.00    -0.354 N 
ATOM     18  C   UNL A   1      44.520  27.371  27.232  1.00  0.00     0.074 A 
ATOM     19  C   UNL A   1      44.426  26.034  26.688  1.00  0.00     0.031 C 
ATOM     20  C   UNL A   1      38.548  28.396  29.447  1.00  0.00     0.029 A 
ATOM     21  C   UNL A   1      39.698  29.275  29.602  1.00  0.00     0.049 A 
ATOM     22  H   UNL A   1      41.616  28.997  28.831  1.00  0.00     0.167 HD
ATOM     23  C   UNL A   1      45.633  28.143  27.179  1.00  0.00     0.034 A 
ATOM     24  C   UNL A   1      39.704  30.450  30.266  1.00  0.00     0.034 A 
ATOM     25  C   UNL A   1      45.704  29.469  27.736  1.00  0.00     0.049 A 
ATOM     26  C   UNL A   1      40.976  31.264  30.251  1.00  0.00     0.074 A 
ATOM     27  C   UNL A   1      46.766  30.354  27.730  1.00  0.00     0.029 A 
ATOM     28  N   UNL A   1      44.662  30.101  28.406  1.00  0.00    -0.354 N 
ATOM     29  N   UNL A   1      42.134  30.974  29.700  1.00  0.00    -0.248 NA
ATOM     30  C   UNL A   1      40.933  32.575  30.908  1.00  0.00     0.031 C 
ATOM     31  C   UNL A   1      46.386  31.497  28.443  1.00  0.00     0.029 A 
ATOM     32  C   UNL A   1      45.063  31.357  28.834  1.00  0.00     0.049 A 
ATOM     33  H   UNL A   1      43.770  29.713  28.555  1.00  0.00     0.167 HD
ATOM     34  C   UNL A   1      42.939  32.091  29.902  1.00  0.00     0.074 A 
ATOM     35  C   UNL A   1      42.127  33.061  30.610  1.00  0.00     0.031 C 
ATOM     36  C   UNL A   1      44.229  32.303  29.536  1.00  0.00     0.034 A 
BRANCH  23  37
ATOM     37  C   UNL A   1      46.840  27.550  26.499  1.00  0.00     0.023 A 
ATOM     38  C   UNL A   1      47.164  27.893  25.174  1.00  0.00     0.031 A 
ATOM     39  C   UNL A   1      47.635  26.588  27.144  1.00  0.00     0.131 A 
ATOM     40  C   UNL A   1      48.188  27.211  24.504  1.00  0.00     0.055 A 
ATOM     41  C   UNL A   1      48.712  25.975  26.498  1.00  0.00     0.041 A 
ATOM     42  F   UNL A   1      47.361  26.206  28.400  1.00  0.00    -0.206 F 
ATOM     43  C   UNL A   1      48.982  26.272  25.164  1.00  0.00     0.022 A 
BRANCH  40  44
ATOM     44  S   UNL A   1      48.358  27.455  22.714  1.00  0.00     0.124 S 
ATOM     45  O   UNL A   1      48.409  26.077  22.233  1.00  0.00    -0.237 OA
ATOM     46  O   UNL A   1      47.152  28.203  22.380  1.00  0.00    -0.237 OA
ATOM     47  O   UNL A   1      49.609  28.201  22.588  1.00  0.00    -0.744 OA
ENDBRANCH  40  44
ENDBRANCH  23  37
BRANCH  24  48
ATOM     48  C   UNL A   1      38.490  30.946  30.983  1.00  0.00     0.023 A 
ATOM     49  C   UNL A   1      37.536  31.743  30.331  1.00  0.00     0.031 A 
ATOM     50  C   UNL A   1      38.309  30.703  32.358  1.00  0.00     0.131 A 
ATOM     51  C   UNL A   1      36.492  32.334  31.061  1.00  0.00     0.055 A 
ATOM     52  C   UNL A   1      37.236  31.247  33.070  1.00  0.00     0.041 A 
ATOM     53  F   UNL A   1      39.179  29.935  33.033  1.00  0.00    -0.206 F 
ATOM     54  C   UNL A   1      36.331  32.085  32.426  1.00  0.00     0.022 A 
BRANCH  51  55
ATOM     55  S   UNL A   1      35.416  33.533  30.224  1.00  0.00     0.124 S 
ATOM     56  O   UNL A   1      34.291  32.693  29.826  1.00  0.00    -0.237 OA
ATOM     57  O   UNL A   1      35.154  34.494  31.289  1.00  0.00    -0.237 OA
ATOM     58  O   UNL A   1      36.246  34.027  29.128  1.00  0.00    -0.744 OA
ENDBRANCH  51  55
ENDBRANCH  24  48
BRANCH  36  59
ATOM     59  C   UNL A   1      44.810  33.659  29.852  1.00  0.00     0.023 A 
ATOM     60  C   UNL A   1      44.711  34.731  28.949  1.00  0.00     0.031 A 
ATOM     61  C   UNL A   1      45.488  33.873  31.065  1.00  0.00     0.131 A 
ATOM     62  C   UNL A   1      45.343  35.948  29.241  1.00  0.00     0.055 A 
ATOM     63  C   UNL A   1      46.049  35.110  31.383  1.00  0.00     0.041 A 
ATOM     64  F   UNL A   1      45.615  32.883  31.962  1.00  0.00    -0.206 F 
ATOM     65  C   UNL A   1      45.993  36.151  30.460  1.00  0.00     0.022 A 
BRANCH  62  66
ATOM     66  S   UNL A   1      45.401  37.223  27.953  1.00  0.00     0.124 S 
ATOM     67  O   UNL A   1      44.943  38.404  28.677  1.00  0.00    -0.237 OA
ATOM     68  O   UNL A   1      46.810  37.217  27.572  1.00  0.00    -0.237 OA
ATOM     69  O   UNL A   1      44.480  36.722  26.934  1.00  0.00    -0.744 OA
ENDBRANCH  62  66
ENDBRANCH  36  59
ENDBRANCH  10  11
ENDBRANCH   3   5
ENDBRANCH   2   3
ENDBRANCH   1   2
BRANCH   1  70
ATOM     70  C   UNL A   1      34.978  20.554  25.001  1.00  0.00     0.275 C 
BRANCH  70  71
ATOM     71  O   UNL A   1      34.250  19.488  24.355  1.00  0.00    -0.458 OA
BRANCH  71  72
ATOM     72  C   UNL A   1      32.908  19.468  24.588  1.00  0.00     0.338 C 
ATOM     73  O   UNL A   1      32.252  18.484  24.886  1.00  0.00    -0.246 OA
BRANCH  72  74
ATOM     74  C   UNL A   1      32.324  20.838  24.529  1.00  0.00     0.060 A 
ATOM     75  C   UNL A   1      31.899  21.431  25.723  1.00  0.00     0.016 A 
ATOM     76  C   UNL A   1      32.152  21.534  23.333  1.00  0.00     0.016 A 
ATOM     77  C   UNL A   1      31.372  22.734  25.730  1.00  0.00     0.007 A 
ATOM     78  C   UNL A   1      31.619  22.839  23.345  1.00  0.00     0.007 A 
ATOM     79  C   UNL A   1      31.257  23.482  24.547  1.00  0.00    -0.025 A 
BRANCH  79  80
ATOM     80  C   UNL A   1      30.854  24.965  24.529  1.00  0.00     0.114 C 
ATOM     81  N   UNL A   1      30.822  25.583  25.881  1.00  0.00    -0.378 N 
ATOM     82  C   UNL A   1      31.742  25.860  23.661  1.00  0.00     0.031 C 
ATOM     83  C   UNL A   1      31.723  26.594  26.240  1.00  0.00     0.038 A 
ATOM     84  H   UNL A   1      30.154  25.276  26.536  1.00  0.00     0.161 HD
ATOM     85  C   UNL A   1      33.140  25.934  24.302  1.00  0.00     0.049 C 
ATOM     86  C   UNL A   1      31.957  25.641  22.177  1.00  0.00     0.034 C 
ATOM     87  C   UNL A   1      31.403  27.526  27.230  1.00  0.00     0.027 A 
ATOM     88  C   UNL A   1      32.941  26.770  25.537  1.00  0.00    -0.016 A 
ATOM     89  C   UNL A   1      33.926  26.495  23.161  1.00  0.00    -0.023 C 
ATOM     90  C   UNL A   1      33.278  26.332  21.999  1.00  0.00    -0.030 C 
ATOM     91  C   UNL A   1      32.281  28.578  27.536  1.00  0.00     0.022 A 
ATOM     92  C   UNL A   1      33.864  27.754  25.917  1.00  0.00     0.027 A 
ATOM     93  C   UNL A   1      33.518  28.667  26.901  1.00  0.00     0.041 A 
ATOM     94  Cl  UNL A   1      34.599  29.949  27.290  1.00  0.00    -0.084 Cl
ENDBRANCH  79  80
ENDBRANCH  72  74
ENDBRANCH  71  72
ENDBRANCH  70  71
ENDBRANCH   1  70
TORSDOF 15
ENDMDL
MODEL 3
REMARK VINA RESULT:     -12.8      5.182      7.674
REMARK SMILES O=C(OCCOC(=O)c1ccc([C@H]2Nc3ccc(Cl)cc3[C@@H]3C=CC[C@@H]23)cc1)c1ccc(-c2c3nc(c(-c4cc(S(=O)(=O)[O-])ccc4F)c4ccc([nH]4)c(-c4cc(S(=O)(=O)[O-])ccc4F)c4nc(c(-c5cc(S(=O)(=O)[O-])ccc5F)c5ccc2[nH]5)C=C4)C=C3)cc1
REMARK SMILES IDX 4 1 3 2 2 3 1 4 29 5 30 6 91 7 31 8 90 9 32 10 33 11 34 12
REMARK SMILES IDX 84 13 35 14 89 15 83 16 85 17 36 18 88 19 82 20 81 21 37 23
REMARK SMILES IDX 69 24 49 25 68 26 50 27 53 28 67 29 86 30 51 31 52 32 66 34
REMARK SMILES IDX 87 35 54 36 38 37 39 38 47 39 40 40 46 41 48 42 45 43 41 44
REMARK SMILES IDX 42 45 43 46 44 47 70 48 71 49 79 50 72 51 78 52 80 53 77 54
REMARK SMILES IDX 73 55 74 56 75 57 76 58 55 59 56 60 64 61 57 62 63 63 65 64
REMARK SMILES IDX 62 65 58 66 59 67 60 68 61 69 5 70 6 71 7 72 8 73 9 74 10 75
REMARK SMILES IDX 28 76 11 77 27 78 12 79 13 80 14 81 26 82 15 83 22 85 25 86
REMARK SMILES IDX 16 87 21 88 23 89 24 90 17 91 20 92 18 93 19 94
REMARK H PARENT 85 22 53 33 14 84
REMARK Flexibility Score: inf
ROOT
ATOM      1  C   UNL A   1      31.403  30.449  25.755  1.00  0.00     0.275 C 
ENDROOT
BRANCH   1   2
ATOM      2  O   UNL A   1      32.791  30.617  26.070  1.00  0.00    -0.458 OA
BRANCH   2   3
ATOM      3  C   UNL A   1      33.361  31.380  27.030  1.00  0.00     0.338 C 
ATOM      4  O   UNL A   1      32.807  32.437  27.332  1.00  0.00    -0.246 OA
BRANCH   3   5
ATOM      5  C   UNL A   1      34.682  31.068  27.672  1.00  0.00     0.060 A 
ATOM      6  C   UNL A   1      35.700  31.971  27.997  1.00  0.00     0.016 A 
ATOM      7  C   UNL A   1      34.892  29.721  27.995  1.00  0.00     0.016 A 
ATOM      8  C   UNL A   1      36.830  31.578  28.721  1.00  0.00     0.010 A 
ATOM      9  C   UNL A   1      36.027  29.325  28.700  1.00  0.00     0.010 A 
ATOM     10  C   UNL A   1      36.991  30.253  29.107  1.00  0.00    -0.014 A 
BRANCH  10  11
ATOM     11  C   UNL A   1      38.187  29.838  29.881  1.00  0.00     0.031 A 
ATOM     12  C   UNL A   1      38.412  30.422  31.244  1.00  0.00     0.074 A 
ATOM     13  C   UNL A   1      39.076  28.977  29.346  1.00  0.00     0.049 A 
ATOM     14  N   UNL A   1      39.413  30.238  32.065  1.00  0.00    -0.248 NA
ATOM     15  C   UNL A   1      37.389  31.357  31.736  1.00  0.00     0.031 C 
ATOM     16  C   UNL A   1      38.952  28.355  28.026  1.00  0.00     0.029 A 
ATOM     17  N   UNL A   1      40.269  28.492  29.820  1.00  0.00    -0.354 N 
ATOM     18  C   UNL A   1      39.126  31.017  33.179  1.00  0.00     0.074 A 
ATOM     19  C   UNL A   1      37.915  31.750  32.884  1.00  0.00     0.031 C 
ATOM     20  C   UNL A   1      40.034  27.595  27.786  1.00  0.00     0.029 A 
ATOM     21  C   UNL A   1      40.930  27.672  28.932  1.00  0.00     0.049 A 
ATOM     22  H   UNL A   1      40.621  28.712  30.713  1.00  0.00     0.167 HD
ATOM     23  C   UNL A   1      39.788  31.076  34.361  1.00  0.00     0.034 A 
ATOM     24  C   UNL A   1      42.123  27.050  29.038  1.00  0.00     0.034 A 
ATOM     25  C   UNL A   1      40.998  30.343  34.629  1.00  0.00     0.049 A 
ATOM     26  C   UNL A   1      42.877  27.184  30.340  1.00  0.00     0.074 A 
ATOM     27  C   UNL A   1      41.749  30.306  35.788  1.00  0.00     0.029 A 
ATOM     28  N   UNL A   1      41.638  29.514  33.713  1.00  0.00    -0.354 N 
ATOM     29  N   UNL A   1      42.553  27.870  31.413  1.00  0.00    -0.248 NA
ATOM     30  C   UNL A   1      44.130  26.430  30.462  1.00  0.00     0.031 C 
ATOM     31  C   UNL A   1      42.871  29.502  35.557  1.00  0.00     0.029 A 
ATOM     32  C   UNL A   1      42.785  28.977  34.275  1.00  0.00     0.049 A 
ATOM     33  H   UNL A   1      41.322  29.335  32.797  1.00  0.00     0.167 HD
ATOM     34  C   UNL A   1      43.539  27.589  32.354  1.00  0.00     0.074 A 
ATOM     35  C   UNL A   1      44.455  26.659  31.724  1.00  0.00     0.031 C 
ATOM     36  C   UNL A   1      43.678  28.050  33.623  1.00  0.00     0.034 A 
BRANCH  23  37
ATOM     37  C   UNL A   1      39.202  31.968  35.424  1.00  0.00     0.023 A 
ATOM     38  C   UNL A   1      39.616  33.307  35.553  1.00  0.00     0.031 A 
ATOM     39  C   UNL A   1      38.278  31.473  36.358  1.00  0.00     0.131 A 
ATOM     40  C   UNL A   1      39.185  34.072  36.645  1.00  0.00     0.055 A 
ATOM     41  C   UNL A   1      37.784  32.269  37.395  1.00  0.00     0.041 A 
ATOM     42  F   UNL A   1      37.863  30.198  36.298  1.00  0.00    -0.206 F 
ATOM     43  C   UNL A   1      38.252  33.571  37.554  1.00  0.00     0.022 A 
BRANCH  40  44
ATOM     44  S   UNL A   1      39.988  35.671  36.947  1.00  0.00     0.124 S 
ATOM     45  O   UNL A   1      39.328  36.103  38.176  1.00  0.00    -0.237 OA
ATOM     46  O   UNL A   1      41.393  35.302  37.074  1.00  0.00    -0.237 OA
ATOM     47  O   UNL A   1      39.653  36.451  35.758  1.00  0.00    -0.744 OA
ENDBRANCH  40  44
ENDBRANCH  23  37
BRANCH  24  48
ATOM     48  C   UNL A   1      42.682  26.238  27.914  1.00  0.00     0.023 A 
ATOM     49  C   UNL A   1      42.366  24.877  27.774  1.00  0.00     0.031 A 
ATOM     50  C   UNL A   1      43.609  26.790  27.011  1.00  0.00     0.131 A 
ATOM     51  C   UNL A   1      43.027  24.094  26.813  1.00  0.00     0.055 A 
ATOM     52  C   UNL A   1      44.223  26.020  26.019  1.00  0.00     0.041 A 
ATOM     53  F   UNL A   1      43.939  28.089  27.085  1.00  0.00    -0.206 F 
ATOM     54  C   UNL A   1      43.949  24.659  25.929  1.00  0.00     0.022 A 
BRANCH  51  55
ATOM     55  S   UNL A   1      42.754  22.300  26.816  1.00  0.00     0.124 S 
ATOM     56  O   UNL A   1      41.512  22.188  26.059  1.00  0.00    -0.237 OA
ATOM     57  O   UNL A   1      43.957  21.813  26.152  1.00  0.00    -0.237 OA
ATOM     58  O   UNL A   1      42.651  21.975  28.236  1.00  0.00    -0.744 OA
ENDBRANCH  51  55
ENDBRANCH  24  48
BRANCH  36  59
ATOM     59  C   UNL A   1      44.836  27.504  34.421  1.00  0.00     0.023 A 
ATOM     60  C   UNL A   1      44.755  26.269  35.087  1.00  0.00     0.031 A 
ATOM     61  C   UNL A   1      46.029  28.240  34.530  1.00  0.00     0.131 A 
ATOM     62  C   UNL A   1      45.820  25.841  35.891  1.00  0.00     0.055 A 
ATOM     63  C   UNL A   1      47.114  27.772  35.271  1.00  0.00     0.041 A 
ATOM     64  F   UNL A   1      46.159  29.427  33.917  1.00  0.00    -0.206 F 
ATOM     65  C   UNL A   1      47.007  26.573  35.970  1.00  0.00     0.022 A 
BRANCH  62  66
ATOM     66  S   UNL A   1      45.585  24.368  36.923  1.00  0.00     0.124 S 
ATOM     67  O   UNL A   1      46.920  23.778  36.913  1.00  0.00    -0.237 OA
ATOM     68  O   UNL A   1      45.154  24.944  38.193  1.00  0.00    -0.237 OA
ATOM     69  O   UNL A   1      44.563  23.607  36.207  1.00  0.00    -0.744 OA
ENDBRANCH  62  66
ENDBRANCH  36  59
ENDBRANCH  10  11
ENDBRANCH   3   5
ENDBRANCH   2   3
ENDBRANCH   1   2
BRANCH   1  70
ATOM     70  C   UNL A   1      31.089  29.332  24.749  1.00  0.00     0.275 C 
BRANCH  70  71
ATOM     71  O   UNL A   1      30.321  29.735  23.596  1.00  0.00    -0.458 OA
BRANCH  71  72
ATOM     72  C   UNL A   1      29.441  28.810  23.123  1.00  0.00     0.338 C 
ATOM     73  O   UNL A   1      28.332  29.046  22.675  1.00  0.00    -0.246 OA
BRANCH  72  74
ATOM     74  C   UNL A   1      30.034  27.442  23.126  1.00  0.00     0.060 A 
ATOM     75  C   UNL A   1      31.128  27.191  22.291  1.00  0.00     0.016 A 
ATOM     76  C   UNL A   1      29.522  26.399  23.896  1.00  0.00     0.016 A 
ATOM     77  C   UNL A   1      31.748  25.930  22.278  1.00  0.00     0.007 A 
ATOM     78  C   UNL A   1      30.144  25.134  23.877  1.00  0.00     0.007 A 
ATOM     79  C   UNL A   1      31.295  24.885  23.100  1.00  0.00    -0.025 A 
BRANCH  79  80
ATOM     80  C   UNL A   1      32.044  23.552  23.249  1.00  0.00     0.114 C 
ATOM     81  N   UNL A   1      33.410  23.574  22.661  1.00  0.00    -0.378 N 
ATOM     82  C   UNL A   1      32.199  23.062  24.691  1.00  0.00     0.031 C 
ATOM     83  C   UNL A   1      34.551  23.459  23.465  1.00  0.00     0.038 A 
ATOM     84  H   UNL A   1      33.513  23.671  21.687  1.00  0.00     0.161 HD
ATOM     85  C   UNL A   1      33.140  24.023  25.438  1.00  0.00     0.049 C 
ATOM     86  C   UNL A   1      31.028  22.797  25.616  1.00  0.00     0.034 C 
ATOM     87  C   UNL A   1      35.747  22.953  22.951  1.00  0.00     0.027 A 
ATOM     88  C   UNL A   1      34.499  23.748  24.852  1.00  0.00    -0.016 A 
ATOM     89  C   UNL A   1      32.862  23.624  26.852  1.00  0.00    -0.023 C 
ATOM     90  C   UNL A   1      31.705  22.954  26.947  1.00  0.00    -0.030 C 
ATOM     91  C   UNL A   1      36.866  22.775  23.780  1.00  0.00     0.022 A 
ATOM     92  C   UNL A   1      35.645  23.672  25.654  1.00  0.00     0.027 A 
ATOM     93  C   UNL A   1      36.819  23.164  25.117  1.00  0.00     0.041 A 
ATOM     94  Cl  UNL A   1      38.197  22.959  26.127  1.00  0.00    -0.084 Cl
ENDBRANCH  79  80
ENDBRANCH  72  74
ENDBRANCH  71  72
ENDBRANCH  70  71
ENDBRANCH   1  70
TORSDOF 15
ENDMDL
