MODEL 1
REMARK VINA RESULT:     -13.4      0.000      0.000
REMARK SMILES O=C(OCCOC(=O)[C@@H]1CCC[N@@H+](Cc2ccc(F)cc2Cl)C1)c1ccc(-c2c3nc(c(-c4cc(S(=O)(=O)[O-])ccc4F)c4ccc([nH]4)c(-c4cc(S(=O)(=O)[O-])ccc4F)c4nc(c(-c5cc(S(=O)(=O)[O-])ccc5F)c5ccc2[nH]5)C=C4)C=C3)cc1
REMARK SMILES IDX 4 1 3 2 2 3 1 4 24 5 25 6 86 7 26 8 85 9 27 10 28 11 29 12
REMARK SMILES IDX 79 13 30 14 84 15 78 16 80 17 31 18 83 19 77 20 76 21 32 23
REMARK SMILES IDX 64 24 44 25 63 26 45 27 48 28 62 29 81 30 46 31 47 32 61 34
REMARK SMILES IDX 82 35 49 36 33 37 34 38 42 39 35 40 41 41 43 42 40 43 36 44
REMARK SMILES IDX 37 45 38 46 39 47 65 48 66 49 74 50 67 51 73 52 75 53 72 54
REMARK SMILES IDX 68 55 69 56 70 57 71 58 50 59 51 60 59 61 52 62 58 63 60 64
REMARK SMILES IDX 57 65 53 66 54 67 55 68 56 69 5 70 6 71 7 72 8 73 9 74 10 75
REMARK SMILES IDX 23 76 11 77 13 78 12 79 14 81 15 82 16 83 21 84 17 85 20 86
REMARK SMILES IDX 22 87 18 88 19 89
REMARK H PARENT 80 22 48 33 13 80
REMARK Flexibility Score: inf
ROOT
ATOM      1  C   UNL A   1      30.672  29.544  24.491  1.00  0.00     0.275 C 
ENDROOT
BRANCH   1   2
ATOM      2  O   UNL A   1      31.875  30.141  25.042  1.00  0.00    -0.458 OA
BRANCH   2   3
ATOM      3  C   UNL A   1      32.118  30.768  26.222  1.00  0.00     0.338 C 
ATOM      4  O   UNL A   1      31.336  31.624  26.630  1.00  0.00    -0.246 OA
BRANCH   3   5
ATOM      5  C   UNL A   1      33.347  30.578  27.023  1.00  0.00     0.060 A 
ATOM      6  C   UNL A   1      34.120  28.980  27.238  1.00  0.00     0.016 A 
ATOM      7  C   UNL A   1      34.128  32.056  27.805  1.00  0.00     0.016 A 
ATOM      8  C   UNL A   1      35.662  28.799  28.125  1.00  0.00     0.010 A 
ATOM      9  C   UNL A   1      35.791  31.891  28.603  1.00  0.00     0.010 A 
ATOM     10  C   UNL A   1      36.501  30.229  28.872  1.00  0.00    -0.014 A 
BRANCH  10  11
ATOM     11  C   UNL A   1      37.743  29.931  29.684  1.00  0.00     0.031 A 
ATOM     12  C   UNL A   1      39.024  29.449  29.008  1.00  0.00     0.074 A 
ATOM     13  C   UNL A   1      37.798  30.221  31.000  1.00  0.00     0.049 A 
ATOM     14  N   UNL A   1      40.085  28.903  29.555  1.00  0.00    -0.248 NA
ATOM     15  C   UNL A   1      39.118  29.486  27.547  1.00  0.00     0.031 C 
ATOM     16  C   UNL A   1      36.706  30.733  31.815  1.00  0.00     0.029 A 
ATOM     17  N   UNL A   1      38.867  30.264  31.860  1.00  0.00    -0.354 N 
ATOM     18  C   UNL A   1      40.823  28.347  28.503  1.00  0.00     0.074 A 
ATOM     19  C   UNL A   1      40.190  28.762  27.291  1.00  0.00     0.031 C 
ATOM     20  C   UNL A   1      37.199  31.291  32.928  1.00  0.00     0.029 A 
ATOM     21  C   UNL A   1      38.609  30.949  33.031  1.00  0.00     0.049 A 
ATOM     22  H   UNL A   1      39.736  29.846  31.662  1.00  0.00     0.167 HD
ATOM     23  C   UNL A   1      41.851  27.465  28.578  1.00  0.00     0.034 A 
ATOM     24  C   UNL A   1      39.407  31.222  34.083  1.00  0.00     0.034 A 
ATOM     25  C   UNL A   1      42.549  27.253  29.820  1.00  0.00     0.049 A 
ATOM     26  C   UNL A   1      40.753  30.544  34.087  1.00  0.00     0.074 A 
ATOM     27  C   UNL A   1      43.575  26.380  30.130  1.00  0.00     0.029 A 
ATOM     28  N   UNL A   1      42.312  28.012  30.959  1.00  0.00    -0.354 N 
ATOM     29  N   UNL A   1      41.277  29.763  33.168  1.00  0.00    -0.248 NA
ATOM     30  C   UNL A   1      41.578  30.705  35.287  1.00  0.00     0.031 C 
ATOM     31  C   UNL A   1      43.948  26.609  31.463  1.00  0.00     0.029 A 
ATOM     32  C   UNL A   1      43.199  27.668  31.957  1.00  0.00     0.049 A 
ATOM     33  H   UNL A   1      41.611  28.698  31.042  1.00  0.00     0.167 HD
ATOM     34  C   UNL A   1      42.465  29.288  33.707  1.00  0.00     0.074 A 
ATOM     35  C   UNL A   1      42.622  29.943  34.992  1.00  0.00     0.031 C 
ATOM     36  C   UNL A   1      43.319  28.352  33.218  1.00  0.00     0.034 A 
BRANCH  23  37
ATOM     37  C   UNL A   1      42.106  26.569  27.376  1.00  0.00     0.023 A 
ATOM     38  C   UNL A   1      41.633  25.249  27.254  1.00  0.00     0.031 A 
ATOM     39  C   UNL A   1      42.991  27.024  26.374  1.00  0.00     0.131 A 
ATOM     40  C   UNL A   1      42.149  24.404  26.252  1.00  0.00     0.055 A 
ATOM     41  C   UNL A   1      43.406  26.215  25.312  1.00  0.00     0.041 A 
ATOM     42  F   UNL A   1      43.514  28.259  26.433  1.00  0.00    -0.206 F 
ATOM     43  C   UNL A   1      43.007  24.886  25.261  1.00  0.00     0.022 A 
BRANCH  40  44
ATOM     44  S   UNL A   1      41.833  22.617  26.361  1.00  0.00     0.124 S 
ATOM     45  O   UNL A   1      42.388  22.301  27.674  1.00  0.00    -0.237 OA
ATOM     46  O   UNL A   1      40.380  22.543  26.252  1.00  0.00    -0.237 OA
ATOM     47  O   UNL A   1      42.570  22.066  25.226  1.00  0.00    -0.744 OA
ENDBRANCH  40  44
ENDBRANCH  23  37
BRANCH  24  48
ATOM     48  C   UNL A   1      38.937  32.058  35.235  1.00  0.00     0.023 A 
ATOM     49  C   UNL A   1      38.374  31.469  36.382  1.00  0.00     0.031 A 
ATOM     50  C   UNL A   1      39.032  33.463  35.217  1.00  0.00     0.131 A 
ATOM     51  C   UNL A   1      37.925  32.276  37.445  1.00  0.00     0.055 A 
ATOM     52  C   UNL A   1      38.661  34.253  36.307  1.00  0.00     0.041 A 
ATOM     53  F   UNL A   1      39.518  34.100  34.140  1.00  0.00    -0.206 F 
ATOM     54  C   UNL A   1      38.094  33.661  37.427  1.00  0.00     0.022 A 
BRANCH  51  55
ATOM     55  S   UNL A   1      37.022  31.503  38.819  1.00  0.00     0.124 S 
ATOM     56  O   UNL A   1      35.812  32.316  38.874  1.00  0.00    -0.237 OA
ATOM     57  O   UNL A   1      36.856  30.134  38.343  1.00  0.00    -0.237 OA
ATOM     58  O   UNL A   1      37.930  31.661  39.954  1.00  0.00    -0.744 OA
ENDBRANCH  51  55
ENDBRANCH  24  48
BRANCH  36  59
ATOM     59  C   UNL A   1      44.500  28.015  34.073  1.00  0.00     0.023 A 
ATOM     60  C   UNL A   1      44.421  27.011  35.050  1.00  0.00     0.031 A 
ATOM     61  C   UNL A   1      45.711  28.703  33.903  1.00  0.00     0.131 A 
ATOM     62  C   UNL A   1      45.526  26.761  35.870  1.00  0.00     0.055 A 
ATOM     63  C   UNL A   1      46.824  28.414  34.689  1.00  0.00     0.041 A 
ATOM     64  F   UNL A   1      45.824  29.667  32.976  1.00  0.00    -0.206 F 
ATOM     65  C   UNL A   1      46.731  27.447  35.688  1.00  0.00     0.022 A 
BRANCH  62  66
ATOM     66  S   UNL A   1      45.337  25.586  37.237  1.00  0.00     0.124 S 
ATOM     67  O   UNL A   1      45.691  26.406  38.391  1.00  0.00    -0.237 OA
ATOM     68  O   UNL A   1      43.932  25.206  37.129  1.00  0.00    -0.237 OA
ATOM     69  O   UNL A   1      46.293  24.529  36.911  1.00  0.00    -0.744 OA
ENDBRANCH  62  66
ENDBRANCH  36  59
ENDBRANCH  10  11
ENDBRANCH   3   5
ENDBRANCH   2   3
ENDBRANCH   1   2
BRANCH   1  70
ATOM     70  C   UNL A   1      30.920  28.372  23.547  1.00  0.00     0.274 C 
BRANCH  70  71
ATOM     71  O   UNL A   1      30.152  27.248  23.956  1.00  0.00    -0.462 OA
BRANCH  71  72
ATOM     72  C   UNL A   1      30.798  26.070  24.110  1.00  0.00     0.314 C 
ATOM     73  O   UNL A   1      31.252  25.383  23.204  1.00  0.00    -0.252 OA
BRANCH  72  74
ATOM     74  C   UNL A   1      30.884  25.689  25.568  1.00  0.00     0.154 C 
ATOM     75  C   UNL A   1      32.078  26.263  26.267  1.00  0.00     0.027 C 
ATOM     76  C   UNL A   1      30.753  24.176  25.765  1.00  0.00     0.277 C 
ATOM     77  C   UNL A   1      33.307  25.514  25.822  1.00  0.00     0.062 C 
ATOM     78  N   UNL A   1      32.004  23.075  25.388  1.00  0.00    -0.330 N 
ATOM     79  C   UNL A   1      33.179  24.003  26.066  1.00  0.00     0.262 C 
ATOM     80  H   UNL A   1      32.153  22.649  24.473  1.00  0.00     0.348 HD
BRANCH  78  81
ATOM     81  C   UNL A   1      31.875  20.998  25.057  1.00  0.00     0.300 C 
BRANCH  81  82
ATOM     82  C   UNL A   1      32.914  19.768  24.222  1.00  0.00     0.025 A 
ATOM     83  C   UNL A   1      32.443  18.861  23.240  1.00  0.00     0.014 A 
ATOM     84  C   UNL A   1      34.235  19.566  24.649  1.00  0.00     0.052 A 
ATOM     85  C   UNL A   1      33.029  17.596  23.139  1.00  0.00     0.040 A 
ATOM     86  C   UNL A   1      34.806  18.290  24.600  1.00  0.00     0.060 A 
ATOM     87  Cl  UNL A   1      35.318  20.915  24.697  1.00  0.00    -0.084 Cl
ATOM     88  C   UNL A   1      34.145  17.290  23.907  1.00  0.00     0.124 A 
ATOM     89  F   UNL A   1      34.633  16.044  23.887  1.00  0.00    -0.207 F 
ENDBRANCH  81  82
ENDBRANCH  78  81
ENDBRANCH  72  74
ENDBRANCH  71  72
ENDBRANCH  70  71
ENDBRANCH   1  70
TORSDOF 16
ENDMDL
MODEL 2
REMARK VINA RESULT:     -13.3      5.566     10.645
REMARK SMILES O=C(OCCOC(=O)[C@@H]1CCC[N@@H+](Cc2ccc(F)cc2Cl)C1)c1ccc(-c2c3nc(c(-c4cc(S(=O)(=O)[O-])ccc4F)c4ccc([nH]4)c(-c4cc(S(=O)(=O)[O-])ccc4F)c4nc(c(-c5cc(S(=O)(=O)[O-])ccc5F)c5ccc2[nH]5)C=C4)C=C3)cc1
REMARK SMILES IDX 4 1 3 2 2 3 1 4 24 5 25 6 86 7 26 8 85 9 27 10 28 11 29 12
REMARK SMILES IDX 79 13 30 14 84 15 78 16 80 17 31 18 83 19 77 20 76 21 32 23
REMARK SMILES IDX 64 24 44 25 63 26 45 27 48 28 62 29 81 30 46 31 47 32 61 34
REMARK SMILES IDX 82 35 49 36 33 37 34 38 42 39 35 40 41 41 43 42 40 43 36 44
REMARK SMILES IDX 37 45 38 46 39 47 65 48 66 49 74 50 67 51 73 52 75 53 72 54
REMARK SMILES IDX 68 55 69 56 70 57 71 58 50 59 51 60 59 61 52 62 58 63 60 64
REMARK SMILES IDX 57 65 53 66 54 67 55 68 56 69 5 70 6 71 7 72 8 73 9 74 10 75
REMARK SMILES IDX 23 76 11 77 13 78 12 79 14 81 15 82 16 83 21 84 17 85 20 86
REMARK SMILES IDX 22 87 18 88 19 89
REMARK H PARENT 80 22 48 33 13 80
REMARK Flexibility Score: inf
ROOT
ATOM      1  C   UNL A   1      35.005  19.812  24.793  1.00  0.00     0.275 C 
ENDROOT
BRANCH   1   2
ATOM      2  O   UNL A   1      35.984  20.819  25.161  1.00  0.00    -0.458 OA
BRANCH   2   3
ATOM      3  C   UNL A   1      37.340  20.795  25.198  1.00  0.00     0.338 C 
ATOM      4  O   UNL A   1      37.938  19.744  24.975  1.00  0.00    -0.246 OA
BRANCH   3   5
ATOM      5  C   UNL A   1      38.178  21.942  25.612  1.00  0.00     0.060 A 
ATOM      6  C   UNL A   1      37.579  23.626  25.605  1.00  0.00     0.016 A 
ATOM      7  C   UNL A   1      39.902  21.613  26.186  1.00  0.00     0.016 A 
ATOM      8  C   UNL A   1      38.581  24.978  26.211  1.00  0.00     0.010 A 
ATOM      9  C   UNL A   1      40.887  22.989  26.939  1.00  0.00     0.010 A 
ATOM     10  C   UNL A   1      40.267  24.704  26.835  1.00  0.00    -0.014 A 
BRANCH  10  11
ATOM     11  C   UNL A   1      41.049  25.940  27.222  1.00  0.00     0.031 A 
ATOM     12  C   UNL A   1      40.646  26.777  28.433  1.00  0.00     0.074 A 
ATOM     13  C   UNL A   1      42.204  26.254  26.599  1.00  0.00     0.049 A 
ATOM     14  N   UNL A   1      41.028  27.990  28.757  1.00  0.00    -0.248 NA
ATOM     15  C   UNL A   1      39.632  26.258  29.353  1.00  0.00     0.031 C 
ATOM     16  C   UNL A   1      42.784  25.557  25.460  1.00  0.00     0.029 A 
ATOM     17  N   UNL A   1      43.179  27.162  26.930  1.00  0.00    -0.354 N 
ATOM     18  C   UNL A   1      40.141  28.426  29.749  1.00  0.00     0.074 A 
ATOM     19  C   UNL A   1      39.323  27.306  30.092  1.00  0.00     0.031 C 
ATOM     20  C   UNL A   1      44.086  25.853  25.368  1.00  0.00     0.029 A 
ATOM     21  C   UNL A   1      44.376  26.953  26.274  1.00  0.00     0.049 A 
ATOM     22  H   UNL A   1      43.039  27.892  27.575  1.00  0.00     0.167 HD
ATOM     23  C   UNL A   1      39.964  29.688  30.215  1.00  0.00     0.034 A 
ATOM     24  C   UNL A   1      45.551  27.609  26.361  1.00  0.00     0.034 A 
ATOM     25  C   UNL A   1      40.949  30.709  29.968  1.00  0.00     0.049 A 
ATOM     26  C   UNL A   1      45.542  28.879  27.172  1.00  0.00     0.074 A 
ATOM     27  C   UNL A   1      40.947  32.050  30.301  1.00  0.00     0.029 A 
ATOM     28  N   UNL A   1      42.175  30.447  29.369  1.00  0.00    -0.354 N 
ATOM     29  N   UNL A   1      44.550  29.405  27.856  1.00  0.00    -0.248 NA
ATOM     30  C   UNL A   1      46.765  29.687  27.161  1.00  0.00     0.031 C 
ATOM     31  C   UNL A   1      42.172  32.598  29.890  1.00  0.00     0.029 A 
ATOM     32  C   UNL A   1      42.957  31.582  29.365  1.00  0.00     0.049 A 
ATOM     33  H   UNL A   1      42.446  29.576  29.000  1.00  0.00     0.167 HD
ATOM     34  C   UNL A   1      45.008  30.637  28.303  1.00  0.00     0.074 A 
ATOM     35  C   UNL A   1      46.395  30.733  27.888  1.00  0.00     0.031 C 
ATOM     36  C   UNL A   1      44.334  31.626  28.944  1.00  0.00     0.034 A 
BRANCH  23  37
ATOM     37  C   UNL A   1      38.613  30.035  30.821  1.00  0.00     0.023 A 
ATOM     38  C   UNL A   1      37.557  30.642  30.116  1.00  0.00     0.031 A 
ATOM     39  C   UNL A   1      38.441  29.880  32.215  1.00  0.00     0.131 A 
ATOM     40  C   UNL A   1      36.461  31.185  30.815  1.00  0.00     0.055 A 
ATOM     41  C   UNL A   1      37.294  30.313  32.885  1.00  0.00     0.041 A 
ATOM     42  F   UNL A   1      39.413  29.340  32.967  1.00  0.00    -0.206 F 
ATOM     43  C   UNL A   1      36.306  30.997  32.189  1.00  0.00     0.022 A 
BRANCH  40  44
ATOM     44  S   UNL A   1      35.325  32.301  29.936  1.00  0.00     0.124 S 
ATOM     45  O   UNL A   1      34.849  31.443  28.855  1.00  0.00    -0.237 OA
ATOM     46  O   UNL A   1      34.343  32.630  30.963  1.00  0.00    -0.237 OA
ATOM     47  O   UNL A   1      36.184  33.408  29.519  1.00  0.00    -0.744 OA
ENDBRANCH  40  44
ENDBRANCH  23  37
BRANCH  24  48
ATOM     48  C   UNL A   1      46.764  27.162  25.602  1.00  0.00     0.023 A 
ATOM     49  C   UNL A   1      47.037  27.651  24.311  1.00  0.00     0.031 A 
ATOM     50  C   UNL A   1      47.674  26.232  26.141  1.00  0.00     0.131 A 
ATOM     51  C   UNL A   1      48.173  27.204  23.611  1.00  0.00     0.055 A 
ATOM     52  C   UNL A   1      48.842  25.854  25.476  1.00  0.00     0.041 A 
ATOM     53  F   UNL A   1      47.457  25.688  27.350  1.00  0.00    -0.206 F 
ATOM     54  C   UNL A   1      49.093  26.333  24.198  1.00  0.00     0.022 A 
BRANCH  51  55
ATOM     55  S   UNL A   1      48.391  27.696  21.876  1.00  0.00     0.124 S 
ATOM     56  O   UNL A   1      47.120  28.352  21.591  1.00  0.00    -0.237 OA
ATOM     57  O   UNL A   1      49.560  28.565  21.951  1.00  0.00    -0.237 OA
ATOM     58  O   UNL A   1      48.606  26.425  21.185  1.00  0.00    -0.744 OA
ENDBRANCH  51  55
ENDBRANCH  24  48
BRANCH  36  59
ATOM     59  C   UNL A   1      45.105  32.872  29.247  1.00  0.00     0.023 A 
ATOM     60  C   UNL A   1      45.159  33.930  28.327  1.00  0.00     0.031 A 
ATOM     61  C   UNL A   1      45.787  32.998  30.466  1.00  0.00     0.131 A 
ATOM     62  C   UNL A   1      45.936  35.056  28.618  1.00  0.00     0.055 A 
ATOM     63  C   UNL A   1      46.518  34.144  30.772  1.00  0.00     0.041 A 
ATOM     64  F   UNL A   1      45.755  32.008  31.372  1.00  0.00    -0.206 F 
ATOM     65  C   UNL A   1      46.605  35.176  29.839  1.00  0.00     0.022 A 
BRANCH  62  66
ATOM     66  S   UNL A   1      46.129  36.324  27.338  1.00  0.00     0.124 S 
ATOM     67  O   UNL A   1      44.815  36.959  27.341  1.00  0.00    -0.237 OA
ATOM     68  O   UNL A   1      47.228  37.130  27.860  1.00  0.00    -0.237 OA
ATOM     69  O   UNL A   1      46.441  35.551  26.137  1.00  0.00    -0.744 OA
ENDBRANCH  62  66
ENDBRANCH  36  59
ENDBRANCH  10  11
ENDBRANCH   3   5
ENDBRANCH   2   3
ENDBRANCH   1   2
BRANCH   1  70
ATOM     70  C   UNL A   1      33.576  20.328  24.677  1.00  0.00     0.274 C 
BRANCH  70  71
ATOM     71  O   UNL A   1      33.524  21.703  25.035  1.00  0.00    -0.462 OA
BRANCH  71  72
ATOM     72  C   UNL A   1      32.762  22.521  24.274  1.00  0.00     0.314 C 
ATOM     73  O   UNL A   1      31.547  22.645  24.356  1.00  0.00    -0.252 OA
BRANCH  72  74
ATOM     74  C   UNL A   1      33.611  23.272  23.277  1.00  0.00     0.154 C 
ATOM     75  C   UNL A   1      34.834  23.893  23.880  1.00  0.00     0.027 C 
ATOM     76  C   UNL A   1      32.779  24.269  22.465  1.00  0.00     0.277 C 
ATOM     77  C   UNL A   1      34.418  25.094  24.690  1.00  0.00     0.062 C 
ATOM     78  N   UNL A   1      32.201  25.743  23.109  1.00  0.00    -0.330 N 
ATOM     79  C   UNL A   1      33.622  26.106  23.852  1.00  0.00     0.262 C 
ATOM     80  H   UNL A   1      31.319  25.858  23.607  1.00  0.00     0.348 HD
BRANCH  78  81
ATOM     81  C   UNL A   1      30.638  26.966  22.402  1.00  0.00     0.300 C 
BRANCH  81  82
ATOM     82  C   UNL A   1      29.536  28.196  23.152  1.00  0.00     0.025 A 
ATOM     83  C   UNL A   1      28.121  28.119  23.130  1.00  0.00     0.014 A 
ATOM     84  C   UNL A   1      30.069  29.388  23.666  1.00  0.00     0.052 A 
ATOM     85  C   UNL A   1      27.371  29.298  23.092  1.00  0.00     0.040 A 
ATOM     86  C   UNL A   1      29.343  30.581  23.581  1.00  0.00     0.060 A 
ATOM     87  Cl  UNL A   1      31.313  29.304  24.866  1.00  0.00    -0.084 Cl
ATOM     88  C   UNL A   1      28.010  30.525  23.211  1.00  0.00     0.124 A 
ATOM     89  F   UNL A   1      27.301  31.651  23.064  1.00  0.00    -0.207 F 
ENDBRANCH  81  82
ENDBRANCH  78  81
ENDBRANCH  72  74
ENDBRANCH  71  72
ENDBRANCH  70  71
ENDBRANCH   1  70
TORSDOF 16
ENDMDL
MODEL 3
REMARK VINA RESULT:     -13.1      1.339      1.508
REMARK SMILES O=C(OCCOC(=O)[C@@H]1CCC[N@@H+](Cc2ccc(F)cc2Cl)C1)c1ccc(-c2c3nc(c(-c4cc(S(=O)(=O)[O-])ccc4F)c4ccc([nH]4)c(-c4cc(S(=O)(=O)[O-])ccc4F)c4nc(c(-c5cc(S(=O)(=O)[O-])ccc5F)c5ccc2[nH]5)C=C4)C=C3)cc1
REMARK SMILES IDX 4 1 3 2 2 3 1 4 24 5 25 6 86 7 26 8 85 9 27 10 28 11 29 12
REMARK SMILES IDX 79 13 30 14 84 15 78 16 80 17 31 18 83 19 77 20 76 21 32 23
REMARK SMILES IDX 64 24 44 25 63 26 45 27 48 28 62 29 81 30 46 31 47 32 61 34
REMARK SMILES IDX 82 35 49 36 33 37 34 38 42 39 35 40 41 41 43 42 40 43 36 44
REMARK SMILES IDX 37 45 38 46 39 47 65 48 66 49 74 50 67 51 73 52 75 53 72 54
REMARK SMILES IDX 68 55 69 56 70 57 71 58 50 59 51 60 59 61 52 62 58 63 60 64
REMARK SMILES IDX 57 65 53 66 54 67 55 68 56 69 5 70 6 71 7 72 8 73 9 74 10 75
REMARK SMILES IDX 23 76 11 77 13 78 12 79 14 81 15 82 16 83 21 84 17 85 20 86
REMARK SMILES IDX 22 87 18 88 19 89
REMARK H PARENT 80 22 48 33 13 80
REMARK Flexibility Score: inf
ROOT
ATOM      1  C   UNL A   1      30.679  29.548  24.486  1.00  0.00     0.275 C 
ENDROOT
BRANCH   1   2
ATOM      2  O   UNL A   1      31.878  30.168  25.022  1.00  0.00    -0.458 OA
BRANCH   2   3
ATOM      3  C   UNL A   1      32.125  30.796  26.200  1.00  0.00     0.338 C 
ATOM      4  O   UNL A   1      31.348  31.658  26.606  1.00  0.00    -0.246 OA
BRANCH   3   5
ATOM      5  C   UNL A   1      33.353  30.600  27.002  1.00  0.00     0.060 A 
ATOM      6  C   UNL A   1      34.114  28.998  27.224  1.00  0.00     0.016 A 
ATOM      7  C   UNL A   1      34.144  32.077  27.776  1.00  0.00     0.016 A 
ATOM      8  C   UNL A   1      35.655  28.810  28.110  1.00  0.00     0.010 A 
ATOM      9  C   UNL A   1      35.807  31.903  28.574  1.00  0.00     0.010 A 
ATOM     10  C   UNL A   1      36.505  30.238  28.851  1.00  0.00    -0.014 A 
BRANCH  10  11
ATOM     11  C   UNL A   1      37.745  29.934  29.663  1.00  0.00     0.031 A 
ATOM     12  C   UNL A   1      39.024  29.444  28.989  1.00  0.00     0.074 A 
ATOM     13  C   UNL A   1      37.802  30.226  30.979  1.00  0.00     0.049 A 
ATOM     14  N   UNL A   1      40.082  28.893  29.537  1.00  0.00    -0.248 NA
ATOM     15  C   UNL A   1      39.118  29.478  27.528  1.00  0.00     0.031 C 
ATOM     16  C   UNL A   1      36.712  30.745  31.793  1.00  0.00     0.029 A 
ATOM     17  N   UNL A   1      38.871  30.264  31.840  1.00  0.00    -0.354 N 
ATOM     18  C   UNL A   1      40.817  28.332  28.485  1.00  0.00     0.074 A 
ATOM     19  C   UNL A   1      40.187  28.749  27.273  1.00  0.00     0.031 C 
ATOM     20  C   UNL A   1      37.207  31.302  32.905  1.00  0.00     0.029 A 
ATOM     21  C   UNL A   1      38.615  30.953  33.009  1.00  0.00     0.049 A 
ATOM     22  H   UNL A   1      39.737  29.841  31.642  1.00  0.00     0.167 HD
ATOM     23  C   UNL A   1      41.840  27.444  28.563  1.00  0.00     0.034 A 
ATOM     24  C   UNL A   1      39.415  31.223  34.061  1.00  0.00     0.034 A 
ATOM     25  C   UNL A   1      42.537  27.231  29.805  1.00  0.00     0.049 A 
ATOM     26  C   UNL A   1      40.757  30.538  34.066  1.00  0.00     0.074 A 
ATOM     27  C   UNL A   1      43.558  26.353  30.116  1.00  0.00     0.029 A 
ATOM     28  N   UNL A   1      42.303  27.993  30.943  1.00  0.00    -0.354 N 
ATOM     29  N   UNL A   1      41.277  29.752  33.149  1.00  0.00    -0.248 NA
ATOM     30  C   UNL A   1      41.583  30.696  35.267  1.00  0.00     0.031 C 
ATOM     31  C   UNL A   1      43.932  26.582  31.449  1.00  0.00     0.029 A 
ATOM     32  C   UNL A   1      43.188  27.645  31.941  1.00  0.00     0.049 A 
ATOM     33  H   UNL A   1      41.606  28.683  31.025  1.00  0.00     0.167 HD
ATOM     34  C   UNL A   1      42.463  29.272  33.688  1.00  0.00     0.074 A 
ATOM     35  C   UNL A   1      42.623  29.928  34.973  1.00  0.00     0.031 C 
ATOM     36  C   UNL A   1      43.312  28.331  33.201  1.00  0.00     0.034 A 
BRANCH  23  37
ATOM     37  C   UNL A   1      42.090  26.545  27.361  1.00  0.00     0.023 A 
ATOM     38  C   UNL A   1      41.602  25.232  27.237  1.00  0.00     0.031 A 
ATOM     39  C   UNL A   1      42.988  26.988  26.365  1.00  0.00     0.131 A 
ATOM     40  C   UNL A   1      42.113  24.380  26.237  1.00  0.00     0.055 A 
ATOM     41  C   UNL A   1      43.398  26.175  25.305  1.00  0.00     0.041 A 
ATOM     42  F   UNL A   1      43.526  28.217  26.427  1.00  0.00    -0.206 F 
ATOM     43  C   UNL A   1      42.983  24.851  25.252  1.00  0.00     0.022 A 
BRANCH  40  44
ATOM     44  S   UNL A   1      41.772  22.597  26.345  1.00  0.00     0.124 S 
ATOM     45  O   UNL A   1      42.279  22.281  27.677  1.00  0.00    -0.237 OA
ATOM     46  O   UNL A   1      40.324  22.539  26.188  1.00  0.00    -0.237 OA
ATOM     47  O   UNL A   1      42.542  22.032  25.238  1.00  0.00    -0.744 OA
ENDBRANCH  40  44
ENDBRANCH  23  37
BRANCH  24  48
ATOM     48  C   UNL A   1      38.949  32.063  35.212  1.00  0.00     0.023 A 
ATOM     49  C   UNL A   1      38.388  31.478  36.362  1.00  0.00     0.031 A 
ATOM     50  C   UNL A   1      39.047  33.468  35.189  1.00  0.00     0.131 A 
ATOM     51  C   UNL A   1      37.942  32.289  37.423  1.00  0.00     0.055 A 
ATOM     52  C   UNL A   1      38.679  34.262  36.278  1.00  0.00     0.041 A 
ATOM     53  F   UNL A   1      39.531  34.101  34.108  1.00  0.00    -0.206 F 
ATOM     54  C   UNL A   1      38.114  33.675  37.400  1.00  0.00     0.022 A 
BRANCH  51  55
ATOM     55  S   UNL A   1      37.042  31.523  38.802  1.00  0.00     0.124 S 
ATOM     56  O   UNL A   1      35.826  32.327  38.847  1.00  0.00    -0.237 OA
ATOM     57  O   UNL A   1      36.886  30.148  38.337  1.00  0.00    -0.237 OA
ATOM     58  O   UNL A   1      37.946  31.695  39.937  1.00  0.00    -0.744 OA
ENDBRANCH  51  55
ENDBRANCH  24  48
BRANCH  36  59
ATOM     59  C   UNL A   1      44.491  27.989  34.057  1.00  0.00     0.023 A 
ATOM     60  C   UNL A   1      45.710  28.669  33.913  1.00  0.00     0.031 A 
ATOM     61  C   UNL A   1      44.388  26.977  35.024  1.00  0.00     0.131 A 
ATOM     62  C   UNL A   1      46.808  28.285  34.689  1.00  0.00     0.055 A 
ATOM     63  C   UNL A   1      45.472  26.634  35.829  1.00  0.00     0.041 A 
ATOM     64  F   UNL A   1      43.237  26.309  35.193  1.00  0.00    -0.206 F 
ATOM     65  C   UNL A   1      46.694  27.281  35.655  1.00  0.00     0.022 A 
BRANCH  62  66
ATOM     66  S   UNL A   1      48.412  29.058  34.355  1.00  0.00     0.124 S 
ATOM     67  O   UNL A   1      48.744  29.640  35.652  1.00  0.00    -0.237 OA
ATOM     68  O   UNL A   1      49.227  27.920  33.939  1.00  0.00    -0.237 OA
ATOM     69  O   UNL A   1      48.112  30.024  33.300  1.00  0.00    -0.744 OA
ENDBRANCH  62  66
ENDBRANCH  36  59
ENDBRANCH  10  11
ENDBRANCH   3   5
ENDBRANCH   2   3
ENDBRANCH   1   2
BRANCH   1  70
ATOM     70  C   UNL A   1      30.938  28.383  23.537  1.00  0.00     0.274 C 
BRANCH  70  71
ATOM     71  O   UNL A   1      30.171  27.253  23.934  1.00  0.00    -0.462 OA
BRANCH  71  72
ATOM     72  C   UNL A   1      30.823  26.078  24.095  1.00  0.00     0.314 C 
ATOM     73  O   UNL A   1      31.303  25.401  23.195  1.00  0.00    -0.252 OA
BRANCH  72  74
ATOM     74  C   UNL A   1      30.880  25.689  25.552  1.00  0.00     0.154 C 
ATOM     75  C   UNL A   1      32.060  26.257  26.279  1.00  0.00     0.027 C 
ATOM     76  C   UNL A   1      30.741  24.176  25.737  1.00  0.00     0.277 C 
ATOM     77  C   UNL A   1      33.297  25.508  25.854  1.00  0.00     0.062 C 
ATOM     78  N   UNL A   1      31.998  23.075  25.379  1.00  0.00    -0.330 N 
ATOM     79  C   UNL A   1      33.161  23.995  26.086  1.00  0.00     0.262 C 
ATOM     80  H   UNL A   1      32.164  22.654  24.465  1.00  0.00     0.348 HD
BRANCH  78  81
ATOM     81  C   UNL A   1      31.873  20.999  25.033  1.00  0.00     0.300 C 
BRANCH  81  82
ATOM     82  C   UNL A   1      32.938  19.768  24.235  1.00  0.00     0.025 A 
ATOM     83  C   UNL A   1      32.487  18.818  23.286  1.00  0.00     0.014 A 
ATOM     84  C   UNL A   1      34.266  19.612  24.663  1.00  0.00     0.052 A 
ATOM     85  C   UNL A   1      33.103  17.565  23.225  1.00  0.00     0.040 A 
ATOM     86  C   UNL A   1      34.868  18.350  24.655  1.00  0.00     0.060 A 
ATOM     87  Cl  UNL A   1      35.316  20.988  24.663  1.00  0.00    -0.084 Cl
ATOM     88  C   UNL A   1      34.229  17.311  23.998  1.00  0.00     0.124 A 
ATOM     89  F   UNL A   1      34.747  16.077  24.018  1.00  0.00    -0.207 F 
ENDBRANCH  81  82
ENDBRANCH  78  81
ENDBRANCH  72  74
ENDBRANCH  71  72
ENDBRANCH  70  71
ENDBRANCH   1  70
TORSDOF 16
ENDMDL
