MODEL 1
REMARK VINA RESULT:     -10.7      0.000      0.000
REMARK SMILES CCC(CC)(NC(=O)c1ccc(C)s1)C(=O)OCCOC(=O)c1ccc(-c2c3nc(c(-c4cc(S(=O)(=O)[O-])ccc4F)c4ccc([nH]4)c(-c4cc(S(=O)(=O)[O-])ccc4F)c4nc(c(-c5cc(S(=O)(=O)[O-])ccc5F)c5ccc2[nH]5)C=C4)C=C3)cc1
REMARK SMILES IDX 19 1 18 2 17 3 15 4 16 5 3 6 2 7 1 8 4 9 5 10 6 11 7 12 8 14
REMARK SMILES IDX 9 15 10 16 14 17 11 18 12 19 13 20 20 21 21 22 22 23 23 24
REMARK SMILES IDX 24 25 85 26 25 27 84 28 26 29 27 30 28 31 78 32 29 33 83 34
REMARK SMILES IDX 77 35 79 36 30 37 82 38 76 39 75 40 31 42 63 43 43 44 62 45
REMARK SMILES IDX 44 46 47 47 61 48 80 49 45 50 46 51 60 53 81 54 48 55 32 56
REMARK SMILES IDX 33 57 41 58 34 59 40 60 42 61 39 62 35 63 36 64 37 65 38 66
REMARK SMILES IDX 64 67 65 68 73 69 66 70 72 71 74 72 71 73 67 74 68 75 69 76
REMARK SMILES IDX 70 77 49 78 50 79 58 80 51 81 57 82 59 83 56 84 52 85 53 86
REMARK SMILES IDX 54 87 55 88
REMARK H PARENT 6 13 79 41 47 52
REMARK Flexibility Score: inf
ROOT
ATOM      1  C   UNL A   1      32.123  29.781  26.450  1.00  0.00     0.275 C 
ENDROOT
BRANCH   1   2
ATOM      2  C   UNL A   1      32.027  28.633  27.452  1.00  0.00     0.274 C 
BRANCH   2   3
ATOM      3  O   UNL A   1      32.657  27.452  26.912  1.00  0.00    -0.460 OA
BRANCH   3   4
ATOM      4  C   UNL A   1      31.808  26.437  26.595  1.00  0.00     0.331 C 
ATOM      5  O   UNL A   1      30.600  26.481  26.813  1.00  0.00    -0.249 OA
BRANCH   4   6
ATOM      6  C   UNL A   1      32.507  25.228  25.894  1.00  0.00     0.137 C 
BRANCH   6   7
ATOM      7  C   UNL A   1      32.454  24.001  26.868  1.00  0.00     0.037 C 
ATOM      8  C   UNL A   1      31.362  22.963  26.636  1.00  0.00     0.007 C 
ENDBRANCH   6   7
BRANCH   6   9
ATOM      9  C   UNL A   1      33.980  25.623  25.613  1.00  0.00     0.037 C 
ATOM     10  C   UNL A   1      34.941  24.468  25.358  1.00  0.00     0.007 C 
ENDBRANCH   6   9
BRANCH   6  11
ATOM     11  N   UNL A   1      31.838  24.738  24.651  1.00  0.00    -0.335 N 
ATOM     12  C   UNL A   1      31.450  25.276  23.451  1.00  0.00     0.262 C 
ATOM     13  H   UNL A   1      31.618  23.780  24.710  1.00  0.00     0.165 HD
ATOM     14  O   UNL A   1      31.154  24.455  22.579  1.00  0.00    -0.268 OA
BRANCH  12  15
ATOM     15  C   UNL A   1      31.318  26.703  23.246  1.00  0.00     0.092 A 
ATOM     16  C   UNL A   1      32.233  27.685  22.927  1.00  0.00     0.026 A 
ATOM     17  S   UNL A   1      29.725  27.355  23.304  1.00  0.00    -0.135 S 
ATOM     18  C   UNL A   1      31.639  28.979  22.825  1.00  0.00     0.016 A 
ATOM     19  C   UNL A   1      30.278  28.948  23.037  1.00  0.00     0.002 A 
ATOM     20  C   UNL A   1      29.308  30.079  23.027  1.00  0.00     0.056 C 
ENDBRANCH  12  15
ENDBRANCH   6  11
ENDBRANCH   4   6
ENDBRANCH   3   4
ENDBRANCH   2   3
ENDBRANCH   1   2
BRANCH   1  21
ATOM     21  O   UNL A   1      33.489  30.223  26.424  1.00  0.00    -0.458 OA
BRANCH  21  22
ATOM     22  C   UNL A   1      33.790  31.222  27.286  1.00  0.00     0.338 C 
ATOM     23  O   UNL A   1      33.094  32.155  27.633  1.00  0.00    -0.246 OA
BRANCH  22  24
ATOM     24  C   UNL A   1      35.080  30.877  27.892  1.00  0.00     0.060 A 
ATOM     25  C   UNL A   1      36.028  31.893  28.010  1.00  0.00     0.016 A 
ATOM     26  C   UNL A   1      35.369  29.585  28.314  1.00  0.00     0.016 A 
ATOM     27  C   UNL A   1      37.297  31.619  28.504  1.00  0.00     0.010 A 
ATOM     28  C   UNL A   1      36.615  29.332  28.897  1.00  0.00     0.010 A 
ATOM     29  C   UNL A   1      37.592  30.344  28.995  1.00  0.00    -0.014 A 
BRANCH  29  30
ATOM     30  C   UNL A   1      38.902  30.066  29.642  1.00  0.00     0.031 A 
ATOM     31  C   UNL A   1      39.843  29.072  29.021  1.00  0.00     0.074 A 
ATOM     32  C   UNL A   1      39.227  30.670  30.804  1.00  0.00     0.049 A 
ATOM     33  N   UNL A   1      40.876  28.471  29.549  1.00  0.00    -0.248 NA
ATOM     34  C   UNL A   1      39.575  28.698  27.624  1.00  0.00     0.031 C 
ATOM     35  C   UNL A   1      38.439  31.712  31.470  1.00  0.00     0.029 A 
ATOM     36  N   UNL A   1      40.296  30.481  31.648  1.00  0.00    -0.354 N 
ATOM     37  C   UNL A   1      41.350  27.604  28.571  1.00  0.00     0.074 A 
ATOM     38  C   UNL A   1      40.498  27.769  27.411  1.00  0.00     0.031 C 
ATOM     39  C   UNL A   1      39.046  32.064  32.613  1.00  0.00     0.029 A 
ATOM     40  C   UNL A   1      40.200  31.200  32.819  1.00  0.00     0.049 A 
ATOM     41  H   UNL A   1      41.055  29.891  31.435  1.00  0.00     0.167 HD
ATOM     42  C   UNL A   1      42.390  26.739  28.651  1.00  0.00     0.034 A 
ATOM     43  C   UNL A   1      40.903  31.114  33.966  1.00  0.00     0.034 A 
ATOM     44  C   UNL A   1      43.243  26.619  29.808  1.00  0.00     0.049 A 
ATOM     45  C   UNL A   1      41.997  30.081  34.061  1.00  0.00     0.074 A 
ATOM     46  C   UNL A   1      44.346  25.804  29.984  1.00  0.00     0.029 A 
ATOM     47  N   UNL A   1      43.083  27.333  30.989  1.00  0.00    -0.354 N 
ATOM     48  N   UNL A   1      42.409  29.230  33.150  1.00  0.00    -0.248 NA
ATOM     49  C   UNL A   1      42.703  29.979  35.345  1.00  0.00     0.031 C 
ATOM     50  C   UNL A   1      44.813  25.975  31.293  1.00  0.00     0.029 A 
ATOM     51  C   UNL A   1      44.041  26.946  31.911  1.00  0.00     0.049 A 
ATOM     52  H   UNL A   1      42.389  28.014  31.147  1.00  0.00     0.167 HD
ATOM     53  C   UNL A   1      43.428  28.496  33.751  1.00  0.00     0.074 A 
ATOM     54  C   UNL A   1      43.585  29.024  35.091  1.00  0.00     0.031 C 
ATOM     55  C   UNL A   1      44.164  27.474  33.248  1.00  0.00     0.034 A 
BRANCH  42  56
ATOM     56  C   UNL A   1      42.614  25.800  27.495  1.00  0.00     0.023 A 
ATOM     57  C   UNL A   1      42.057  24.512  27.449  1.00  0.00     0.031 A 
ATOM     58  C   UNL A   1      43.402  26.219  26.406  1.00  0.00     0.131 A 
ATOM     59  C   UNL A   1      42.326  23.674  26.355  1.00  0.00     0.055 A 
ATOM     60  C   UNL A   1      43.618  25.404  25.295  1.00  0.00     0.041 A 
ATOM     61  F   UNL A   1      43.977  27.433  26.409  1.00  0.00    -0.206 F 
ATOM     62  C   UNL A   1      43.086  24.120  25.268  1.00  0.00     0.022 A 
BRANCH  59  63
ATOM     63  S   UNL A   1      41.744  21.958  26.404  1.00  0.00     0.124 S 
ATOM     64  O   UNL A   1      42.492  21.360  25.301  1.00  0.00    -0.237 OA
ATOM     65  O   UNL A   1      42.133  21.530  27.743  1.00  0.00    -0.237 OA
ATOM     66  O   UNL A   1      40.305  22.075  26.182  1.00  0.00    -0.744 OA
ENDBRANCH  59  63
ENDBRANCH  42  56
BRANCH  43  67
ATOM     67  C   UNL A   1      40.523  31.931  35.157  1.00  0.00     0.023 A 
ATOM     68  C   UNL A   1      39.482  31.536  36.010  1.00  0.00     0.031 A 
ATOM     69  C   UNL A   1      41.156  33.161  35.420  1.00  0.00     0.131 A 
ATOM     70  C   UNL A   1      39.076  32.380  37.056  1.00  0.00     0.055 A 
ATOM     71  C   UNL A   1      40.792  33.966  36.500  1.00  0.00     0.041 A 
ATOM     72  F   UNL A   1      42.152  33.597  34.631  1.00  0.00    -0.206 F 
ATOM     73  C   UNL A   1      39.734  33.584  37.316  1.00  0.00     0.022 A 
BRANCH  70  74
ATOM     74  S   UNL A   1      37.595  31.935  38.004  1.00  0.00     0.124 S 
ATOM     75  O   UNL A   1      38.024  32.205  39.372  1.00  0.00    -0.237 OA
ATOM     76  O   UNL A   1      36.598  32.847  37.452  1.00  0.00    -0.237 OA
ATOM     77  O   UNL A   1      37.394  30.525  37.679  1.00  0.00    -0.744 OA
ENDBRANCH  70  74
ENDBRANCH  43  67
BRANCH  55  78
ATOM     78  C   UNL A   1      45.214  26.889  34.154  1.00  0.00     0.023 A 
ATOM     79  C   UNL A   1      44.963  25.737  34.916  1.00  0.00     0.031 A 
ATOM     80  C   UNL A   1      46.474  27.502  34.267  1.00  0.00     0.131 A 
ATOM     81  C   UNL A   1      45.942  25.258  35.798  1.00  0.00     0.055 A 
ATOM     82  C   UNL A   1      47.464  26.990  35.106  1.00  0.00     0.041 A 
ATOM     83  F   UNL A   1      46.761  28.608  33.561  1.00  0.00    -0.206 F 
ATOM     84  C   UNL A   1      47.197  25.868  35.885  1.00  0.00     0.022 A 
BRANCH  81  85
ATOM     85  S   UNL A   1      45.531  23.865  36.884  1.00  0.00     0.124 S 
ATOM     86  O   UNL A   1      44.888  24.537  38.008  1.00  0.00    -0.237 OA
ATOM     87  O   UNL A   1      44.657  23.056  36.040  1.00  0.00    -0.237 OA
ATOM     88  O   UNL A   1      46.831  23.265  37.180  1.00  0.00    -0.744 OA
ENDBRANCH  81  85
ENDBRANCH  55  78
ENDBRANCH  29  30
ENDBRANCH  22  24
ENDBRANCH  21  22
ENDBRANCH   1  21
TORSDOF 18
ENDMDL
MODEL 2
REMARK VINA RESULT:     -10.7      1.201      2.351
REMARK SMILES CCC(CC)(NC(=O)c1ccc(C)s1)C(=O)OCCOC(=O)c1ccc(-c2c3nc(c(-c4cc(S(=O)(=O)[O-])ccc4F)c4ccc([nH]4)c(-c4cc(S(=O)(=O)[O-])ccc4F)c4nc(c(-c5cc(S(=O)(=O)[O-])ccc5F)c5ccc2[nH]5)C=C4)C=C3)cc1
REMARK SMILES IDX 19 1 18 2 17 3 15 4 16 5 3 6 2 7 1 8 4 9 5 10 6 11 7 12 8 14
REMARK SMILES IDX 9 15 10 16 14 17 11 18 12 19 13 20 20 21 21 22 22 23 23 24
REMARK SMILES IDX 24 25 85 26 25 27 84 28 26 29 27 30 28 31 78 32 29 33 83 34
REMARK SMILES IDX 77 35 79 36 30 37 82 38 76 39 75 40 31 42 63 43 43 44 62 45
REMARK SMILES IDX 44 46 47 47 61 48 80 49 45 50 46 51 60 53 81 54 48 55 32 56
REMARK SMILES IDX 33 57 41 58 34 59 40 60 42 61 39 62 35 63 36 64 37 65 38 66
REMARK SMILES IDX 64 67 65 68 73 69 66 70 72 71 74 72 71 73 67 74 68 75 69 76
REMARK SMILES IDX 70 77 49 78 50 79 58 80 51 81 57 82 59 83 56 84 52 85 53 86
REMARK SMILES IDX 54 87 55 88
REMARK H PARENT 6 13 79 41 47 52
REMARK Flexibility Score: inf
ROOT
ATOM      1  C   UNL A   1      31.836  30.546  26.706  1.00  0.00     0.275 C 
ENDROOT
BRANCH   1   2
ATOM      2  C   UNL A   1      31.610  29.811  25.387  1.00  0.00     0.274 C 
BRANCH   2   3
ATOM      3  O   UNL A   1      32.644  28.823  25.188  1.00  0.00    -0.460 OA
BRANCH   3   4
ATOM      4  C   UNL A   1      32.775  28.372  23.912  1.00  0.00     0.331 C 
ATOM      5  O   UNL A   1      32.957  29.117  22.953  1.00  0.00    -0.249 OA
BRANCH   4   6
ATOM      6  C   UNL A   1      32.710  26.815  23.786  1.00  0.00     0.137 C 
BRANCH   6   7
ATOM      7  C   UNL A   1      31.226  26.367  24.023  1.00  0.00     0.037 C 
ATOM      8  C   UNL A   1      30.136  27.109  23.260  1.00  0.00     0.007 C 
ENDBRANCH   6   7
BRANCH   6   9
ATOM      9  C   UNL A   1      33.632  26.207  24.875  1.00  0.00     0.037 C 
ATOM     10  C   UNL A   1      32.933  25.403  25.964  1.00  0.00     0.007 C 
ENDBRANCH   6   9
BRANCH   6  11
ATOM     11  N   UNL A   1      33.045  26.271  22.435  1.00  0.00    -0.335 N 
ATOM     12  C   UNL A   1      33.237  25.032  21.881  1.00  0.00     0.262 C 
ATOM     13  H   UNL A   1      33.158  26.989  21.771  1.00  0.00     0.165 HD
ATOM     14  O   UNL A   1      33.247  25.004  20.647  1.00  0.00    -0.268 OA
BRANCH  12  15
ATOM     15  C   UNL A   1      33.491  23.853  22.682  1.00  0.00     0.092 A 
ATOM     16  C   UNL A   1      34.639  23.354  23.262  1.00  0.00     0.026 A 
ATOM     17  S   UNL A   1      32.129  22.891  23.110  1.00  0.00    -0.135 S 
ATOM     18  C   UNL A   1      34.412  22.138  23.975  1.00  0.00     0.016 A 
ATOM     19  C   UNL A   1      33.089  21.755  23.947  1.00  0.00     0.002 A 
ATOM     20  C   UNL A   1      32.454  20.553  24.557  1.00  0.00     0.056 C 
ENDBRANCH  12  15
ENDBRANCH   6  11
ENDBRANCH   4   6
ENDBRANCH   3   4
ENDBRANCH   2   3
ENDBRANCH   1   2
BRANCH   1  21
ATOM     21  O   UNL A   1      33.233  30.447  27.025  1.00  0.00    -0.458 OA
BRANCH  21  22
ATOM     22  C   UNL A   1      33.807  31.588  27.472  1.00  0.00     0.338 C 
ATOM     23  O   UNL A   1      33.326  32.702  27.529  1.00  0.00    -0.246 OA
BRANCH  22  24
ATOM     24  C   UNL A   1      35.092  31.205  28.066  1.00  0.00     0.060 A 
ATOM     25  C   UNL A   1      36.069  32.193  28.179  1.00  0.00     0.016 A 
ATOM     26  C   UNL A   1      35.347  29.904  28.482  1.00  0.00     0.016 A 
ATOM     27  C   UNL A   1      37.334  31.882  28.661  1.00  0.00     0.010 A 
ATOM     28  C   UNL A   1      36.591  29.613  29.054  1.00  0.00     0.010 A 
ATOM     29  C   UNL A   1      37.597  30.597  29.147  1.00  0.00    -0.014 A 
BRANCH  29  30
ATOM     30  C   UNL A   1      38.904  30.280  29.781  1.00  0.00     0.031 A 
ATOM     31  C   UNL A   1      39.823  29.283  29.134  1.00  0.00     0.074 A 
ATOM     32  C   UNL A   1      39.244  30.852  30.956  1.00  0.00     0.049 A 
ATOM     33  N   UNL A   1      40.847  28.652  29.644  1.00  0.00    -0.248 NA
ATOM     34  C   UNL A   1      39.544  28.946  27.730  1.00  0.00     0.031 C 
ATOM     35  C   UNL A   1      38.478  31.892  31.649  1.00  0.00     0.029 A 
ATOM     36  N   UNL A   1      40.312  30.623  31.791  1.00  0.00    -0.354 N 
ATOM     37  C   UNL A   1      41.301  27.798  28.644  1.00  0.00     0.074 A 
ATOM     38  C   UNL A   1      40.449  28.006  27.492  1.00  0.00     0.031 C 
ATOM     39  C   UNL A   1      39.095  32.207  32.797  1.00  0.00     0.029 A 
ATOM     40  C   UNL A   1      40.233  31.316  32.979  1.00  0.00     0.049 A 
ATOM     41  H   UNL A   1      41.059  30.024  31.562  1.00  0.00     0.167 HD
ATOM     42  C   UNL A   1      42.325  26.912  28.701  1.00  0.00     0.034 A 
ATOM     43  C   UNL A   1      40.940  31.191  34.120  1.00  0.00     0.034 A 
ATOM     44  C   UNL A   1      43.180  26.750  29.851  1.00  0.00     0.049 A 
ATOM     45  C   UNL A   1      42.014  30.137  34.188  1.00  0.00     0.074 A 
ATOM     46  C   UNL A   1      44.269  25.911  30.004  1.00  0.00     0.029 A 
ATOM     47  N   UNL A   1      43.038  27.440  31.049  1.00  0.00    -0.354 N 
ATOM     48  N   UNL A   1      42.407  29.299  33.255  1.00  0.00    -0.248 NA
ATOM     49  C   UNL A   1      42.723  29.992  35.466  1.00  0.00     0.031 C 
ATOM     50  C   UNL A   1      44.743  26.044  31.315  1.00  0.00     0.029 A 
ATOM     51  C   UNL A   1      43.992  27.014  31.958  1.00  0.00     0.049 A 
ATOM     52  H   UNL A   1      42.357  28.130  31.226  1.00  0.00     0.167 HD
ATOM     53  C   UNL A   1      43.414  28.533  33.835  1.00  0.00     0.074 A 
ATOM     54  C   UNL A   1      43.585  29.027  35.186  1.00  0.00     0.031 C 
ATOM     55  C   UNL A   1      44.129  27.509  33.307  1.00  0.00     0.034 A 
BRANCH  42  56
ATOM     56  C   UNL A   1      42.528  25.997  27.522  1.00  0.00     0.023 A 
ATOM     57  C   UNL A   1      42.017  24.689  27.486  1.00  0.00     0.031 A 
ATOM     58  C   UNL A   1      43.246  26.458  26.402  1.00  0.00     0.131 A 
ATOM     59  C   UNL A   1      42.264  23.875  26.369  1.00  0.00     0.055 A 
ATOM     60  C   UNL A   1      43.438  25.665  25.271  1.00  0.00     0.041 A 
ATOM     61  F   UNL A   1      43.774  27.693  26.394  1.00  0.00    -0.206 F 
ATOM     62  C   UNL A   1      42.953  24.362  25.253  1.00  0.00     0.022 A 
BRANCH  59  63
ATOM     63  S   UNL A   1      41.750  22.137  26.423  1.00  0.00     0.124 S 
ATOM     64  O   UNL A   1      40.317  22.244  26.159  1.00  0.00    -0.237 OA
ATOM     65  O   UNL A   1      42.550  21.537  25.361  1.00  0.00    -0.237 OA
ATOM     66  O   UNL A   1      42.099  21.717  27.778  1.00  0.00    -0.744 OA
ENDBRANCH  59  63
ENDBRANCH  42  56
BRANCH  43  67
ATOM     67  C   UNL A   1      40.579  31.988  35.331  1.00  0.00     0.023 A 
ATOM     68  C   UNL A   1      39.526  31.599  36.172  1.00  0.00     0.031 A 
ATOM     69  C   UNL A   1      41.245  33.193  35.627  1.00  0.00     0.131 A 
ATOM     70  C   UNL A   1      39.140  32.427  37.239  1.00  0.00     0.055 A 
ATOM     71  C   UNL A   1      40.900  33.980  36.726  1.00  0.00     0.041 A 
ATOM     72  F   UNL A   1      42.254  33.622  34.851  1.00  0.00    -0.206 F 
ATOM     73  C   UNL A   1      39.830  33.606  37.531  1.00  0.00     0.022 A 
BRANCH  70  74
ATOM     74  S   UNL A   1      37.645  31.999  38.173  1.00  0.00     0.124 S 
ATOM     75  O   UNL A   1      36.721  33.046  37.755  1.00  0.00    -0.237 OA
ATOM     76  O   UNL A   1      37.358  30.655  37.682  1.00  0.00    -0.237 OA
ATOM     77  O   UNL A   1      38.083  32.071  39.566  1.00  0.00    -0.744 OA
ENDBRANCH  70  74
ENDBRANCH  43  67
BRANCH  55  78
ATOM     78  C   UNL A   1      45.172  26.884  34.194  1.00  0.00     0.023 A 
ATOM     79  C   UNL A   1      44.885  25.750  34.972  1.00  0.00     0.031 A 
ATOM     80  C   UNL A   1      46.460  27.440  34.274  1.00  0.00     0.131 A 
ATOM     81  C   UNL A   1      45.861  25.234  35.836  1.00  0.00     0.055 A 
ATOM     82  C   UNL A   1      47.444  26.890  35.096  1.00  0.00     0.041 A 
ATOM     83  F   UNL A   1      46.782  28.526  33.553  1.00  0.00    -0.206 F 
ATOM     84  C   UNL A   1      47.144  25.787  35.891  1.00  0.00     0.022 A 
BRANCH  81  85
ATOM     85  S   UNL A   1      45.411  23.870  36.943  1.00  0.00     0.124 S 
ATOM     86  O   UNL A   1      46.715  23.431  37.428  1.00  0.00    -0.237 OA
ATOM     87  O   UNL A   1      44.554  24.529  37.923  1.00  0.00    -0.237 OA
ATOM     88  O   UNL A   1      44.727  22.925  36.061  1.00  0.00    -0.744 OA
ENDBRANCH  81  85
ENDBRANCH  55  78
ENDBRANCH  29  30
ENDBRANCH  22  24
ENDBRANCH  21  22
ENDBRANCH   1  21
TORSDOF 18
ENDMDL
MODEL 3
REMARK VINA RESULT:     -10.6      5.052      9.744
REMARK SMILES CCC(CC)(NC(=O)c1ccc(C)s1)C(=O)OCCOC(=O)c1ccc(-c2c3nc(c(-c4cc(S(=O)(=O)[O-])ccc4F)c4ccc([nH]4)c(-c4cc(S(=O)(=O)[O-])ccc4F)c4nc(c(-c5cc(S(=O)(=O)[O-])ccc5F)c5ccc2[nH]5)C=C4)C=C3)cc1
REMARK SMILES IDX 19 1 18 2 17 3 15 4 16 5 3 6 2 7 1 8 4 9 5 10 6 11 7 12 8 14
REMARK SMILES IDX 9 15 10 16 14 17 11 18 12 19 13 20 20 21 21 22 22 23 23 24
REMARK SMILES IDX 24 25 85 26 25 27 84 28 26 29 27 30 28 31 78 32 29 33 83 34
REMARK SMILES IDX 77 35 79 36 30 37 82 38 76 39 75 40 31 42 63 43 43 44 62 45
REMARK SMILES IDX 44 46 47 47 61 48 80 49 45 50 46 51 60 53 81 54 48 55 32 56
REMARK SMILES IDX 33 57 41 58 34 59 40 60 42 61 39 62 35 63 36 64 37 65 38 66
REMARK SMILES IDX 64 67 65 68 73 69 66 70 72 71 74 72 71 73 67 74 68 75 69 76
REMARK SMILES IDX 70 77 49 78 50 79 58 80 51 81 57 82 59 83 56 84 52 85 53 86
REMARK SMILES IDX 54 87 55 88
REMARK H PARENT 6 13 79 41 47 52
REMARK Flexibility Score: inf
ROOT
ATOM      1  C   UNL A   1      35.872  21.236  25.464  1.00  0.00     0.275 C 
ENDROOT
BRANCH   1   2
ATOM      2  C   UNL A   1      34.895  22.386  25.696  1.00  0.00     0.274 C 
BRANCH   2   3
ATOM      3  O   UNL A   1      33.872  22.380  24.677  1.00  0.00    -0.460 OA
BRANCH   3   4
ATOM      4  C   UNL A   1      33.972  23.372  23.752  1.00  0.00     0.331 C 
ATOM      5  O   UNL A   1      34.711  23.304  22.774  1.00  0.00    -0.249 OA
BRANCH   4   6
ATOM      6  C   UNL A   1      33.029  24.587  24.029  1.00  0.00     0.137 C 
BRANCH   6   7
ATOM      7  C   UNL A   1      31.879  24.567  22.964  1.00  0.00     0.037 C 
ATOM      8  C   UNL A   1      30.653  23.714  23.265  1.00  0.00     0.007 C 
ENDBRANCH   6   7
BRANCH   6   9
ATOM      9  C   UNL A   1      33.867  25.885  23.887  1.00  0.00     0.037 C 
ATOM     10  C   UNL A   1      33.576  26.731  22.653  1.00  0.00     0.007 C 
ENDBRANCH   6   9
BRANCH   6  11
ATOM     11  N   UNL A   1      32.314  24.552  25.340  1.00  0.00    -0.335 N 
ATOM     12  C   UNL A   1      31.518  25.403  26.063  1.00  0.00     0.262 C 
ATOM     13  H   UNL A   1      32.449  23.695  25.806  1.00  0.00     0.165 HD
ATOM     14  O   UNL A   1      30.909  24.883  27.001  1.00  0.00    -0.268 OA
BRANCH  12  15
ATOM     15  C   UNL A   1      31.460  26.825  25.799  1.00  0.00     0.092 A 
ATOM     16  C   UNL A   1      30.820  27.564  24.824  1.00  0.00     0.026 A 
ATOM     17  S   UNL A   1      32.240  27.862  26.930  1.00  0.00    -0.135 S 
ATOM     18  C   UNL A   1      31.050  28.967  24.956  1.00  0.00     0.016 A 
ATOM     19  C   UNL A   1      31.835  29.267  26.048  1.00  0.00     0.002 A 
ATOM     20  C   UNL A   1      32.304  30.600  26.520  1.00  0.00     0.056 C 
ENDBRANCH  12  15
ENDBRANCH   6  11
ENDBRANCH   4   6
ENDBRANCH   3   4
ENDBRANCH   2   3
ENDBRANCH   1   2
BRANCH   1  21
ATOM     21  O   UNL A   1      37.112  21.803  25.015  1.00  0.00    -0.458 OA
BRANCH  21  22
ATOM     22  C   UNL A   1      38.224  21.301  25.601  1.00  0.00     0.338 C 
ATOM     23  O   UNL A   1      38.644  20.162  25.570  1.00  0.00    -0.246 OA
BRANCH  22  24
ATOM     24  C   UNL A   1      38.960  22.444  26.150  1.00  0.00     0.060 A 
ATOM     25  C   UNL A   1      40.100  22.173  26.904  1.00  0.00     0.016 A 
ATOM     26  C   UNL A   1      38.534  23.752  25.955  1.00  0.00     0.016 A 
ATOM     27  C   UNL A   1      40.802  23.203  27.518  1.00  0.00     0.010 A 
ATOM     28  C   UNL A   1      39.294  24.794  26.496  1.00  0.00     0.010 A 
ATOM     29  C   UNL A   1      40.433  24.531  27.284  1.00  0.00    -0.014 A 
BRANCH  29  30
ATOM     30  C   UNL A   1      41.246  25.651  27.830  1.00  0.00     0.031 A 
ATOM     31  C   UNL A   1      40.584  26.718  28.655  1.00  0.00     0.074 A 
ATOM     32  C   UNL A   1      42.563  25.731  27.549  1.00  0.00     0.049 A 
ATOM     33  N   UNL A   1      41.024  27.905  28.975  1.00  0.00    -0.248 NA
ATOM     34  C   UNL A   1      39.245  26.408  29.178  1.00  0.00     0.031 C 
ATOM     35  C   UNL A   1      43.342  24.721  26.827  1.00  0.00     0.029 A 
ATOM     36  N   UNL A   1      43.481  26.719  27.818  1.00  0.00    -0.354 N 
ATOM     37  C   UNL A   1      39.995  28.511  29.688  1.00  0.00     0.074 A 
ATOM     38  C   UNL A   1      38.914  27.551  29.766  1.00  0.00     0.031 C 
ATOM     39  C   UNL A   1      44.610  25.141  26.707  1.00  0.00     0.029 A 
ATOM     40  C   UNL A   1      44.711  26.493  27.240  1.00  0.00     0.049 A 
ATOM     41  H   UNL A   1      43.278  27.510  28.368  1.00  0.00     0.167 HD
ATOM     42  C   UNL A   1      39.959  29.761  30.209  1.00  0.00     0.034 A 
ATOM     43  C   UNL A   1      45.772  27.309  27.078  1.00  0.00     0.034 A 
ATOM     44  C   UNL A   1      41.065  30.686  30.145  1.00  0.00     0.049 A 
ATOM     45  C   UNL A   1      45.673  28.724  27.586  1.00  0.00     0.074 A 
ATOM     46  C   UNL A   1      41.152  31.962  30.671  1.00  0.00     0.029 A 
ATOM     47  N   UNL A   1      42.275  30.433  29.512  1.00  0.00    -0.354 N 
ATOM     48  N   UNL A   1      44.679  29.306  28.217  1.00  0.00    -0.248 NA
ATOM     49  C   UNL A   1      46.827  29.599  27.341  1.00  0.00     0.031 C 
ATOM     50  C   UNL A   1      42.388  32.506  30.299  1.00  0.00     0.029 A 
ATOM     51  C   UNL A   1      43.097  31.544  29.598  1.00  0.00     0.049 A 
ATOM     52  H   UNL A   1      42.514  29.587  29.067  1.00  0.00     0.167 HD
ATOM     53  C   UNL A   1      45.092  30.615  28.448  1.00  0.00     0.074 A 
ATOM     54  C   UNL A   1      46.434  30.727  27.914  1.00  0.00     0.031 C 
ATOM     55  C   UNL A   1      44.425  31.637  29.040  1.00  0.00     0.034 A 
BRANCH  42  56
ATOM     56  C   UNL A   1      38.665  30.233  30.818  1.00  0.00     0.023 A 
ATOM     57  C   UNL A   1      37.699  30.939  30.084  1.00  0.00     0.031 A 
ATOM     58  C   UNL A   1      38.394  29.952  32.171  1.00  0.00     0.131 A 
ATOM     59  C   UNL A   1      36.524  31.375  30.717  1.00  0.00     0.055 A 
ATOM     60  C   UNL A   1      37.200  30.338  32.779  1.00  0.00     0.041 A 
ATOM     61  F   UNL A   1      39.294  29.299  32.924  1.00  0.00    -0.206 F 
ATOM     62  C   UNL A   1      36.259  31.061  32.054  1.00  0.00     0.022 A 
BRANCH  59  63
ATOM     63  S   UNL A   1      35.378  32.438  29.797  1.00  0.00     0.124 S 
ATOM     64  O   UNL A   1      34.998  31.570  28.685  1.00  0.00    -0.237 OA
ATOM     65  O   UNL A   1      34.336  32.706  30.781  1.00  0.00    -0.237 OA
ATOM     66  O   UNL A   1      36.197  33.590  29.429  1.00  0.00    -0.744 OA
ENDBRANCH  59  63
ENDBRANCH  42  56
BRANCH  43  67
ATOM     67  C   UNL A   1      46.964  26.863  26.297  1.00  0.00     0.023 A 
ATOM     68  C   UNL A   1      48.056  26.244  26.924  1.00  0.00     0.031 A 
ATOM     69  C   UNL A   1      47.056  27.112  24.914  1.00  0.00     0.131 A 
ATOM     70  C   UNL A   1      49.208  25.937  26.181  1.00  0.00     0.055 A 
ATOM     71  C   UNL A   1      48.177  26.746  24.168  1.00  0.00     0.041 A 
ATOM     72  F   UNL A   1      46.046  27.711  24.262  1.00  0.00    -0.206 F 
ATOM     73  C   UNL A   1      49.268  26.168  24.805  1.00  0.00     0.022 A 
BRANCH  70  74
ATOM     74  S   UNL A   1      50.674  25.333  27.063  1.00  0.00     0.124 S 
ATOM     75  O   UNL A   1      50.114  24.257  27.871  1.00  0.00    -0.237 OA
ATOM     76  O   UNL A   1      51.541  24.926  25.962  1.00  0.00    -0.237 OA
ATOM     77  O   UNL A   1      51.127  26.505  27.810  1.00  0.00    -0.744 OA
ENDBRANCH  70  74
ENDBRANCH  43  67
BRANCH  55  78
ATOM     78  C   UNL A   1      45.158  32.946  29.154  1.00  0.00     0.023 A 
ATOM     79  C   UNL A   1      45.069  33.924  28.150  1.00  0.00     0.031 A 
ATOM     80  C   UNL A   1      45.968  33.210  30.272  1.00  0.00     0.131 A 
ATOM     81  C   UNL A   1      45.817  35.105  28.260  1.00  0.00     0.055 A 
ATOM     82  C   UNL A   1      46.668  34.410  30.401  1.00  0.00     0.041 A 
ATOM     83  F   UNL A   1      46.089  32.305  31.257  1.00  0.00    -0.206 F 
ATOM     84  C   UNL A   1      46.603  35.360  29.387  1.00  0.00     0.022 A 
BRANCH  81  85
ATOM     85  S   UNL A   1      45.805  36.275  26.875  1.00  0.00     0.124 S 
ATOM     86  O   UNL A   1      46.880  37.190  27.242  1.00  0.00    -0.237 OA
ATOM     87  O   UNL A   1      46.066  35.410  25.729  1.00  0.00    -0.237 OA
ATOM     88  O   UNL A   1      44.460  36.848  26.922  1.00  0.00    -0.744 OA
ENDBRANCH  81  85
ENDBRANCH  55  78
ENDBRANCH  29  30
ENDBRANCH  22  24
ENDBRANCH  21  22
ENDBRANCH   1  21
TORSDOF 18
ENDMDL
