MODEL 1
REMARK VINA RESULT:     -12.7      0.000      0.000
REMARK SMILES O=C(OCCOC(=O)c1nnn(-c2ccc(C(F)(F)F)cc2)c1-c1cccc(Cl)c1)c1ccc(-c2c3nc(c(-c4cc(S(=O)(=O)[O-])ccc4F)c4ccc([nH]4)c(-c4cc(S(=O)(=O)[O-])ccc4F)c4nc(c(-c5cc(S(=O)(=O)[O-])ccc5F)c5ccc2[nH]5)C=C4)C=C3)cc1
REMARK SMILES IDX 4 1 3 2 2 3 1 4 31 5 32 6 93 7 33 8 92 9 34 10 35 11 36 12
REMARK SMILES IDX 86 13 37 14 91 15 85 16 87 17 38 18 90 19 84 20 83 21 39 23
REMARK SMILES IDX 71 24 51 25 70 26 52 27 55 28 69 29 88 30 53 31 54 32 68 34
REMARK SMILES IDX 89 35 56 36 40 37 41 38 49 39 42 40 48 41 50 42 47 43 43 44
REMARK SMILES IDX 44 45 45 46 46 47 72 48 73 49 81 50 74 51 80 52 82 53 79 54
REMARK SMILES IDX 75 55 76 56 77 57 78 58 57 59 58 60 66 61 59 62 65 63 67 64
REMARK SMILES IDX 64 65 60 66 61 67 62 68 63 69 5 70 6 71 7 72 8 73 9 74 10 75
REMARK SMILES IDX 23 76 11 77 12 78 24 79 25 80 30 81 26 82 28 83 27 84 29 85
REMARK SMILES IDX 13 86 14 87 22 88 15 89 21 90 16 91 17 92 18 93 19 94 20 95
REMARK H PARENT 87 22 55 33
REMARK Flexibility Score: inf
ROOT
ATOM      1  C   UNL A   1      33.911  29.316  27.319  1.00  0.00     0.275 C 
ENDROOT
BRANCH   1   2
ATOM      2  O   UNL A   1      35.302  28.945  27.405  1.00  0.00    -0.458 OA
BRANCH   2   3
ATOM      3  C   UNL A   1      36.117  29.685  28.192  1.00  0.00     0.338 C 
ATOM      4  O   UNL A   1      35.748  30.619  28.883  1.00  0.00    -0.246 OA
BRANCH   3   5
ATOM      5  C   UNL A   1      37.505  29.172  28.151  1.00  0.00     0.060 A 
ATOM      6  C   UNL A   1      37.956  28.233  29.089  1.00  0.00     0.016 A 
ATOM      7  C   UNL A   1      38.360  29.626  27.140  1.00  0.00     0.016 A 
ATOM      8  C   UNL A   1      39.269  27.793  29.050  1.00  0.00     0.010 A 
ATOM      9  C   UNL A   1      39.682  29.191  27.108  1.00  0.00     0.010 A 
ATOM     10  C   UNL A   1      40.138  28.293  28.078  1.00  0.00    -0.014 A 
BRANCH  10  11
ATOM     11  C   UNL A   1      41.510  27.795  28.096  1.00  0.00     0.031 A 
ATOM     12  C   UNL A   1      41.755  26.489  27.428  1.00  0.00     0.074 A 
ATOM     13  C   UNL A   1      42.543  28.506  28.586  1.00  0.00     0.049 A 
ATOM     14  N   UNL A   1      42.270  25.415  27.933  1.00  0.00    -0.248 NA
ATOM     15  C   UNL A   1      41.325  26.344  26.031  1.00  0.00     0.031 C 
ATOM     16  C   UNL A   1      42.522  29.903  29.017  1.00  0.00     0.029 A 
ATOM     17  N   UNL A   1      43.860  28.157  28.692  1.00  0.00    -0.354 N 
ATOM     18  C   UNL A   1      42.440  24.531  26.871  1.00  0.00     0.074 A 
ATOM     19  C   UNL A   1      41.718  25.099  25.763  1.00  0.00     0.031 C 
ATOM     20  C   UNL A   1      43.792  30.349  29.121  1.00  0.00     0.029 A 
ATOM     21  C   UNL A   1      44.706  29.243  28.878  1.00  0.00     0.049 A 
ATOM     22  H   UNL A   1      44.179  27.227  28.640  1.00  0.00     0.167 HD
ATOM     23  C   UNL A   1      43.333  23.504  26.931  1.00  0.00     0.034 A 
ATOM     24  C   UNL A   1      46.057  29.266  28.762  1.00  0.00     0.034 A 
ATOM     25  C   UNL A   1      43.653  23.157  28.298  1.00  0.00     0.049 A 
ATOM     26  C   UNL A   1      46.559  27.885  28.948  1.00  0.00     0.074 A 
ATOM     27  C   UNL A   1      42.905  22.808  29.409  1.00  0.00     0.029 A 
ATOM     28  N   UNL A   1      44.911  23.428  28.786  1.00  0.00    -0.354 N 
ATOM     29  N   UNL A   1      46.499  27.236  30.077  1.00  0.00    -0.248 NA
ATOM     30  C   UNL A   1      46.794  27.058  27.774  1.00  0.00     0.031 C 
ATOM     31  C   UNL A   1      43.596  23.375  30.520  1.00  0.00     0.029 A 
ATOM     32  C   UNL A   1      44.744  23.993  30.026  1.00  0.00     0.049 A 
ATOM     33  H   UNL A   1      45.767  23.252  28.333  1.00  0.00     0.167 HD
ATOM     34  C   UNL A   1      46.265  25.917  29.722  1.00  0.00     0.074 A 
ATOM     35  C   UNL A   1      46.591  25.849  28.302  1.00  0.00     0.031 C 
ATOM     36  C   UNL A   1      45.559  25.079  30.537  1.00  0.00     0.034 A 
BRANCH  23  37
ATOM     37  C   UNL A   1      44.179  23.036  25.759  1.00  0.00     0.023 A 
ATOM     38  C   UNL A   1      44.261  21.647  25.535  1.00  0.00     0.031 A 
ATOM     39  C   UNL A   1      45.132  23.818  25.067  1.00  0.00     0.131 A 
ATOM     40  C   UNL A   1      45.317  21.091  24.794  1.00  0.00     0.055 A 
ATOM     41  C   UNL A   1      46.132  23.264  24.259  1.00  0.00     0.041 A 
ATOM     42  F   UNL A   1      45.210  25.147  25.197  1.00  0.00    -0.206 F 
ATOM     43  C   UNL A   1      46.256  21.891  24.153  1.00  0.00     0.022 A 
BRANCH  40  44
ATOM     44  S   UNL A   1      45.567  19.298  24.883  1.00  0.00     0.124 S 
ATOM     45  O   UNL A   1      46.864  19.222  25.548  1.00  0.00    -0.237 OA
ATOM     46  O   UNL A   1      44.412  18.875  25.669  1.00  0.00    -0.237 OA
ATOM     47  O   UNL A   1      45.556  18.885  23.482  1.00  0.00    -0.744 OA
ENDBRANCH  40  44
ENDBRANCH  23  37
BRANCH  24  48
ATOM     48  C   UNL A   1      46.890  30.393  28.269  1.00  0.00     0.023 A 
ATOM     49  C   UNL A   1      46.374  31.411  27.446  1.00  0.00     0.031 A 
ATOM     50  C   UNL A   1      48.190  30.596  28.788  1.00  0.00     0.131 A 
ATOM     51  C   UNL A   1      47.151  32.555  27.158  1.00  0.00     0.055 A 
ATOM     52  C   UNL A   1      48.965  31.715  28.481  1.00  0.00     0.041 A 
ATOM     53  F   UNL A   1      48.724  29.751  29.686  1.00  0.00    -0.206 F 
ATOM     54  C   UNL A   1      48.444  32.704  27.666  1.00  0.00     0.022 A 
BRANCH  51  55
ATOM     55  S   UNL A   1      46.437  33.933  26.208  1.00  0.00     0.124 S 
ATOM     56  O   UNL A   1      45.952  34.817  27.260  1.00  0.00    -0.237 OA
ATOM     57  O   UNL A   1      47.579  34.409  25.435  1.00  0.00    -0.237 OA
ATOM     58  O   UNL A   1      45.391  33.289  25.413  1.00  0.00    -0.744 OA
ENDBRANCH  51  55
ENDBRANCH  24  48
BRANCH  36  59
ATOM     59  C   UNL A   1      45.377  25.450  31.993  1.00  0.00     0.023 A 
ATOM     60  C   UNL A   1      46.271  25.098  33.028  1.00  0.00     0.031 A 
ATOM     61  C   UNL A   1      44.303  26.298  32.323  1.00  0.00     0.131 A 
ATOM     62  C   UNL A   1      46.060  25.574  34.335  1.00  0.00     0.055 A 
ATOM     63  C   UNL A   1      44.106  26.782  33.616  1.00  0.00     0.041 A 
ATOM     64  F   UNL A   1      43.435  26.700  31.378  1.00  0.00    -0.206 F 
ATOM     65  C   UNL A   1      44.981  26.414  34.630  1.00  0.00     0.022 A 
BRANCH  62  66
ATOM     66  S   UNL A   1      47.182  25.093  35.686  1.00  0.00     0.124 S 
ATOM     67  O   UNL A   1      46.871  23.687  35.910  1.00  0.00    -0.237 OA
ATOM     68  O   UNL A   1      48.496  25.377  35.114  1.00  0.00    -0.237 OA
ATOM     69  O   UNL A   1      46.793  25.985  36.781  1.00  0.00    -0.744 OA
ENDBRANCH  62  66
ENDBRANCH  36  59
ENDBRANCH  10  11
ENDBRANCH   3   5
ENDBRANCH   2   3
ENDBRANCH   1   2
BRANCH   1  70
ATOM     70  C   UNL A   1      32.943  28.261  26.793  1.00  0.00     0.275 C 
BRANCH  70  71
ATOM     71  O   UNL A   1      33.682  27.135  26.291  1.00  0.00    -0.457 OA
BRANCH  71  72
ATOM     72  C   UNL A   1      33.647  26.961  24.936  1.00  0.00     0.361 C 
ATOM     73  O   UNL A   1      34.039  27.776  24.111  1.00  0.00    -0.244 OA
BRANCH  72  74
ATOM     74  C   UNL A   1      32.848  25.815  24.570  1.00  0.00     0.198 A 
ATOM     75  N   UNL A   1      31.500  25.811  24.313  1.00  0.00    -0.122 NA
ATOM     76  C   UNL A   1      33.353  24.541  24.406  1.00  0.00     0.109 A 
ATOM     77  N   UNL A   1      31.143  24.562  24.017  1.00  0.00    -0.061 NA
ATOM     78  N   UNL A   1      32.218  23.773  24.226  1.00  0.00    -0.212 N 
BRANCH  76  79
ATOM     79  C   UNL A   1      34.729  24.057  24.353  1.00  0.00     0.004 A 
ATOM     80  C   UNL A   1      35.188  23.385  23.209  1.00  0.00     0.010 A 
ATOM     81  C   UNL A   1      35.604  24.267  25.422  1.00  0.00     0.031 A 
ATOM     82  C   UNL A   1      36.497  22.909  23.143  1.00  0.00     0.002 A 
ATOM     83  C   UNL A   1      36.914  23.794  25.348  1.00  0.00     0.041 A 
ATOM     84  C   UNL A   1      37.361  23.113  24.217  1.00  0.00     0.020 A 
ATOM     85  Cl  UNL A   1      37.985  24.048  26.669  1.00  0.00    -0.084 Cl
ENDBRANCH  76  79
BRANCH  78  86
ATOM     86  C   UNL A   1      32.153  22.367  24.304  1.00  0.00     0.067 A 
ATOM     87  C   UNL A   1      32.106  21.597  23.143  1.00  0.00     0.029 A 
ATOM     88  C   UNL A   1      32.313  21.767  25.561  1.00  0.00     0.029 A 
ATOM     89  C   UNL A   1      32.353  20.222  23.245  1.00  0.00     0.015 A 
ATOM     90  C   UNL A   1      32.524  20.397  25.657  1.00  0.00     0.015 A 
ATOM     91  C   UNL A   1      32.594  19.617  24.496  1.00  0.00     0.056 A 
BRANCH  91  92
ATOM     92  C   UNL A   1      32.982  18.162  24.588  1.00  0.00     0.416 C 
ATOM     93  F   UNL A   1      34.198  17.897  24.041  1.00  0.00    -0.166 F 
ATOM     94  F   UNL A   1      33.042  17.724  25.877  1.00  0.00    -0.166 F 
ATOM     95  F   UNL A   1      32.103  17.328  23.961  1.00  0.00    -0.166 F 
ENDBRANCH  91  92
ENDBRANCH  78  86
ENDBRANCH  72  74
ENDBRANCH  71  72
ENDBRANCH  70  71
ENDBRANCH   1  70
TORSDOF 17
ENDMDL
MODEL 2
REMARK VINA RESULT:     -12.5      2.193      6.817
REMARK SMILES O=C(OCCOC(=O)c1nnn(-c2ccc(C(F)(F)F)cc2)c1-c1cccc(Cl)c1)c1ccc(-c2c3nc(c(-c4cc(S(=O)(=O)[O-])ccc4F)c4ccc([nH]4)c(-c4cc(S(=O)(=O)[O-])ccc4F)c4nc(c(-c5cc(S(=O)(=O)[O-])ccc5F)c5ccc2[nH]5)C=C4)C=C3)cc1
REMARK SMILES IDX 4 1 3 2 2 3 1 4 31 5 32 6 93 7 33 8 92 9 34 10 35 11 36 12
REMARK SMILES IDX 86 13 37 14 91 15 85 16 87 17 38 18 90 19 84 20 83 21 39 23
REMARK SMILES IDX 71 24 51 25 70 26 52 27 55 28 69 29 88 30 53 31 54 32 68 34
REMARK SMILES IDX 89 35 56 36 40 37 41 38 49 39 42 40 48 41 50 42 47 43 43 44
REMARK SMILES IDX 44 45 45 46 46 47 72 48 73 49 81 50 74 51 80 52 82 53 79 54
REMARK SMILES IDX 75 55 76 56 77 57 78 58 57 59 58 60 66 61 59 62 65 63 67 64
REMARK SMILES IDX 64 65 60 66 61 67 62 68 63 69 5 70 6 71 7 72 8 73 9 74 10 75
REMARK SMILES IDX 23 76 11 77 12 78 24 79 25 80 30 81 26 82 28 83 27 84 29 85
REMARK SMILES IDX 13 86 14 87 22 88 15 89 21 90 16 91 17 92 18 93 19 94 20 95
REMARK H PARENT 87 22 55 33
REMARK Flexibility Score: inf
ROOT
ATOM      1  C   UNL A   1      33.668  28.741  27.452  1.00  0.00     0.275 C 
ENDROOT
BRANCH   1   2
ATOM      2  O   UNL A   1      34.230  30.020  27.094  1.00  0.00    -0.458 OA
BRANCH   2   3
ATOM      3  C   UNL A   1      34.838  30.747  28.060  1.00  0.00     0.338 C 
ATOM      4  O   UNL A   1      34.362  31.741  28.579  1.00  0.00    -0.246 OA
BRANCH   3   5
ATOM      5  C   UNL A   1      36.130  30.137  28.449  1.00  0.00     0.060 A 
ATOM      6  C   UNL A   1      37.195  30.057  27.541  1.00  0.00     0.016 A 
ATOM      7  C   UNL A   1      36.280  29.657  29.755  1.00  0.00     0.016 A 
ATOM      8  C   UNL A   1      38.381  29.452  27.919  1.00  0.00     0.010 A 
ATOM      9  C   UNL A   1      37.470  29.041  30.131  1.00  0.00     0.010 A 
ATOM     10  C   UNL A   1      38.509  28.920  29.203  1.00  0.00    -0.014 A 
BRANCH  10  11
ATOM     11  C   UNL A   1      39.782  28.289  29.536  1.00  0.00     0.031 A 
ATOM     12  C   UNL A   1      40.165  28.275  30.973  1.00  0.00     0.074 A 
ATOM     13  C   UNL A   1      40.543  27.647  28.630  1.00  0.00     0.049 A 
ATOM     14  N   UNL A   1      41.237  28.747  31.520  1.00  0.00    -0.248 NA
ATOM     15  C   UNL A   1      39.207  27.707  31.931  1.00  0.00     0.031 C 
ATOM     16  C   UNL A   1      40.183  27.326  27.249  1.00  0.00     0.029 A 
ATOM     17  N   UNL A   1      41.758  27.041  28.792  1.00  0.00    -0.354 N 
ATOM     18  C   UNL A   1      41.203  28.342  32.852  1.00  0.00     0.074 A 
ATOM     19  C   UNL A   1      39.876  27.832  33.077  1.00  0.00     0.031 C 
ATOM     20  C   UNL A   1      41.045  26.402  26.774  1.00  0.00     0.029 A 
ATOM     21  C   UNL A   1      42.076  26.156  27.771  1.00  0.00     0.049 A 
ATOM     22  H   UNL A   1      42.349  27.214  29.560  1.00  0.00     0.167 HD
ATOM     23  C   UNL A   1      42.334  28.270  33.608  1.00  0.00     0.034 A 
ATOM     24  C   UNL A   1      43.061  25.224  27.762  1.00  0.00     0.034 A 
ATOM     25  C   UNL A   1      43.387  29.103  33.070  1.00  0.00     0.049 A 
ATOM     26  C   UNL A   1      44.089  25.634  28.747  1.00  0.00     0.074 A 
ATOM     27  C   UNL A   1      43.485  30.441  32.730  1.00  0.00     0.029 A 
ATOM     28  N   UNL A   1      44.495  28.511  32.510  1.00  0.00    -0.354 N 
ATOM     29  N   UNL A   1      44.851  26.683  28.609  1.00  0.00    -0.248 NA
ATOM     30  C   UNL A   1      44.028  25.090  30.095  1.00  0.00     0.031 C 
ATOM     31  C   UNL A   1      44.339  30.476  31.589  1.00  0.00     0.029 A 
ATOM     32  C   UNL A   1      44.746  29.168  31.331  1.00  0.00     0.049 A 
ATOM     33  H   UNL A   1      45.010  27.759  32.883  1.00  0.00     0.167 HD
ATOM     34  C   UNL A   1      45.019  27.177  29.892  1.00  0.00     0.074 A 
ATOM     35  C   UNL A   1      44.607  26.087  30.769  1.00  0.00     0.031 C 
ATOM     36  C   UNL A   1      45.199  28.512  30.119  1.00  0.00     0.034 A 
BRANCH  23  37
ATOM     37  C   UNL A   1      42.606  27.189  34.639  1.00  0.00     0.023 A 
ATOM     38  C   UNL A   1      43.422  26.110  34.243  1.00  0.00     0.031 A 
ATOM     39  C   UNL A   1      41.886  26.994  35.840  1.00  0.00     0.131 A 
ATOM     40  C   UNL A   1      43.387  24.882  34.927  1.00  0.00     0.055 A 
ATOM     41  C   UNL A   1      41.920  25.797  36.565  1.00  0.00     0.041 A 
ATOM     42  F   UNL A   1      41.042  27.907  36.335  1.00  0.00    -0.206 F 
ATOM     43  C   UNL A   1      42.640  24.717  36.087  1.00  0.00     0.022 A 
BRANCH  40  44
ATOM     44  S   UNL A   1      44.153  23.444  34.133  1.00  0.00     0.124 S 
ATOM     45  O   UNL A   1      45.330  24.050  33.517  1.00  0.00    -0.237 OA
ATOM     46  O   UNL A   1      44.399  22.570  35.275  1.00  0.00    -0.237 OA
ATOM     47  O   UNL A   1      43.126  22.985  33.202  1.00  0.00    -0.744 OA
ENDBRANCH  40  44
ENDBRANCH  23  37
BRANCH  24  48
ATOM     48  C   UNL A   1      43.022  23.891  27.108  1.00  0.00     0.023 A 
ATOM     49  C   UNL A   1      43.889  23.541  26.056  1.00  0.00     0.031 A 
ATOM     50  C   UNL A   1      42.249  22.847  27.667  1.00  0.00     0.131 A 
ATOM     51  C   UNL A   1      43.942  22.207  25.594  1.00  0.00     0.055 A 
ATOM     52  C   UNL A   1      42.285  21.537  27.191  1.00  0.00     0.041 A 
ATOM     53  F   UNL A   1      41.490  23.047  28.757  1.00  0.00    -0.206 F 
ATOM     54  C   UNL A   1      43.138  21.209  26.152  1.00  0.00     0.022 A 
BRANCH  51  55
ATOM     55  S   UNL A   1      45.157  21.722  24.329  1.00  0.00     0.124 S 
ATOM     56  O   UNL A   1      45.182  22.890  23.458  1.00  0.00    -0.237 OA
ATOM     57  O   UNL A   1      46.357  21.477  25.122  1.00  0.00    -0.237 OA
ATOM     58  O   UNL A   1      44.566  20.522  23.735  1.00  0.00    -0.744 OA
ENDBRANCH  51  55
ENDBRANCH  24  48
BRANCH  36  59
ATOM     59  C   UNL A   1      45.620  29.402  28.971  1.00  0.00     0.023 A 
ATOM     60  C   UNL A   1      46.956  29.753  28.676  1.00  0.00     0.031 A 
ATOM     61  C   UNL A   1      44.624  29.821  28.068  1.00  0.00     0.131 A 
ATOM     62  C   UNL A   1      47.250  30.511  27.527  1.00  0.00     0.055 A 
ATOM     63  C   UNL A   1      44.920  30.557  26.921  1.00  0.00     0.041 A 
ATOM     64  F   UNL A   1      43.336  29.491  28.271  1.00  0.00    -0.206 F 
ATOM     65  C   UNL A   1      46.236  30.912  26.651  1.00  0.00     0.022 A 
BRANCH  62  66
ATOM     66  S   UNL A   1      48.963  31.004  27.158  1.00  0.00     0.124 S 
ATOM     67  O   UNL A   1      48.813  32.256  26.427  1.00  0.00    -0.237 OA
ATOM     68  O   UNL A   1      49.551  31.106  28.492  1.00  0.00    -0.237 OA
ATOM     69  O   UNL A   1      49.470  29.887  26.357  1.00  0.00    -0.744 OA
ENDBRANCH  62  66
ENDBRANCH  36  59
ENDBRANCH  10  11
ENDBRANCH   3   5
ENDBRANCH   2   3
ENDBRANCH   1   2
BRANCH   1  70
ATOM     70  C   UNL A   1      32.675  28.121  26.472  1.00  0.00     0.275 C 
BRANCH  70  71
ATOM     71  O   UNL A   1      33.114  26.801  26.109  1.00  0.00    -0.457 OA
BRANCH  71  72
ATOM     72  C   UNL A   1      33.281  26.581  24.771  1.00  0.00     0.361 C 
ATOM     73  O   UNL A   1      33.745  27.389  23.977  1.00  0.00    -0.244 OA
BRANCH  72  74
ATOM     74  C   UNL A   1      32.601  25.381  24.343  1.00  0.00     0.198 A 
ATOM     75  N   UNL A   1      31.276  25.274  24.004  1.00  0.00    -0.122 NA
ATOM     76  C   UNL A   1      33.216  24.155  24.195  1.00  0.00     0.109 A 
ATOM     77  N   UNL A   1      31.038  24.005  23.672  1.00  0.00    -0.061 NA
ATOM     78  N   UNL A   1      32.159  23.301  23.937  1.00  0.00    -0.212 N 
BRANCH  76  79
ATOM     79  C   UNL A   1      34.627  23.782  24.220  1.00  0.00     0.004 A 
ATOM     80  C   UNL A   1      35.198  23.139  23.111  1.00  0.00     0.010 A 
ATOM     81  C   UNL A   1      35.425  24.073  25.330  1.00  0.00     0.031 A 
ATOM     82  C   UNL A   1      36.543  22.770  23.120  1.00  0.00     0.002 A 
ATOM     83  C   UNL A   1      36.770  23.707  25.330  1.00  0.00     0.041 A 
ATOM     84  C   UNL A   1      37.330  23.054  24.234  1.00  0.00     0.020 A 
ATOM     85  Cl  UNL A   1      37.746  24.059  26.702  1.00  0.00    -0.084 Cl
ENDBRANCH  76  79
BRANCH  78  86
ATOM     86  C   UNL A   1      32.204  21.893  23.995  1.00  0.00     0.067 A 
ATOM     87  C   UNL A   1      32.005  21.134  22.843  1.00  0.00     0.029 A 
ATOM     88  C   UNL A   1      32.622  21.294  25.191  1.00  0.00     0.029 A 
ATOM     89  C   UNL A   1      32.357  19.779  22.869  1.00  0.00     0.015 A 
ATOM     90  C   UNL A   1      32.938  19.942  25.218  1.00  0.00     0.015 A 
ATOM     91  C   UNL A   1      32.854  19.180  24.046  1.00  0.00     0.056 A 
BRANCH  91  92
ATOM     92  C   UNL A   1      33.350  17.754  24.037  1.00  0.00     0.416 C 
ATOM     93  F   UNL A   1      33.789  17.349  22.816  1.00  0.00    -0.166 F 
ATOM     94  F   UNL A   1      34.387  17.562  24.898  1.00  0.00    -0.166 F 
ATOM     95  F   UNL A   1      32.397  16.850  24.407  1.00  0.00    -0.166 F 
ENDBRANCH  91  92
ENDBRANCH  78  86
ENDBRANCH  72  74
ENDBRANCH  71  72
ENDBRANCH  70  71
ENDBRANCH   1  70
TORSDOF 17
ENDMDL
MODEL 3
REMARK VINA RESULT:     -12.3      2.048      7.085
REMARK SMILES O=C(OCCOC(=O)c1nnn(-c2ccc(C(F)(F)F)cc2)c1-c1cccc(Cl)c1)c1ccc(-c2c3nc(c(-c4cc(S(=O)(=O)[O-])ccc4F)c4ccc([nH]4)c(-c4cc(S(=O)(=O)[O-])ccc4F)c4nc(c(-c5cc(S(=O)(=O)[O-])ccc5F)c5ccc2[nH]5)C=C4)C=C3)cc1
REMARK SMILES IDX 4 1 3 2 2 3 1 4 31 5 32 6 93 7 33 8 92 9 34 10 35 11 36 12
REMARK SMILES IDX 86 13 37 14 91 15 85 16 87 17 38 18 90 19 84 20 83 21 39 23
REMARK SMILES IDX 71 24 51 25 70 26 52 27 55 28 69 29 88 30 53 31 54 32 68 34
REMARK SMILES IDX 89 35 56 36 40 37 41 38 49 39 42 40 48 41 50 42 47 43 43 44
REMARK SMILES IDX 44 45 45 46 46 47 72 48 73 49 81 50 74 51 80 52 82 53 79 54
REMARK SMILES IDX 75 55 76 56 77 57 78 58 57 59 58 60 66 61 59 62 65 63 67 64
REMARK SMILES IDX 64 65 60 66 61 67 62 68 63 69 5 70 6 71 7 72 8 73 9 74 10 75
REMARK SMILES IDX 23 76 11 77 12 78 24 79 25 80 30 81 26 82 28 83 27 84 29 85
REMARK SMILES IDX 13 86 14 87 22 88 15 89 21 90 16 91 17 92 18 93 19 94 20 95
REMARK H PARENT 87 22 55 33
REMARK Flexibility Score: inf
ROOT
ATOM      1  C   UNL A   1      33.496  28.847  27.416  1.00  0.00     0.275 C 
ENDROOT
BRANCH   1   2
ATOM      2  O   UNL A   1      34.418  29.813  26.871  1.00  0.00    -0.458 OA
BRANCH   2   3
ATOM      3  C   UNL A   1      35.066  30.636  27.727  1.00  0.00     0.338 C 
ATOM      4  O   UNL A   1      34.623  31.697  28.133  1.00  0.00    -0.246 OA
BRANCH   3   5
ATOM      5  C   UNL A   1      36.356  30.049  28.155  1.00  0.00     0.060 A 
ATOM      6  C   UNL A   1      37.457  30.012  27.288  1.00  0.00     0.016 A 
ATOM      7  C   UNL A   1      36.466  29.547  29.457  1.00  0.00     0.016 A 
ATOM      8  C   UNL A   1      38.642  29.426  27.701  1.00  0.00     0.010 A 
ATOM      9  C   UNL A   1      37.655  28.950  29.868  1.00  0.00     0.010 A 
ATOM     10  C   UNL A   1      38.731  28.871  28.979  1.00  0.00    -0.014 A 
BRANCH  10  11
ATOM     11  C   UNL A   1      40.005  28.263  29.350  1.00  0.00     0.031 A 
ATOM     12  C   UNL A   1      40.351  28.268  30.797  1.00  0.00     0.074 A 
ATOM     13  C   UNL A   1      40.798  27.624  28.470  1.00  0.00     0.049 A 
ATOM     14  N   UNL A   1      41.402  28.762  31.366  1.00  0.00    -0.248 NA
ATOM     15  C   UNL A   1      39.378  27.695  31.735  1.00  0.00     0.031 C 
ATOM     16  C   UNL A   1      40.478  27.286  27.083  1.00  0.00     0.029 A 
ATOM     17  N   UNL A   1      42.018  27.039  28.669  1.00  0.00    -0.354 N 
ATOM     18  C   UNL A   1      41.340  28.369  32.701  1.00  0.00     0.074 A 
ATOM     19  C   UNL A   1      40.015  27.841  32.897  1.00  0.00     0.031 C 
ATOM     20  C   UNL A   1      41.366  26.371  26.640  1.00  0.00     0.029 A 
ATOM     21  C   UNL A   1      42.374  26.150  27.664  1.00  0.00     0.049 A 
ATOM     22  H   UNL A   1      42.587  27.228  29.450  1.00  0.00     0.167 HD
ATOM     23  C   UNL A   1      42.452  28.321  33.486  1.00  0.00     0.034 A 
ATOM     24  C   UNL A   1      43.374  25.233  27.690  1.00  0.00     0.034 A 
ATOM     25  C   UNL A   1      43.506  29.165  32.966  1.00  0.00     0.049 A 
ATOM     26  C   UNL A   1      44.370  25.667  28.696  1.00  0.00     0.074 A 
ATOM     27  C   UNL A   1      43.593  30.501  32.616  1.00  0.00     0.029 A 
ATOM     28  N   UNL A   1      44.637  28.585  32.440  1.00  0.00    -0.354 N 
ATOM     29  N   UNL A   1      45.119  26.727  28.567  1.00  0.00    -0.248 NA
ATOM     30  C   UNL A   1      44.283  25.135  30.048  1.00  0.00     0.031 C 
ATOM     31  C   UNL A   1      44.474  30.539  31.497  1.00  0.00     0.029 A 
ATOM     32  C   UNL A   1      44.908  29.234  31.262  1.00  0.00     0.049 A 
ATOM     33  H   UNL A   1      45.154  27.844  32.833  1.00  0.00     0.167 HD
ATOM     34  C   UNL A   1      45.247  27.235  29.849  1.00  0.00     0.074 A 
ATOM     35  C   UNL A   1      44.830  26.147  30.726  1.00  0.00     0.031 C 
ATOM     36  C   UNL A   1      45.401  28.574  30.068  1.00  0.00     0.034 A 
BRANCH  23  37
ATOM     37  C   UNL A   1      42.715  27.253  34.534  1.00  0.00     0.023 A 
ATOM     38  C   UNL A   1      43.534  26.169  34.160  1.00  0.00     0.031 A 
ATOM     39  C   UNL A   1      41.983  27.075  35.730  1.00  0.00     0.131 A 
ATOM     40  C   UNL A   1      43.492  24.951  34.859  1.00  0.00     0.055 A 
ATOM     41  C   UNL A   1      42.010  25.888  36.472  1.00  0.00     0.041 A 
ATOM     42  F   UNL A   1      41.135  27.995  36.205  1.00  0.00    -0.206 F 
ATOM     43  C   UNL A   1      42.734  24.802  36.015  1.00  0.00     0.022 A 
BRANCH  40  44
ATOM     44  S   UNL A   1      44.265  23.503  34.092  1.00  0.00     0.124 S 
ATOM     45  O   UNL A   1      43.851  22.440  35.002  1.00  0.00    -0.237 OA
ATOM     46  O   UNL A   1      43.646  23.499  32.771  1.00  0.00    -0.237 OA
ATOM     47  O   UNL A   1      45.689  23.828  34.115  1.00  0.00    -0.744 OA
ENDBRANCH  40  44
ENDBRANCH  23  37
BRANCH  24  48
ATOM     48  C   UNL A   1      43.372  23.893  27.047  1.00  0.00     0.023 A 
ATOM     49  C   UNL A   1      42.339  22.960  27.251  1.00  0.00     0.031 A 
ATOM     50  C   UNL A   1      44.310  23.591  26.033  1.00  0.00     0.131 A 
ATOM     51  C   UNL A   1      42.286  21.779  26.476  1.00  0.00     0.055 A 
ATOM     52  C   UNL A   1      44.268  22.413  25.287  1.00  0.00     0.041 A 
ATOM     53  F   UNL A   1      45.255  24.473  25.669  1.00  0.00    -0.206 F 
ATOM     54  C   UNL A   1      43.250  21.502  25.504  1.00  0.00     0.022 A 
BRANCH  51  55
ATOM     55  S   UNL A   1      40.878  20.637  26.641  1.00  0.00     0.124 S 
ATOM     56  O   UNL A   1      41.298  19.507  25.822  1.00  0.00    -0.237 OA
ATOM     57  O   UNL A   1      40.822  20.412  28.081  1.00  0.00    -0.237 OA
ATOM     58  O   UNL A   1      39.755  21.406  26.102  1.00  0.00    -0.744 OA
ENDBRANCH  51  55
ENDBRANCH  24  48
BRANCH  36  59
ATOM     59  C   UNL A   1      45.838  29.461  28.922  1.00  0.00     0.023 A 
ATOM     60  C   UNL A   1      45.003  30.388  28.262  1.00  0.00     0.031 A 
ATOM     61  C   UNL A   1      47.199  29.440  28.561  1.00  0.00     0.131 A 
ATOM     62  C   UNL A   1      45.532  31.234  27.270  1.00  0.00     0.055 A 
ATOM     63  C   UNL A   1      47.724  30.292  27.590  1.00  0.00     0.041 A 
ATOM     64  F   UNL A   1      48.056  28.606  29.175  1.00  0.00    -0.206 F 
ATOM     65  C   UNL A   1      46.889  31.188  26.933  1.00  0.00     0.022 A 
BRANCH  62  66
ATOM     66  S   UNL A   1      44.456  32.405  26.383  1.00  0.00     0.124 S 
ATOM     67  O   UNL A   1      45.355  33.049  25.434  1.00  0.00    -0.237 OA
ATOM     68  O   UNL A   1      43.443  31.522  25.810  1.00  0.00    -0.237 OA
ATOM     69  O   UNL A   1      43.963  33.281  27.447  1.00  0.00    -0.744 OA
ENDBRANCH  62  66
ENDBRANCH  36  59
ENDBRANCH  10  11
ENDBRANCH   3   5
ENDBRANCH   2   3
ENDBRANCH   1   2
BRANCH   1  70
ATOM     70  C   UNL A   1      32.499  28.216  26.448  1.00  0.00     0.275 C 
BRANCH  70  71
ATOM     71  O   UNL A   1      32.842  26.836  26.234  1.00  0.00    -0.457 OA
BRANCH  71  72
ATOM     72  C   UNL A   1      33.147  26.496  24.946  1.00  0.00     0.361 C 
ATOM     73  O   UNL A   1      33.720  27.221  24.143  1.00  0.00    -0.244 OA
BRANCH  72  74
ATOM     74  C   UNL A   1      32.480  25.278  24.548  1.00  0.00     0.198 A 
ATOM     75  N   UNL A   1      31.141  25.131  24.289  1.00  0.00    -0.122 NA
ATOM     76  C   UNL A   1      33.124  24.074  24.350  1.00  0.00     0.109 A 
ATOM     77  N   UNL A   1      30.925  23.858  23.959  1.00  0.00    -0.061 NA
ATOM     78  N   UNL A   1      32.081  23.189  24.149  1.00  0.00    -0.212 N 
BRANCH  76  79
ATOM     79  C   UNL A   1      34.545  23.747  24.285  1.00  0.00     0.004 A 
ATOM     80  C   UNL A   1      35.065  23.121  23.141  1.00  0.00     0.010 A 
ATOM     81  C   UNL A   1      35.402  24.065  25.343  1.00  0.00     0.031 A 
ATOM     82  C   UNL A   1      36.419  22.796  23.065  1.00  0.00     0.002 A 
ATOM     83  C   UNL A   1      36.756  23.742  25.257  1.00  0.00     0.041 A 
ATOM     84  C   UNL A   1      37.266  23.106  24.127  1.00  0.00     0.020 A 
ATOM     85  Cl  UNL A   1      37.805  24.127  26.564  1.00  0.00    -0.084 Cl
ENDBRANCH  76  79
BRANCH  78  86
ATOM     86  C   UNL A   1      32.174  21.782  24.188  1.00  0.00     0.067 A 
ATOM     87  C   UNL A   1      32.051  21.034  23.019  1.00  0.00     0.029 A 
ATOM     88  C   UNL A   1      32.565  21.180  25.392  1.00  0.00     0.029 A 
ATOM     89  C   UNL A   1      32.450  19.692  23.042  1.00  0.00     0.015 A 
ATOM     90  C   UNL A   1      32.927  19.840  25.414  1.00  0.00     0.015 A 
ATOM     91  C   UNL A   1      32.919  19.093  24.229  1.00  0.00     0.056 A 
BRANCH  91  92
ATOM     92  C   UNL A   1      33.466  17.686  24.221  1.00  0.00     0.416 C 
ATOM     93  F   UNL A   1      33.165  16.990  25.349  1.00  0.00    -0.166 F 
ATOM     94  F   UNL A   1      32.986  16.951  23.180  1.00  0.00    -0.166 F 
ATOM     95  F   UNL A   1      34.825  17.636  24.106  1.00  0.00    -0.166 F 
ENDBRANCH  91  92
ENDBRANCH  78  86
ENDBRANCH  72  74
ENDBRANCH  71  72
ENDBRANCH  70  71
ENDBRANCH   1  70
TORSDOF 17
ENDMDL
