MODEL 1
REMARK VINA RESULT:     -13.0      0.000      0.000
REMARK SMILES O=C(OCCOC(=O)[C@H]1[C@H]2CC[C@H](C2)[C@@H]1C(=O)Nc1sc2c(c1C(=O)NC1CCCCC1)CCCC2)c1ccc(-c2c3nc(c(-c4cc(S(=O)(=O)[O-])ccc4F)c4ccc([nH]4)c(-c4cc(S(=O)(=O)[O-])ccc4F)c4nc(c(-c5cc(S(=O)(=O)[O-])ccc5F)c5ccc2[nH]5)C=C4)C=C3)cc1
REMARK SMILES IDX 5 1 4 2 3 3 2 4 1 5 37 6 38 7 99 8 39 9 98 10 40 11 41 12
REMARK SMILES IDX 42 13 92 14 43 15 97 16 91 17 93 18 44 19 96 20 90 21 89 22
REMARK SMILES IDX 45 24 77 25 57 26 76 27 58 28 61 29 75 30 94 31 59 32 60 33
REMARK SMILES IDX 74 35 95 36 62 37 46 38 47 39 55 40 48 41 54 42 56 43 53 44
REMARK SMILES IDX 49 45 50 46 51 47 52 48 78 49 79 50 87 51 80 52 86 53 88 54
REMARK SMILES IDX 85 55 81 56 82 57 83 58 84 59 63 60 64 61 72 62 65 63 71 64
REMARK SMILES IDX 73 65 70 66 66 67 67 68 68 69 69 70 6 71 7 72 8 73 9 74
REMARK SMILES IDX 10 75 15 76 11 77 14 78 13 79 12 80 16 81 17 82 18 83 19 85
REMARK SMILES IDX 20 86 23 87 21 88 22 89 36 90 33 91 35 92 34 93 24 94 25 95
REMARK SMILES IDX 26 96 27 98 28 99 32 100 29 101 31 102 30 103
REMARK H PARENT 93 23 61 34 18 84 26 97
REMARK Flexibility Score: inf
ROOT
ATOM      1  C   UNL A   1      36.561  20.693  25.309  1.00  0.00     0.274 C 
ENDROOT
BRANCH   1   2
ATOM      2  C   UNL A   1      37.927  21.315  25.038  1.00  0.00     0.275 C 
BRANCH   2   3
ATOM      3  O   UNL A   1      39.019  20.681  25.726  1.00  0.00    -0.458 OA
BRANCH   3   4
ATOM      4  C   UNL A   1      39.840  21.170  26.688  1.00  0.00     0.338 C 
ATOM      5  O   UNL A   1      40.430  20.376  27.417  1.00  0.00    -0.246 OA
BRANCH   4   6
ATOM      6  C   UNL A   1      39.985  22.631  26.989  1.00  0.00     0.060 A 
ATOM      7  C   UNL A   1      39.268  23.665  26.380  1.00  0.00     0.016 A 
ATOM      8  C   UNL A   1      40.982  22.989  27.915  1.00  0.00     0.016 A 
ATOM      9  C   UNL A   1      39.508  25.013  26.706  1.00  0.00     0.010 A 
ATOM     10  C   UNL A   1      41.218  24.333  28.252  1.00  0.00     0.010 A 
ATOM     11  C   UNL A   1      40.502  25.365  27.623  1.00  0.00    -0.014 A 
BRANCH  11  12
ATOM     12  C   UNL A   1      40.924  26.795  27.757  1.00  0.00     0.031 A 
ATOM     13  C   UNL A   1      42.244  27.202  27.102  1.00  0.00     0.074 A 
ATOM     14  C   UNL A   1      40.241  27.652  28.552  1.00  0.00     0.049 A 
ATOM     15  N   UNL A   1      42.842  28.369  27.042  1.00  0.00    -0.248 NA
ATOM     16  C   UNL A   1      43.038  26.107  26.522  1.00  0.00     0.031 C 
ATOM     17  C   UNL A   1      39.048  27.319  29.338  1.00  0.00     0.029 A 
ATOM     18  N   UNL A   1      40.493  28.966  28.895  1.00  0.00    -0.354 N 
ATOM     19  C   UNL A   1      44.137  28.124  26.570  1.00  0.00     0.074 A 
ATOM     20  C   UNL A   1      44.186  26.709  26.258  1.00  0.00     0.031 C 
ATOM     21  C   UNL A   1      38.697  28.382  30.091  1.00  0.00     0.029 A 
ATOM     22  C   UNL A   1      39.649  29.472  29.864  1.00  0.00     0.049 A 
ATOM     23  H   UNL A   1      41.213  29.497  28.484  1.00  0.00     0.167 HD
ATOM     24  C   UNL A   1      45.214  28.962  26.512  1.00  0.00     0.034 A 
ATOM     25  C   UNL A   1      39.675  30.656  30.519  1.00  0.00     0.034 A 
ATOM     26  C   UNL A   1      45.174  30.357  26.920  1.00  0.00     0.049 A 
ATOM     27  C   UNL A   1      40.841  31.613  30.293  1.00  0.00     0.074 A 
ATOM     28  C   UNL A   1      45.914  31.437  26.473  1.00  0.00     0.029 A 
ATOM     29  N   UNL A   1      44.406  30.845  27.971  1.00  0.00    -0.354 N 
ATOM     30  N   UNL A   1      41.878  31.514  29.489  1.00  0.00    -0.248 NA
ATOM     31  C   UNL A   1      40.856  32.821  31.129  1.00  0.00     0.031 C 
ATOM     32  C   UNL A   1      45.585  32.560  27.270  1.00  0.00     0.029 A 
ATOM     33  C   UNL A   1      44.604  32.199  28.185  1.00  0.00     0.049 A 
ATOM     34  H   UNL A   1      43.790  30.291  28.503  1.00  0.00     0.167 HD
ATOM     35  C   UNL A   1      42.690  32.627  29.746  1.00  0.00     0.074 A 
ATOM     36  C   UNL A   1      41.983  33.407  30.746  1.00  0.00     0.031 C 
ATOM     37  C   UNL A   1      43.907  32.966  29.219  1.00  0.00     0.034 A 
BRANCH  24  38
ATOM     38  C   UNL A   1      46.528  28.352  26.053  1.00  0.00     0.023 A 
ATOM     39  C   UNL A   1      46.951  28.428  24.710  1.00  0.00     0.031 A 
ATOM     40  C   UNL A   1      47.310  27.585  26.934  1.00  0.00     0.131 A 
ATOM     41  C   UNL A   1      48.055  27.675  24.270  1.00  0.00     0.055 A 
ATOM     42  C   UNL A   1      48.459  26.906  26.507  1.00  0.00     0.041 A 
ATOM     43  F   UNL A   1      46.942  27.430  28.216  1.00  0.00    -0.206 F 
ATOM     44  C   UNL A   1      48.828  26.935  25.164  1.00  0.00     0.022 A 
BRANCH  41  45
ATOM     45  S   UNL A   1      48.382  27.584  22.485  1.00  0.00     0.124 S 
ATOM     46  O   UNL A   1      47.166  28.205  21.941  1.00  0.00    -0.237 OA
ATOM     47  O   UNL A   1      49.600  28.331  22.337  1.00  0.00    -0.237 OA
ATOM     48  O   UNL A   1      48.489  26.136  22.236  1.00  0.00    -0.744 OA
ENDBRANCH  41  45
ENDBRANCH  24  38
BRANCH  25  49
ATOM     49  C   UNL A   1      38.636  31.010  31.543  1.00  0.00     0.023 A 
ATOM     50  C   UNL A   1      37.598  31.908  31.236  1.00  0.00     0.031 A 
ATOM     51  C   UNL A   1      38.731  30.560  32.873  1.00  0.00     0.131 A 
ATOM     52  C   UNL A   1      36.723  32.351  32.245  1.00  0.00     0.055 A 
ATOM     53  C   UNL A   1      37.829  30.966  33.865  1.00  0.00     0.041 A 
ATOM     54  F   UNL A   1      39.734  29.746  33.233  1.00  0.00    -0.206 F 
ATOM     55  C   UNL A   1      36.820  31.873  33.553  1.00  0.00     0.022 A 
BRANCH  52  56
ATOM     56  S   UNL A   1      35.502  33.636  31.844  1.00  0.00     0.124 S 
ATOM     57  O   UNL A   1      34.248  32.906  31.989  1.00  0.00    -0.237 OA
ATOM     58  O   UNL A   1      35.777  34.648  32.859  1.00  0.00    -0.237 OA
ATOM     59  O   UNL A   1      35.848  34.022  30.477  1.00  0.00    -0.744 OA
ENDBRANCH  52  56
ENDBRANCH  25  49
BRANCH  37  60
ATOM     60  C   UNL A   1      44.462  34.318  29.629  1.00  0.00     0.023 A 
ATOM     61  C   UNL A   1      44.110  35.544  29.022  1.00  0.00     0.031 A 
ATOM     62  C   UNL A   1      45.453  34.349  30.627  1.00  0.00     0.131 A 
ATOM     63  C   UNL A   1      44.771  36.730  29.401  1.00  0.00     0.055 A 
ATOM     64  C   UNL A   1      46.048  35.536  31.050  1.00  0.00     0.041 A 
ATOM     65  F   UNL A   1      45.880  33.212  31.199  1.00  0.00    -0.206 F 
ATOM     66  C   UNL A   1      45.717  36.733  30.430  1.00  0.00     0.022 A 
BRANCH  63  67
ATOM     67  S   UNL A   1      44.491  38.267  28.465  1.00  0.00     0.124 S 
ATOM     68  O   UNL A   1      45.581  39.115  28.936  1.00  0.00    -0.237 OA
ATOM     69  O   UNL A   1      44.585  37.814  27.082  1.00  0.00    -0.237 OA
ATOM     70  O   UNL A   1      43.155  38.689  28.888  1.00  0.00    -0.744 OA
ENDBRANCH  63  67
ENDBRANCH  37  60
ENDBRANCH  11  12
ENDBRANCH   4   6
ENDBRANCH   3   4
ENDBRANCH   2   3
ENDBRANCH   1   2
BRANCH   1  71
ATOM     71  O   UNL A   1      35.763  21.490  26.188  1.00  0.00    -0.462 OA
BRANCH  71  72
ATOM     72  C   UNL A   1      34.493  21.749  25.756  1.00  0.00     0.310 C 
ATOM     73  O   UNL A   1      33.682  20.896  25.414  1.00  0.00    -0.252 OA
BRANCH  72  74
ATOM     74  C   UNL A   1      34.277  23.244  25.692  1.00  0.00     0.115 C 
ATOM     75  C   UNL A   1      35.136  23.881  24.573  1.00  0.00     0.004 C 
ATOM     76  C   UNL A   1      32.822  23.667  25.341  1.00  0.00     0.096 C 
ATOM     77  C   UNL A   1      34.896  23.193  23.221  1.00  0.00     0.005 C 
ATOM     78  C   UNL A   1      34.400  25.197  24.364  1.00  0.00     0.009 C 
ATOM     79  C   UNL A   1      33.064  24.506  24.078  1.00  0.00     0.003 C 
ATOM     80  C   UNL A   1      33.448  23.571  22.909  1.00  0.00     0.005 C 
BRANCH  76  81
ATOM     81  C   UNL A   1      32.086  24.154  26.616  1.00  0.00     0.229 C 
ATOM     82  O   UNL A   1      32.109  23.379  27.587  1.00  0.00    -0.274 OA
ATOM     83  N   UNL A   1      31.611  25.398  26.891  1.00  0.00    -0.317 N 
ATOM     84  H   UNL A   1      31.658  25.631  27.846  1.00  0.00     0.170 HD
BRANCH  83  85
ATOM     85  C   UNL A   1      31.077  26.402  26.112  1.00  0.00     0.108 A 
ATOM     86  S   UNL A   1      29.683  26.069  25.214  1.00  0.00    -0.122 S 
ATOM     87  C   UNL A   1      31.270  27.800  26.171  1.00  0.00     0.078 A 
ATOM     88  C   UNL A   1      30.104  27.318  24.170  1.00  0.00     0.011 A 
ATOM     89  C   UNL A   1      30.762  28.325  24.867  1.00  0.00    -0.019 A 
ATOM     90  C   UNL A   1      29.681  27.318  22.737  1.00  0.00     0.047 C 
ATOM     91  C   UNL A   1      30.905  29.640  24.134  1.00  0.00     0.037 C 
ATOM     92  C   UNL A   1      30.359  28.463  21.990  1.00  0.00     0.006 C 
ATOM     93  C   UNL A   1      30.168  29.744  22.791  1.00  0.00     0.005 C 
BRANCH  87  94
ATOM     94  C   UNL A   1      31.948  28.312  27.404  1.00  0.00     0.254 C 
ATOM     95  O   UNL A   1      31.892  27.652  28.453  1.00  0.00    -0.269 OA
ATOM     96  N   UNL A   1      32.463  29.579  27.591  1.00  0.00    -0.349 N 
ATOM     97  H   UNL A   1      31.888  30.233  28.050  1.00  0.00     0.164 HD
BRANCH  96  98
ATOM     98  C   UNL A   1      33.791  30.042  27.170  1.00  0.00     0.082 C 
ATOM     99  C   UNL A   1      34.023  31.485  27.574  1.00  0.00     0.025 C 
ATOM    100  C   UNL A   1      34.833  29.118  27.704  1.00  0.00     0.025 C 
ATOM    101  C   UNL A   1      35.449  31.819  27.952  1.00  0.00     0.002 C 
ATOM    102  C   UNL A   1      36.260  29.477  27.430  1.00  0.00     0.002 C 
ATOM    103  C   UNL A   1      36.527  30.771  28.132  1.00  0.00     0.000 C 
ENDBRANCH  96  98
ENDBRANCH  87  94
ENDBRANCH  83  85
ENDBRANCH  76  81
ENDBRANCH  72  74
ENDBRANCH  71  72
ENDBRANCH   1  71
TORSDOF 18
ENDMDL
MODEL 2
REMARK VINA RESULT:     -12.8      1.364      1.885
REMARK SMILES O=C(OCCOC(=O)[C@H]1[C@H]2CC[C@H](C2)[C@@H]1C(=O)Nc1sc2c(c1C(=O)NC1CCCCC1)CCCC2)c1ccc(-c2c3nc(c(-c4cc(S(=O)(=O)[O-])ccc4F)c4ccc([nH]4)c(-c4cc(S(=O)(=O)[O-])ccc4F)c4nc(c(-c5cc(S(=O)(=O)[O-])ccc5F)c5ccc2[nH]5)C=C4)C=C3)cc1
REMARK SMILES IDX 5 1 4 2 3 3 2 4 1 5 37 6 38 7 99 8 39 9 98 10 40 11 41 12
REMARK SMILES IDX 42 13 92 14 43 15 97 16 91 17 93 18 44 19 96 20 90 21 89 22
REMARK SMILES IDX 45 24 77 25 57 26 76 27 58 28 61 29 75 30 94 31 59 32 60 33
REMARK SMILES IDX 74 35 95 36 62 37 46 38 47 39 55 40 48 41 54 42 56 43 53 44
REMARK SMILES IDX 49 45 50 46 51 47 52 48 78 49 79 50 87 51 80 52 86 53 88 54
REMARK SMILES IDX 85 55 81 56 82 57 83 58 84 59 63 60 64 61 72 62 65 63 71 64
REMARK SMILES IDX 73 65 70 66 66 67 67 68 68 69 69 70 6 71 7 72 8 73 9 74
REMARK SMILES IDX 10 75 15 76 11 77 14 78 13 79 12 80 16 81 17 82 18 83 19 85
REMARK SMILES IDX 20 86 23 87 21 88 22 89 36 90 33 91 35 92 34 93 24 94 25 95
REMARK SMILES IDX 26 96 27 98 28 99 32 100 29 101 31 102 30 103
REMARK H PARENT 93 23 61 34 18 84 26 97
REMARK Flexibility Score: inf
ROOT
ATOM      1  C   UNL A   1      36.246  21.764  25.745  1.00  0.00     0.274 C 
ENDROOT
BRANCH   1   2
ATOM      2  C   UNL A   1      37.265  20.690  25.381  1.00  0.00     0.275 C 
BRANCH   2   3
ATOM      3  O   UNL A   1      38.627  21.149  25.341  1.00  0.00    -0.458 OA
BRANCH   3   4
ATOM      4  C   UNL A   1      39.449  21.519  26.353  1.00  0.00     0.338 C 
ATOM      5  O   UNL A   1      39.980  20.642  27.032  1.00  0.00    -0.246 OA
BRANCH   4   6
ATOM      6  C   UNL A   1      39.664  22.944  26.768  1.00  0.00     0.060 A 
ATOM      7  C   UNL A   1      38.929  24.044  26.317  1.00  0.00     0.016 A 
ATOM      8  C   UNL A   1      40.746  23.194  27.631  1.00  0.00     0.016 A 
ATOM      9  C   UNL A   1      39.236  25.351  26.738  1.00  0.00     0.010 A 
ATOM     10  C   UNL A   1      41.050  24.497  28.062  1.00  0.00     0.010 A 
ATOM     11  C   UNL A   1      40.315  25.597  27.591  1.00  0.00    -0.014 A 
BRANCH  11  12
ATOM     12  C   UNL A   1      40.789  26.999  27.812  1.00  0.00     0.031 A 
ATOM     13  C   UNL A   1      42.158  27.376  27.246  1.00  0.00     0.074 A 
ATOM     14  C   UNL A   1      40.102  27.850  28.611  1.00  0.00     0.049 A 
ATOM     15  N   UNL A   1      42.808  28.516  27.271  1.00  0.00    -0.248 NA
ATOM     16  C   UNL A   1      42.935  26.273  26.657  1.00  0.00     0.031 C 
ATOM     17  C   UNL A   1      38.855  27.537  29.319  1.00  0.00     0.029 A 
ATOM     18  N   UNL A   1      40.391  29.135  29.027  1.00  0.00    -0.354 N 
ATOM     19  C   UNL A   1      44.114  28.234  26.854  1.00  0.00     0.074 A 
ATOM     20  C   UNL A   1      44.120  26.833  26.479  1.00  0.00     0.031 C 
ATOM     21  C   UNL A   1      38.511  28.580  30.100  1.00  0.00     0.029 A 
ATOM     22  C   UNL A   1      39.518  29.635  29.973  1.00  0.00     0.049 A 
ATOM     23  H   UNL A   1      41.153  29.651  28.678  1.00  0.00     0.167 HD
ATOM     24  C   UNL A   1      45.227  29.025  26.891  1.00  0.00     0.034 A 
ATOM     25  C   UNL A   1      39.560  30.787  30.683  1.00  0.00     0.034 A 
ATOM     26  C   UNL A   1      45.225  30.401  27.360  1.00  0.00     0.049 A 
ATOM     27  C   UNL A   1      40.776  31.699  30.562  1.00  0.00     0.074 A 
ATOM     28  C   UNL A   1      46.033  31.466  27.002  1.00  0.00     0.029 A 
ATOM     29  N   UNL A   1      44.423  30.876  28.391  1.00  0.00    -0.354 N 
ATOM     30  N   UNL A   1      41.849  31.590  29.808  1.00  0.00    -0.248 NA
ATOM     31  C   UNL A   1      40.798  32.868  31.452  1.00  0.00     0.031 C 
ATOM     32  C   UNL A   1      45.710  32.566  27.832  1.00  0.00     0.029 A 
ATOM     33  C   UNL A   1      44.667  32.209  28.678  1.00  0.00     0.049 A 
ATOM     34  H   UNL A   1      43.757  30.327  28.865  1.00  0.00     0.167 HD
ATOM     35  C   UNL A   1      42.693  32.653  30.157  1.00  0.00     0.074 A 
ATOM     36  C   UNL A   1      41.968  33.419  31.155  1.00  0.00     0.031 C 
ATOM     37  C   UNL A   1      43.949  32.960  29.709  1.00  0.00     0.034 A 
BRANCH  24  38
ATOM     38  C   UNL A   1      46.536  28.377  26.471  1.00  0.00     0.023 A 
ATOM     39  C   UNL A   1      46.977  28.396  25.131  1.00  0.00     0.031 A 
ATOM     40  C   UNL A   1      47.296  27.632  27.391  1.00  0.00     0.131 A 
ATOM     41  C   UNL A   1      48.073  27.610  24.734  1.00  0.00     0.055 A 
ATOM     42  C   UNL A   1      48.438  26.919  27.004  1.00  0.00     0.041 A 
ATOM     43  F   UNL A   1      46.910  27.532  28.673  1.00  0.00    -0.206 F 
ATOM     44  C   UNL A   1      48.824  26.892  25.666  1.00  0.00     0.022 A 
BRANCH  41  45
ATOM     45  S   UNL A   1      48.421  27.446  22.958  1.00  0.00     0.124 S 
ATOM     46  O   UNL A   1      47.295  28.193  22.378  1.00  0.00    -0.237 OA
ATOM     47  O   UNL A   1      49.720  28.044  22.822  1.00  0.00    -0.237 OA
ATOM     48  O   UNL A   1      48.363  25.991  22.737  1.00  0.00    -0.744 OA
ENDBRANCH  41  45
ENDBRANCH  24  38
BRANCH  25  49
ATOM     49  C   UNL A   1      38.484  31.141  31.668  1.00  0.00     0.023 A 
ATOM     50  C   UNL A   1      37.385  31.929  31.281  1.00  0.00     0.031 A 
ATOM     51  C   UNL A   1      38.596  30.810  33.031  1.00  0.00     0.131 A 
ATOM     52  C   UNL A   1      36.465  32.383  32.246  1.00  0.00     0.055 A 
ATOM     53  C   UNL A   1      37.653  31.224  33.980  1.00  0.00     0.041 A 
ATOM     54  F   UNL A   1      39.654  30.108  33.463  1.00  0.00    -0.206 F 
ATOM     55  C   UNL A   1      36.581  32.022  33.589  1.00  0.00     0.022 A 
BRANCH  52  56
ATOM     56  S   UNL A   1      35.154  33.534  31.732  1.00  0.00     0.124 S 
ATOM     57  O   UNL A   1      33.954  32.762  32.029  1.00  0.00    -0.237 OA
ATOM     58  O   UNL A   1      35.405  34.686  32.592  1.00  0.00    -0.237 OA
ATOM     59  O   UNL A   1      35.426  33.750  30.312  1.00  0.00    -0.744 OA
ENDBRANCH  52  56
ENDBRANCH  25  49
BRANCH  37  60
ATOM     60  C   UNL A   1      44.538  34.267  30.210  1.00  0.00     0.023 A 
ATOM     61  C   UNL A   1      44.250  35.536  29.660  1.00  0.00     0.031 A 
ATOM     62  C   UNL A   1      45.498  34.207  31.238  1.00  0.00     0.131 A 
ATOM     63  C   UNL A   1      44.940  36.674  30.124  1.00  0.00     0.055 A 
ATOM     64  C   UNL A   1      46.121  35.346  31.743  1.00  0.00     0.041 A 
ATOM     65  F   UNL A   1      45.865  33.026  31.759  1.00  0.00    -0.206 F 
ATOM     66  C   UNL A   1      45.852  36.586  31.179  1.00  0.00     0.022 A 
BRANCH  63  67
ATOM     67  S   UNL A   1      44.745  38.269  29.266  1.00  0.00     0.124 S 
ATOM     68  O   UNL A   1      44.320  37.850  27.934  1.00  0.00    -0.237 OA
ATOM     69  O   UNL A   1      43.735  38.940  30.077  1.00  0.00    -0.237 OA
ATOM     70  O   UNL A   1      46.082  38.859  29.329  1.00  0.00    -0.744 OA
ENDBRANCH  63  67
ENDBRANCH  37  60
ENDBRANCH  11  12
ENDBRANCH   4   6
ENDBRANCH   3   4
ENDBRANCH   2   3
ENDBRANCH   1   2
BRANCH   1  71
ATOM     71  O   UNL A   1      35.565  22.281  24.599  1.00  0.00    -0.462 OA
BRANCH  71  72
ATOM     72  C   UNL A   1      35.021  23.525  24.750  1.00  0.00     0.310 C 
ATOM     73  O   UNL A   1      35.558  24.459  25.336  1.00  0.00    -0.252 OA
BRANCH  72  74
ATOM     74  C   UNL A   1      33.631  23.544  24.155  1.00  0.00     0.115 C 
ATOM     75  C   UNL A   1      32.693  22.569  24.907  1.00  0.00     0.004 C 
ATOM     76  C   UNL A   1      32.910  24.918  24.256  1.00  0.00     0.096 C 
ATOM     77  C   UNL A   1      32.691  22.845  26.417  1.00  0.00     0.005 C 
ATOM     78  C   UNL A   1      31.332  23.121  24.509  1.00  0.00     0.009 C 
ATOM     79  C   UNL A   1      31.648  24.524  25.036  1.00  0.00     0.003 C 
ATOM     80  C   UNL A   1      32.027  24.220  26.503  1.00  0.00     0.005 C 
BRANCH  76  81
ATOM     81  C   UNL A   1      32.929  25.632  22.879  1.00  0.00     0.229 C 
ATOM     82  O   UNL A   1      33.782  25.230  22.069  1.00  0.00    -0.274 OA
ATOM     83  N   UNL A   1      32.003  26.480  22.357  1.00  0.00    -0.317 N 
ATOM     84  H   UNL A   1      31.920  26.413  21.379  1.00  0.00     0.170 HD
BRANCH  83  85
ATOM     85  C   UNL A   1      31.156  27.416  22.911  1.00  0.00     0.108 A 
ATOM     86  S   UNL A   1      29.578  26.945  23.295  1.00  0.00    -0.122 S 
ATOM     87  C   UNL A   1      31.447  28.640  23.555  1.00  0.00     0.078 A 
ATOM     88  C   UNL A   1      29.112  28.556  23.186  1.00  0.00     0.011 A 
ATOM     89  C   UNL A   1      30.152  29.386  23.589  1.00  0.00    -0.019 A 
ATOM     90  C   UNL A   1      27.717  28.945  22.818  1.00  0.00     0.047 C 
ATOM     91  C   UNL A   1      29.774  30.826  23.855  1.00  0.00     0.037 C 
ATOM     92  C   UNL A   1      27.631  30.455  22.611  1.00  0.00     0.006 C 
ATOM     93  C   UNL A   1      28.273  31.145  23.806  1.00  0.00     0.005 C 
BRANCH  87  94
ATOM     94  C   UNL A   1      32.881  28.855  23.926  1.00  0.00     0.254 C 
ATOM     95  O   UNL A   1      33.673  29.299  23.079  1.00  0.00    -0.269 OA
ATOM     96  N   UNL A   1      33.510  28.402  25.068  1.00  0.00    -0.349 N 
ATOM     97  H   UNL A   1      34.011  27.558  24.998  1.00  0.00     0.164 HD
BRANCH  96  98
ATOM     98  C   UNL A   1      33.503  29.064  26.378  1.00  0.00     0.082 C 
ATOM     99  C   UNL A   1      34.858  28.965  27.050  1.00  0.00     0.025 C 
ATOM    100  C   UNL A   1      33.036  30.473  26.222  1.00  0.00     0.025 C 
ATOM    101  C   UNL A   1      35.242  30.164  27.889  1.00  0.00     0.002 C 
ATOM    102  C   UNL A   1      33.032  31.323  27.453  1.00  0.00     0.002 C 
ATOM    103  C   UNL A   1      34.455  31.458  27.896  1.00  0.00     0.000 C 
ENDBRANCH  96  98
ENDBRANCH  87  94
ENDBRANCH  83  85
ENDBRANCH  76  81
ENDBRANCH  72  74
ENDBRANCH  71  72
ENDBRANCH   1  71
TORSDOF 18
ENDMDL
MODEL 3
REMARK VINA RESULT:     -12.8      2.587      7.971
REMARK SMILES O=C(OCCOC(=O)[C@H]1[C@H]2CC[C@H](C2)[C@@H]1C(=O)Nc1sc2c(c1C(=O)NC1CCCCC1)CCCC2)c1ccc(-c2c3nc(c(-c4cc(S(=O)(=O)[O-])ccc4F)c4ccc([nH]4)c(-c4cc(S(=O)(=O)[O-])ccc4F)c4nc(c(-c5cc(S(=O)(=O)[O-])ccc5F)c5ccc2[nH]5)C=C4)C=C3)cc1
REMARK SMILES IDX 5 1 4 2 3 3 2 4 1 5 37 6 38 7 99 8 39 9 98 10 40 11 41 12
REMARK SMILES IDX 42 13 92 14 43 15 97 16 91 17 93 18 44 19 96 20 90 21 89 22
REMARK SMILES IDX 45 24 77 25 57 26 76 27 58 28 61 29 75 30 94 31 59 32 60 33
REMARK SMILES IDX 74 35 95 36 62 37 46 38 47 39 55 40 48 41 54 42 56 43 53 44
REMARK SMILES IDX 49 45 50 46 51 47 52 48 78 49 79 50 87 51 80 52 86 53 88 54
REMARK SMILES IDX 85 55 81 56 82 57 83 58 84 59 63 60 64 61 72 62 65 63 71 64
REMARK SMILES IDX 73 65 70 66 66 67 67 68 68 69 69 70 6 71 7 72 8 73 9 74
REMARK SMILES IDX 10 75 15 76 11 77 14 78 13 79 12 80 16 81 17 82 18 83 19 85
REMARK SMILES IDX 20 86 23 87 21 88 22 89 36 90 33 91 35 92 34 93 24 94 25 95
REMARK SMILES IDX 26 96 27 98 28 99 32 100 29 101 31 102 30 103
REMARK H PARENT 93 23 61 34 18 84 26 97
REMARK Flexibility Score: inf
ROOT
ATOM      1  C   UNL A   1      34.665  20.454  24.884  1.00  0.00     0.274 C 
ENDROOT
BRANCH   1   2
ATOM      2  C   UNL A   1      35.855  21.165  25.519  1.00  0.00     0.275 C 
BRANCH   2   3
ATOM      3  O   UNL A   1      37.118  20.897  24.888  1.00  0.00    -0.458 OA
BRANCH   3   4
ATOM      4  C   UNL A   1      38.368  20.893  25.413  1.00  0.00     0.338 C 
ATOM      5  O   UNL A   1      39.016  19.849  25.382  1.00  0.00    -0.246 OA
BRANCH   4   6
ATOM      6  C   UNL A   1      38.968  22.063  26.134  1.00  0.00     0.060 A 
ATOM      7  C   UNL A   1      38.603  23.401  25.961  1.00  0.00     0.016 A 
ATOM      8  C   UNL A   1      40.038  21.787  27.004  1.00  0.00     0.016 A 
ATOM      9  C   UNL A   1      39.258  24.433  26.659  1.00  0.00     0.010 A 
ATOM     10  C   UNL A   1      40.687  22.814  27.711  1.00  0.00     0.010 A 
ATOM     11  C   UNL A   1      40.323  24.156  27.520  1.00  0.00    -0.014 A 
BRANCH  11  12
ATOM     12  C   UNL A   1      41.174  25.273  28.041  1.00  0.00     0.031 A 
ATOM     13  C   UNL A   1      40.492  26.329  28.909  1.00  0.00     0.074 A 
ATOM     14  C   UNL A   1      42.457  25.421  27.633  1.00  0.00     0.049 A 
ATOM     15  N   UNL A   1      40.983  27.390  29.507  1.00  0.00    -0.248 NA
ATOM     16  C   UNL A   1      39.029  26.215  29.031  1.00  0.00     0.031 C 
ATOM     17  C   UNL A   1      43.157  24.544  26.687  1.00  0.00     0.029 A 
ATOM     18  N   UNL A   1      43.384  26.407  27.901  1.00  0.00    -0.354 N 
ATOM     19  C   UNL A   1      39.885  28.146  29.933  1.00  0.00     0.074 A 
ATOM     20  C   UNL A   1      38.711  27.357  29.617  1.00  0.00     0.031 C 
ATOM     21  C   UNL A   1      44.381  25.050  26.432  1.00  0.00     0.029 A 
ATOM     22  C   UNL A   1      44.555  26.300  27.175  1.00  0.00     0.049 A 
ATOM     23  H   UNL A   1      43.226  27.126  28.555  1.00  0.00     0.167 HD
ATOM     24  C   UNL A   1      39.847  29.419  30.426  1.00  0.00     0.034 A 
ATOM     25  C   UNL A   1      45.614  27.137  27.090  1.00  0.00     0.034 A 
ATOM     26  C   UNL A   1      41.029  30.236  30.648  1.00  0.00     0.049 A 
ATOM     27  C   UNL A   1      45.560  28.489  27.793  1.00  0.00     0.074 A 
ATOM     28  C   UNL A   1      41.257  31.243  31.569  1.00  0.00     0.029 A 
ATOM     29  N   UNL A   1      42.164  30.205  29.847  1.00  0.00    -0.354 N 
ATOM     30  N   UNL A   1      44.627  29.012  28.559  1.00  0.00    -0.248 NA
ATOM     31  C   UNL A   1      46.698  29.388  27.554  1.00  0.00     0.031 C 
ATOM     32  C   UNL A   1      42.525  31.811  31.301  1.00  0.00     0.029 A 
ATOM     33  C   UNL A   1      43.116  31.129  30.244  1.00  0.00     0.049 A 
ATOM     34  H   UNL A   1      42.279  29.595  29.082  1.00  0.00     0.167 HD
ATOM     35  C   UNL A   1      45.044  30.315  28.865  1.00  0.00     0.074 A 
ATOM     36  C   UNL A   1      46.345  30.468  28.238  1.00  0.00     0.031 C 
ATOM     37  C   UNL A   1      44.411  31.294  29.581  1.00  0.00     0.034 A 
BRANCH  24  38
ATOM     38  C   UNL A   1      38.470  30.007  30.687  1.00  0.00     0.023 A 
ATOM     39  C   UNL A   1      37.840  30.860  29.757  1.00  0.00     0.031 A 
ATOM     40  C   UNL A   1      37.828  29.812  31.923  1.00  0.00     0.131 A 
ATOM     41  C   UNL A   1      36.672  31.558  30.113  1.00  0.00     0.055 A 
ATOM     42  C   UNL A   1      36.618  30.444  32.238  1.00  0.00     0.041 A 
ATOM     43  F   UNL A   1      38.393  29.050  32.873  1.00  0.00    -0.206 F 
ATOM     44  C   UNL A   1      36.041  31.336  31.337  1.00  0.00     0.022 A 
BRANCH  41  45
ATOM     45  S   UNL A   1      36.064  32.853  28.992  1.00  0.00     0.124 S 
ATOM     46  O   UNL A   1      35.994  32.119  27.721  1.00  0.00    -0.237 OA
ATOM     47  O   UNL A   1      34.809  33.232  29.580  1.00  0.00    -0.237 OA
ATOM     48  O   UNL A   1      37.127  33.872  29.048  1.00  0.00    -0.744 OA
ENDBRANCH  41  45
ENDBRANCH  24  38
BRANCH  25  49
ATOM     49  C   UNL A   1      46.804  26.813  26.233  1.00  0.00     0.023 A 
ATOM     50  C   UNL A   1      47.965  26.253  26.795  1.00  0.00     0.031 A 
ATOM     51  C   UNL A   1      46.850  27.170  24.873  1.00  0.00     0.131 A 
ATOM     52  C   UNL A   1      49.126  26.098  26.014  1.00  0.00     0.055 A 
ATOM     53  C   UNL A   1      47.991  26.970  24.086  1.00  0.00     0.041 A 
ATOM     54  F   UNL A   1      45.789  27.759  24.300  1.00  0.00    -0.206 F 
ATOM     55  C   UNL A   1      49.142  26.436  24.660  1.00  0.00     0.022 A 
BRANCH  52  56
ATOM     56  S   UNL A   1      50.653  25.526  26.819  1.00  0.00     0.124 S 
ATOM     57  O   UNL A   1      50.182  24.348  27.536  1.00  0.00    -0.237 OA
ATOM     58  O   UNL A   1      51.526  25.277  25.676  1.00  0.00    -0.237 OA
ATOM     59  O   UNL A   1      51.041  26.659  27.658  1.00  0.00    -0.744 OA
ENDBRANCH  52  56
ENDBRANCH  25  49
BRANCH  37  60
ATOM     60  C   UNL A   1      45.207  32.563  29.830  1.00  0.00     0.023 A 
ATOM     61  C   UNL A   1      46.142  32.728  30.876  1.00  0.00     0.031 A 
ATOM     62  C   UNL A   1      44.939  33.680  29.017  1.00  0.00     0.131 A 
ATOM     63  C   UNL A   1      46.741  33.986  31.089  1.00  0.00     0.055 A 
ATOM     64  C   UNL A   1      45.591  34.899  29.186  1.00  0.00     0.041 A 
ATOM     65  F   UNL A   1      44.014  33.610  28.047  1.00  0.00    -0.206 F 
ATOM     66  C   UNL A   1      46.489  35.061  30.232  1.00  0.00     0.022 A 
BRANCH  63  67
ATOM     67  S   UNL A   1      47.765  34.267  32.569  1.00  0.00     0.124 S 
ATOM     68  O   UNL A   1      47.351  33.173  33.440  1.00  0.00    -0.237 OA
ATOM     69  O   UNL A   1      49.120  34.179  32.034  1.00  0.00    -0.237 OA
ATOM     70  O   UNL A   1      47.363  35.600  33.017  1.00  0.00    -0.744 OA
ENDBRANCH  63  67
ENDBRANCH  37  60
ENDBRANCH  11  12
ENDBRANCH   4   6
ENDBRANCH   3   4
ENDBRANCH   2   3
ENDBRANCH   1   2
BRANCH   1  71
ATOM     71  O   UNL A   1      33.728  21.365  24.307  1.00  0.00    -0.462 OA
BRANCH  71  72
ATOM     72  C   UNL A   1      32.459  21.301  24.809  1.00  0.00     0.310 C 
ATOM     73  O   UNL A   1      31.825  20.265  24.979  1.00  0.00    -0.252 OA
BRANCH  72  74
ATOM     74  C   UNL A   1      31.938  22.700  25.047  1.00  0.00     0.115 C 
ATOM     75  C   UNL A   1      31.663  22.942  26.551  1.00  0.00     0.004 C 
ATOM     76  C   UNL A   1      32.937  23.828  24.659  1.00  0.00     0.096 C 
ATOM     77  C   UNL A   1      32.895  22.618  27.406  1.00  0.00     0.005 C 
ATOM     78  C   UNL A   1      31.665  24.462  26.600  1.00  0.00     0.009 C 
ATOM     79  C   UNL A   1      33.070  24.568  25.998  1.00  0.00     0.003 C 
ATOM     80  C   UNL A   1      33.888  23.700  26.981  1.00  0.00     0.005 C 
BRANCH  76  81
ATOM     81  C   UNL A   1      32.513  24.475  23.314  1.00  0.00     0.229 C 
ATOM     82  O   UNL A   1      32.466  23.712  22.334  1.00  0.00    -0.274 OA
ATOM     83  N   UNL A   1      31.976  25.707  23.103  1.00  0.00    -0.317 N 
ATOM     84  H   UNL A   1      31.343  25.732  22.351  1.00  0.00     0.170 HD
BRANCH  83  85
ATOM     85  C   UNL A   1      32.133  26.928  23.724  1.00  0.00     0.108 A 
ATOM     86  S   UNL A   1      33.667  27.642  23.718  1.00  0.00    -0.122 S 
ATOM     87  C   UNL A   1      31.169  27.895  24.086  1.00  0.00     0.078 A 
ATOM     88  C   UNL A   1      33.223  28.513  25.086  1.00  0.00     0.011 A 
ATOM     89  C   UNL A   1      31.863  28.801  25.052  1.00  0.00    -0.019 A 
ATOM     90  C   UNL A   1      34.235  28.976  26.083  1.00  0.00     0.047 C 
ATOM     91  C   UNL A   1      31.392  29.848  26.037  1.00  0.00     0.037 C 
ATOM     92  C   UNL A   1      33.536  29.567  27.304  1.00  0.00     0.006 C 
ATOM     93  C   UNL A   1      32.493  30.569  26.827  1.00  0.00     0.005 C 
BRANCH  87  94
ATOM     94  C   UNL A   1      29.805  27.707  23.499  1.00  0.00     0.254 C 
ATOM     95  O   UNL A   1      29.156  26.686  23.774  1.00  0.00    -0.269 OA
ATOM     96  N   UNL A   1      29.242  28.446  22.479  1.00  0.00    -0.349 N 
ATOM     97  H   UNL A   1      29.310  28.078  21.568  1.00  0.00     0.164 HD
BRANCH  96  98
ATOM     98  C   UNL A   1      28.548  29.732  22.625  1.00  0.00     0.082 C 
ATOM     99  C   UNL A   1      29.073  30.505  23.820  1.00  0.00     0.025 C 
ATOM    100  C   UNL A   1      28.649  30.500  21.350  1.00  0.00     0.025 C 
ATOM    101  C   UNL A   1      29.096  32.007  23.645  1.00  0.00     0.002 C 
ATOM    102  C   UNL A   1      28.054  31.873  21.341  1.00  0.00     0.002 C 
ATOM    103  C   UNL A   1      28.832  32.693  22.321  1.00  0.00     0.000 C 
ENDBRANCH  96  98
ENDBRANCH  87  94
ENDBRANCH  83  85
ENDBRANCH  76  81
ENDBRANCH  72  74
ENDBRANCH  71  72
ENDBRANCH   1  71
TORSDOF 18
ENDMDL
