MODEL 1
REMARK VINA RESULT:      -9.3      0.000      0.000
REMARK SMILES [NH3+][C@@H]1C=C[C@H](C(=O)N(CC(=O)OCCOC(=O)c2ccc(-c3c4nc(c(-c5cc(S(=O)(=O)[O-])ccc5F)c5ccc([nH]5)c(-c5cc(S(=O)(=O)[O-])ccc5F)c5nc(c(-c6cc(S(=O)(=O)[O-])ccc6F)c6ccc3[nH]6)C=C5)C=C4)cc2)c2ccccc2)C1
REMARK SMILES IDX 13 1 12 2 10 3 11 4 9 5 8 6 6 7 7 8 5 9 2 10 3 11 87 12 4 13
REMARK SMILES IDX 1 14 81 18 82 19 86 20 83 21 85 22 84 23 14 24 15 25 16 26
REMARK SMILES IDX 17 27 18 28 19 29 80 30 20 31 79 32 21 33 22 34 23 35 73 36
REMARK SMILES IDX 24 37 78 38 72 39 74 40 25 41 77 42 71 43 70 44 26 46 58 47
REMARK SMILES IDX 38 48 57 49 39 50 42 51 56 52 75 53 40 54 41 55 55 57 76 58
REMARK SMILES IDX 43 59 27 60 28 61 36 62 29 63 35 64 37 65 34 66 30 67 31 68
REMARK SMILES IDX 32 69 33 70 59 71 60 72 68 73 61 74 67 75 69 76 66 77 62 78
REMARK SMILES IDX 63 79 64 80 65 81 44 82 45 83 53 84 46 85 52 86 54 87 51 88
REMARK SMILES IDX 47 89 48 90 49 91 50 92
REMARK H PARENT 1 15 1 16 1 17 74 45 42 56
REMARK Flexibility Score: inf
ROOT
ATOM      1  C   UNL A   1      34.139  34.313  30.023  1.00  0.00     0.274 C 
ENDROOT
BRANCH   1   2
ATOM      2  O   UNL A   1      34.180  33.298  31.047  1.00  0.00    -0.461 OA
BRANCH   2   3
ATOM      3  C   UNL A   1      34.298  33.776  32.316  1.00  0.00     0.326 C 
ATOM      4  O   UNL A   1      33.624  33.386  33.266  1.00  0.00    -0.250 OA
BRANCH   3   5
ATOM      5  C   UNL A   1      35.510  34.674  32.507  1.00  0.00     0.248 C 
BRANCH   5   6
ATOM      6  N   UNL A   1      36.770  34.084  32.967  1.00  0.00    -0.301 N 
BRANCH   6   7
ATOM      7  C   UNL A   1      36.926  33.229  34.051  1.00  0.00     0.234 C 
ATOM      8  O   UNL A   1      36.594  32.037  33.965  1.00  0.00    -0.274 OA
BRANCH   7   9
ATOM      9  C   UNL A   1      37.616  33.668  35.377  1.00  0.00     0.108 C 
ATOM     10  C   UNL A   1      38.548  31.766  36.638  1.00  0.00     0.205 C 
ATOM     11  C   UNL A   1      37.475  32.463  37.402  1.00  0.00     0.033 C 
ATOM     12  C   UNL A   1      38.899  32.823  35.581  1.00  0.00     0.087 C 
ATOM     13  C   UNL A   1      36.993  33.519  36.733  1.00  0.00    -0.012 C 
BRANCH  10  14
ATOM     14  N   UNL A   1      38.054  30.529  36.068  1.00  0.00    -0.352 N 
ATOM     15  H   UNL A   1      38.606  30.290  35.244  1.00  0.00     0.345 HD
ATOM     16  H   UNL A   1      37.076  30.645  35.799  1.00  0.00     0.345 HD
ATOM     17  H   UNL A   1      38.131  29.781  36.757  1.00  0.00     0.345 HD
ENDBRANCH  10  14
ENDBRANCH   7   9
ENDBRANCH   6   7
BRANCH   6  18
ATOM     18  C   UNL A   1      37.810  34.148  31.985  1.00  0.00     0.044 A 
ATOM     19  C   UNL A   1      37.591  33.664  30.690  1.00  0.00     0.026 A 
ATOM     20  C   UNL A   1      39.104  34.516  32.372  1.00  0.00     0.026 A 
ATOM     21  C   UNL A   1      38.655  33.545  29.793  1.00  0.00     0.002 A 
ATOM     22  C   UNL A   1      40.170  34.369  31.483  1.00  0.00     0.002 A 
ATOM     23  C   UNL A   1      39.946  33.884  30.196  1.00  0.00     0.000 A 
ENDBRANCH   6  18
ENDBRANCH   5   6
ENDBRANCH   3   5
ENDBRANCH   2   3
ENDBRANCH   1   2
BRANCH   1  24
ATOM     24  C   UNL A   1      33.737  33.691  28.683  1.00  0.00     0.275 C 
BRANCH  24  25
ATOM     25  O   UNL A   1      34.839  32.942  28.133  1.00  0.00    -0.458 OA
BRANCH  25  26
ATOM     26  C   UNL A   1      34.633  31.612  28.002  1.00  0.00     0.338 C 
ATOM     27  O   UNL A   1      33.625  31.080  27.547  1.00  0.00    -0.246 OA
BRANCH  26  28
ATOM     28  C   UNL A   1      35.794  30.837  28.496  1.00  0.00     0.060 A 
ATOM     29  C   UNL A   1      35.716  30.024  29.629  1.00  0.00     0.016 A 
ATOM     30  C   UNL A   1      37.021  30.991  27.846  1.00  0.00     0.016 A 
ATOM     31  C   UNL A   1      36.872  29.454  30.169  1.00  0.00     0.010 A 
ATOM     32  C   UNL A   1      38.158  30.338  28.329  1.00  0.00     0.010 A 
ATOM     33  C   UNL A   1      38.106  29.591  29.518  1.00  0.00    -0.014 A 
BRANCH  33  34
ATOM     34  C   UNL A   1      39.340  28.951  30.055  1.00  0.00     0.031 A 
ATOM     35  C   UNL A   1      40.041  29.539  31.253  1.00  0.00     0.074 A 
ATOM     36  C   UNL A   1      39.860  27.873  29.434  1.00  0.00     0.049 A 
ATOM     37  N   UNL A   1      41.212  29.240  31.756  1.00  0.00    -0.248 NA
ATOM     38  C   UNL A   1      39.343  30.621  31.965  1.00  0.00     0.031 C 
ATOM     39  C   UNL A   1      39.278  27.206  28.267  1.00  0.00     0.029 A 
ATOM     40  N   UNL A   1      41.007  27.158  29.683  1.00  0.00    -0.354 N 
ATOM     41  C   UNL A   1      41.415  30.127  32.811  1.00  0.00     0.074 A 
ATOM     42  C   UNL A   1      40.245  30.978  32.869  1.00  0.00     0.031 C 
ATOM     43  C   UNL A   1      40.065  26.182  27.905  1.00  0.00     0.029 A 
ATOM     44  C   UNL A   1      41.242  26.161  28.765  1.00  0.00     0.049 A 
ATOM     45  H   UNL A   1      41.601  27.341  30.446  1.00  0.00     0.167 HD
ATOM     46  C   UNL A   1      42.479  30.222  33.645  1.00  0.00     0.034 A 
ATOM     47  C   UNL A   1      42.306  25.350  28.597  1.00  0.00     0.034 A 
ATOM     48  C   UNL A   1      43.620  29.338  33.601  1.00  0.00     0.049 A 
ATOM     49  C   UNL A   1      43.473  25.474  29.539  1.00  0.00     0.074 A 
ATOM     50  C   UNL A   1      44.718  29.306  34.446  1.00  0.00     0.029 A 
ATOM     51  N   UNL A   1      43.813  28.332  32.665  1.00  0.00    -0.354 N 
ATOM     52  N   UNL A   1      43.643  26.316  30.532  1.00  0.00    -0.248 NA
ATOM     53  C   UNL A   1      44.589  24.542  29.337  1.00  0.00     0.031 C 
ATOM     54  C   UNL A   1      45.599  28.321  33.985  1.00  0.00     0.029 A 
ATOM     55  C   UNL A   1      45.024  27.694  32.891  1.00  0.00     0.049 A 
ATOM     56  H   UNL A   1      43.182  28.105  31.944  1.00  0.00     0.167 HD
ATOM     57  C   UNL A   1      44.884  26.006  31.078  1.00  0.00     0.074 A 
ATOM     58  C   UNL A   1      45.405  24.886  30.322  1.00  0.00     0.031 C 
ATOM     59  C   UNL A   1      45.537  26.594  32.112  1.00  0.00     0.034 A 
BRANCH  46  60
ATOM     60  C   UNL A   1      42.493  31.352  34.644  1.00  0.00     0.023 A 
ATOM     61  C   UNL A   1      42.793  32.675  34.277  1.00  0.00     0.031 A 
ATOM     62  C   UNL A   1      42.184  31.095  35.993  1.00  0.00     0.131 A 
ATOM     63  C   UNL A   1      42.821  33.682  35.255  1.00  0.00     0.055 A 
ATOM     64  C   UNL A   1      42.153  32.112  36.949  1.00  0.00     0.041 A 
ATOM     65  F   UNL A   1      41.907  29.848  36.404  1.00  0.00    -0.206 F 
ATOM     66  C   UNL A   1      42.482  33.414  36.583  1.00  0.00     0.022 A 
BRANCH  63  67
ATOM     67  S   UNL A   1      43.399  35.337  34.786  1.00  0.00     0.124 S 
ATOM     68  O   UNL A   1      43.450  36.009  36.082  1.00  0.00    -0.237 OA
ATOM     69  O   UNL A   1      44.686  35.056  34.161  1.00  0.00    -0.237 OA
ATOM     70  O   UNL A   1      42.359  35.820  33.881  1.00  0.00    -0.744 OA
ENDBRANCH  63  67
ENDBRANCH  46  60
BRANCH  47  71
ATOM     71  C   UNL A   1      42.346  24.395  27.453  1.00  0.00     0.023 A 
ATOM     72  C   UNL A   1      41.686  23.159  27.515  1.00  0.00     0.031 A 
ATOM     73  C   UNL A   1      43.074  24.700  26.288  1.00  0.00     0.131 A 
ATOM     74  C   UNL A   1      41.792  22.258  26.444  1.00  0.00     0.055 A 
ATOM     75  C   UNL A   1      43.136  23.822  25.207  1.00  0.00     0.041 A 
ATOM     76  F   UNL A   1      43.720  25.872  26.179  1.00  0.00    -0.206 F 
ATOM     77  C   UNL A   1      42.503  22.586  25.286  1.00  0.00     0.022 A 
BRANCH  74  78
ATOM     78  S   UNL A   1      41.053  20.612  26.618  1.00  0.00     0.124 S 
ATOM     79  O   UNL A   1      39.844  20.739  25.813  1.00  0.00    -0.237 OA
ATOM     80  O   UNL A   1      42.099  19.753  26.073  1.00  0.00    -0.237 OA
ATOM     81  O   UNL A   1      40.834  20.489  28.058  1.00  0.00    -0.744 OA
ENDBRANCH  74  78
ENDBRANCH  47  71
BRANCH  59  82
ATOM     82  C   UNL A   1      46.872  26.007  32.489  1.00  0.00     0.023 A 
ATOM     83  C   UNL A   1      46.982  25.009  33.472  1.00  0.00     0.031 A 
ATOM     84  C   UNL A   1      48.049  26.479  31.884  1.00  0.00     0.131 A 
ATOM     85  C   UNL A   1      48.249  24.554  33.863  1.00  0.00     0.055 A 
ATOM     86  C   UNL A   1      49.304  25.985  32.241  1.00  0.00     0.041 A 
ATOM     87  F   UNL A   1      47.999  27.433  30.941  1.00  0.00    -0.206 F 
ATOM     88  C   UNL A   1      49.410  25.026  33.245  1.00  0.00     0.022 A 
BRANCH  85  89
ATOM     89  S   UNL A   1      48.367  23.398  35.257  1.00  0.00     0.124 S 
ATOM     90  O   UNL A   1      47.607  24.092  36.291  1.00  0.00    -0.237 OA
ATOM     91  O   UNL A   1      47.751  22.191  34.715  1.00  0.00    -0.237 OA
ATOM     92  O   UNL A   1      49.805  23.301  35.503  1.00  0.00    -0.744 OA
ENDBRANCH  85  89
ENDBRANCH  59  82
ENDBRANCH  33  34
ENDBRANCH  26  28
ENDBRANCH  25  26
ENDBRANCH  24  25
ENDBRANCH   1  24
TORSDOF 19
ENDMDL
MODEL 2
REMARK VINA RESULT:      -9.3      4.126     10.485
REMARK SMILES [NH3+][C@@H]1C=C[C@H](C(=O)N(CC(=O)OCCOC(=O)c2ccc(-c3c4nc(c(-c5cc(S(=O)(=O)[O-])ccc5F)c5ccc([nH]5)c(-c5cc(S(=O)(=O)[O-])ccc5F)c5nc(c(-c6cc(S(=O)(=O)[O-])ccc6F)c6ccc3[nH]6)C=C5)C=C4)cc2)c2ccccc2)C1
REMARK SMILES IDX 13 1 12 2 10 3 11 4 9 5 8 6 6 7 7 8 5 9 2 10 3 11 87 12 4 13
REMARK SMILES IDX 1 14 81 18 82 19 86 20 83 21 85 22 84 23 14 24 15 25 16 26
REMARK SMILES IDX 17 27 18 28 19 29 80 30 20 31 79 32 21 33 22 34 23 35 73 36
REMARK SMILES IDX 24 37 78 38 72 39 74 40 25 41 77 42 71 43 70 44 26 46 58 47
REMARK SMILES IDX 38 48 57 49 39 50 42 51 56 52 75 53 40 54 41 55 55 57 76 58
REMARK SMILES IDX 43 59 27 60 28 61 36 62 29 63 35 64 37 65 34 66 30 67 31 68
REMARK SMILES IDX 32 69 33 70 59 71 60 72 68 73 61 74 67 75 69 76 66 77 62 78
REMARK SMILES IDX 63 79 64 80 65 81 44 82 45 83 53 84 46 85 52 86 54 87 51 88
REMARK SMILES IDX 47 89 48 90 49 91 50 92
REMARK H PARENT 1 15 1 16 1 17 74 45 42 56
REMARK Flexibility Score: inf
ROOT
ATOM      1  C   UNL A   1      32.314  28.028  25.317  1.00  0.00     0.274 C 
ENDROOT
BRANCH   1   2
ATOM      2  O   UNL A   1      32.016  27.472  24.019  1.00  0.00    -0.461 OA
BRANCH   2   3
ATOM      3  C   UNL A   1      33.109  27.144  23.278  1.00  0.00     0.326 C 
ATOM      4  O   UNL A   1      34.012  27.926  22.995  1.00  0.00    -0.250 OA
BRANCH   3   5
ATOM      5  C   UNL A   1      33.234  25.649  23.027  1.00  0.00     0.248 C 
BRANCH   5   6
ATOM      6  N   UNL A   1      33.405  24.745  24.168  1.00  0.00    -0.301 N 
BRANCH   6   7
ATOM      7  C   UNL A   1      32.386  24.132  24.885  1.00  0.00     0.234 C 
ATOM      8  O   UNL A   1      32.014  24.597  25.974  1.00  0.00    -0.274 OA
BRANCH   7   9
ATOM      9  C   UNL A   1      31.581  22.917  24.334  1.00  0.00     0.108 C 
ATOM     10  C   UNL A   1      32.568  20.752  24.976  1.00  0.00     0.205 C 
ATOM     11  C   UNL A   1      32.571  20.945  23.498  1.00  0.00     0.033 C 
ATOM     12  C   UNL A   1      31.540  21.807  25.413  1.00  0.00     0.087 C 
ATOM     13  C   UNL A   1      32.002  22.105  23.146  1.00  0.00    -0.012 C 
BRANCH  10  14
ATOM     14  N   UNL A   1      33.888  20.976  25.528  1.00  0.00    -0.352 N 
ATOM     15  H   UNL A   1      33.911  20.654  26.496  1.00  0.00     0.345 HD
ATOM     16  H   UNL A   1      34.105  21.972  25.496  1.00  0.00     0.345 HD
ATOM     17  H   UNL A   1      34.578  20.459  24.982  1.00  0.00     0.345 HD
ENDBRANCH  10  14
ENDBRANCH   7   9
ENDBRANCH   6   7
BRANCH   6  18
ATOM     18  C   UNL A   1      34.734  24.224  24.274  1.00  0.00     0.044 A 
ATOM     19  C   UNL A   1      35.276  23.451  23.241  1.00  0.00     0.026 A 
ATOM     20  C   UNL A   1      35.419  24.322  25.491  1.00  0.00     0.026 A 
ATOM     21  C   UNL A   1      36.488  22.782  23.423  1.00  0.00     0.002 A 
ATOM     22  C   UNL A   1      36.616  23.629  25.680  1.00  0.00     0.002 A 
ATOM     23  C   UNL A   1      37.149  22.860  24.648  1.00  0.00     0.000 A 
ENDBRANCH   6  18
ENDBRANCH   5   6
ENDBRANCH   3   5
ENDBRANCH   2   3
ENDBRANCH   1   2
BRANCH   1  24
ATOM     24  C   UNL A   1      31.937  29.511  25.352  1.00  0.00     0.275 C 
BRANCH  24  25
ATOM     25  O   UNL A   1      33.107  30.314  25.607  1.00  0.00    -0.458 OA
BRANCH  25  26
ATOM     26  C   UNL A   1      33.051  31.093  26.711  1.00  0.00     0.338 C 
ATOM     27  O   UNL A   1      32.130  31.845  27.016  1.00  0.00    -0.246 OA
BRANCH  26  28
ATOM     28  C   UNL A   1      34.271  30.945  27.535  1.00  0.00     0.060 A 
ATOM     29  C   UNL A   1      35.114  32.025  27.814  1.00  0.00     0.016 A 
ATOM     30  C   UNL A   1      34.624  29.668  27.979  1.00  0.00     0.016 A 
ATOM     31  C   UNL A   1      36.346  31.813  28.439  1.00  0.00     0.010 A 
ATOM     32  C   UNL A   1      35.809  29.475  28.693  1.00  0.00     0.010 A 
ATOM     33  C   UNL A   1      36.703  30.539  28.901  1.00  0.00    -0.014 A 
BRANCH  33  34
ATOM     34  C   UNL A   1      37.993  30.305  29.609  1.00  0.00     0.031 A 
ATOM     35  C   UNL A   1      39.031  29.386  29.017  1.00  0.00     0.074 A 
ATOM     36  C   UNL A   1      38.209  30.877  30.811  1.00  0.00     0.049 A 
ATOM     37  N   UNL A   1      40.128  28.918  29.557  1.00  0.00    -0.248 NA
ATOM     38  C   UNL A   1      38.793  28.915  27.643  1.00  0.00     0.031 C 
ATOM     39  C   UNL A   1      37.286  31.788  31.493  1.00  0.00     0.029 A 
ATOM     40  N   UNL A   1      39.264  30.763  31.684  1.00  0.00    -0.354 N 
ATOM     41  C   UNL A   1      40.685  28.059  28.613  1.00  0.00     0.074 A 
ATOM     42  C   UNL A   1      39.799  28.070  27.467  1.00  0.00     0.031 C 
ATOM     43  C   UNL A   1      37.815  32.151  32.672  1.00  0.00     0.029 A 
ATOM     44  C   UNL A   1      39.077  31.447  32.863  1.00  0.00     0.049 A 
ATOM     45  H   UNL A   1      40.076  30.244  31.484  1.00  0.00     0.167 HD
ATOM     46  C   UNL A   1      41.824  27.330  28.699  1.00  0.00     0.034 A 
ATOM     47  C   UNL A   1      39.809  31.470  33.995  1.00  0.00     0.034 A 
ATOM     48  C   UNL A   1      42.719  27.362  29.832  1.00  0.00     0.049 A 
ATOM     49  C   UNL A   1      41.071  30.653  34.064  1.00  0.00     0.074 A 
ATOM     50  C   UNL A   1      43.933  26.714  29.989  1.00  0.00     0.029 A 
ATOM     51  N   UNL A   1      42.500  28.078  31.000  1.00  0.00    -0.354 N 
ATOM     52  N   UNL A   1      41.582  29.851  33.159  1.00  0.00    -0.248 NA
ATOM     53  C   UNL A   1      41.851  30.743  35.304  1.00  0.00     0.031 C 
ATOM     54  C   UNL A   1      44.418  26.993  31.272  1.00  0.00     0.029 A 
ATOM     55  C   UNL A   1      43.539  27.865  31.893  1.00  0.00     0.049 A 
ATOM     56  H   UNL A   1      41.719  28.654  31.171  1.00  0.00     0.167 HD
ATOM     57  C   UNL A   1      42.752  29.349  33.720  1.00  0.00     0.074 A 
ATOM     58  C   UNL A   1      42.882  29.958  35.028  1.00  0.00     0.031 C 
ATOM     59  C   UNL A   1      43.640  28.463  33.203  1.00  0.00     0.034 A 
BRANCH  46  60
ATOM     60  C   UNL A   1      42.146  26.389  27.565  1.00  0.00     0.023 A 
ATOM     61  C   UNL A   1      41.695  25.058  27.542  1.00  0.00     0.031 A 
ATOM     62  C   UNL A   1      42.913  26.845  26.476  1.00  0.00     0.131 A 
ATOM     63  C   UNL A   1      42.051  24.219  26.474  1.00  0.00     0.055 A 
ATOM     64  C   UNL A   1      43.212  26.023  25.388  1.00  0.00     0.041 A 
ATOM     65  F   UNL A   1      43.385  28.101  26.454  1.00  0.00    -0.206 F 
ATOM     66  C   UNL A   1      42.787  24.698  25.388  1.00  0.00     0.022 A 
BRANCH  63  67
ATOM     67  S   UNL A   1      41.619  22.459  26.567  1.00  0.00     0.124 S 
ATOM     68  O   UNL A   1      42.265  22.061  27.815  1.00  0.00    -0.237 OA
ATOM     69  O   UNL A   1      40.161  22.494  26.586  1.00  0.00    -0.237 OA
ATOM     70  O   UNL A   1      42.212  21.895  25.357  1.00  0.00    -0.744 OA
ENDBRANCH  63  67
ENDBRANCH  46  60
BRANCH  47  71
ATOM     71  C   UNL A   1      39.334  32.241  35.179  1.00  0.00     0.023 A 
ATOM     72  C   UNL A   1      39.713  33.577  35.377  1.00  0.00     0.031 A 
ATOM     73  C   UNL A   1      38.510  31.636  36.146  1.00  0.00     0.131 A 
ATOM     74  C   UNL A   1      39.296  34.256  36.532  1.00  0.00     0.055 A 
ATOM     75  C   UNL A   1      38.058  32.331  37.268  1.00  0.00     0.041 A 
ATOM     76  F   UNL A   1      38.116  30.361  36.000  1.00  0.00    -0.206 F 
ATOM     77  C   UNL A   1      38.462  33.646  37.473  1.00  0.00     0.022 A 
BRANCH  74  78
ATOM     78  S   UNL A   1      39.928  35.930  36.830  1.00  0.00     0.124 S 
ATOM     79  O   UNL A   1      41.330  35.671  37.134  1.00  0.00    -0.237 OA
ATOM     80  O   UNL A   1      39.658  36.584  35.554  1.00  0.00    -0.237 OA
ATOM     81  O   UNL A   1      39.121  36.401  37.954  1.00  0.00    -0.744 OA
ENDBRANCH  74  78
ENDBRANCH  47  71
BRANCH  59  82
ATOM     82  C   UNL A   1      44.837  28.131  34.055  1.00  0.00     0.023 A 
ATOM     83  C   UNL A   1      44.821  27.051  34.953  1.00  0.00     0.031 A 
ATOM     84  C   UNL A   1      45.992  28.930  33.993  1.00  0.00     0.131 A 
ATOM     85  C   UNL A   1      45.918  26.831  35.797  1.00  0.00     0.055 A 
ATOM     86  C   UNL A   1      47.102  28.674  34.800  1.00  0.00     0.041 A 
ATOM     87  F   UNL A   1      46.057  29.975  33.153  1.00  0.00    -0.206 F 
ATOM     88  C   UNL A   1      47.064  27.628  35.718  1.00  0.00     0.022 A 
BRANCH  85  89
ATOM     89  S   UNL A   1      45.794  25.541  37.067  1.00  0.00     0.124 S 
ATOM     90  O   UNL A   1      47.151  25.005  37.089  1.00  0.00    -0.237 OA
ATOM     91  O   UNL A   1      45.390  26.300  38.246  1.00  0.00    -0.237 OA
ATOM     92  O   UNL A   1      44.778  24.634  36.537  1.00  0.00    -0.744 OA
ENDBRANCH  85  89
ENDBRANCH  59  82
ENDBRANCH  33  34
ENDBRANCH  26  28
ENDBRANCH  25  26
ENDBRANCH  24  25
ENDBRANCH   1  24
TORSDOF 19
ENDMDL
MODEL 3
REMARK VINA RESULT:      -9.2      4.179     10.148
REMARK SMILES [NH3+][C@@H]1C=C[C@H](C(=O)N(CC(=O)OCCOC(=O)c2ccc(-c3c4nc(c(-c5cc(S(=O)(=O)[O-])ccc5F)c5ccc([nH]5)c(-c5cc(S(=O)(=O)[O-])ccc5F)c5nc(c(-c6cc(S(=O)(=O)[O-])ccc6F)c6ccc3[nH]6)C=C5)C=C4)cc2)c2ccccc2)C1
REMARK SMILES IDX 13 1 12 2 10 3 11 4 9 5 8 6 6 7 7 8 5 9 2 10 3 11 87 12 4 13
REMARK SMILES IDX 1 14 81 18 82 19 86 20 83 21 85 22 84 23 14 24 15 25 16 26
REMARK SMILES IDX 17 27 18 28 19 29 80 30 20 31 79 32 21 33 22 34 23 35 73 36
REMARK SMILES IDX 24 37 78 38 72 39 74 40 25 41 77 42 71 43 70 44 26 46 58 47
REMARK SMILES IDX 38 48 57 49 39 50 42 51 56 52 75 53 40 54 41 55 55 57 76 58
REMARK SMILES IDX 43 59 27 60 28 61 36 62 29 63 35 64 37 65 34 66 30 67 31 68
REMARK SMILES IDX 32 69 33 70 59 71 60 72 68 73 61 74 67 75 69 76 66 77 62 78
REMARK SMILES IDX 63 79 64 80 65 81 44 82 45 83 53 84 46 85 52 86 54 87 51 88
REMARK SMILES IDX 47 89 48 90 49 91 50 92
REMARK H PARENT 1 15 1 16 1 17 74 45 42 56
REMARK Flexibility Score: inf
ROOT
ATOM      1  C   UNL A   1      31.164  29.654  24.511  1.00  0.00     0.274 C 
ENDROOT
BRANCH   1   2
ATOM      2  O   UNL A   1      31.909  28.426  24.648  1.00  0.00    -0.461 OA
BRANCH   2   3
ATOM      3  C   UNL A   1      32.749  28.152  23.613  1.00  0.00     0.326 C 
ATOM      4  O   UNL A   1      32.896  28.877  22.633  1.00  0.00    -0.250 OA
BRANCH   3   5
ATOM      5  C   UNL A   1      33.675  26.978  23.889  1.00  0.00     0.248 C 
BRANCH   5   6
ATOM      6  N   UNL A   1      33.135  25.617  23.845  1.00  0.00    -0.301 N 
BRANCH   6   7
ATOM      7  C   UNL A   1      32.023  25.200  23.123  1.00  0.00     0.234 C 
ATOM      8  O   UNL A   1      31.996  25.314  21.888  1.00  0.00    -0.274 OA
BRANCH   7   9
ATOM      9  C   UNL A   1      30.814  24.474  23.784  1.00  0.00     0.108 C 
ATOM     10  C   UNL A   1      30.236  25.404  25.992  1.00  0.00     0.205 C 
ATOM     11  C   UNL A   1      30.666  23.980  26.087  1.00  0.00     0.033 C 
ATOM     12  C   UNL A   1      29.921  25.523  24.493  1.00  0.00     0.087 C 
ATOM     13  C   UNL A   1      30.945  23.463  24.883  1.00  0.00    -0.012 C 
BRANCH  10  14
ATOM     14  N   UNL A   1      31.296  26.292  26.426  1.00  0.00    -0.352 N 
ATOM     15  H   UNL A   1      30.976  27.259  26.361  1.00  0.00     0.345 HD
ATOM     16  H   UNL A   1      32.113  26.163  25.829  1.00  0.00     0.345 HD
ATOM     17  H   UNL A   1      31.543  26.080  27.392  1.00  0.00     0.345 HD
ENDBRANCH  10  14
ENDBRANCH   7   9
ENDBRANCH   6   7
BRANCH   6  18
ATOM     18  C   UNL A   1      34.063  24.631  24.312  1.00  0.00     0.044 A 
ATOM     19  C   UNL A   1      34.590  23.681  23.430  1.00  0.00     0.026 A 
ATOM     20  C   UNL A   1      34.294  24.497  25.687  1.00  0.00     0.026 A 
ATOM     21  C   UNL A   1      35.337  22.606  23.917  1.00  0.00     0.002 A 
ATOM     22  C   UNL A   1      35.016  23.406  26.172  1.00  0.00     0.002 A 
ATOM     23  C   UNL A   1      35.536  22.461  25.290  1.00  0.00     0.000 A 
ENDBRANCH   6  18
ENDBRANCH   5   6
ENDBRANCH   3   5
ENDBRANCH   2   3
ENDBRANCH   1   2
BRANCH   1  24
ATOM     24  C   UNL A   1      31.402  30.552  25.728  1.00  0.00     0.275 C 
BRANCH  24  25
ATOM     25  O   UNL A   1      32.777  30.460  26.151  1.00  0.00    -0.458 OA
BRANCH  25  26
ATOM     26  C   UNL A   1      33.183  31.408  27.026  1.00  0.00     0.338 C 
ATOM     27  O   UNL A   1      32.580  32.441  27.300  1.00  0.00    -0.246 OA
BRANCH  26  28
ATOM     28  C   UNL A   1      34.487  31.056  27.632  1.00  0.00     0.060 A 
ATOM     29  C   UNL A   1      34.828  29.738  27.948  1.00  0.00     0.016 A 
ATOM     30  C   UNL A   1      35.366  32.090  27.965  1.00  0.00     0.016 A 
ATOM     31  C   UNL A   1      35.985  29.466  28.682  1.00  0.00     0.010 A 
ATOM     32  C   UNL A   1      36.573  31.805  28.609  1.00  0.00     0.010 A 
ATOM     33  C   UNL A   1      36.881  30.494  29.008  1.00  0.00    -0.014 A 
BRANCH  33  34
ATOM     34  C   UNL A   1      38.143  30.214  29.751  1.00  0.00     0.031 A 
ATOM     35  C   UNL A   1      39.148  29.234  29.200  1.00  0.00     0.074 A 
ATOM     36  C   UNL A   1      38.360  30.799  30.946  1.00  0.00     0.049 A 
ATOM     37  N   UNL A   1      40.209  28.726  29.774  1.00  0.00    -0.248 NA
ATOM     38  C   UNL A   1      38.918  28.748  27.831  1.00  0.00     0.031 C 
ATOM     39  C   UNL A   1      37.467  31.766  31.590  1.00  0.00     0.029 A 
ATOM     40  N   UNL A   1      39.388  30.652  31.845  1.00  0.00    -0.354 N 
ATOM     41  C   UNL A   1      40.745  27.823  28.860  1.00  0.00     0.074 A 
ATOM     42  C   UNL A   1      39.886  27.852  27.694  1.00  0.00     0.031 C 
ATOM     43  C   UNL A   1      37.986  32.127  32.773  1.00  0.00     0.029 A 
ATOM     44  C   UNL A   1      39.208  31.368  33.006  1.00  0.00     0.049 A 
ATOM     45  H   UNL A   1      40.178  30.091  31.674  1.00  0.00     0.167 HD
ATOM     46  C   UNL A   1      41.845  27.041  28.986  1.00  0.00     0.034 A 
ATOM     47  C   UNL A   1      39.915  31.379  34.154  1.00  0.00     0.034 A 
ATOM     48  C   UNL A   1      42.716  27.054  30.138  1.00  0.00     0.049 A 
ATOM     49  C   UNL A   1      41.135  30.504  34.267  1.00  0.00     0.074 A 
ATOM     50  C   UNL A   1      43.894  26.352  30.335  1.00  0.00     0.029 A 
ATOM     51  N   UNL A   1      42.506  27.803  31.287  1.00  0.00    -0.354 N 
ATOM     52  N   UNL A   1      41.627  29.661  33.390  1.00  0.00    -0.248 NA
ATOM     53  C   UNL A   1      41.891  30.582  35.523  1.00  0.00     0.031 C 
ATOM     54  C   UNL A   1      44.364  26.634  31.624  1.00  0.00     0.029 A 
ATOM     55  C   UNL A   1      43.513  27.559  32.208  1.00  0.00     0.049 A 
ATOM     56  H   UNL A   1      41.750  28.419  31.428  1.00  0.00     0.167 HD
ATOM     57  C   UNL A   1      42.759  29.115  33.987  1.00  0.00     0.074 A 
ATOM     58  C   UNL A   1      42.889  29.743  35.286  1.00  0.00     0.031 C 
ATOM     59  C   UNL A   1      43.614  28.177  33.507  1.00  0.00     0.034 A 
BRANCH  46  60
ATOM     60  C   UNL A   1      42.147  26.064  27.877  1.00  0.00     0.023 A 
ATOM     61  C   UNL A   1      41.568  24.784  27.827  1.00  0.00     0.031 A 
ATOM     62  C   UNL A   1      43.025  26.433  26.841  1.00  0.00     0.131 A 
ATOM     63  C   UNL A   1      41.910  23.905  26.787  1.00  0.00     0.055 A 
ATOM     64  C   UNL A   1      43.313  25.576  25.777  1.00  0.00     0.041 A 
ATOM     65  F   UNL A   1      43.620  27.636  26.847  1.00  0.00    -0.206 F 
ATOM     66  C   UNL A   1      42.759  24.299  25.751  1.00  0.00     0.022 A 
BRANCH  63  67
ATOM     67  S   UNL A   1      41.299  22.197  26.854  1.00  0.00     0.124 S 
ATOM     68  O   UNL A   1      41.659  21.808  28.215  1.00  0.00    -0.237 OA
ATOM     69  O   UNL A   1      39.874  22.361  26.592  1.00  0.00    -0.237 OA
ATOM     70  O   UNL A   1      42.052  21.521  25.800  1.00  0.00    -0.744 OA
ENDBRANCH  63  67
ENDBRANCH  46  60
BRANCH  47  71
ATOM     71  C   UNL A   1      39.452  32.195  35.312  1.00  0.00     0.023 A 
ATOM     72  C   UNL A   1      38.724  31.618  36.363  1.00  0.00     0.031 A 
ATOM     73  C   UNL A   1      39.710  33.577  35.365  1.00  0.00     0.131 A 
ATOM     74  C   UNL A   1      38.251  32.426  37.409  1.00  0.00     0.055 A 
ATOM     75  C   UNL A   1      39.280  34.366  36.431  1.00  0.00     0.041 A 
ATOM     76  F   UNL A   1      40.406  34.176  34.385  1.00  0.00    -0.206 F 
ATOM     77  C   UNL A   1      38.534  33.793  37.456  1.00  0.00     0.022 A 
BRANCH  74  78
ATOM     78  S   UNL A   1      37.188  31.676  38.672  1.00  0.00     0.124 S 
ATOM     79  O   UNL A   1      36.014  32.539  38.627  1.00  0.00    -0.237 OA
ATOM     80  O   UNL A   1      37.011  30.324  38.151  1.00  0.00    -0.237 OA
ATOM     81  O   UNL A   1      37.989  31.772  39.890  1.00  0.00    -0.744 OA
ENDBRANCH  74  78
ENDBRANCH  47  71
BRANCH  59  82
ATOM     82  C   UNL A   1      44.775  27.807  34.393  1.00  0.00     0.023 A 
ATOM     83  C   UNL A   1      44.678  26.765  35.331  1.00  0.00     0.031 A 
ATOM     84  C   UNL A   1      45.978  28.530  34.321  1.00  0.00     0.131 A 
ATOM     85  C   UNL A   1      45.746  26.512  36.202  1.00  0.00     0.055 A 
ATOM     86  C   UNL A   1      47.057  28.238  35.157  1.00  0.00     0.041 A 
ATOM     87  F   UNL A   1      46.121  29.535  33.444  1.00  0.00    -0.206 F 
ATOM     88  C   UNL A   1      46.940  27.233  36.113  1.00  0.00     0.022 A 
BRANCH  85  89
ATOM     89  S   UNL A   1      45.523  25.283  37.518  1.00  0.00     0.124 S 
ATOM     90  O   UNL A   1      44.926  24.166  36.792  1.00  0.00    -0.237 OA
ATOM     91  O   UNL A   1      46.888  25.078  37.991  1.00  0.00    -0.237 OA
ATOM     92  O   UNL A   1      44.634  25.952  38.466  1.00  0.00    -0.744 OA
ENDBRANCH  85  89
ENDBRANCH  59  82
ENDBRANCH  33  34
ENDBRANCH  26  28
ENDBRANCH  25  26
ENDBRANCH  24  25
ENDBRANCH   1  24
TORSDOF 19
ENDMDL
