MODEL 1
REMARK VINA RESULT:     -11.4      0.000      0.000
REMARK SMILES CC[C@@H](C)N(C)C(=O)N1[C@@H](C(=O)OCCOC(=O)c2ccc(-c3c4nc(c(-c5cc(S(=O)(=O)[O-])ccc5F)c5ccc([nH]5)c(-c5cc(S(=O)(=O)[O-])ccc5F)c5nc(c(-c6cc(S(=O)(=O)[O-])ccc6F)c6ccc3[nH]6)C=C5)C=C4)cc2)CC[C@H]2CCCC[C@H]21
REMARK SMILES IDX 14 1 13 2 11 3 12 4 10 5 9 6 89 7 82 8 84 9 88 10 83 11
REMARK SMILES IDX 85 12 87 13 86 14 7 15 8 16 5 17 6 18 3 19 4 20 2 21 1 22
REMARK SMILES IDX 15 23 16 24 17 25 18 26 19 27 20 28 81 29 21 30 80 31 22 32
REMARK SMILES IDX 23 33 24 34 74 35 25 36 79 37 73 38 75 39 26 40 78 41 72 42
REMARK SMILES IDX 71 43 27 45 59 46 39 47 58 48 40 49 43 50 57 51 76 52 41 53
REMARK SMILES IDX 42 54 56 56 77 57 44 58 28 59 29 60 37 61 30 62 36 63 38 64
REMARK SMILES IDX 35 65 31 66 32 67 33 68 34 69 60 70 61 71 69 72 62 73 68 74
REMARK SMILES IDX 70 75 67 76 63 77 64 78 65 79 66 80 45 81 46 82 54 83 47 84
REMARK SMILES IDX 53 85 55 86 52 87 48 88 49 89 50 90 51 91
REMARK H PARENT 75 44 43 55
REMARK Flexibility Score: inf
ROOT
ATOM      1  C   UNL A   1      31.561  31.004  26.429  1.00  0.00     0.274 C 
ENDROOT
BRANCH   1   2
ATOM      2  O   UNL A   1      32.672  30.302  27.017  1.00  0.00    -0.461 OA
BRANCH   2   3
ATOM      3  C   UNL A   1      33.239  29.347  26.227  1.00  0.00     0.329 C 
ATOM      4  O   UNL A   1      34.330  28.834  26.452  1.00  0.00    -0.250 OA
BRANCH   3   5
ATOM      5  C   UNL A   1      32.376  29.005  24.995  1.00  0.00     0.197 C 
ATOM      6  N   UNL A   1      31.389  27.915  25.099  1.00  0.00    -0.308 N 
ATOM      7  C   UNL A   1      30.529  27.709  23.920  1.00  0.00     0.091 C 
ATOM      8  C   UNL A   1      33.197  28.901  23.706  1.00  0.00     0.038 C 
ATOM      9  C   UNL A   1      31.262  27.746  22.562  1.00  0.00     0.012 C 
ATOM     10  C   UNL A   1      29.547  26.533  23.972  1.00  0.00     0.025 C 
ATOM     11  C   UNL A   1      32.271  28.900  22.492  1.00  0.00     0.008 C 
ATOM     12  C   UNL A   1      31.906  26.424  22.121  1.00  0.00     0.006 C 
ATOM     13  C   UNL A   1      30.065  25.195  23.441  1.00  0.00     0.002 C 
ATOM     14  C   UNL A   1      31.481  25.181  22.883  1.00  0.00     0.000 C 
BRANCH   6  15
ATOM     15  C   UNL A   1      31.534  26.958  26.080  1.00  0.00     0.320 C 
ATOM     16  O   UNL A   1      30.966  27.051  27.164  1.00  0.00    -0.248 OA
BRANCH  15  17
ATOM     17  N   UNL A   1      32.410  25.915  25.787  1.00  0.00    -0.325 N 
ATOM     18  C   UNL A   1      33.676  26.103  25.074  1.00  0.00     0.149 C 
BRANCH  17  19
ATOM     19  C   UNL A   1      32.270  24.621  26.480  1.00  0.00     0.083 C 
ATOM     20  C   UNL A   1      33.352  23.602  26.099  1.00  0.00     0.031 C 
BRANCH  19  21
ATOM     21  C   UNL A   1      30.838  24.076  26.321  1.00  0.00     0.021 C 
ATOM     22  C   UNL A   1      30.777  22.568  26.138  1.00  0.00     0.006 C 
ENDBRANCH  19  21
ENDBRANCH  17  19
ENDBRANCH  15  17
ENDBRANCH   6  15
ENDBRANCH   3   5
ENDBRANCH   2   3
ENDBRANCH   1   2
BRANCH   1  23
ATOM     23  C   UNL A   1      31.504  32.479  26.848  1.00  0.00     0.275 C 
BRANCH  23  24
ATOM     24  O   UNL A   1      32.772  33.147  26.690  1.00  0.00    -0.458 OA
BRANCH  24  25
ATOM     25  C   UNL A   1      33.245  33.742  27.809  1.00  0.00     0.338 C 
ATOM     26  O   UNL A   1      32.665  34.589  28.480  1.00  0.00    -0.246 OA
BRANCH  25  27
ATOM     27  C   UNL A   1      34.491  33.096  28.259  1.00  0.00     0.060 A 
ATOM     28  C   UNL A   1      34.368  31.889  28.957  1.00  0.00     0.016 A 
ATOM     29  C   UNL A   1      35.749  33.670  28.067  1.00  0.00     0.016 A 
ATOM     30  C   UNL A   1      35.495  31.237  29.445  1.00  0.00     0.010 A 
ATOM     31  C   UNL A   1      36.883  33.029  28.588  1.00  0.00     0.010 A 
ATOM     32  C   UNL A   1      36.759  31.814  29.286  1.00  0.00    -0.014 A 
BRANCH  32  33
ATOM     33  C   UNL A   1      37.915  31.178  29.963  1.00  0.00     0.031 A 
ATOM     34  C   UNL A   1      38.202  31.521  31.397  1.00  0.00     0.074 A 
ATOM     35  C   UNL A   1      38.636  30.233  29.332  1.00  0.00     0.049 A 
ATOM     36  N   UNL A   1      39.144  31.073  32.187  1.00  0.00    -0.248 NA
ATOM     37  C   UNL A   1      37.299  32.497  32.023  1.00  0.00     0.031 C 
ATOM     38  C   UNL A   1      38.400  29.767  27.967  1.00  0.00     0.029 A 
ATOM     39  N   UNL A   1      39.703  29.487  29.763  1.00  0.00    -0.354 N 
ATOM     40  C   UNL A   1      38.952  31.714  33.406  1.00  0.00     0.074 A 
ATOM     41  C   UNL A   1      37.821  32.604  33.236  1.00  0.00     0.031 C 
ATOM     42  C   UNL A   1      39.294  28.808  27.673  1.00  0.00     0.029 A 
ATOM     43  C   UNL A   1      40.190  28.621  28.812  1.00  0.00     0.049 A 
ATOM     44  H   UNL A   1      40.085  29.563  30.668  1.00  0.00     0.167 HD
ATOM     45  C   UNL A   1      39.650  31.568  34.560  1.00  0.00     0.034 A 
ATOM     46  C   UNL A   1      41.250  27.788  28.851  1.00  0.00     0.034 A 
ATOM     47  C   UNL A   1      40.788  30.690  34.704  1.00  0.00     0.049 A 
ATOM     48  C   UNL A   1      42.070  27.711  30.116  1.00  0.00     0.074 A 
ATOM     49  C   UNL A   1      41.584  30.481  35.817  1.00  0.00     0.029 A 
ATOM     50  N   UNL A   1      41.299  29.879  33.697  1.00  0.00    -0.354 N 
ATOM     51  N   UNL A   1      41.897  28.343  31.254  1.00  0.00    -0.248 NA
ATOM     52  C   UNL A   1      43.224  26.803  30.099  1.00  0.00     0.031 C 
ATOM     53  C   UNL A   1      42.612  29.598  35.465  1.00  0.00     0.029 A 
ATOM     54  C   UNL A   1      42.416  29.194  34.154  1.00  0.00     0.049 A 
ATOM     55  H   UNL A   1      40.924  29.802  32.790  1.00  0.00     0.167 HD
ATOM     56  C   UNL A   1      42.909  27.891  32.097  1.00  0.00     0.074 A 
ATOM     57  C   UNL A   1      43.673  26.919  31.340  1.00  0.00     0.031 C 
ATOM     58  C   UNL A   1      43.182  28.243  33.380  1.00  0.00     0.034 A 
BRANCH  45  59
ATOM     59  C   UNL A   1      39.236  32.437  35.724  1.00  0.00     0.023 A 
ATOM     60  C   UNL A   1      39.621  33.787  35.816  1.00  0.00     0.031 A 
ATOM     61  C   UNL A   1      38.498  31.889  36.788  1.00  0.00     0.131 A 
ATOM     62  C   UNL A   1      39.337  34.517  36.982  1.00  0.00     0.055 A 
ATOM     63  C   UNL A   1      38.149  32.645  37.909  1.00  0.00     0.041 A 
ATOM     64  F   UNL A   1      38.124  30.600  36.768  1.00  0.00    -0.206 F 
ATOM     65  C   UNL A   1      38.584  33.963  38.018  1.00  0.00     0.022 A 
BRANCH  62  66
ATOM     66  S   UNL A   1      40.107  36.147  37.193  1.00  0.00     0.124 S 
ATOM     67  O   UNL A   1      41.478  35.783  37.545  1.00  0.00    -0.237 OA
ATOM     68  O   UNL A   1      39.923  36.755  35.880  1.00  0.00    -0.237 OA
ATOM     69  O   UNL A   1      39.334  36.753  38.275  1.00  0.00    -0.744 OA
ENDBRANCH  62  66
ENDBRANCH  45  59
BRANCH  46  70
ATOM     70  C   UNL A   1      41.629  26.994  27.648  1.00  0.00     0.023 A 
ATOM     71  C   UNL A   1      41.423  25.606  27.591  1.00  0.00     0.031 A 
ATOM     72  C   UNL A   1      42.253  27.614  26.549  1.00  0.00     0.131 A 
ATOM     73  C   UNL A   1      41.869  24.879  26.475  1.00  0.00     0.055 A 
ATOM     74  C   UNL A   1      42.650  26.893  25.422  1.00  0.00     0.041 A 
ATOM     75  F   UNL A   1      42.477  28.938  26.554  1.00  0.00    -0.206 F 
ATOM     76  C   UNL A   1      42.468  25.515  25.385  1.00  0.00     0.022 A 
BRANCH  73  77
ATOM     77  S   UNL A   1      41.715  23.072  26.495  1.00  0.00     0.124 S 
ATOM     78  O   UNL A   1      42.443  22.724  27.710  1.00  0.00    -0.237 OA
ATOM     79  O   UNL A   1      40.268  22.891  26.541  1.00  0.00    -0.237 OA
ATOM     80  O   UNL A   1      42.351  22.662  25.246  1.00  0.00    -0.744 OA
ENDBRANCH  73  77
ENDBRANCH  46  70
BRANCH  58  81
ATOM     81  C   UNL A   1      44.338  27.538  34.049  1.00  0.00     0.023 A 
ATOM     82  C   UNL A   1      44.172  26.312  34.718  1.00  0.00     0.031 A 
ATOM     83  C   UNL A   1      45.619  28.119  34.044  1.00  0.00     0.131 A 
ATOM     84  C   UNL A   1      45.252  25.739  35.409  1.00  0.00     0.055 A 
ATOM     85  C   UNL A   1      46.704  27.513  34.680  1.00  0.00     0.041 A 
ATOM     86  F   UNL A   1      45.838  29.289  33.423  1.00  0.00    -0.206 F 
ATOM     87  C   UNL A   1      46.520  26.325  35.382  1.00  0.00     0.022 A 
BRANCH  84  88
ATOM     88  S   UNL A   1      44.951  24.276  36.437  1.00  0.00     0.124 S 
ATOM     89  O   UNL A   1      44.446  24.869  37.671  1.00  0.00    -0.237 OA
ATOM     90  O   UNL A   1      43.978  23.532  35.643  1.00  0.00    -0.237 OA
ATOM     91  O   UNL A   1      46.269  23.654  36.543  1.00  0.00    -0.744 OA
ENDBRANCH  84  88
ENDBRANCH  58  81
ENDBRANCH  32  33
ENDBRANCH  25  27
ENDBRANCH  24  25
ENDBRANCH  23  24
ENDBRANCH   1  23
TORSDOF 18
ENDMDL
MODEL 2
REMARK VINA RESULT:     -11.3      1.423      2.696
REMARK SMILES CC[C@@H](C)N(C)C(=O)N1[C@@H](C(=O)OCCOC(=O)c2ccc(-c3c4nc(c(-c5cc(S(=O)(=O)[O-])ccc5F)c5ccc([nH]5)c(-c5cc(S(=O)(=O)[O-])ccc5F)c5nc(c(-c6cc(S(=O)(=O)[O-])ccc6F)c6ccc3[nH]6)C=C5)C=C4)cc2)CC[C@H]2CCCC[C@H]21
REMARK SMILES IDX 14 1 13 2 11 3 12 4 10 5 9 6 89 7 82 8 84 9 88 10 83 11
REMARK SMILES IDX 85 12 87 13 86 14 7 15 8 16 5 17 6 18 3 19 4 20 2 21 1 22
REMARK SMILES IDX 15 23 16 24 17 25 18 26 19 27 20 28 81 29 21 30 80 31 22 32
REMARK SMILES IDX 23 33 24 34 74 35 25 36 79 37 73 38 75 39 26 40 78 41 72 42
REMARK SMILES IDX 71 43 27 45 59 46 39 47 58 48 40 49 43 50 57 51 76 52 41 53
REMARK SMILES IDX 42 54 56 56 77 57 44 58 28 59 29 60 37 61 30 62 36 63 38 64
REMARK SMILES IDX 35 65 31 66 32 67 33 68 34 69 60 70 61 71 69 72 62 73 68 74
REMARK SMILES IDX 70 75 67 76 63 77 64 78 65 79 66 80 45 81 46 82 54 83 47 84
REMARK SMILES IDX 53 85 55 86 52 87 48 88 49 89 50 90 51 91
REMARK H PARENT 75 44 43 55
REMARK Flexibility Score: inf
ROOT
ATOM      1  C   UNL A   1      33.853  29.197  25.399  1.00  0.00     0.274 C 
ENDROOT
BRANCH   1   2
ATOM      2  O   UNL A   1      33.479  27.989  24.711  1.00  0.00    -0.461 OA
BRANCH   2   3
ATOM      3  C   UNL A   1      33.466  26.863  25.479  1.00  0.00     0.329 C 
ATOM      4  O   UNL A   1      33.045  26.827  26.630  1.00  0.00    -0.250 OA
BRANCH   3   5
ATOM      5  C   UNL A   1      34.073  25.643  24.755  1.00  0.00     0.197 C 
ATOM      6  N   UNL A   1      33.256  24.931  23.756  1.00  0.00    -0.308 N 
ATOM      7  C   UNL A   1      33.932  23.839  23.032  1.00  0.00     0.091 C 
ATOM      8  C   UNL A   1      34.766  24.670  25.715  1.00  0.00     0.038 C 
ATOM      9  C   UNL A   1      34.784  22.899  23.912  1.00  0.00     0.012 C 
ATOM     10  C   UNL A   1      33.084  23.032  22.042  1.00  0.00     0.025 C 
ATOM     11  C   UNL A   1      35.624  23.681  24.929  1.00  0.00     0.008 C 
ATOM     12  C   UNL A   1      34.018  21.755  24.592  1.00  0.00     0.006 C 
ATOM     13  C   UNL A   1      32.374  21.799  22.608  1.00  0.00     0.002 C 
ATOM     14  C   UNL A   1      32.616  21.483  24.077  1.00  0.00     0.000 C 
BRANCH   6  15
ATOM     15  C   UNL A   1      31.884  25.056  23.784  1.00  0.00     0.320 C 
ATOM     16  O   UNL A   1      31.180  24.305  24.451  1.00  0.00    -0.248 OA
BRANCH  15  17
ATOM     17  N   UNL A   1      31.347  26.045  22.964  1.00  0.00    -0.325 N 
ATOM     18  C   UNL A   1      31.408  26.000  21.500  1.00  0.00     0.149 C 
BRANCH  17  19
ATOM     19  C   UNL A   1      30.388  27.019  23.518  1.00  0.00     0.083 C 
ATOM     20  C   UNL A   1      29.025  26.407  23.864  1.00  0.00     0.031 C 
BRANCH  19  21
ATOM     21  C   UNL A   1      30.286  28.255  22.604  1.00  0.00     0.021 C 
ATOM     22  C   UNL A   1      29.846  29.516  23.331  1.00  0.00     0.006 C 
ENDBRANCH  19  21
ENDBRANCH  17  19
ENDBRANCH  15  17
ENDBRANCH   6  15
ENDBRANCH   3   5
ENDBRANCH   2   3
ENDBRANCH   1   2
BRANCH   1  23
ATOM     23  C   UNL A   1      32.648  30.090  25.726  1.00  0.00     0.275 C 
BRANCH  23  24
ATOM     24  O   UNL A   1      32.621  30.494  27.109  1.00  0.00    -0.458 OA
BRANCH  24  25
ATOM     25  C   UNL A   1      33.346  31.601  27.392  1.00  0.00     0.338 C 
ATOM     26  O   UNL A   1      32.942  32.758  27.365  1.00  0.00    -0.246 OA
BRANCH  25  27
ATOM     27  C   UNL A   1      34.662  31.238  27.948  1.00  0.00     0.060 A 
ATOM     28  C   UNL A   1      34.815  29.931  28.426  1.00  0.00     0.016 A 
ATOM     29  C   UNL A   1      35.710  32.153  28.061  1.00  0.00     0.016 A 
ATOM     30  C   UNL A   1      36.015  29.523  28.996  1.00  0.00     0.010 A 
ATOM     31  C   UNL A   1      36.910  31.750  28.667  1.00  0.00     0.010 A 
ATOM     32  C   UNL A   1      37.064  30.436  29.143  1.00  0.00    -0.014 A 
BRANCH  32  33
ATOM     33  C   UNL A   1      38.264  30.015  29.906  1.00  0.00     0.031 A 
ATOM     34  C   UNL A   1      38.469  30.541  31.298  1.00  0.00     0.074 A 
ATOM     35  C   UNL A   1      39.105  29.097  29.396  1.00  0.00     0.049 A 
ATOM     36  N   UNL A   1      39.431  30.293  32.148  1.00  0.00    -0.248 NA
ATOM     37  C   UNL A   1      37.443  31.468  31.798  1.00  0.00     0.031 C 
ATOM     38  C   UNL A   1      38.963  28.462  28.086  1.00  0.00     0.029 A 
ATOM     39  N   UNL A   1      40.237  28.529  29.924  1.00  0.00    -0.354 N 
ATOM     40  C   UNL A   1      39.133  31.035  33.285  1.00  0.00     0.074 A 
ATOM     41  C   UNL A   1      37.914  31.765  33.000  1.00  0.00     0.031 C 
ATOM     42  C   UNL A   1      39.968  27.586  27.916  1.00  0.00     0.029 A 
ATOM     43  C   UNL A   1      40.846  27.628  29.083  1.00  0.00     0.049 A 
ATOM     44  H   UNL A   1      40.581  28.747  30.821  1.00  0.00     0.167 HD
ATOM     45  C   UNL A   1      39.809  31.096  34.460  1.00  0.00     0.034 A 
ATOM     46  C   UNL A   1      41.991  26.932  29.232  1.00  0.00     0.034 A 
ATOM     47  C   UNL A   1      41.034  30.376  34.719  1.00  0.00     0.049 A 
ATOM     48  C   UNL A   1      42.777  27.087  30.511  1.00  0.00     0.074 A 
ATOM     49  C   UNL A   1      41.815  30.381  35.862  1.00  0.00     0.029 A 
ATOM     50  N   UNL A   1      41.663  29.525  33.817  1.00  0.00    -0.354 N 
ATOM     51  N   UNL A   1      42.501  27.814  31.569  1.00  0.00    -0.248 NA
ATOM     52  C   UNL A   1      44.027  26.322  30.613  1.00  0.00     0.031 C 
ATOM     53  C   UNL A   1      42.946  29.590  35.627  1.00  0.00     0.029 A 
ATOM     54  C   UNL A   1      42.836  29.027  34.365  1.00  0.00     0.049 A 
ATOM     55  H   UNL A   1      41.325  29.309  32.918  1.00  0.00     0.167 HD
ATOM     56  C   UNL A   1      43.532  27.575  32.473  1.00  0.00     0.074 A 
ATOM     57  C   UNL A   1      44.423  26.622  31.842  1.00  0.00     0.031 C 
ATOM     58  C   UNL A   1      43.727  28.093  33.714  1.00  0.00     0.034 A 
BRANCH  45  59
ATOM     59  C   UNL A   1      39.266  32.032  35.514  1.00  0.00     0.023 A 
ATOM     60  C   UNL A   1      39.667  33.378  35.590  1.00  0.00     0.031 A 
ATOM     61  C   UNL A   1      38.380  31.553  36.496  1.00  0.00     0.131 A 
ATOM     62  C   UNL A   1      39.250  34.172  36.669  1.00  0.00     0.055 A 
ATOM     63  C   UNL A   1      37.904  32.373  37.521  1.00  0.00     0.041 A 
ATOM     64  F   UNL A   1      37.981  30.272  36.490  1.00  0.00    -0.206 F 
ATOM     65  C   UNL A   1      38.352  33.687  37.622  1.00  0.00     0.022 A 
BRANCH  62  66
ATOM     66  S   UNL A   1      40.024  35.798  36.900  1.00  0.00     0.124 S 
ATOM     67  O   UNL A   1      39.653  36.480  35.661  1.00  0.00    -0.237 OA
ATOM     68  O   UNL A   1      39.381  36.284  38.115  1.00  0.00    -0.237 OA
ATOM     69  O   UNL A   1      41.446  35.485  37.028  1.00  0.00    -0.744 OA
ENDBRANCH  62  66
ENDBRANCH  45  59
BRANCH  46  70
ATOM     70  C   UNL A   1      42.493  26.062  28.130  1.00  0.00     0.023 A 
ATOM     71  C   UNL A   1      42.001  24.761  27.942  1.00  0.00     0.031 A 
ATOM     72  C   UNL A   1      43.515  26.511  27.272  1.00  0.00     0.131 A 
ATOM     73  C   UNL A   1      42.556  23.940  26.946  1.00  0.00     0.055 A 
ATOM     74  C   UNL A   1      44.029  25.709  26.253  1.00  0.00     0.041 A 
ATOM     75  F   UNL A   1      44.023  27.746  27.410  1.00  0.00    -0.206 F 
ATOM     76  C   UNL A   1      43.556  24.411  26.092  1.00  0.00     0.022 A 
BRANCH  73  77
ATOM     77  S   UNL A   1      41.997  22.219  26.824  1.00  0.00     0.124 S 
ATOM     78  O   UNL A   1      41.899  22.040  25.380  1.00  0.00    -0.237 OA
ATOM     79  O   UNL A   1      43.079  21.501  27.488  1.00  0.00    -0.237 OA
ATOM     80  O   UNL A   1      40.723  22.223  27.541  1.00  0.00    -0.744 OA
ENDBRANCH  73  77
ENDBRANCH  46  70
BRANCH  58  81
ATOM     81  C   UNL A   1      44.935  27.602  34.475  1.00  0.00     0.023 A 
ATOM     82  C   UNL A   1      44.878  26.467  35.304  1.00  0.00     0.031 A 
ATOM     83  C   UNL A   1      46.153  28.302  34.396  1.00  0.00     0.131 A 
ATOM     84  C   UNL A   1      45.998  26.102  36.069  1.00  0.00     0.055 A 
ATOM     85  C   UNL A   1      47.281  27.897  35.112  1.00  0.00     0.041 A 
ATOM     86  F   UNL A   1      46.266  29.394  33.623  1.00  0.00    -0.206 F 
ATOM     87  C   UNL A   1      47.202  26.802  35.968  1.00  0.00     0.022 A 
BRANCH  84  88
ATOM     88  S   UNL A   1      45.824  24.768  37.286  1.00  0.00     0.124 S 
ATOM     89  O   UNL A   1      45.787  23.583  36.435  1.00  0.00    -0.237 OA
ATOM     90  O   UNL A   1      47.024  24.930  38.099  1.00  0.00    -0.237 OA
ATOM     91  O   UNL A   1      44.569  25.083  37.964  1.00  0.00    -0.744 OA
ENDBRANCH  84  88
ENDBRANCH  58  81
ENDBRANCH  32  33
ENDBRANCH  25  27
ENDBRANCH  24  25
ENDBRANCH  23  24
ENDBRANCH   1  23
TORSDOF 18
ENDMDL
MODEL 3
REMARK VINA RESULT:     -11.2      4.939      7.869
REMARK SMILES CC[C@@H](C)N(C)C(=O)N1[C@@H](C(=O)OCCOC(=O)c2ccc(-c3c4nc(c(-c5cc(S(=O)(=O)[O-])ccc5F)c5ccc([nH]5)c(-c5cc(S(=O)(=O)[O-])ccc5F)c5nc(c(-c6cc(S(=O)(=O)[O-])ccc6F)c6ccc3[nH]6)C=C5)C=C4)cc2)CC[C@H]2CCCC[C@H]21
REMARK SMILES IDX 14 1 13 2 11 3 12 4 10 5 9 6 89 7 82 8 84 9 88 10 83 11
REMARK SMILES IDX 85 12 87 13 86 14 7 15 8 16 5 17 6 18 3 19 4 20 2 21 1 22
REMARK SMILES IDX 15 23 16 24 17 25 18 26 19 27 20 28 81 29 21 30 80 31 22 32
REMARK SMILES IDX 23 33 24 34 74 35 25 36 79 37 73 38 75 39 26 40 78 41 72 42
REMARK SMILES IDX 71 43 27 45 59 46 39 47 58 48 40 49 43 50 57 51 76 52 41 53
REMARK SMILES IDX 42 54 56 56 77 57 44 58 28 59 29 60 37 61 30 62 36 63 38 64
REMARK SMILES IDX 35 65 31 66 32 67 33 68 34 69 60 70 61 71 69 72 62 73 68 74
REMARK SMILES IDX 70 75 67 76 63 77 64 78 65 79 66 80 45 81 46 82 54 83 47 84
REMARK SMILES IDX 53 85 55 86 52 87 48 88 49 89 50 90 51 91
REMARK H PARENT 75 44 43 55
REMARK Flexibility Score: inf
ROOT
ATOM      1  C   UNL A   1      35.535  21.270  25.924  1.00  0.00     0.274 C 
ENDROOT
BRANCH   1   2
ATOM      2  O   UNL A   1      35.339  22.696  25.896  1.00  0.00    -0.461 OA
BRANCH   2   3
ATOM      3  C   UNL A   1      34.368  23.164  26.731  1.00  0.00     0.329 C 
ATOM      4  O   UNL A   1      34.112  22.672  27.825  1.00  0.00    -0.250 OA
BRANCH   3   5
ATOM      5  C   UNL A   1      33.598  24.360  26.134  1.00  0.00     0.197 C 
ATOM      6  N   UNL A   1      32.803  24.155  24.910  1.00  0.00    -0.308 N 
ATOM      7  C   UNL A   1      32.013  25.312  24.453  1.00  0.00     0.091 C 
ATOM      8  C   UNL A   1      34.451  25.629  26.047  1.00  0.00     0.038 C 
ATOM      9  C   UNL A   1      32.757  26.665  24.483  1.00  0.00     0.012 C 
ATOM     10  C   UNL A   1      31.238  25.150  23.140  1.00  0.00     0.025 C 
ATOM     11  C   UNL A   1      33.562  26.841  25.777  1.00  0.00     0.008 C 
ATOM     12  C   UNL A   1      33.619  26.972  23.250  1.00  0.00     0.006 C 
ATOM     13  C   UNL A   1      31.981  25.547  21.863  1.00  0.00     0.002 C 
ATOM     14  C   UNL A   1      33.391  26.096  22.032  1.00  0.00     0.000 C 
BRANCH   6  15
ATOM     15  C   UNL A   1      33.084  23.085  24.088  1.00  0.00     0.320 C 
ATOM     16  O   UNL A   1      33.867  23.180  23.148  1.00  0.00    -0.248 OA
BRANCH  15  17
ATOM     17  N   UNL A   1      32.381  21.913  24.354  1.00  0.00    -0.325 N 
ATOM     18  C   UNL A   1      31.145  21.874  25.140  1.00  0.00     0.149 C 
BRANCH  17  19
ATOM     19  C   UNL A   1      32.659  20.695  23.569  1.00  0.00     0.083 C 
ATOM     20  C   UNL A   1      31.877  20.625  22.251  1.00  0.00     0.031 C 
BRANCH  19  21
ATOM     21  C   UNL A   1      32.489  19.439  24.445  1.00  0.00     0.021 C 
ATOM     22  C   UNL A   1      33.642  18.454  24.328  1.00  0.00     0.006 C 
ENDBRANCH  19  21
ENDBRANCH  17  19
ENDBRANCH  15  17
ENDBRANCH   6  15
ENDBRANCH   3   5
ENDBRANCH   2   3
ENDBRANCH   1   2
BRANCH   1  23
ATOM     23  C   UNL A   1      36.730  20.820  25.073  1.00  0.00     0.275 C 
BRANCH  23  24
ATOM     24  O   UNL A   1      37.835  21.742  25.143  1.00  0.00    -0.458 OA
BRANCH  24  25
ATOM     25  C   UNL A   1      38.796  21.412  26.037  1.00  0.00     0.338 C 
ATOM     26  O   UNL A   1      39.194  20.279  26.287  1.00  0.00    -0.246 OA
BRANCH  25  27
ATOM     27  C   UNL A   1      39.472  22.617  26.550  1.00  0.00     0.060 A 
ATOM     28  C   UNL A   1      39.044  23.852  26.048  1.00  0.00     0.016 A 
ATOM     29  C   UNL A   1      40.537  22.558  27.451  1.00  0.00     0.016 A 
ATOM     30  C   UNL A   1      39.656  25.031  26.456  1.00  0.00     0.010 A 
ATOM     31  C   UNL A   1      41.176  23.746  27.837  1.00  0.00     0.010 A 
ATOM     32  C   UNL A   1      40.742  24.986  27.335  1.00  0.00    -0.014 A 
BRANCH  32  33
ATOM     33  C   UNL A   1      41.475  26.244  27.616  1.00  0.00     0.031 A 
ATOM     34  C   UNL A   1      40.820  27.300  28.460  1.00  0.00     0.074 A 
ATOM     35  C   UNL A   1      42.747  26.396  27.205  1.00  0.00     0.049 A 
ATOM     36  N   UNL A   1      41.281  28.462  28.846  1.00  0.00    -0.248 NA
ATOM     37  C   UNL A   1      39.463  26.998  28.938  1.00  0.00     0.031 C 
ATOM     38  C   UNL A   1      43.508  25.405  26.445  1.00  0.00     0.029 A 
ATOM     39  N   UNL A   1      43.627  27.433  27.381  1.00  0.00    -0.354 N 
ATOM     40  C   UNL A   1      40.271  29.036  29.610  1.00  0.00     0.074 A 
ATOM     41  C   UNL A   1      39.162  28.103  29.605  1.00  0.00     0.031 C 
ATOM     42  C   UNL A   1      44.745  25.882  26.225  1.00  0.00     0.029 A 
ATOM     43  C   UNL A   1      44.851  27.225  26.791  1.00  0.00     0.049 A 
ATOM     44  H   UNL A   1      43.403  28.250  27.883  1.00  0.00     0.167 HD
ATOM     45  C   UNL A   1      40.272  30.227  30.260  1.00  0.00     0.034 A 
ATOM     46  C   UNL A   1      45.926  28.034  26.702  1.00  0.00     0.034 A 
ATOM     47  C   UNL A   1      41.380  31.153  30.236  1.00  0.00     0.049 A 
ATOM     48  C   UNL A   1      45.870  29.394  27.354  1.00  0.00     0.074 A 
ATOM     49  C   UNL A   1      41.482  32.396  30.838  1.00  0.00     0.029 A 
ATOM     50  N   UNL A   1      42.581  30.941  29.568  1.00  0.00    -0.354 N 
ATOM     51  N   UNL A   1      44.899  29.940  28.049  1.00  0.00    -0.248 NA
ATOM     52  C   UNL A   1      47.060  30.243  27.210  1.00  0.00     0.031 C 
ATOM     53  C   UNL A   1      42.711  32.961  30.479  1.00  0.00     0.029 A 
ATOM     54  C   UNL A   1      43.413  32.041  29.716  1.00  0.00     0.049 A 
ATOM     55  H   UNL A   1      42.807  30.128  29.061  1.00  0.00     0.167 HD
ATOM     56  C   UNL A   1      45.371  31.188  28.446  1.00  0.00     0.074 A 
ATOM     57  C   UNL A   1      46.719  31.304  27.928  1.00  0.00     0.031 C 
ATOM     58  C   UNL A   1      44.749  32.151  29.174  1.00  0.00     0.034 A 
BRANCH  45  59
ATOM     59  C   UNL A   1      39.003  30.613  30.982  1.00  0.00     0.023 A 
ATOM     60  C   UNL A   1      37.982  31.345  30.351  1.00  0.00     0.031 A 
ATOM     61  C   UNL A   1      38.840  30.295  32.343  1.00  0.00     0.131 A 
ATOM     62  C   UNL A   1      36.887  31.806  31.098  1.00  0.00     0.055 A 
ATOM     63  C   UNL A   1      37.708  30.686  33.060  1.00  0.00     0.041 A 
ATOM     64  F   UNL A   1      39.791  29.619  33.006  1.00  0.00    -0.206 F 
ATOM     65  C   UNL A   1      36.730  31.462  32.442  1.00  0.00     0.022 A 
BRANCH  62  66
ATOM     66  S   UNL A   1      35.752  32.996  30.331  1.00  0.00     0.124 S 
ATOM     67  O   UNL A   1      36.297  33.093  28.978  1.00  0.00    -0.237 OA
ATOM     68  O   UNL A   1      34.462  32.328  30.454  1.00  0.00    -0.237 OA
ATOM     69  O   UNL A   1      35.913  34.198  31.146  1.00  0.00    -0.744 OA
ENDBRANCH  62  66
ENDBRANCH  45  59
BRANCH  46  70
ATOM     70  C   UNL A   1      47.129  27.607  25.931  1.00  0.00     0.023 A 
ATOM     71  C   UNL A   1      47.267  27.904  24.566  1.00  0.00     0.031 A 
ATOM     72  C   UNL A   1      48.141  26.849  26.547  1.00  0.00     0.131 A 
ATOM     73  C   UNL A   1      48.374  27.414  23.853  1.00  0.00     0.055 A 
ATOM     74  C   UNL A   1      49.263  26.405  25.845  1.00  0.00     0.041 A 
ATOM     75  F   UNL A   1      48.056  26.534  27.850  1.00  0.00    -0.206 F 
ATOM     76  C   UNL A   1      49.379  26.679  24.487  1.00  0.00     0.022 A 
BRANCH  73  77
ATOM     77  S   UNL A   1      48.451  27.695  22.063  1.00  0.00     0.124 S 
ATOM     78  O   UNL A   1      49.582  28.609  21.952  1.00  0.00    -0.237 OA
ATOM     79  O   UNL A   1      48.664  26.345  21.553  1.00  0.00    -0.237 OA
ATOM     80  O   UNL A   1      47.146  28.275  21.753  1.00  0.00    -0.744 OA
ENDBRANCH  73  77
ENDBRANCH  46  70
BRANCH  58  81
ATOM     81  C   UNL A   1      45.547  33.397  29.478  1.00  0.00     0.023 A 
ATOM     82  C   UNL A   1      45.486  34.535  28.654  1.00  0.00     0.031 A 
ATOM     83  C   UNL A   1      46.406  33.433  30.591  1.00  0.00     0.131 A 
ATOM     84  C   UNL A   1      46.318  35.635  28.918  1.00  0.00     0.055 A 
ATOM     85  C   UNL A   1      47.185  34.554  30.884  1.00  0.00     0.041 A 
ATOM     86  F   UNL A   1      46.507  32.375  31.412  1.00  0.00    -0.206 F 
ATOM     87  C   UNL A   1      47.155  35.657  30.035  1.00  0.00     0.022 A 
BRANCH  84  88
ATOM     88  S   UNL A   1      46.373  36.994  27.717  1.00  0.00     0.124 S 
ATOM     89  O   UNL A   1      45.865  38.115  28.501  1.00  0.00    -0.237 OA
ATOM     90  O   UNL A   1      47.789  37.047  27.372  1.00  0.00    -0.237 OA
ATOM     91  O   UNL A   1      45.491  36.539  26.644  1.00  0.00    -0.744 OA
ENDBRANCH  84  88
ENDBRANCH  58  81
ENDBRANCH  32  33
ENDBRANCH  25  27
ENDBRANCH  24  25
ENDBRANCH  23  24
ENDBRANCH   1  23
TORSDOF 18
ENDMDL
