MODEL 1
REMARK VINA RESULT:     -11.9      0.000      0.000
REMARK SMILES O=C(OCCOC(=O)c1cccc2c(C(F)(F)F)cc(Br)nc12)c1ccc(-c2c3nc(c(-c4cc(S(=O)(=O)[O-])ccc4F)c4ccc([nH]4)c(-c4cc(S(=O)(=O)[O-])ccc4F)c4nc(c(-c5cc(S(=O)(=O)[O-])ccc5F)c5ccc2[nH]5)C=C4)C=C3)cc1
REMARK SMILES IDX 4 1 3 2 2 3 1 4 24 5 25 6 86 7 26 8 85 9 27 10 28 11 29 12
REMARK SMILES IDX 79 13 30 14 84 15 78 16 80 17 31 18 83 19 77 20 76 21 32 23
REMARK SMILES IDX 64 24 44 25 63 26 45 27 48 28 62 29 81 30 46 31 47 32 61 34
REMARK SMILES IDX 82 35 49 36 33 37 34 38 42 39 35 40 41 41 43 42 40 43 36 44
REMARK SMILES IDX 37 45 38 46 39 47 65 48 66 49 74 50 67 51 73 52 75 53 72 54
REMARK SMILES IDX 68 55 69 56 70 57 71 58 50 59 51 60 59 61 52 62 58 63 60 64
REMARK SMILES IDX 57 65 53 66 54 67 55 68 56 69 5 70 6 71 7 72 8 73 9 74 10 75
REMARK SMILES IDX 23 76 11 77 13 78 22 79 12 80 14 81 20 82 19 83 21 84 15 85
REMARK SMILES IDX 16 86 17 87 18 88
REMARK H PARENT 80 22 48 33
REMARK Flexibility Score: inf
ROOT
ATOM      1  C   UNL A   1      33.427  29.110  26.603  1.00  0.00     0.275 C 
ENDROOT
BRANCH   1   2
ATOM      2  O   UNL A   1      33.797  30.498  26.555  1.00  0.00    -0.458 OA
BRANCH   2   3
ATOM      3  C   UNL A   1      34.519  31.140  27.512  1.00  0.00     0.338 C 
ATOM      4  O   UNL A   1      34.347  32.336  27.732  1.00  0.00    -0.246 OA
BRANCH   3   5
ATOM      5  C   UNL A   1      35.698  30.453  28.105  1.00  0.00     0.060 A 
ATOM      6  C   UNL A   1      36.878  30.465  27.352  1.00  0.00     0.016 A 
ATOM      7  C   UNL A   1      35.703  29.819  29.350  1.00  0.00     0.016 A 
ATOM      8  C   UNL A   1      37.991  29.728  27.762  1.00  0.00     0.010 A 
ATOM      9  C   UNL A   1      36.816  29.088  29.771  1.00  0.00     0.010 A 
ATOM     10  C   UNL A   1      37.962  29.017  28.972  1.00  0.00    -0.014 A 
BRANCH  10  11
ATOM     11  C   UNL A   1      39.206  28.439  29.529  1.00  0.00     0.031 A 
ATOM     12  C   UNL A   1      39.884  27.234  28.954  1.00  0.00     0.074 A 
ATOM     13  C   UNL A   1      39.675  29.004  30.655  1.00  0.00     0.049 A 
ATOM     14  N   UNL A   1      41.064  26.749  29.245  1.00  0.00    -0.248 NA
ATOM     15  C   UNL A   1      39.165  26.475  27.924  1.00  0.00     0.031 C 
ATOM     16  C   UNL A   1      39.028  30.120  31.349  1.00  0.00     0.029 A 
ATOM     17  N   UNL A   1      40.765  28.711  31.426  1.00  0.00    -0.354 N 
ATOM     18  C   UNL A   1      41.268  25.686  28.374  1.00  0.00     0.074 A 
ATOM     19  C   UNL A   1      40.059  25.550  27.590  1.00  0.00     0.031 C 
ATOM     20  C   UNL A   1      39.729  30.413  32.447  1.00  0.00     0.029 A 
ATOM     21  C   UNL A   1      40.852  29.487  32.555  1.00  0.00     0.049 A 
ATOM     22  H   UNL A   1      41.420  28.013  31.196  1.00  0.00     0.167 HD
ATOM     23  C   UNL A   1      42.369  24.906  28.245  1.00  0.00     0.034 A 
ATOM     24  C   UNL A   1      41.728  29.453  33.575  1.00  0.00     0.034 A 
ATOM     25  C   UNL A   1      43.479  24.946  29.168  1.00  0.00     0.049 A 
ATOM     26  C   UNL A   1      42.888  28.507  33.487  1.00  0.00     0.074 A 
ATOM     27  C   UNL A   1      44.639  24.192  29.152  1.00  0.00     0.029 A 
ATOM     28  N   UNL A   1      43.538  25.735  30.312  1.00  0.00    -0.354 N 
ATOM     29  N   UNL A   1      43.169  27.639  32.542  1.00  0.00    -0.248 NA
ATOM     30  C   UNL A   1      43.867  28.552  34.576  1.00  0.00     0.031 C 
ATOM     31  C   UNL A   1      45.340  24.443  30.335  1.00  0.00     0.029 A 
ATOM     32  C   UNL A   1      44.678  25.433  31.044  1.00  0.00     0.049 A 
ATOM     33  H   UNL A   1      42.868  26.410  30.566  1.00  0.00     0.167 HD
ATOM     34  C   UNL A   1      44.364  27.037  32.919  1.00  0.00     0.074 A 
ATOM     35  C   UNL A   1      44.770  27.675  34.157  1.00  0.00     0.031 C 
ATOM     36  C   UNL A   1      45.057  26.046  32.299  1.00  0.00     0.034 A 
BRANCH  23  37
ATOM     37  C   UNL A   1      42.448  23.950  27.077  1.00  0.00     0.023 A 
ATOM     38  C   UNL A   1      41.971  22.630  27.185  1.00  0.00     0.031 A 
ATOM     39  C   UNL A   1      43.141  24.309  25.904  1.00  0.00     0.131 A 
ATOM     40  C   UNL A   1      42.229  21.708  26.160  1.00  0.00     0.055 A 
ATOM     41  C   UNL A   1      43.370  23.395  24.874  1.00  0.00     0.041 A 
ATOM     42  F   UNL A   1      43.614  25.557  25.746  1.00  0.00    -0.206 F 
ATOM     43  C   UNL A   1      42.924  22.084  25.005  1.00  0.00     0.022 A 
BRANCH  40  44
ATOM     44  S   UNL A   1      41.725  19.971  26.304  1.00  0.00     0.124 S 
ATOM     45  O   UNL A   1      40.278  20.065  26.130  1.00  0.00    -0.237 OA
ATOM     46  O   UNL A   1      42.448  19.351  25.197  1.00  0.00    -0.237 OA
ATOM     47  O   UNL A   1      42.166  19.591  27.642  1.00  0.00    -0.744 OA
ENDBRANCH  40  44
ENDBRANCH  23  37
BRANCH  24  48
ATOM     48  C   UNL A   1      41.527  30.415  34.694  1.00  0.00     0.023 A 
ATOM     49  C   UNL A   1      40.342  30.376  35.456  1.00  0.00     0.031 A 
ATOM     50  C   UNL A   1      42.393  31.504  34.868  1.00  0.00     0.131 A 
ATOM     51  C   UNL A   1      40.005  31.462  36.270  1.00  0.00     0.055 A 
ATOM     52  C   UNL A   1      42.092  32.545  35.747  1.00  0.00     0.041 A 
ATOM     53  F   UNL A   1      43.521  31.594  34.146  1.00  0.00    -0.206 F 
ATOM     54  C   UNL A   1      40.879  32.540  36.434  1.00  0.00     0.022 A 
BRANCH  51  55
ATOM     55  S   UNL A   1      38.338  31.603  36.979  1.00  0.00     0.124 S 
ATOM     56  O   UNL A   1      38.578  32.427  38.158  1.00  0.00    -0.237 OA
ATOM     57  O   UNL A   1      37.607  32.251  35.892  1.00  0.00    -0.237 OA
ATOM     58  O   UNL A   1      37.957  30.219  37.241  1.00  0.00    -0.744 OA
ENDBRANCH  51  55
ENDBRANCH  24  48
BRANCH  36  59
ATOM     59  C   UNL A   1      46.317  25.542  32.966  1.00  0.00     0.023 A 
ATOM     60  C   UNL A   1      47.578  25.865  32.434  1.00  0.00     0.031 A 
ATOM     61  C   UNL A   1      46.265  24.652  34.055  1.00  0.00     0.131 A 
ATOM     62  C   UNL A   1      48.733  25.277  32.966  1.00  0.00     0.055 A 
ATOM     63  C   UNL A   1      47.423  24.118  34.622  1.00  0.00     0.041 A 
ATOM     64  F   UNL A   1      45.086  24.297  34.591  1.00  0.00    -0.206 F 
ATOM     65  C   UNL A   1      48.662  24.419  34.068  1.00  0.00     0.022 A 
BRANCH  62  66
ATOM     66  S   UNL A   1      50.353  25.526  32.191  1.00  0.00     0.124 S 
ATOM     67  O   UNL A   1      50.061  26.574  31.215  1.00  0.00    -0.237 OA
ATOM     68  O   UNL A   1      51.175  25.941  33.324  1.00  0.00    -0.237 OA
ATOM     69  O   UNL A   1      50.678  24.220  31.626  1.00  0.00    -0.744 OA
ENDBRANCH  62  66
ENDBRANCH  36  59
ENDBRANCH  10  11
ENDBRANCH   3   5
ENDBRANCH   2   3
ENDBRANCH   1   2
BRANCH   1  70
ATOM     70  C   UNL A   1      33.875  28.275  25.399  1.00  0.00     0.275 C 
BRANCH  70  71
ATOM     71  O   UNL A   1      32.880  27.359  24.922  1.00  0.00    -0.458 OA
BRANCH  71  72
ATOM     72  C   UNL A   1      33.124  26.814  23.701  1.00  0.00     0.340 C 
ATOM     73  O   UNL A   1      33.722  27.347  22.776  1.00  0.00    -0.246 OA
BRANCH  72  74
ATOM     74  C   UNL A   1      32.491  25.482  23.634  1.00  0.00     0.086 A 
ATOM     75  C   UNL A   1      31.139  25.414  23.271  1.00  0.00     0.018 A 
ATOM     76  C   UNL A   1      33.245  24.339  23.929  1.00  0.00     0.087 A 
ATOM     77  C   UNL A   1      30.511  24.181  23.196  1.00  0.00     0.002 A 
ATOM     78  C   UNL A   1      32.602  23.079  23.838  1.00  0.00     0.013 A 
ATOM     79  N   UNL A   1      34.527  24.437  24.339  1.00  0.00    -0.240 NA
ATOM     80  C   UNL A   1      31.235  23.026  23.474  1.00  0.00     0.011 A 
ATOM     81  C   UNL A   1      33.359  21.919  24.145  1.00  0.00     0.068 A 
ATOM     82  C   UNL A   1      35.207  23.329  24.685  1.00  0.00     0.107 A 
ATOM     83  C   UNL A   1      34.675  22.063  24.601  1.00  0.00     0.049 A 
ATOM     84  Br  UNL A   1      36.969  23.543  25.348  1.00  0.00    -0.029 Br
BRANCH  81  85
ATOM     85  C   UNL A   1      32.799  20.528  23.975  1.00  0.00     0.417 C 
ATOM     86  F   UNL A   1      33.738  19.555  24.103  1.00  0.00    -0.166 F 
ATOM     87  F   UNL A   1      31.824  20.247  24.885  1.00  0.00    -0.166 F 
ATOM     88  F   UNL A   1      32.220  20.328  22.757  1.00  0.00    -0.166 F 
ENDBRANCH  81  85
ENDBRANCH  72  74
ENDBRANCH  71  72
ENDBRANCH  70  71
ENDBRANCH   1  70
TORSDOF 15
ENDMDL
MODEL 2
REMARK VINA RESULT:     -11.8      5.234      9.901
REMARK SMILES O=C(OCCOC(=O)c1cccc2c(C(F)(F)F)cc(Br)nc12)c1ccc(-c2c3nc(c(-c4cc(S(=O)(=O)[O-])ccc4F)c4ccc([nH]4)c(-c4cc(S(=O)(=O)[O-])ccc4F)c4nc(c(-c5cc(S(=O)(=O)[O-])ccc5F)c5ccc2[nH]5)C=C4)C=C3)cc1
REMARK SMILES IDX 4 1 3 2 2 3 1 4 24 5 25 6 86 7 26 8 85 9 27 10 28 11 29 12
REMARK SMILES IDX 79 13 30 14 84 15 78 16 80 17 31 18 83 19 77 20 76 21 32 23
REMARK SMILES IDX 64 24 44 25 63 26 45 27 48 28 62 29 81 30 46 31 47 32 61 34
REMARK SMILES IDX 82 35 49 36 33 37 34 38 42 39 35 40 41 41 43 42 40 43 36 44
REMARK SMILES IDX 37 45 38 46 39 47 65 48 66 49 74 50 67 51 73 52 75 53 72 54
REMARK SMILES IDX 68 55 69 56 70 57 71 58 50 59 51 60 59 61 52 62 58 63 60 64
REMARK SMILES IDX 57 65 53 66 54 67 55 68 56 69 5 70 6 71 7 72 8 73 9 74 10 75
REMARK SMILES IDX 23 76 11 77 13 78 22 79 12 80 14 81 20 82 19 83 21 84 15 85
REMARK SMILES IDX 16 86 17 87 18 88
REMARK H PARENT 80 22 48 33
REMARK Flexibility Score: inf
ROOT
ATOM      1  C   UNL A   1      36.494  21.421  25.456  1.00  0.00     0.275 C 
ENDROOT
BRANCH   1   2
ATOM      2  O   UNL A   1      37.288  22.615  25.551  1.00  0.00    -0.458 OA
BRANCH   2   3
ATOM      3  C   UNL A   1      38.515  22.684  26.136  1.00  0.00     0.338 C 
ATOM      4  O   UNL A   1      39.134  21.662  26.419  1.00  0.00    -0.246 OA
BRANCH   3   5
ATOM      5  C   UNL A   1      38.983  23.991  26.671  1.00  0.00     0.060 A 
ATOM      6  C   UNL A   1      39.761  24.780  25.815  1.00  0.00     0.016 A 
ATOM      7  C   UNL A   1      38.691  24.475  27.948  1.00  0.00     0.016 A 
ATOM      8  C   UNL A   1      40.359  25.953  26.278  1.00  0.00     0.010 A 
ATOM      9  C   UNL A   1      39.279  25.652  28.414  1.00  0.00     0.010 A 
ATOM     10  C   UNL A   1      40.135  26.391  27.592  1.00  0.00    -0.014 A 
BRANCH  10  11
ATOM     11  C   UNL A   1      40.563  27.745  28.012  1.00  0.00     0.031 A 
ATOM     12  C   UNL A   1      39.609  28.815  28.442  1.00  0.00     0.074 A 
ATOM     13  C   UNL A   1      41.876  28.014  27.910  1.00  0.00     0.049 A 
ATOM     14  N   UNL A   1      39.876  29.969  28.997  1.00  0.00    -0.248 NA
ATOM     15  C   UNL A   1      38.175  28.571  28.237  1.00  0.00     0.031 C 
ATOM     16  C   UNL A   1      42.875  27.069  27.405  1.00  0.00     0.029 A 
ATOM     17  N   UNL A   1      42.590  29.146  28.187  1.00  0.00    -0.354 N 
ATOM     18  C   UNL A   1      38.649  30.550  29.290  1.00  0.00     0.074 A 
ATOM     19  C   UNL A   1      37.632  29.653  28.786  1.00  0.00     0.031 C 
ATOM     20  C   UNL A   1      44.072  27.663  27.402  1.00  0.00     0.029 A 
ATOM     21  C   UNL A   1      43.921  29.036  27.870  1.00  0.00     0.049 A 
ATOM     22  H   UNL A   1      42.191  29.958  28.575  1.00  0.00     0.167 HD
ATOM     23  C   UNL A   1      38.405  31.722  29.925  1.00  0.00     0.034 A 
ATOM     24  C   UNL A   1      44.914  29.943  27.932  1.00  0.00     0.034 A 
ATOM     25  C   UNL A   1      39.439  32.680  30.243  1.00  0.00     0.049 A 
ATOM     26  C   UNL A   1      44.616  31.284  28.533  1.00  0.00     0.074 A 
ATOM     27  C   UNL A   1      39.311  33.907  30.867  1.00  0.00     0.029 A 
ATOM     28  N   UNL A   1      40.781  32.550  29.900  1.00  0.00    -0.354 N 
ATOM     29  N   UNL A   1      43.475  31.744  28.991  1.00  0.00    -0.248 NA
ATOM     30  C   UNL A   1      45.738  32.219  28.659  1.00  0.00     0.031 C 
ATOM     31  C   UNL A   1      40.545  34.561  30.802  1.00  0.00     0.029 A 
ATOM     32  C   UNL A   1      41.474  33.703  30.234  1.00  0.00     0.049 A 
ATOM     33  H   UNL A   1      41.180  31.754  29.480  1.00  0.00     0.167 HD
ATOM     34  C   UNL A   1      43.740  33.022  29.468  1.00  0.00     0.074 A 
ATOM     35  C   UNL A   1      45.162  33.241  29.280  1.00  0.00     0.031 C 
ATOM     36  C   UNL A   1      42.886  33.930  30.007  1.00  0.00     0.034 A 
BRANCH  23  37
ATOM     37  C   UNL A   1      36.985  32.046  30.330  1.00  0.00     0.023 A 
ATOM     38  C   UNL A   1      36.141  32.789  29.483  1.00  0.00     0.031 A 
ATOM     39  C   UNL A   1      36.525  31.747  31.627  1.00  0.00     0.131 A 
ATOM     40  C   UNL A   1      34.900  33.241  29.957  1.00  0.00     0.055 A 
ATOM     41  C   UNL A   1      35.277  32.176  32.084  1.00  0.00     0.041 A 
ATOM     42  F   UNL A   1      37.288  31.037  32.475  1.00  0.00    -0.206 F 
ATOM     43  C   UNL A   1      34.464  32.938  31.251  1.00  0.00     0.022 A 
BRANCH  40  44
ATOM     44  S   UNL A   1      33.826  34.290  28.937  1.00  0.00     0.124 S 
ATOM     45  O   UNL A   1      32.905  34.830  29.934  1.00  0.00    -0.237 OA
ATOM     46  O   UNL A   1      34.776  35.249  28.381  1.00  0.00    -0.237 OA
ATOM     47  O   UNL A   1      33.233  33.358  27.984  1.00  0.00    -0.744 OA
ENDBRANCH  40  44
ENDBRANCH  23  37
BRANCH  24  48
ATOM     48  C   UNL A   1      46.265  29.524  27.466  1.00  0.00     0.023 A 
ATOM     49  C   UNL A   1      46.472  29.183  26.115  1.00  0.00     0.031 A 
ATOM     50  C   UNL A   1      47.287  29.250  28.386  1.00  0.00     0.131 A 
ATOM     51  C   UNL A   1      47.626  28.484  25.746  1.00  0.00     0.055 A 
ATOM     52  C   UNL A   1      48.474  28.629  27.996  1.00  0.00     0.041 A 
ATOM     53  F   UNL A   1      47.122  29.537  29.687  1.00  0.00    -0.206 F 
ATOM     54  C   UNL A   1      48.637  28.218  26.674  1.00  0.00     0.022 A 
BRANCH  51  55
ATOM     55  S   UNL A   1      47.759  27.723  24.102  1.00  0.00     0.124 S 
ATOM     56  O   UNL A   1      46.915  28.595  23.293  1.00  0.00    -0.237 OA
ATOM     57  O   UNL A   1      49.195  27.818  23.846  1.00  0.00    -0.237 OA
ATOM     58  O   UNL A   1      47.256  26.369  24.307  1.00  0.00    -0.744 OA
ENDBRANCH  51  55
ENDBRANCH  24  48
BRANCH  36  59
ATOM     59  C   UNL A   1      43.445  35.279  30.401  1.00  0.00     0.023 A 
ATOM     60  C   UNL A   1      43.448  36.342  29.478  1.00  0.00     0.031 A 
ATOM     61  C   UNL A   1      44.076  35.478  31.643  1.00  0.00     0.131 A 
ATOM     62  C   UNL A   1      44.098  37.541  29.797  1.00  0.00     0.055 A 
ATOM     63  C   UNL A   1      44.667  36.696  31.979  1.00  0.00     0.041 A 
ATOM     64  F   UNL A   1      44.116  34.492  32.553  1.00  0.00    -0.206 F 
ATOM     65  C   UNL A   1      44.692  37.729  31.048  1.00  0.00     0.022 A 
BRANCH  62  66
ATOM     66  S   UNL A   1      44.281  38.861  28.566  1.00  0.00     0.124 S 
ATOM     67  O   UNL A   1      44.302  38.106  27.316  1.00  0.00    -0.237 OA
ATOM     68  O   UNL A   1      43.078  39.659  28.793  1.00  0.00    -0.237 OA
ATOM     69  O   UNL A   1      45.538  39.507  28.927  1.00  0.00    -0.744 OA
ENDBRANCH  62  66
ENDBRANCH  36  59
ENDBRANCH  10  11
ENDBRANCH   3   5
ENDBRANCH   2   3
ENDBRANCH   1   2
BRANCH   1  70
ATOM     70  C   UNL A   1      34.985  21.652  25.336  1.00  0.00     0.275 C 
BRANCH  70  71
ATOM     71  O   UNL A   1      34.603  23.034  25.348  1.00  0.00    -0.458 OA
BRANCH  71  72
ATOM     72  C   UNL A   1      33.491  23.328  26.072  1.00  0.00     0.340 C 
ATOM     73  O   UNL A   1      33.318  23.095  27.261  1.00  0.00    -0.246 OA
BRANCH  72  74
ATOM     74  C   UNL A   1      32.478  23.921  25.177  1.00  0.00     0.086 A 
ATOM     75  C   UNL A   1      31.744  23.059  24.351  1.00  0.00     0.018 A 
ATOM     76  C   UNL A   1      32.277  25.308  25.178  1.00  0.00     0.087 A 
ATOM     77  C   UNL A   1      30.783  23.580  23.500  1.00  0.00     0.002 A 
ATOM     78  C   UNL A   1      31.285  25.834  24.314  1.00  0.00     0.013 A 
ATOM     79  N   UNL A   1      33.042  26.122  25.936  1.00  0.00    -0.240 NA
ATOM     80  C   UNL A   1      30.554  24.952  23.483  1.00  0.00     0.011 A 
ATOM     81  C   UNL A   1      31.085  27.239  24.305  1.00  0.00     0.068 A 
ATOM     82  C   UNL A   1      32.878  27.455  25.863  1.00  0.00     0.107 A 
ATOM     83  C   UNL A   1      31.922  28.054  25.077  1.00  0.00     0.049 A 
ATOM     84  Br  UNL A   1      34.050  28.547  26.876  1.00  0.00    -0.029 Br
BRANCH  81  85
ATOM     85  C   UNL A   1      29.982  27.887  23.502  1.00  0.00     0.417 C 
ATOM     86  F   UNL A   1      30.179  27.804  22.161  1.00  0.00    -0.166 F 
ATOM     87  F   UNL A   1      28.765  27.329  23.750  1.00  0.00    -0.166 F 
ATOM     88  F   UNL A   1      29.831  29.215  23.775  1.00  0.00    -0.166 F 
ENDBRANCH  81  85
ENDBRANCH  72  74
ENDBRANCH  71  72
ENDBRANCH  70  71
ENDBRANCH   1  70
TORSDOF 15
ENDMDL
MODEL 3
REMARK VINA RESULT:     -11.7      4.967      9.907
REMARK SMILES O=C(OCCOC(=O)c1cccc2c(C(F)(F)F)cc(Br)nc12)c1ccc(-c2c3nc(c(-c4cc(S(=O)(=O)[O-])ccc4F)c4ccc([nH]4)c(-c4cc(S(=O)(=O)[O-])ccc4F)c4nc(c(-c5cc(S(=O)(=O)[O-])ccc5F)c5ccc2[nH]5)C=C4)C=C3)cc1
REMARK SMILES IDX 4 1 3 2 2 3 1 4 24 5 25 6 86 7 26 8 85 9 27 10 28 11 29 12
REMARK SMILES IDX 79 13 30 14 84 15 78 16 80 17 31 18 83 19 77 20 76 21 32 23
REMARK SMILES IDX 64 24 44 25 63 26 45 27 48 28 62 29 81 30 46 31 47 32 61 34
REMARK SMILES IDX 82 35 49 36 33 37 34 38 42 39 35 40 41 41 43 42 40 43 36 44
REMARK SMILES IDX 37 45 38 46 39 47 65 48 66 49 74 50 67 51 73 52 75 53 72 54
REMARK SMILES IDX 68 55 69 56 70 57 71 58 50 59 51 60 59 61 52 62 58 63 60 64
REMARK SMILES IDX 57 65 53 66 54 67 55 68 56 69 5 70 6 71 7 72 8 73 9 74 10 75
REMARK SMILES IDX 23 76 11 77 13 78 22 79 12 80 14 81 20 82 19 83 21 84 15 85
REMARK SMILES IDX 16 86 17 87 18 88
REMARK H PARENT 80 22 48 33
REMARK Flexibility Score: inf
ROOT
ATOM      1  C   UNL A   1      37.614  21.909  24.725  1.00  0.00     0.275 C 
ENDROOT
BRANCH   1   2
ATOM      2  O   UNL A   1      37.948  22.021  26.118  1.00  0.00    -0.458 OA
BRANCH   2   3
ATOM      3  C   UNL A   1      39.193  22.290  26.596  1.00  0.00     0.338 C 
ATOM      4  O   UNL A   1      39.930  21.383  26.975  1.00  0.00    -0.246 OA
BRANCH   3   5
ATOM      5  C   UNL A   1      39.555  23.699  26.906  1.00  0.00     0.060 A 
ATOM      6  C   UNL A   1      39.613  24.051  28.260  1.00  0.00     0.016 A 
ATOM      7  C   UNL A   1      39.846  24.672  25.947  1.00  0.00     0.016 A 
ATOM      8  C   UNL A   1      39.805  25.380  28.642  1.00  0.00     0.010 A 
ATOM      9  C   UNL A   1      40.048  26.002  26.323  1.00  0.00     0.010 A 
ATOM     10  C   UNL A   1      40.008  26.372  27.671  1.00  0.00    -0.014 A 
BRANCH  10  11
ATOM     11  C   UNL A   1      40.451  27.728  28.069  1.00  0.00     0.031 A 
ATOM     12  C   UNL A   1      39.507  28.817  28.479  1.00  0.00     0.074 A 
ATOM     13  C   UNL A   1      41.767  27.980  27.967  1.00  0.00     0.049 A 
ATOM     14  N   UNL A   1      39.787  29.976  29.015  1.00  0.00    -0.248 NA
ATOM     15  C   UNL A   1      38.072  28.586  28.273  1.00  0.00     0.031 C 
ATOM     16  C   UNL A   1      42.756  27.015  27.481  1.00  0.00     0.029 A 
ATOM     17  N   UNL A   1      42.494  29.108  28.228  1.00  0.00    -0.354 N 
ATOM     18  C   UNL A   1      38.566  30.577  29.295  1.00  0.00     0.074 A 
ATOM     19  C   UNL A   1      37.540  29.683  28.802  1.00  0.00     0.031 C 
ATOM     20  C   UNL A   1      43.960  27.595  27.472  1.00  0.00     0.029 A 
ATOM     21  C   UNL A   1      43.824  28.977  27.917  1.00  0.00     0.049 A 
ATOM     22  H   UNL A   1      42.103  29.931  28.602  1.00  0.00     0.167 HD
ATOM     23  C   UNL A   1      38.334  31.761  29.910  1.00  0.00     0.034 A 
ATOM     24  C   UNL A   1      44.827  29.873  27.967  1.00  0.00     0.034 A 
ATOM     25  C   UNL A   1      39.378  32.712  30.216  1.00  0.00     0.049 A 
ATOM     26  C   UNL A   1      44.544  31.228  28.546  1.00  0.00     0.074 A 
ATOM     27  C   UNL A   1      39.263  33.951  30.819  1.00  0.00     0.029 A 
ATOM     28  N   UNL A   1      40.719  32.560  29.879  1.00  0.00    -0.354 N 
ATOM     29  N   UNL A   1      43.407  31.708  28.992  1.00  0.00    -0.248 NA
ATOM     30  C   UNL A   1      45.677  32.151  28.660  1.00  0.00     0.031 C 
ATOM     31  C   UNL A   1      40.505  34.589  30.747  1.00  0.00     0.029 A 
ATOM     32  C   UNL A   1      41.425  33.711  30.196  1.00  0.00     0.049 A 
ATOM     33  H   UNL A   1      41.110  31.753  29.473  1.00  0.00     0.167 HD
ATOM     34  C   UNL A   1      43.686  32.991  29.449  1.00  0.00     0.074 A 
ATOM     35  C   UNL A   1      45.110  33.189  29.262  1.00  0.00     0.031 C 
ATOM     36  C   UNL A   1      42.840  33.918  29.970  1.00  0.00     0.034 A 
BRANCH  23  37
ATOM     37  C   UNL A   1      36.917  32.109  30.304  1.00  0.00     0.023 A 
ATOM     38  C   UNL A   1      36.068  32.805  29.423  1.00  0.00     0.031 A 
ATOM     39  C   UNL A   1      36.464  31.882  31.619  1.00  0.00     0.131 A 
ATOM     40  C   UNL A   1      34.831  33.284  29.879  1.00  0.00     0.055 A 
ATOM     41  C   UNL A   1      35.219  32.337  32.059  1.00  0.00     0.041 A 
ATOM     42  F   UNL A   1      37.231  31.219  32.500  1.00  0.00    -0.206 F 
ATOM     43  C   UNL A   1      34.402  33.053  31.190  1.00  0.00     0.022 A 
BRANCH  40  44
ATOM     44  S   UNL A   1      33.752  34.276  28.810  1.00  0.00     0.124 S 
ATOM     45  O   UNL A   1      34.695  35.240  28.247  1.00  0.00    -0.237 OA
ATOM     46  O   UNL A   1      33.246  33.277  27.873  1.00  0.00    -0.237 OA
ATOM     47  O   UNL A   1      32.769  34.837  29.731  1.00  0.00    -0.744 OA
ENDBRANCH  40  44
ENDBRANCH  23  37
BRANCH  24  48
ATOM     48  C   UNL A   1      46.175  29.431  27.513  1.00  0.00     0.023 A 
ATOM     49  C   UNL A   1      46.399  29.129  26.155  1.00  0.00     0.031 A 
ATOM     50  C   UNL A   1      47.170  29.096  28.442  1.00  0.00     0.131 A 
ATOM     51  C   UNL A   1      47.539  28.410  25.784  1.00  0.00     0.055 A 
ATOM     52  C   UNL A   1      48.347  28.453  28.053  1.00  0.00     0.041 A 
ATOM     53  F   UNL A   1      46.988  29.343  29.748  1.00  0.00    -0.206 F 
ATOM     54  C   UNL A   1      48.524  28.083  26.722  1.00  0.00     0.022 A 
BRANCH  51  55
ATOM     55  S   UNL A   1      47.683  27.700  24.118  1.00  0.00     0.124 S 
ATOM     56  O   UNL A   1      49.117  27.797  23.869  1.00  0.00    -0.237 OA
ATOM     57  O   UNL A   1      47.166  26.350  24.324  1.00  0.00    -0.237 OA
ATOM     58  O   UNL A   1      46.840  28.567  23.300  1.00  0.00    -0.744 OA
ENDBRANCH  51  55
ENDBRANCH  24  48
BRANCH  36  59
ATOM     59  C   UNL A   1      43.414  35.266  30.344  1.00  0.00     0.023 A 
ATOM     60  C   UNL A   1      43.765  35.542  31.678  1.00  0.00     0.031 A 
ATOM     61  C   UNL A   1      43.506  36.310  29.404  1.00  0.00     0.131 A 
ATOM     62  C   UNL A   1      44.156  36.837  32.043  1.00  0.00     0.055 A 
ATOM     63  C   UNL A   1      43.957  37.581  29.761  1.00  0.00     0.041 A 
ATOM     64  F   UNL A   1      43.168  36.104  28.121  1.00  0.00    -0.206 F 
ATOM     65  C   UNL A   1      44.270  37.852  31.089  1.00  0.00     0.022 A 
BRANCH  62  66
ATOM     66  S   UNL A   1      44.436  37.274  33.781  1.00  0.00     0.124 S 
ATOM     67  O   UNL A   1      43.773  36.175  34.478  1.00  0.00    -0.237 OA
ATOM     68  O   UNL A   1      45.895  37.276  33.865  1.00  0.00    -0.237 OA
ATOM     69  O   UNL A   1      43.799  38.579  33.923  1.00  0.00    -0.744 OA
ENDBRANCH  62  66
ENDBRANCH  36  59
ENDBRANCH  10  11
ENDBRANCH   3   5
ENDBRANCH   2   3
ENDBRANCH   1   2
BRANCH   1  70
ATOM     70  C   UNL A   1      36.115  21.947  24.411  1.00  0.00     0.275 C 
BRANCH  70  71
ATOM     71  O   UNL A   1      35.641  23.230  23.981  1.00  0.00    -0.458 OA
BRANCH  71  72
ATOM     72  C   UNL A   1      34.329  23.280  23.628  1.00  0.00     0.340 C 
ATOM     73  O   UNL A   1      33.849  22.906  22.567  1.00  0.00    -0.246 OA
BRANCH  72  74
ATOM     74  C   UNL A   1      33.565  23.928  24.712  1.00  0.00     0.086 A 
ATOM     75  C   UNL A   1      33.046  23.114  25.729  1.00  0.00     0.018 A 
ATOM     76  C   UNL A   1      33.383  25.317  24.700  1.00  0.00     0.087 A 
ATOM     77  C   UNL A   1      32.327  23.688  26.764  1.00  0.00     0.002 A 
ATOM     78  C   UNL A   1      32.656  25.900  25.768  1.00  0.00     0.013 A 
ATOM     79  N   UNL A   1      33.837  26.069  23.675  1.00  0.00    -0.240 NA
ATOM     80  C   UNL A   1      32.136  25.066  26.786  1.00  0.00     0.011 A 
ATOM     81  C   UNL A   1      32.462  27.306  25.754  1.00  0.00     0.068 A 
ATOM     82  C   UNL A   1      33.586  27.391  23.651  1.00  0.00     0.107 A 
ATOM     83  C   UNL A   1      32.915  28.048  24.657  1.00  0.00     0.049 A 
ATOM     84  Br  UNL A   1      34.162  28.374  22.138  1.00  0.00    -0.029 Br
BRANCH  81  85
ATOM     85  C   UNL A   1      31.796  28.034  26.897  1.00  0.00     0.417 C 
ATOM     86  F   UNL A   1      32.595  28.158  27.988  1.00  0.00    -0.166 F 
ATOM     87  F   UNL A   1      31.411  29.294  26.554  1.00  0.00    -0.166 F 
ATOM     88  F   UNL A   1      30.661  27.418  27.336  1.00  0.00    -0.166 F 
ENDBRANCH  81  85
ENDBRANCH  72  74
ENDBRANCH  71  72
ENDBRANCH  70  71
ENDBRANCH   1  70
TORSDOF 15
ENDMDL
