MODEL 1
REMARK VINA RESULT:     -11.4      0.000      0.000
REMARK SMILES Cc1noc(C)c1CNc1cnc(C(=O)OCCOC(=O)c2ccc(-c3c4nc(c(-c5cc(S(=O)(=O)[O-])ccc5F)c5ccc([nH]5)c(-c5cc(S(=O)(=O)[O-])ccc5F)c5nc(c(-c6cc(S(=O)(=O)[O-])ccc6F)c6ccc3[nH]6)C=C5)C=C4)cc2)cn1
REMARK SMILES IDX 17 1 16 2 14 3 15 4 13 5 10 6 11 7 86 8 12 9 85 10 9 11 8 13
REMARK SMILES IDX 7 14 1 15 2 16 3 17 4 18 5 19 6 20 18 21 19 22 20 23 21 24
REMARK SMILES IDX 22 25 23 26 84 27 24 28 83 29 25 30 26 31 27 32 77 33 28 34
REMARK SMILES IDX 82 35 76 36 78 37 29 38 81 39 75 40 74 41 30 43 62 44 42 45
REMARK SMILES IDX 61 46 43 47 46 48 60 49 79 50 44 51 45 52 59 54 80 55 47 56
REMARK SMILES IDX 31 57 32 58 40 59 33 60 39 61 41 62 38 63 34 64 35 65 36 66
REMARK SMILES IDX 37 67 63 68 64 69 72 70 65 71 71 72 73 73 70 74 66 75 67 76
REMARK SMILES IDX 68 77 69 78 48 79 49 80 57 81 50 82 56 83 58 84 55 85 51 86
REMARK SMILES IDX 52 87 53 88 54 89
REMARK H PARENT 9 12 78 42 46 53
REMARK Flexibility Score: inf
ROOT
ATOM      1  C   UNL A   1      32.391  29.192  24.821  1.00  0.00     0.275 C 
ENDROOT
BRANCH   1   2
ATOM      2  O   UNL A   1      31.838  29.269  23.492  1.00  0.00    -0.457 OA
BRANCH   2   3
ATOM      3  C   UNL A   1      30.645  28.645  23.321  1.00  0.00     0.358 C 
ATOM      4  O   UNL A   1      29.549  29.185  23.294  1.00  0.00    -0.244 OA
BRANCH   3   5
ATOM      5  C   UNL A   1      30.814  27.195  23.084  1.00  0.00     0.166 A 
ATOM      6  C   UNL A   1      31.183  24.517  22.967  1.00  0.00     0.144 A 
ATOM      7  C   UNL A   1      31.876  25.408  22.140  1.00  0.00     0.158 A 
ATOM      8  N   UNL A   1      30.273  24.970  23.840  1.00  0.00    -0.235 NA
ATOM      9  N   UNL A   1      31.717  26.760  22.168  1.00  0.00    -0.244 NA
ATOM     10  C   UNL A   1      30.118  26.314  23.896  1.00  0.00     0.149 A 
BRANCH   6  11
ATOM     11  N   UNL A   1      31.399  23.158  23.018  1.00  0.00    -0.365 N 
ATOM     12  H   UNL A   1      30.657  22.533  23.184  1.00  0.00     0.162 HD
BRANCH  11  13
ATOM     13  C   UNL A   1      32.753  22.675  22.821  1.00  0.00     0.156 C 
BRANCH  13  14
ATOM     14  C   UNL A   1      33.470  22.247  24.057  1.00  0.00     0.037 A 
ATOM     15  C   UNL A   1      34.514  24.493  24.928  1.00  0.00     0.071 C 
ATOM     16  C   UNL A   1      34.249  23.034  24.953  1.00  0.00     0.086 A 
ATOM     17  N   UNL A   1      34.771  22.284  25.931  1.00  0.00    -0.085 NA
ATOM     18  O   UNL A   1      34.311  21.003  25.715  1.00  0.00    -0.361 OA
ATOM     19  C   UNL A   1      33.529  20.984  24.606  1.00  0.00     0.138 A 
ATOM     20  C   UNL A   1      32.939  19.682  24.248  1.00  0.00     0.091 C 
ENDBRANCH  13  14
ENDBRANCH  11  13
ENDBRANCH   6  11
ENDBRANCH   3   5
ENDBRANCH   2   3
ENDBRANCH   1   2
BRANCH   1  21
ATOM     21  C   UNL A   1      31.791  30.249  25.752  1.00  0.00     0.275 C 
BRANCH  21  22
ATOM     22  O   UNL A   1      32.475  30.298  27.020  1.00  0.00    -0.458 OA
BRANCH  22  23
ATOM     23  C   UNL A   1      33.107  31.464  27.282  1.00  0.00     0.338 C 
ATOM     24  O   UNL A   1      32.629  32.585  27.250  1.00  0.00    -0.246 OA
BRANCH  23  25
ATOM     25  C   UNL A   1      34.489  31.212  27.716  1.00  0.00     0.060 A 
ATOM     26  C   UNL A   1      34.860  29.904  28.014  1.00  0.00     0.016 A 
ATOM     27  C   UNL A   1      35.350  32.267  28.004  1.00  0.00     0.016 A 
ATOM     28  C   UNL A   1      36.037  29.648  28.710  1.00  0.00     0.010 A 
ATOM     29  C   UNL A   1      36.589  31.995  28.601  1.00  0.00     0.010 A 
ATOM     30  C   UNL A   1      36.932  30.687  28.994  1.00  0.00    -0.014 A 
BRANCH  30  31
ATOM     31  C   UNL A   1      38.211  30.421  29.713  1.00  0.00     0.031 A 
ATOM     32  C   UNL A   1      39.224  29.480  29.114  1.00  0.00     0.074 A 
ATOM     33  C   UNL A   1      38.464  31.000  30.905  1.00  0.00     0.049 A 
ATOM     34  N   UNL A   1      40.244  28.887  29.680  1.00  0.00    -0.248 NA
ATOM     35  C   UNL A   1      39.050  29.145  27.692  1.00  0.00     0.031 C 
ATOM     36  C   UNL A   1      37.611  31.989  31.569  1.00  0.00     0.029 A 
ATOM     37  N   UNL A   1      39.508  30.828  31.784  1.00  0.00    -0.354 N 
ATOM     38  C   UNL A   1      40.792  28.058  28.706  1.00  0.00     0.074 A 
ATOM     39  C   UNL A   1      39.994  28.232  27.510  1.00  0.00     0.031 C 
ATOM     40  C   UNL A   1      38.168  32.343  32.736  1.00  0.00     0.029 A 
ATOM     41  C   UNL A   1      39.354  31.526  32.961  1.00  0.00     0.049 A 
ATOM     42  H   UNL A   1      40.290  30.261  31.589  1.00  0.00     0.167 HD
ATOM     43  C   UNL A   1      41.853  27.220  28.813  1.00  0.00     0.034 A 
ATOM     44  C   UNL A   1      40.039  31.466  34.120  1.00  0.00     0.034 A 
ATOM     45  C   UNL A   1      42.666  27.106  30.001  1.00  0.00     0.049 A 
ATOM     46  C   UNL A   1      41.186  30.497  34.234  1.00  0.00     0.074 A 
ATOM     47  C   UNL A   1      43.773  26.305  30.216  1.00  0.00     0.029 A 
ATOM     48  N   UNL A   1      42.465  27.827  31.171  1.00  0.00    -0.354 N 
ATOM     49  N   UNL A   1      41.643  29.655  33.337  1.00  0.00    -0.248 NA
ATOM     50  C   UNL A   1      41.899  30.458  35.517  1.00  0.00     0.031 C 
ATOM     51  C   UNL A   1      44.209  26.500  31.531  1.00  0.00     0.029 A 
ATOM     52  C   UNL A   1      43.415  27.472  32.117  1.00  0.00     0.049 A 
ATOM     53  H   UNL A   1      41.753  28.492  31.310  1.00  0.00     0.167 HD
ATOM     54  C   UNL A   1      42.713  29.002  33.941  1.00  0.00     0.074 A 
ATOM     55  C   UNL A   1      42.837  29.552  35.276  1.00  0.00     0.031 C 
ATOM     56  C   UNL A   1      43.522  28.038  33.438  1.00  0.00     0.034 A 
BRANCH  43  57
ATOM     57  C   UNL A   1      42.152  26.309  27.648  1.00  0.00     0.023 A 
ATOM     58  C   UNL A   1      41.685  24.985  27.585  1.00  0.00     0.031 A 
ATOM     59  C   UNL A   1      42.930  26.784  26.576  1.00  0.00     0.131 A 
ATOM     60  C   UNL A   1      42.046  24.167  26.501  1.00  0.00     0.055 A 
ATOM     61  C   UNL A   1      43.227  25.989  25.467  1.00  0.00     0.041 A 
ATOM     62  F   UNL A   1      43.422  28.033  26.591  1.00  0.00    -0.206 F 
ATOM     63  C   UNL A   1      42.794  24.668  25.432  1.00  0.00     0.022 A 
BRANCH  60  64
ATOM     64  S   UNL A   1      41.622  22.404  26.559  1.00  0.00     0.124 S 
ATOM     65  O   UNL A   1      42.209  22.001  27.834  1.00  0.00    -0.237 OA
ATOM     66  O   UNL A   1      40.165  22.428  26.505  1.00  0.00    -0.237 OA
ATOM     67  O   UNL A   1      42.281  21.853  25.376  1.00  0.00    -0.744 OA
ENDBRANCH  60  64
ENDBRANCH  43  57
BRANCH  44  68
ATOM     68  C   UNL A   1      39.597  32.271  35.297  1.00  0.00     0.023 A 
ATOM     69  C   UNL A   1      38.825  31.703  36.320  1.00  0.00     0.031 A 
ATOM     70  C   UNL A   1      39.920  33.638  35.396  1.00  0.00     0.131 A 
ATOM     71  C   UNL A   1      38.372  32.505  37.381  1.00  0.00     0.055 A 
ATOM     72  C   UNL A   1      39.516  34.417  36.481  1.00  0.00     0.041 A 
ATOM     73  F   UNL A   1      40.653  34.234  34.443  1.00  0.00    -0.206 F 
ATOM     74  C   UNL A   1      38.726  33.853  37.476  1.00  0.00     0.022 A 
BRANCH  71  75
ATOM     75  S   UNL A   1      37.232  31.782  38.592  1.00  0.00     0.124 S 
ATOM     76  O   UNL A   1      36.091  32.688  38.504  1.00  0.00    -0.237 OA
ATOM     77  O   UNL A   1      37.030  30.442  38.054  1.00  0.00    -0.237 OA
ATOM     78  O   UNL A   1      37.982  31.844  39.844  1.00  0.00    -0.744 OA
ENDBRANCH  71  75
ENDBRANCH  44  68
BRANCH  56  79
ATOM     79  C   UNL A   1      44.654  27.571  34.314  1.00  0.00     0.023 A 
ATOM     80  C   UNL A   1      44.494  26.521  35.234  1.00  0.00     0.031 A 
ATOM     81  C   UNL A   1      45.916  28.181  34.210  1.00  0.00     0.131 A 
ATOM     82  C   UNL A   1      45.573  26.137  36.043  1.00  0.00     0.055 A 
ATOM     83  C   UNL A   1      46.997  27.765  34.984  1.00  0.00     0.041 A 
ATOM     84  F   UNL A   1      46.117  29.188  33.344  1.00  0.00    -0.206 F 
ATOM     85  C   UNL A   1      46.827  26.741  35.912  1.00  0.00     0.022 A 
BRANCH  82  86
ATOM     86  S   UNL A   1      45.310  24.857  37.302  1.00  0.00     0.124 S 
ATOM     87  O   UNL A   1      46.418  25.104  38.219  1.00  0.00    -0.237 OA
ATOM     88  O   UNL A   1      43.980  25.180  37.807  1.00  0.00    -0.237 OA
ATOM     89  O   UNL A   1      45.397  23.609  36.546  1.00  0.00    -0.744 OA
ENDBRANCH  82  86
ENDBRANCH  56  79
ENDBRANCH  30  31
ENDBRANCH  23  25
ENDBRANCH  22  23
ENDBRANCH  21  22
ENDBRANCH   1  21
TORSDOF 17
ENDMDL
MODEL 2
REMARK VINA RESULT:     -11.4      5.117     10.132
REMARK SMILES Cc1noc(C)c1CNc1cnc(C(=O)OCCOC(=O)c2ccc(-c3c4nc(c(-c5cc(S(=O)(=O)[O-])ccc5F)c5ccc([nH]5)c(-c5cc(S(=O)(=O)[O-])ccc5F)c5nc(c(-c6cc(S(=O)(=O)[O-])ccc6F)c6ccc3[nH]6)C=C5)C=C4)cc2)cn1
REMARK SMILES IDX 17 1 16 2 14 3 15 4 13 5 10 6 11 7 86 8 12 9 85 10 9 11 8 13
REMARK SMILES IDX 7 14 1 15 2 16 3 17 4 18 5 19 6 20 18 21 19 22 20 23 21 24
REMARK SMILES IDX 22 25 23 26 84 27 24 28 83 29 25 30 26 31 27 32 77 33 28 34
REMARK SMILES IDX 82 35 76 36 78 37 29 38 81 39 75 40 74 41 30 43 62 44 42 45
REMARK SMILES IDX 61 46 43 47 46 48 60 49 79 50 44 51 45 52 59 54 80 55 47 56
REMARK SMILES IDX 31 57 32 58 40 59 33 60 39 61 41 62 38 63 34 64 35 65 36 66
REMARK SMILES IDX 37 67 63 68 64 69 72 70 65 71 71 72 73 73 70 74 66 75 67 76
REMARK SMILES IDX 68 77 69 78 48 79 49 80 57 81 50 82 56 83 58 84 55 85 51 86
REMARK SMILES IDX 52 87 53 88 54 89
REMARK H PARENT 9 12 78 42 46 53
REMARK Flexibility Score: inf
ROOT
ATOM      1  C   UNL A   1      35.054  20.549  25.232  1.00  0.00     0.275 C 
ENDROOT
BRANCH   1   2
ATOM      2  O   UNL A   1      34.009  20.987  24.339  1.00  0.00    -0.457 OA
BRANCH   2   3
ATOM      3  C   UNL A   1      32.745  20.846  24.809  1.00  0.00     0.358 C 
ATOM      4  O   UNL A   1      32.135  19.793  24.925  1.00  0.00    -0.244 OA
BRANCH   3   5
ATOM      5  C   UNL A   1      32.178  22.137  25.256  1.00  0.00     0.166 A 
ATOM      6  C   UNL A   1      31.440  24.619  26.040  1.00  0.00     0.144 A 
ATOM      7  C   UNL A   1      31.182  23.479  26.811  1.00  0.00     0.158 A 
ATOM      8  N   UNL A   1      32.048  24.510  24.851  1.00  0.00    -0.235 NA
ATOM      9  N   UNL A   1      31.536  22.215  26.450  1.00  0.00    -0.244 NA
ATOM     10  C   UNL A   1      32.426  23.262  24.487  1.00  0.00     0.149 A 
BRANCH   6  11
ATOM     11  N   UNL A   1      31.175  25.913  26.432  1.00  0.00    -0.365 N 
ATOM     12  H   UNL A   1      30.361  26.130  26.941  1.00  0.00     0.162 HD
BRANCH  11  13
ATOM     13  C   UNL A   1      32.128  26.944  26.071  1.00  0.00     0.156 C 
BRANCH  13  14
ATOM     14  C   UNL A   1      31.551  28.156  25.420  1.00  0.00     0.037 A 
ATOM     15  C   UNL A   1      30.310  27.156  23.333  1.00  0.00     0.071 C 
ATOM     16  C   UNL A   1      30.783  28.244  24.223  1.00  0.00     0.086 A 
ATOM     17  N   UNL A   1      30.476  29.514  23.934  1.00  0.00    -0.085 NA
ATOM     18  O   UNL A   1      31.003  30.274  24.957  1.00  0.00    -0.361 OA
ATOM     19  C   UNL A   1      31.633  29.464  25.845  1.00  0.00     0.138 A 
ATOM     20  C   UNL A   1      32.235  30.126  27.016  1.00  0.00     0.091 C 
ENDBRANCH  13  14
ENDBRANCH  11  13
ENDBRANCH   6  11
ENDBRANCH   3   5
ENDBRANCH   2   3
ENDBRANCH   1   2
BRANCH   1  21
ATOM     21  C   UNL A   1      35.913  21.718  25.722  1.00  0.00     0.275 C 
BRANCH  21  22
ATOM     22  O   UNL A   1      37.122  21.856  24.948  1.00  0.00    -0.458 OA
BRANCH  22  23
ATOM     23  C   UNL A   1      38.242  21.401  25.554  1.00  0.00     0.338 C 
ATOM     24  O   UNL A   1      38.725  20.285  25.465  1.00  0.00    -0.246 OA
BRANCH  23  25
ATOM     25  C   UNL A   1      38.895  22.482  26.306  1.00  0.00     0.060 A 
ATOM     26  C   UNL A   1      38.491  23.792  26.064  1.00  0.00     0.016 A 
ATOM     27  C   UNL A   1      40.012  22.228  27.096  1.00  0.00     0.016 A 
ATOM     28  C   UNL A   1      39.266  24.859  26.507  1.00  0.00     0.010 A 
ATOM     29  C   UNL A   1      40.725  23.305  27.639  1.00  0.00     0.010 A 
ATOM     30  C   UNL A   1      40.382  24.634  27.321  1.00  0.00    -0.014 A 
BRANCH  30  31
ATOM     31  C   UNL A   1      41.203  25.772  27.828  1.00  0.00     0.031 A 
ATOM     32  C   UNL A   1      40.561  26.839  28.676  1.00  0.00     0.074 A 
ATOM     33  C   UNL A   1      42.513  25.867  27.518  1.00  0.00     0.049 A 
ATOM     34  N   UNL A   1      40.995  28.037  28.973  1.00  0.00    -0.248 NA
ATOM     35  C   UNL A   1      39.243  26.520  29.247  1.00  0.00     0.031 C 
ATOM     36  C   UNL A   1      43.285  24.871  26.771  1.00  0.00     0.029 A 
ATOM     37  N   UNL A   1      43.429  26.859  27.779  1.00  0.00    -0.354 N 
ATOM     38  C   UNL A   1      39.977  28.640  29.706  1.00  0.00     0.074 A 
ATOM     39  C   UNL A   1      38.907  27.670  29.814  1.00  0.00     0.031 C 
ATOM     40  C   UNL A   1      44.551  25.294  26.645  1.00  0.00     0.029 A 
ATOM     41  C   UNL A   1      44.657  26.638  27.198  1.00  0.00     0.049 A 
ATOM     42  H   UNL A   1      43.225  27.651  28.329  1.00  0.00     0.167 HD
ATOM     43  C   UNL A   1      39.941  29.894  30.222  1.00  0.00     0.034 A 
ATOM     44  C   UNL A   1      45.726  27.448  27.056  1.00  0.00     0.034 A 
ATOM     45  C   UNL A   1      41.044  30.822  30.148  1.00  0.00     0.049 A 
ATOM     46  C   UNL A   1      45.650  28.850  27.598  1.00  0.00     0.074 A 
ATOM     47  C   UNL A   1      41.124  32.109  30.650  1.00  0.00     0.029 A 
ATOM     48  N   UNL A   1      42.265  30.557  29.541  1.00  0.00    -0.354 N 
ATOM     49  N   UNL A   1      44.652  29.441  28.213  1.00  0.00    -0.248 NA
ATOM     50  C   UNL A   1      46.833  29.700  27.413  1.00  0.00     0.031 C 
ATOM     51  C   UNL A   1      42.371  32.640  30.300  1.00  0.00     0.029 A 
ATOM     52  C   UNL A   1      43.095  31.662  29.638  1.00  0.00     0.049 A 
ATOM     53  H   UNL A   1      42.505  29.708  29.105  1.00  0.00     0.167 HD
ATOM     54  C   UNL A   1      45.097  30.725  28.509  1.00  0.00     0.074 A 
ATOM     55  C   UNL A   1      46.454  30.821  28.011  1.00  0.00     0.031 C 
ATOM     56  C   UNL A   1      44.445  31.733  29.140  1.00  0.00     0.034 A 
BRANCH  43  57
ATOM     57  C   UNL A   1      38.649  30.361  30.846  1.00  0.00     0.023 A 
ATOM     58  C   UNL A   1      37.647  31.015  30.110  1.00  0.00     0.031 A 
ATOM     59  C   UNL A   1      38.422  30.147  32.219  1.00  0.00     0.131 A 
ATOM     60  C   UNL A   1      36.491  31.479  30.761  1.00  0.00     0.055 A 
ATOM     61  C   UNL A   1      37.241  30.547  32.846  1.00  0.00     0.041 A 
ATOM     62  F   UNL A   1      39.354  29.546  32.978  1.00  0.00    -0.206 F 
ATOM     63  C   UNL A   1      36.272  31.228  32.118  1.00  0.00     0.022 A 
BRANCH  60  64
ATOM     64  S   UNL A   1      35.326  32.516  29.835  1.00  0.00     0.124 S 
ATOM     65  O   UNL A   1      34.305  32.786  30.844  1.00  0.00    -0.237 OA
ATOM     66  O   UNL A   1      36.155  33.651  29.444  1.00  0.00    -0.237 OA
ATOM     67  O   UNL A   1      34.894  31.652  28.737  1.00  0.00    -0.744 OA
ENDBRANCH  60  64
ENDBRANCH  43  57
BRANCH  44  68
ATOM     68  C   UNL A   1      46.918  26.989  26.284  1.00  0.00     0.023 A 
ATOM     69  C   UNL A   1      47.996  26.353  26.916  1.00  0.00     0.031 A 
ATOM     70  C   UNL A   1      47.006  27.211  24.896  1.00  0.00     0.131 A 
ATOM     71  C   UNL A   1      49.130  25.992  26.169  1.00  0.00     0.055 A 
ATOM     72  C   UNL A   1      48.110  26.798  24.149  1.00  0.00     0.041 A 
ATOM     73  F   UNL A   1      46.005  27.820  24.240  1.00  0.00    -0.206 F 
ATOM     74  C   UNL A   1      49.187  26.195  24.789  1.00  0.00     0.022 A 
BRANCH  71  75
ATOM     75  S   UNL A   1      50.574  25.333  27.046  1.00  0.00     0.124 S 
ATOM     76  O   UNL A   1      49.982  24.251  27.826  1.00  0.00    -0.237 OA
ATOM     77  O   UNL A   1      51.439  24.930  25.943  1.00  0.00    -0.237 OA
ATOM     78  O   UNL A   1      51.049  26.474  27.824  1.00  0.00    -0.744 OA
ENDBRANCH  71  75
ENDBRANCH  44  68
BRANCH  56  79
ATOM     79  C   UNL A   1      45.221  33.000  29.385  1.00  0.00     0.023 A 
ATOM     80  C   UNL A   1      45.219  34.059  28.462  1.00  0.00     0.031 A 
ATOM     81  C   UNL A   1      45.960  33.148  30.571  1.00  0.00     0.131 A 
ATOM     82  C   UNL A   1      45.975  35.211  28.726  1.00  0.00     0.055 A 
ATOM     83  C   UNL A   1      46.673  34.313  30.849  1.00  0.00     0.041 A 
ATOM     84  F   UNL A   1      45.990  32.163  31.483  1.00  0.00    -0.206 F 
ATOM     85  C   UNL A   1      46.688  35.351  29.920  1.00  0.00     0.022 A 
BRANCH  82  86
ATOM     86  S   UNL A   1      46.049  36.516  27.469  1.00  0.00     0.124 S 
ATOM     87  O   UNL A   1      44.640  36.851  27.297  1.00  0.00    -0.237 OA
ATOM     88  O   UNL A   1      46.872  37.533  28.116  1.00  0.00    -0.237 OA
ATOM     89  O   UNL A   1      46.673  35.855  26.324  1.00  0.00    -0.744 OA
ENDBRANCH  82  86
ENDBRANCH  56  79
ENDBRANCH  30  31
ENDBRANCH  23  25
ENDBRANCH  22  23
ENDBRANCH  21  22
ENDBRANCH   1  21
TORSDOF 17
ENDMDL
MODEL 3
REMARK VINA RESULT:     -11.3      2.611      8.694
REMARK SMILES Cc1noc(C)c1CNc1cnc(C(=O)OCCOC(=O)c2ccc(-c3c4nc(c(-c5cc(S(=O)(=O)[O-])ccc5F)c5ccc([nH]5)c(-c5cc(S(=O)(=O)[O-])ccc5F)c5nc(c(-c6cc(S(=O)(=O)[O-])ccc6F)c6ccc3[nH]6)C=C5)C=C4)cc2)cn1
REMARK SMILES IDX 17 1 16 2 14 3 15 4 13 5 10 6 11 7 86 8 12 9 85 10 9 11 8 13
REMARK SMILES IDX 7 14 1 15 2 16 3 17 4 18 5 19 6 20 18 21 19 22 20 23 21 24
REMARK SMILES IDX 22 25 23 26 84 27 24 28 83 29 25 30 26 31 27 32 77 33 28 34
REMARK SMILES IDX 82 35 76 36 78 37 29 38 81 39 75 40 74 41 30 43 62 44 42 45
REMARK SMILES IDX 61 46 43 47 46 48 60 49 79 50 44 51 45 52 59 54 80 55 47 56
REMARK SMILES IDX 31 57 32 58 40 59 33 60 39 61 41 62 38 63 34 64 35 65 36 66
REMARK SMILES IDX 37 67 63 68 64 69 72 70 65 71 71 72 73 73 70 74 66 75 67 76
REMARK SMILES IDX 68 77 69 78 48 79 49 80 57 81 50 82 56 83 58 84 55 85 51 86
REMARK SMILES IDX 52 87 53 88 54 89
REMARK H PARENT 9 12 78 42 46 53
REMARK Flexibility Score: inf
ROOT
ATOM      1  C   UNL A   1      41.562  20.337  26.935  1.00  0.00     0.275 C 
ENDROOT
BRANCH   1   2
ATOM      2  O   UNL A   1      40.245  20.882  26.720  1.00  0.00    -0.457 OA
BRANCH   2   3
ATOM      3  C   UNL A   1      39.480  20.221  25.816  1.00  0.00     0.358 C 
ATOM      4  O   UNL A   1      39.653  19.073  25.433  1.00  0.00    -0.244 OA
BRANCH   3   5
ATOM      5  C   UNL A   1      38.324  21.032  25.377  1.00  0.00     0.166 A 
ATOM      6  C   UNL A   1      36.208  22.640  24.871  1.00  0.00     0.144 A 
ATOM      7  C   UNL A   1      36.176  21.260  24.637  1.00  0.00     0.158 A 
ATOM      8  N   UNL A   1      37.321  23.224  25.335  1.00  0.00    -0.235 NA
ATOM      9  N   UNL A   1      37.220  20.420  24.878  1.00  0.00    -0.244 NA
ATOM     10  C   UNL A   1      38.362  22.399  25.599  1.00  0.00     0.149 A 
BRANCH   6  11
ATOM     11  N   UNL A   1      35.134  23.489  24.724  1.00  0.00    -0.365 N 
ATOM     12  H   UNL A   1      34.643  23.543  23.872  1.00  0.00     0.162 HD
BRANCH  11  13
ATOM     13  C   UNL A   1      34.747  24.304  25.861  1.00  0.00     0.156 C 
BRANCH  13  14
ATOM     14  C   UNL A   1      33.419  23.983  26.460  1.00  0.00     0.037 A 
ATOM     15  C   UNL A   1      31.937  26.017  25.708  1.00  0.00     0.071 C 
ATOM     16  C   UNL A   1      32.212  24.738  26.409  1.00  0.00     0.086 A 
ATOM     17  N   UNL A   1      31.236  24.143  27.105  1.00  0.00    -0.085 NA
ATOM     18  O   UNL A   1      31.775  22.970  27.588  1.00  0.00    -0.361 OA
ATOM     19  C   UNL A   1      33.070  22.871  27.196  1.00  0.00     0.138 A 
ATOM     20  C   UNL A   1      33.786  21.654  27.618  1.00  0.00     0.091 C 
ENDBRANCH  13  14
ENDBRANCH  11  13
ENDBRANCH   6  11
ENDBRANCH   3   5
ENDBRANCH   2   3
ENDBRANCH   1   2
BRANCH   1  21
ATOM     21  C   UNL A   1      42.610  21.006  26.042  1.00  0.00     0.275 C 
BRANCH  21  22
ATOM     22  O   UNL A   1      42.063  22.126  25.319  1.00  0.00    -0.458 OA
BRANCH  22  23
ATOM     23  C   UNL A   1      42.876  23.203  25.233  1.00  0.00     0.338 C 
ATOM     24  O   UNL A   1      43.863  23.326  24.529  1.00  0.00    -0.246 OA
BRANCH  23  25
ATOM     25  C   UNL A   1      42.364  24.300  26.066  1.00  0.00     0.060 A 
ATOM     26  C   UNL A   1      42.982  25.544  25.976  1.00  0.00     0.016 A 
ATOM     27  C   UNL A   1      41.414  24.062  27.056  1.00  0.00     0.016 A 
ATOM     28  C   UNL A   1      42.749  26.517  26.942  1.00  0.00     0.010 A 
ATOM     29  C   UNL A   1      41.095  25.084  27.959  1.00  0.00     0.010 A 
ATOM     30  C   UNL A   1      41.784  26.312  27.935  1.00  0.00    -0.014 A 
BRANCH  30  31
ATOM     31  C   UNL A   1      41.503  27.360  28.959  1.00  0.00     0.031 A 
ATOM     32  C   UNL A   1      42.336  27.423  30.214  1.00  0.00     0.074 A 
ATOM     33  C   UNL A   1      40.497  28.242  28.784  1.00  0.00     0.049 A 
ATOM     34  N   UNL A   1      42.094  28.040  31.341  1.00  0.00    -0.248 NA
ATOM     35  C   UNL A   1      43.600  26.670  30.201  1.00  0.00     0.031 C 
ATOM     36  C   UNL A   1      39.658  28.349  27.587  1.00  0.00     0.029 A 
ATOM     37  N   UNL A   1      39.995  29.211  29.620  1.00  0.00    -0.354 N 
ATOM     38  C   UNL A   1      43.137  27.696  32.196  1.00  0.00     0.074 A 
ATOM     39  C   UNL A   1      44.018  26.822  31.451  1.00  0.00     0.031 C 
ATOM     40  C   UNL A   1      38.760  29.329  27.761  1.00  0.00     0.029 A 
ATOM     41  C   UNL A   1      38.880  29.843  29.119  1.00  0.00     0.049 A 
ATOM     42  H   UNL A   1      40.395  29.430  30.494  1.00  0.00     0.167 HD
ATOM     43  C   UNL A   1      43.325  28.068  33.487  1.00  0.00     0.034 A 
ATOM     44  C   UNL A   1      38.003  30.685  29.704  1.00  0.00     0.034 A 
ATOM     45  C   UNL A   1      42.460  28.985  34.190  1.00  0.00     0.049 A 
ATOM     46  C   UNL A   1      38.205  31.051  31.150  1.00  0.00     0.074 A 
ATOM     47  C   UNL A   1      42.564  29.445  35.490  1.00  0.00     0.029 A 
ATOM     48  N   UNL A   1      41.337  29.593  33.643  1.00  0.00    -0.354 N 
ATOM     49  N   UNL A   1      39.145  30.653  31.976  1.00  0.00    -0.248 NA
ATOM     50  C   UNL A   1      37.222  31.962  31.750  1.00  0.00     0.031 C 
ATOM     51  C   UNL A   1      41.476  30.287  35.748  1.00  0.00     0.029 A 
ATOM     52  C   UNL A   1      40.729  30.406  34.587  1.00  0.00     0.049 A 
ATOM     53  H   UNL A   1      41.019  29.465  32.721  1.00  0.00     0.167 HD
ATOM     54  C   UNL A   1      38.879  31.285  33.185  1.00  0.00     0.074 A 
ATOM     55  C   UNL A   1      37.695  32.095  32.981  1.00  0.00     0.031 C 
ATOM     56  C   UNL A   1      39.554  31.208  34.359  1.00  0.00     0.034 A 
BRANCH  43  57
ATOM     57  C   UNL A   1      44.462  27.428  34.245  1.00  0.00     0.023 A 
ATOM     58  C   UNL A   1      45.735  28.015  34.334  1.00  0.00     0.031 A 
ATOM     59  C   UNL A   1      44.260  26.194  34.891  1.00  0.00     0.131 A 
ATOM     60  C   UNL A   1      46.770  27.343  35.006  1.00  0.00     0.055 A 
ATOM     61  C   UNL A   1      45.272  25.564  35.616  1.00  0.00     0.041 A 
ATOM     62  F   UNL A   1      43.070  25.575  34.822  1.00  0.00    -0.206 F 
ATOM     63  C   UNL A   1      46.540  26.133  35.667  1.00  0.00     0.022 A 
BRANCH  60  64
ATOM     64  S   UNL A   1      48.453  28.012  34.909  1.00  0.00     0.124 S 
ATOM     65  O   UNL A   1      48.714  28.360  36.303  1.00  0.00    -0.237 OA
ATOM     66  O   UNL A   1      49.211  26.885  34.379  1.00  0.00    -0.237 OA
ATOM     67  O   UNL A   1      48.318  29.153  34.004  1.00  0.00    -0.744 OA
ENDBRANCH  60  64
ENDBRANCH  43  57
BRANCH  44  68
ATOM     68  C   UNL A   1      36.801  31.158  28.955  1.00  0.00     0.023 A 
ATOM     69  C   UNL A   1      35.839  30.256  28.478  1.00  0.00     0.031 A 
ATOM     70  C   UNL A   1      36.617  32.526  28.680  1.00  0.00     0.131 A 
ATOM     71  C   UNL A   1      34.754  30.729  27.722  1.00  0.00     0.055 A 
ATOM     72  C   UNL A   1      35.507  32.996  27.977  1.00  0.00     0.041 A 
ATOM     73  F   UNL A   1      37.510  33.433  29.108  1.00  0.00    -0.206 F 
ATOM     74  C   UNL A   1      34.573  32.093  27.483  1.00  0.00     0.022 A 
BRANCH  71  75
ATOM     75  S   UNL A   1      33.625  29.523  26.973  1.00  0.00     0.124 S 
ATOM     76  O   UNL A   1      32.376  29.811  27.669  1.00  0.00    -0.237 OA
ATOM     77  O   UNL A   1      33.676  29.896  25.564  1.00  0.00    -0.237 OA
ATOM     78  O   UNL A   1      34.237  28.237  27.299  1.00  0.00    -0.744 OA
ENDBRANCH  71  75
ENDBRANCH  44  68
BRANCH  56  79
ATOM     79  C   UNL A   1      39.064  32.076  35.488  1.00  0.00     0.023 A 
ATOM     80  C   UNL A   1      38.386  31.538  36.595  1.00  0.00     0.031 A 
ATOM     81  C   UNL A   1      39.296  33.462  35.455  1.00  0.00     0.131 A 
ATOM     82  C   UNL A   1      37.930  32.391  37.610  1.00  0.00     0.055 A 
ATOM     83  C   UNL A   1      38.880  34.299  36.489  1.00  0.00     0.041 A 
ATOM     84  F   UNL A   1      39.940  34.020  34.418  1.00  0.00    -0.206 F 
ATOM     85  C   UNL A   1      38.187  33.765  37.572  1.00  0.00     0.022 A 
BRANCH  82  86
ATOM     86  S   UNL A   1      36.958  31.689  38.971  1.00  0.00     0.124 S 
ATOM     87  O   UNL A   1      35.736  32.484  38.912  1.00  0.00    -0.237 OA
ATOM     88  O   UNL A   1      36.828  30.290  38.578  1.00  0.00    -0.237 OA
ATOM     89  O   UNL A   1      37.794  31.924  40.147  1.00  0.00    -0.744 OA
ENDBRANCH  82  86
ENDBRANCH  56  79
ENDBRANCH  30  31
ENDBRANCH  23  25
ENDBRANCH  22  23
ENDBRANCH  21  22
ENDBRANCH   1  21
TORSDOF 17
ENDMDL
