MODEL 1
REMARK VINA RESULT:     -11.0      0.000      0.000
REMARK SMILES NS(=O)(=O)c1ccc(-c2cc(Cl)cc3c2O[C@H](C(F)(F)F)C(C(=O)OCCOC(=O)c2ccc(-c4c5nc(c(-c6cc(S(=O)(=O)[O-])ccc6F)c6ccc([nH]6)c(-c6cc(S(=O)(=O)[O-])ccc6F)c6nc(c(-c7cc(S(=O)(=O)[O-])ccc7F)c7ccc4[nH]7)C=C6)C=C5)cc2)=C3)cc1
REMARK SMILES IDX 26 1 25 2 23 3 24 4 22 5 9 6 10 7 15 8 11 9 14 10 16 11
REMARK SMILES IDX 12 12 13 13 94 14 17 15 8 16 5 17 6 18 96 19 7 20 95 21 2 22
REMARK SMILES IDX 3 23 4 24 1 25 18 28 19 29 20 30 21 31 27 32 28 33 29 34
REMARK SMILES IDX 30 35 31 36 32 37 93 38 33 39 92 40 34 41 35 42 36 43 86 44
REMARK SMILES IDX 37 45 91 46 85 47 87 48 38 49 90 50 84 51 83 52 39 54 71 55
REMARK SMILES IDX 51 56 70 57 52 58 55 59 69 60 88 61 53 62 54 63 68 65 89 66
REMARK SMILES IDX 56 67 40 68 41 69 49 70 42 71 48 72 50 73 47 74 43 75 44 76
REMARK SMILES IDX 45 77 46 78 72 79 73 80 81 81 74 82 80 83 82 84 79 85 75 86
REMARK SMILES IDX 76 87 77 88 78 89 57 90 58 91 66 92 59 93 65 94 67 95 64 96
REMARK SMILES IDX 60 97 61 98 62 99 63 100
REMARK H PARENT 1 26 1 27 87 53 55 64
REMARK Flexibility Score: inf
ROOT
ATOM      1  C   UNL A   1      45.423  21.897  25.747  1.00  0.00     0.275 C 
ENDROOT
BRANCH   1   2
ATOM      2  O   UNL A   1      44.132  22.537  25.850  1.00  0.00    -0.459 OA
BRANCH   2   3
ATOM      3  C   UNL A   1      43.693  22.604  27.133  1.00  0.00     0.338 C 
ATOM      4  O   UNL A   1      44.218  23.274  28.014  1.00  0.00    -0.246 OA
BRANCH   3   5
ATOM      5  C   UNL A   1      42.414  21.891  27.348  1.00  0.00     0.087 C 
ATOM      6  C   UNL A   1      38.809  23.512  26.311  1.00  0.00     0.026 A 
ATOM      7  C   UNL A   1      38.964  24.909  26.467  1.00  0.00     0.033 A 
ATOM      8  C   UNL A   1      39.857  22.741  26.803  1.00  0.00     0.135 A 
ATOM      9  C   UNL A   1      39.994  25.492  27.205  1.00  0.00     0.042 A 
ATOM     10  C   UNL A   1      40.762  23.319  27.723  1.00  0.00     0.019 A 
ATOM     11  O   UNL A   1      40.136  21.451  26.387  1.00  0.00    -0.475 OA
ATOM     12  Cl  UNL A   1      40.216  27.192  27.291  1.00  0.00    -0.084 Cl
ATOM     13  C   UNL A   1      40.854  24.689  27.914  1.00  0.00     0.032 A 
ATOM     14  C   UNL A   1      41.743  22.432  28.377  1.00  0.00     0.027 C 
ATOM     15  C   UNL A   1      41.609  21.248  26.228  1.00  0.00     0.316 C 
BRANCH   6  16
ATOM     16  C   UNL A   1      37.477  23.079  25.821  1.00  0.00    -0.015 A 
ATOM     17  C   UNL A   1      35.191  21.475  25.327  1.00  0.00     0.082 A 
ATOM     18  C   UNL A   1      35.151  22.498  26.283  1.00  0.00     0.022 A 
ATOM     19  C   UNL A   1      36.334  21.291  24.559  1.00  0.00     0.022 A 
ATOM     20  C   UNL A   1      36.276  23.319  26.499  1.00  0.00     0.010 A 
ATOM     21  C   UNL A   1      37.457  22.089  24.807  1.00  0.00     0.010 A 
BRANCH  17  22
ATOM     22  S   UNL A   1      33.784  20.406  25.160  1.00  0.00     0.238 S 
ATOM     23  O   UNL A   1      34.246  19.144  24.652  1.00  0.00    -0.207 OA
ATOM     24  O   UNL A   1      32.734  21.175  24.521  1.00  0.00    -0.207 OA
BRANCH  22  25
ATOM     25  N   UNL A   1      33.253  20.125  26.726  1.00  0.00    -0.225 NA
ATOM     26  H   UNL A   1      32.604  20.863  27.002  1.00  0.00     0.137 HD
ATOM     27  H   UNL A   1      34.051  20.120  27.361  1.00  0.00     0.137 HD
ENDBRANCH  22  25
ENDBRANCH  17  22
ENDBRANCH   6  16
BRANCH  15  28
ATOM     28  C   UNL A   1      41.949  19.755  26.233  1.00  0.00     0.430 C 
ATOM     29  F   UNL A   1      42.312  19.323  27.465  1.00  0.00    -0.167 F 
ATOM     30  F   UNL A   1      40.920  18.989  25.813  1.00  0.00    -0.167 F 
ATOM     31  F   UNL A   1      42.996  19.496  25.405  1.00  0.00    -0.167 F 
ENDBRANCH  15  28
ENDBRANCH   3   5
ENDBRANCH   2   3
ENDBRANCH   1   2
BRANCH   1  32
ATOM     32  C   UNL A   1      46.317  22.541  24.687  1.00  0.00     0.275 C 
BRANCH  32  33
ATOM     33  O   UNL A   1      45.771  23.797  24.235  1.00  0.00    -0.458 OA
BRANCH  33  34
ATOM     34  C   UNL A   1      46.467  24.881  24.662  1.00  0.00     0.338 C 
ATOM     35  O   UNL A   1      47.584  25.197  24.276  1.00  0.00    -0.246 OA
BRANCH  34  36
ATOM     36  C   UNL A   1      45.675  25.727  25.593  1.00  0.00     0.060 A 
ATOM     37  C   UNL A   1      46.397  26.369  26.598  1.00  0.00     0.016 A 
ATOM     38  C   UNL A   1      44.285  25.907  25.538  1.00  0.00     0.016 A 
ATOM     39  C   UNL A   1      45.743  27.202  27.506  1.00  0.00     0.010 A 
ATOM     40  C   UNL A   1      43.631  26.754  26.467  1.00  0.00     0.010 A 
ATOM     41  C   UNL A   1      44.358  27.435  27.452  1.00  0.00    -0.014 A 
BRANCH  41  42
ATOM     42  C   UNL A   1      43.792  28.355  28.502  1.00  0.00     0.031 A 
ATOM     43  C   UNL A   1      43.683  27.832  29.906  1.00  0.00     0.074 A 
ATOM     44  C   UNL A   1      43.603  29.678  28.299  1.00  0.00     0.049 A 
ATOM     45  N   UNL A   1      43.603  28.487  31.032  1.00  0.00    -0.248 NA
ATOM     46  C   UNL A   1      43.685  26.369  30.050  1.00  0.00     0.031 C 
ATOM     47  C   UNL A   1      43.669  30.335  27.007  1.00  0.00     0.029 A 
ATOM     48  N   UNL A   1      43.427  30.728  29.178  1.00  0.00    -0.354 N 
ATOM     49  C   UNL A   1      43.588  27.522  32.029  1.00  0.00     0.074 A 
ATOM     50  C   UNL A   1      43.664  26.233  31.366  1.00  0.00     0.031 C 
ATOM     51  C   UNL A   1      43.763  31.662  27.177  1.00  0.00     0.029 A 
ATOM     52  C   UNL A   1      43.604  31.973  28.592  1.00  0.00     0.049 A 
ATOM     53  H   UNL A   1      43.197  30.606  30.128  1.00  0.00     0.167 HD
ATOM     54  C   UNL A   1      43.484  27.686  33.371  1.00  0.00     0.034 A 
ATOM     55  C   UNL A   1      43.642  33.216  29.126  1.00  0.00     0.034 A 
ATOM     56  C   UNL A   1      43.267  28.957  34.017  1.00  0.00     0.049 A 
ATOM     57  C   UNL A   1      43.340  33.377  30.595  1.00  0.00     0.074 A 
ATOM     58  C   UNL A   1      42.993  29.210  35.350  1.00  0.00     0.029 A 
ATOM     59  N   UNL A   1      43.284  30.193  33.379  1.00  0.00    -0.354 N 
ATOM     60  N   UNL A   1      43.246  32.456  31.522  1.00  0.00    -0.248 NA
ATOM     61  C   UNL A   1      43.156  34.746  31.097  1.00  0.00     0.031 C 
ATOM     62  C   UNL A   1      42.738  30.579  35.497  1.00  0.00     0.029 A 
ATOM     63  C   UNL A   1      42.964  31.201  34.279  1.00  0.00     0.049 A 
ATOM     64  H   UNL A   1      43.493  30.333  32.428  1.00  0.00     0.167 HD
ATOM     65  C   UNL A   1      43.054  33.130  32.724  1.00  0.00     0.074 A 
ATOM     66  C   UNL A   1      43.038  34.543  32.402  1.00  0.00     0.031 C 
ATOM     67  C   UNL A   1      42.949  32.616  33.976  1.00  0.00     0.034 A 
BRANCH  54  68
ATOM     68  C   UNL A   1      43.449  26.420  34.189  1.00  0.00     0.023 A 
ATOM     69  C   UNL A   1      44.595  25.629  34.380  1.00  0.00     0.031 A 
ATOM     70  C   UNL A   1      42.223  25.948  34.691  1.00  0.00     0.131 A 
ATOM     71  C   UNL A   1      44.477  24.372  34.994  1.00  0.00     0.055 A 
ATOM     72  C   UNL A   1      42.128  24.734  35.369  1.00  0.00     0.041 A 
ATOM     73  F   UNL A   1      41.091  26.642  34.496  1.00  0.00    -0.206 F 
ATOM     74  C   UNL A   1      43.255  23.930  35.510  1.00  0.00     0.022 A 
BRANCH  71  75
ATOM     75  S   UNL A   1      45.895  23.240  34.944  1.00  0.00     0.124 S 
ATOM     76  O   UNL A   1      46.855  23.999  34.143  1.00  0.00    -0.237 OA
ATOM     77  O   UNL A   1      46.222  23.081  36.355  1.00  0.00    -0.237 OA
ATOM     78  O   UNL A   1      45.359  22.049  34.288  1.00  0.00    -0.744 OA
ENDBRANCH  71  75
ENDBRANCH  54  68
BRANCH  55  79
ATOM     79  C   UNL A   1      44.008  34.427  28.316  1.00  0.00     0.023 A 
ATOM     80  C   UNL A   1      45.360  34.729  28.065  1.00  0.00     0.031 A 
ATOM     81  C   UNL A   1      43.049  35.338  27.840  1.00  0.00     0.131 A 
ATOM     82  C   UNL A   1      45.718  35.912  27.395  1.00  0.00     0.055 A 
ATOM     83  C   UNL A   1      43.405  36.482  27.118  1.00  0.00     0.041 A 
ATOM     84  F   UNL A   1      41.742  35.132  28.070  1.00  0.00    -0.206 F 
ATOM     85  C   UNL A   1      44.746  36.782  26.905  1.00  0.00     0.022 A 
BRANCH  82  86
ATOM     86  S   UNL A   1      47.476  36.350  27.274  1.00  0.00     0.124 S 
ATOM     87  O   UNL A   1      47.697  36.307  25.833  1.00  0.00    -0.237 OA
ATOM     88  O   UNL A   1      47.493  37.674  27.885  1.00  0.00    -0.237 OA
ATOM     89  O   UNL A   1      48.140  35.297  28.040  1.00  0.00    -0.744 OA
ENDBRANCH  82  86
ENDBRANCH  55  79
BRANCH  67  90
ATOM     90  C   UNL A   1      42.913  33.592  35.132  1.00  0.00     0.023 A 
ATOM     91  C   UNL A   1      41.725  34.153  35.629  1.00  0.00     0.031 A 
ATOM     92  C   UNL A   1      44.125  33.982  35.734  1.00  0.00     0.131 A 
ATOM     93  C   UNL A   1      41.780  35.124  36.644  1.00  0.00     0.055 A 
ATOM     94  C   UNL A   1      44.168  34.889  36.793  1.00  0.00     0.041 A 
ATOM     95  F   UNL A   1      45.296  33.492  35.295  1.00  0.00    -0.206 F 
ATOM     96  C   UNL A   1      42.992  35.479  37.243  1.00  0.00     0.022 A 
BRANCH  93  97
ATOM     97  S   UNL A   1      40.259  36.000  37.102  1.00  0.00     0.124 S 
ATOM     98  O   UNL A   1      40.745  36.935  38.113  1.00  0.00    -0.237 OA
ATOM     99  O   UNL A   1      39.842  36.594  35.837  1.00  0.00    -0.237 OA
ATOM    100  O   UNL A   1      39.387  34.940  37.605  1.00  0.00    -0.744 OA
ENDBRANCH  93  97
ENDBRANCH  67  90
ENDBRANCH  41  42
ENDBRANCH  34  36
ENDBRANCH  33  34
ENDBRANCH  32  33
ENDBRANCH   1  32
TORSDOF 18
ENDMDL
MODEL 2
REMARK VINA RESULT:     -11.0      5.406     11.661
REMARK SMILES NS(=O)(=O)c1ccc(-c2cc(Cl)cc3c2O[C@H](C(F)(F)F)C(C(=O)OCCOC(=O)c2ccc(-c4c5nc(c(-c6cc(S(=O)(=O)[O-])ccc6F)c6ccc([nH]6)c(-c6cc(S(=O)(=O)[O-])ccc6F)c6nc(c(-c7cc(S(=O)(=O)[O-])ccc7F)c7ccc4[nH]7)C=C6)C=C5)cc2)=C3)cc1
REMARK SMILES IDX 26 1 25 2 23 3 24 4 22 5 9 6 10 7 15 8 11 9 14 10 16 11
REMARK SMILES IDX 12 12 13 13 94 14 17 15 8 16 5 17 6 18 96 19 7 20 95 21 2 22
REMARK SMILES IDX 3 23 4 24 1 25 18 28 19 29 20 30 21 31 27 32 28 33 29 34
REMARK SMILES IDX 30 35 31 36 32 37 93 38 33 39 92 40 34 41 35 42 36 43 86 44
REMARK SMILES IDX 37 45 91 46 85 47 87 48 38 49 90 50 84 51 83 52 39 54 71 55
REMARK SMILES IDX 51 56 70 57 52 58 55 59 69 60 88 61 53 62 54 63 68 65 89 66
REMARK SMILES IDX 56 67 40 68 41 69 49 70 42 71 48 72 50 73 47 74 43 75 44 76
REMARK SMILES IDX 45 77 46 78 72 79 73 80 81 81 74 82 80 83 82 84 79 85 75 86
REMARK SMILES IDX 76 87 77 88 78 89 57 90 58 91 66 92 59 93 65 94 67 95 64 96
REMARK SMILES IDX 60 97 61 98 62 99 63 100
REMARK H PARENT 1 26 1 27 87 53 55 64
REMARK Flexibility Score: inf
ROOT
ATOM      1  C   UNL A   1      35.175  33.148  31.700  1.00  0.00     0.275 C 
ENDROOT
BRANCH   1   2
ATOM      2  O   UNL A   1      34.454  32.382  30.711  1.00  0.00    -0.459 OA
BRANCH   2   3
ATOM      3  C   UNL A   1      34.427  33.001  29.502  1.00  0.00     0.338 C 
ATOM      4  O   UNL A   1      33.976  34.123  29.306  1.00  0.00    -0.246 OA
BRANCH   3   5
ATOM      5  C   UNL A   1      35.131  32.242  28.445  1.00  0.00     0.087 C 
ATOM      6  C   UNL A   1      38.731  30.421  29.093  1.00  0.00     0.026 A 
ATOM      7  C   UNL A   1      39.390  31.218  30.057  1.00  0.00     0.033 A 
ATOM      8  C   UNL A   1      37.562  30.966  28.572  1.00  0.00     0.135 A 
ATOM      9  C   UNL A   1      39.017  32.529  30.358  1.00  0.00     0.042 A 
ATOM     10  C   UNL A   1      37.327  32.353  28.717  1.00  0.00     0.019 A 
ATOM     11  O   UNL A   1      36.553  30.224  27.983  1.00  0.00    -0.475 OA
ATOM     12  Cl  UNL A   1      39.770  33.436  31.605  1.00  0.00    -0.084 Cl
ATOM     13  C   UNL A   1      38.030  33.135  29.620  1.00  0.00     0.032 A 
ATOM     14  C   UNL A   1      36.184  32.939  27.991  1.00  0.00     0.027 C 
ATOM     15  C   UNL A   1      35.209  30.723  28.407  1.00  0.00     0.316 C 
BRANCH   6  16
ATOM     16  C   UNL A   1      39.483  29.219  28.652  1.00  0.00    -0.015 A 
ATOM     17  C   UNL A   1      40.078  26.711  27.473  1.00  0.00     0.082 A 
ATOM     18  C   UNL A   1      40.476  27.902  26.853  1.00  0.00     0.022 A 
ATOM     19  C   UNL A   1      39.453  26.752  28.714  1.00  0.00     0.022 A 
ATOM     20  C   UNL A   1      40.213  29.145  27.460  1.00  0.00     0.010 A 
ATOM     21  C   UNL A   1      39.166  27.995  29.290  1.00  0.00     0.010 A 
BRANCH  17  22
ATOM     22  S   UNL A   1      40.344  25.174  26.624  1.00  0.00     0.238 S 
ATOM     23  O   UNL A   1      39.061  24.660  26.230  1.00  0.00    -0.207 OA
ATOM     24  O   UNL A   1      41.292  24.408  27.409  1.00  0.00    -0.207 OA
BRANCH  22  25
ATOM     25  N   UNL A   1      41.150  25.583  25.211  1.00  0.00    -0.225 NA
ATOM     26  H   UNL A   1      42.157  25.543  25.371  1.00  0.00     0.137 HD
ATOM     27  H   UNL A   1      40.888  26.528  24.931  1.00  0.00     0.137 HD
ENDBRANCH  22  25
ENDBRANCH  17  22
ENDBRANCH   6  16
BRANCH  15  28
ATOM     28  C   UNL A   1      34.128  30.244  27.434  1.00  0.00     0.430 C 
ATOM     29  F   UNL A   1      33.162  29.531  28.061  1.00  0.00    -0.167 F 
ATOM     30  F   UNL A   1      33.531  31.264  26.782  1.00  0.00    -0.167 F 
ATOM     31  F   UNL A   1      34.660  29.429  26.485  1.00  0.00    -0.167 F 
ENDBRANCH  15  28
ENDBRANCH   3   5
ENDBRANCH   2   3
ENDBRANCH   1   2
BRANCH   1  32
ATOM     32  C   UNL A   1      35.595  32.307  32.907  1.00  0.00     0.275 C 
BRANCH  32  33
ATOM     33  O   UNL A   1      36.803  31.569  32.634  1.00  0.00    -0.458 OA
BRANCH  33  34
ATOM     34  C   UNL A   1      37.589  31.384  33.725  1.00  0.00     0.338 C 
ATOM     35  O   UNL A   1      37.419  31.914  34.814  1.00  0.00    -0.246 OA
BRANCH  34  36
ATOM     36  C   UNL A   1      38.645  30.363  33.492  1.00  0.00     0.060 A 
ATOM     37  C   UNL A   1      39.924  30.697  33.933  1.00  0.00     0.016 A 
ATOM     38  C   UNL A   1      38.448  29.126  32.861  1.00  0.00     0.016 A 
ATOM     39  C   UNL A   1      40.975  29.794  33.777  1.00  0.00     0.010 A 
ATOM     40  C   UNL A   1      39.524  28.217  32.707  1.00  0.00     0.010 A 
ATOM     41  C   UNL A   1      40.802  28.531  33.187  1.00  0.00    -0.014 A 
BRANCH  41  42
ATOM     42  C   UNL A   1      42.030  27.665  33.083  1.00  0.00     0.031 A 
ATOM     43  C   UNL A   1      42.911  27.841  31.878  1.00  0.00     0.074 A 
ATOM     44  C   UNL A   1      42.498  26.922  34.110  1.00  0.00     0.049 A 
ATOM     45  N   UNL A   1      44.168  27.531  31.717  1.00  0.00    -0.248 NA
ATOM     46  C   UNL A   1      42.283  28.473  30.709  1.00  0.00     0.031 C 
ATOM     47  C   UNL A   1      41.771  26.654  35.337  1.00  0.00     0.029 A 
ATOM     48  N   UNL A   1      43.733  26.347  34.344  1.00  0.00    -0.354 N 
ATOM     49  C   UNL A   1      44.503  27.966  30.442  1.00  0.00     0.074 A 
ATOM     50  C   UNL A   1      43.306  28.559  29.875  1.00  0.00     0.031 C 
ATOM     51  C   UNL A   1      42.612  26.180  36.268  1.00  0.00     0.029 A 
ATOM     52  C   UNL A   1      43.918  25.955  35.661  1.00  0.00     0.049 A 
ATOM     53  H   UNL A   1      44.415  26.227  33.644  1.00  0.00     0.167 HD
ATOM     54  C   UNL A   1      45.684  27.851  29.787  1.00  0.00     0.034 A 
ATOM     55  C   UNL A   1      45.007  25.479  36.309  1.00  0.00     0.034 A 
ATOM     56  C   UNL A   1      46.828  27.137  30.297  1.00  0.00     0.049 A 
ATOM     57  C   UNL A   1      46.251  25.191  35.506  1.00  0.00     0.074 A 
ATOM     58  C   UNL A   1      48.012  26.830  29.649  1.00  0.00     0.029 A 
ATOM     59  N   UNL A   1      46.932  26.601  31.577  1.00  0.00    -0.354 N 
ATOM     60  N   UNL A   1      46.533  25.533  34.274  1.00  0.00    -0.248 NA
ATOM     61  C   UNL A   1      47.332  24.460  36.182  1.00  0.00     0.031 C 
ATOM     62  C   UNL A   1      48.782  26.021  30.494  1.00  0.00     0.029 A 
ATOM     63  C   UNL A   1      48.132  25.915  31.713  1.00  0.00     0.049 A 
ATOM     64  H   UNL A   1      46.254  26.695  32.284  1.00  0.00     0.167 HD
ATOM     65  C   UNL A   1      47.841  25.116  34.042  1.00  0.00     0.074 A 
ATOM     66  C   UNL A   1      48.292  24.487  35.267  1.00  0.00     0.031 C 
ATOM     67  C   UNL A   1      48.600  25.286  32.930  1.00  0.00     0.034 A 
BRANCH  54  68
ATOM     68  C   UNL A   1      45.712  28.389  28.379  1.00  0.00     0.023 A 
ATOM     69  C   UNL A   1      46.055  29.724  28.101  1.00  0.00     0.031 A 
ATOM     70  C   UNL A   1      45.281  27.579  27.313  1.00  0.00     0.131 A 
ATOM     71  C   UNL A   1      45.893  30.227  26.801  1.00  0.00     0.055 A 
ATOM     72  C   UNL A   1      45.198  28.065  26.009  1.00  0.00     0.041 A 
ATOM     73  F   UNL A   1      44.898  26.311  27.530  1.00  0.00    -0.206 F 
ATOM     74  C   UNL A   1      45.489  29.400  25.750  1.00  0.00     0.022 A 
BRANCH  71  75
ATOM     75  S   UNL A   1      46.035  32.018  26.536  1.00  0.00     0.124 S 
ATOM     76  O   UNL A   1      47.454  32.160  26.216  1.00  0.00    -0.237 OA
ATOM     77  O   UNL A   1      45.104  32.249  25.438  1.00  0.00    -0.237 OA
ATOM     78  O   UNL A   1      45.638  32.586  27.823  1.00  0.00    -0.744 OA
ENDBRANCH  71  75
ENDBRANCH  54  68
BRANCH  55  79
ATOM     79  C   UNL A   1      45.026  25.263  37.795  1.00  0.00     0.023 A 
ATOM     80  C   UNL A   1      44.988  26.365  38.671  1.00  0.00     0.031 A 
ATOM     81  C   UNL A   1      45.155  23.989  38.374  1.00  0.00     0.131 A 
ATOM     82  C   UNL A   1      45.106  26.181  40.060  1.00  0.00     0.055 A 
ATOM     83  C   UNL A   1      45.209  23.804  39.759  1.00  0.00     0.041 A 
ATOM     84  F   UNL A   1      45.232  22.895  37.600  1.00  0.00    -0.206 F 
ATOM     85  C   UNL A   1      45.200  24.905  40.610  1.00  0.00     0.022 A 
BRANCH  82  86
ATOM     86  S   UNL A   1      45.251  27.644  41.125  1.00  0.00     0.124 S 
ATOM     87  O   UNL A   1      44.118  27.470  42.028  1.00  0.00    -0.237 OA
ATOM     88  O   UNL A   1      46.572  27.454  41.712  1.00  0.00    -0.237 OA
ATOM     89  O   UNL A   1      45.136  28.758  40.186  1.00  0.00    -0.744 OA
ENDBRANCH  82  86
ENDBRANCH  55  79
BRANCH  67  90
ATOM     90  C   UNL A   1      50.055  24.881  33.008  1.00  0.00     0.023 A 
ATOM     91  C   UNL A   1      50.491  23.551  32.880  1.00  0.00     0.031 A 
ATOM     92  C   UNL A   1      51.030  25.871  33.241  1.00  0.00     0.131 A 
ATOM     93  C   UNL A   1      51.851  23.240  33.057  1.00  0.00     0.055 A 
ATOM     94  C   UNL A   1      52.387  25.566  33.339  1.00  0.00     0.041 A 
ATOM     95  F   UNL A   1      50.675  27.158  33.385  1.00  0.00    -0.206 F 
ATOM     96  C   UNL A   1      52.803  24.241  33.265  1.00  0.00     0.022 A 
BRANCH  93  97
ATOM     97  S   UNL A   1      52.349  21.496  33.122  1.00  0.00     0.124 S 
ATOM     98  O   UNL A   1      51.089  20.814  32.844  1.00  0.00    -0.237 OA
ATOM     99  O   UNL A   1      53.358  21.417  32.072  1.00  0.00    -0.237 OA
ATOM    100  O   UNL A   1      52.857  21.332  34.482  1.00  0.00    -0.744 OA
ENDBRANCH  93  97
ENDBRANCH  67  90
ENDBRANCH  41  42
ENDBRANCH  34  36
ENDBRANCH  33  34
ENDBRANCH  32  33
ENDBRANCH   1  32
TORSDOF 18
ENDMDL
MODEL 3
REMARK VINA RESULT:     -10.9      5.089     12.639
REMARK SMILES NS(=O)(=O)c1ccc(-c2cc(Cl)cc3c2O[C@H](C(F)(F)F)C(C(=O)OCCOC(=O)c2ccc(-c4c5nc(c(-c6cc(S(=O)(=O)[O-])ccc6F)c6ccc([nH]6)c(-c6cc(S(=O)(=O)[O-])ccc6F)c6nc(c(-c7cc(S(=O)(=O)[O-])ccc7F)c7ccc4[nH]7)C=C6)C=C5)cc2)=C3)cc1
REMARK SMILES IDX 26 1 25 2 23 3 24 4 22 5 9 6 10 7 15 8 11 9 14 10 16 11
REMARK SMILES IDX 12 12 13 13 94 14 17 15 8 16 5 17 6 18 96 19 7 20 95 21 2 22
REMARK SMILES IDX 3 23 4 24 1 25 18 28 19 29 20 30 21 31 27 32 28 33 29 34
REMARK SMILES IDX 30 35 31 36 32 37 93 38 33 39 92 40 34 41 35 42 36 43 86 44
REMARK SMILES IDX 37 45 91 46 85 47 87 48 38 49 90 50 84 51 83 52 39 54 71 55
REMARK SMILES IDX 51 56 70 57 52 58 55 59 69 60 88 61 53 62 54 63 68 65 89 66
REMARK SMILES IDX 56 67 40 68 41 69 49 70 42 71 48 72 50 73 47 74 43 75 44 76
REMARK SMILES IDX 45 77 46 78 72 79 73 80 81 81 74 82 80 83 82 84 79 85 75 86
REMARK SMILES IDX 76 87 77 88 78 89 57 90 58 91 66 92 59 93 65 94 67 95 64 96
REMARK SMILES IDX 60 97 61 98 62 99 63 100
REMARK H PARENT 1 26 1 27 87 53 55 64
REMARK Flexibility Score: inf
ROOT
ATOM      1  C   UNL A   1      33.319  34.827  28.636  1.00  0.00     0.275 C 
ENDROOT
BRANCH   1   2
ATOM      2  O   UNL A   1      33.110  34.496  30.027  1.00  0.00    -0.459 OA
BRANCH   2   3
ATOM      3  C   UNL A   1      34.274  34.450  30.724  1.00  0.00     0.338 C 
ATOM      4  O   UNL A   1      35.385  34.341  30.218  1.00  0.00    -0.246 OA
BRANCH   3   5
ATOM      5  C   UNL A   1      34.093  34.688  32.174  1.00  0.00     0.087 C 
ATOM      6  C   UNL A   1      36.830  33.456  34.947  1.00  0.00     0.026 A 
ATOM      7  C   UNL A   1      37.410  32.283  34.411  1.00  0.00     0.033 A 
ATOM      8  C   UNL A   1      35.723  33.939  34.257  1.00  0.00     0.135 A 
ATOM      9  C   UNL A   1      36.838  31.545  33.374  1.00  0.00     0.042 A 
ATOM     10  C   UNL A   1      35.040  33.078  33.366  1.00  0.00     0.019 A 
ATOM     11  O   UNL A   1      35.282  35.249  34.314  1.00  0.00    -0.475 OA
ATOM     12  Cl  UNL A   1      37.616  30.184  32.675  1.00  0.00    -0.084 Cl
ATOM     13  C   UNL A   1      35.595  31.896  32.903  1.00  0.00     0.032 A 
ATOM     14  C   UNL A   1      33.762  33.547  32.798  1.00  0.00     0.027 C 
ATOM     15  C   UNL A   1      34.871  35.733  32.960  1.00  0.00     0.316 C 
BRANCH   6  16
ATOM     16  C   UNL A   1      37.374  33.881  36.261  1.00  0.00    -0.015 A 
ATOM     17  C   UNL A   1      38.906  33.913  38.647  1.00  0.00     0.082 A 
ATOM     18  C   UNL A   1      39.223  34.769  37.585  1.00  0.00     0.022 A 
ATOM     19  C   UNL A   1      37.787  33.094  38.564  1.00  0.00     0.022 A 
ATOM     20  C   UNL A   1      38.437  34.779  36.416  1.00  0.00     0.010 A 
ATOM     21  C   UNL A   1      37.034  33.086  37.383  1.00  0.00     0.010 A 
BRANCH  17  22
ATOM     22  S   UNL A   1      39.982  33.866  40.058  1.00  0.00     0.238 S 
ATOM     23  O   UNL A   1      39.168  33.967  41.237  1.00  0.00    -0.207 OA
ATOM     24  O   UNL A   1      41.088  34.763  39.786  1.00  0.00    -0.207 OA
BRANCH  22  25
ATOM     25  N   UNL A   1      40.640  32.323  40.061  1.00  0.00    -0.225 NA
ATOM     26  H   UNL A   1      41.514  32.325  39.535  1.00  0.00     0.137 HD
ATOM     27  H   UNL A   1      39.984  31.672  39.629  1.00  0.00     0.137 HD
ENDBRANCH  22  25
ENDBRANCH  17  22
ENDBRANCH   6  16
BRANCH  15  28
ATOM     28  C   UNL A   1      33.969  36.964  33.080  1.00  0.00     0.430 C 
ATOM     29  F   UNL A   1      33.663  37.243  34.371  1.00  0.00    -0.167 F 
ATOM     30  F   UNL A   1      34.525  38.067  32.539  1.00  0.00    -0.167 F 
ATOM     31  F   UNL A   1      32.789  36.762  32.435  1.00  0.00    -0.167 F 
ENDBRANCH  15  28
ENDBRANCH   3   5
ENDBRANCH   2   3
ENDBRANCH   1   2
BRANCH   1  32
ATOM     32  C   UNL A   1      33.263  33.600  27.724  1.00  0.00     0.275 C 
BRANCH  32  33
ATOM     33  O   UNL A   1      34.543  32.941  27.655  1.00  0.00    -0.458 OA
BRANCH  33  34
ATOM     34  C   UNL A   1      34.472  31.593  27.793  1.00  0.00     0.338 C 
ATOM     35  O   UNL A   1      33.461  30.922  27.640  1.00  0.00    -0.246 OA
BRANCH  34  36
ATOM     36  C   UNL A   1      35.803  30.982  28.052  1.00  0.00     0.060 A 
ATOM     37  C   UNL A   1      36.809  31.859  28.452  1.00  0.00     0.016 A 
ATOM     38  C   UNL A   1      36.109  29.621  27.909  1.00  0.00     0.016 A 
ATOM     39  C   UNL A   1      38.085  31.376  28.739  1.00  0.00     0.010 A 
ATOM     40  C   UNL A   1      37.410  29.141  28.202  1.00  0.00     0.010 A 
ATOM     41  C   UNL A   1      38.413  30.012  28.646  1.00  0.00    -0.014 A 
BRANCH  41  42
ATOM     42  C   UNL A   1      39.833  29.639  28.983  1.00  0.00     0.031 A 
ATOM     43  C   UNL A   1      40.391  30.121  30.292  1.00  0.00     0.074 A 
ATOM     44  C   UNL A   1      40.536  28.715  28.292  1.00  0.00     0.049 A 
ATOM     45  N   UNL A   1      41.393  29.656  30.987  1.00  0.00    -0.248 NA
ATOM     46  C   UNL A   1      39.707  31.270  30.900  1.00  0.00     0.031 C 
ATOM     47  C   UNL A   1      40.137  28.155  27.014  1.00  0.00     0.029 A 
ATOM     48  N   UNL A   1      41.674  27.998  28.608  1.00  0.00    -0.354 N 
ATOM     49  C   UNL A   1      41.440  30.426  32.141  1.00  0.00     0.074 A 
ATOM     50  C   UNL A   1      40.361  31.392  32.043  1.00  0.00     0.031 C 
ATOM     51  C   UNL A   1      40.856  27.053  26.757  1.00  0.00     0.029 A 
ATOM     52  C   UNL A   1      41.888  26.908  27.777  1.00  0.00     0.049 A 
ATOM     53  H   UNL A   1      42.276  28.237  29.350  1.00  0.00     0.167 HD
ATOM     54  C   UNL A   1      42.318  30.363  33.171  1.00  0.00     0.034 A 
ATOM     55  C   UNL A   1      42.797  25.907  27.829  1.00  0.00     0.034 A 
ATOM     56  C   UNL A   1      43.472  29.498  33.201  1.00  0.00     0.049 A 
ATOM     57  C   UNL A   1      43.874  25.970  28.883  1.00  0.00     0.074 A 
ATOM     58  C   UNL A   1      44.505  29.470  34.122  1.00  0.00     0.029 A 
ATOM     59  N   UNL A   1      43.759  28.515  32.261  1.00  0.00    -0.354 N 
ATOM     60  N   UNL A   1      43.958  26.754  29.930  1.00  0.00    -0.248 NA
ATOM     61  C   UNL A   1      44.978  25.007  28.773  1.00  0.00     0.031 C 
ATOM     62  C   UNL A   1      45.465  28.551  33.682  1.00  0.00     0.029 A 
ATOM     63  C   UNL A   1      44.981  27.920  32.547  1.00  0.00     0.049 A 
ATOM     64  H   UNL A   1      43.180  28.274  31.502  1.00  0.00     0.167 HD
ATOM     65  C   UNL A   1      45.085  26.344  30.636  1.00  0.00     0.074 A 
ATOM     66  C   UNL A   1      45.656  25.241  29.889  1.00  0.00     0.031 C 
ATOM     67  C   UNL A   1      45.564  26.815  31.815  1.00  0.00     0.034 A 
BRANCH  54  68
ATOM     68  C   UNL A   1      42.126  31.382  34.265  1.00  0.00     0.023 A 
ATOM     69  C   UNL A   1      42.765  32.635  34.233  1.00  0.00     0.031 A 
ATOM     70  C   UNL A   1      41.377  31.049  35.408  1.00  0.00     0.131 A 
ATOM     71  C   UNL A   1      42.702  33.477  35.354  1.00  0.00     0.055 A 
ATOM     72  C   UNL A   1      41.254  31.924  36.485  1.00  0.00     0.041 A 
ATOM     73  F   UNL A   1      40.785  29.849  35.510  1.00  0.00    -0.206 F 
ATOM     74  C   UNL A   1      41.931  33.139  36.470  1.00  0.00     0.022 A 
BRANCH  71  75
ATOM     75  S   UNL A   1      43.786  34.931  35.414  1.00  0.00     0.124 S 
ATOM     76  O   UNL A   1      43.350  35.678  34.236  1.00  0.00    -0.237 OA
ATOM     77  O   UNL A   1      43.453  35.520  36.706  1.00  0.00    -0.237 OA
ATOM     78  O   UNL A   1      45.128  34.361  35.315  1.00  0.00    -0.744 OA
ENDBRANCH  71  75
ENDBRANCH  54  68
BRANCH  55  79
ATOM     79  C   UNL A   1      42.747  24.728  26.900  1.00  0.00     0.023 A 
ATOM     80  C   UNL A   1      41.985  23.593  27.238  1.00  0.00     0.031 A 
ATOM     81  C   UNL A   1      43.496  24.666  25.714  1.00  0.00     0.131 A 
ATOM     82  C   UNL A   1      42.010  22.445  26.427  1.00  0.00     0.055 A 
ATOM     83  C   UNL A   1      43.470  23.546  24.876  1.00  0.00     0.041 A 
ATOM     84  F   UNL A   1      44.273  25.697  25.344  1.00  0.00    -0.206 F 
ATOM     85  C   UNL A   1      42.736  22.422  25.238  1.00  0.00     0.022 A 
BRANCH  82  86
ATOM     86  S   UNL A   1      41.170  20.945  27.010  1.00  0.00     0.124 S 
ATOM     87  O   UNL A   1      40.072  20.826  26.056  1.00  0.00    -0.237 OA
ATOM     88  O   UNL A   1      42.229  19.949  26.894  1.00  0.00    -0.237 OA
ATOM     89  O   UNL A   1      40.777  21.286  28.376  1.00  0.00    -0.744 OA
ENDBRANCH  82  86
ENDBRANCH  55  79
BRANCH  67  90
ATOM     90  C   UNL A   1      46.718  26.071  32.448  1.00  0.00     0.023 A 
ATOM     91  C   UNL A   1      46.547  25.048  33.397  1.00  0.00     0.031 A 
ATOM     92  C   UNL A   1      48.035  26.422  32.094  1.00  0.00     0.131 A 
ATOM     93  C   UNL A   1      47.670  24.466  34.009  1.00  0.00     0.055 A 
ATOM     94  C   UNL A   1      49.147  25.788  32.649  1.00  0.00     0.041 A 
ATOM     95  F   UNL A   1      48.265  27.401  31.203  1.00  0.00    -0.206 F 
ATOM     96  C   UNL A   1      48.968  24.815  33.625  1.00  0.00     0.022 A 
BRANCH  93  97
ATOM     97  S   UNL A   1      47.418  23.321  35.395  1.00  0.00     0.124 S 
ATOM     98  O   UNL A   1      47.995  22.087  34.871  1.00  0.00    -0.237 OA
ATOM     99  O   UNL A   1      48.162  23.961  36.473  1.00  0.00    -0.237 OA
ATOM    100  O   UNL A   1      45.967  23.304  35.568  1.00  0.00    -0.744 OA
ENDBRANCH  93  97
ENDBRANCH  67  90
ENDBRANCH  41  42
ENDBRANCH  34  36
ENDBRANCH  33  34
ENDBRANCH  32  33
ENDBRANCH   1  32
TORSDOF 18
ENDMDL
