MODEL 1
REMARK VINA RESULT:     -13.2      0.000      0.000
REMARK SMILES Cc1cc([N+](=O)[O-])ccc1NC(=O)[C@@H]1[C@@H](C(=O)OCCOC(=O)c2ccc(-c3c4nc(c(-c5cc(S(=O)(=O)[O-])ccc5F)c5ccc([nH]5)c(-c5cc(S(=O)(=O)[O-])ccc5F)c5nc(c(-c6cc(S(=O)(=O)[O-])ccc6F)c6ccc3[nH]6)C=C5)C=C4)cc2)[C@H]2C=C[C@@H]1C2
REMARK SMILES IDX 19 1 18 2 16 3 17 4 15 5 14 6 90 7 87 8 89 9 91 10 88 11
REMARK SMILES IDX 12 12 11 13 13 15 10 16 1 17 2 18 3 19 4 20 9 21 8 22 5 23
REMARK SMILES IDX 6 24 7 25 20 26 21 27 22 28 23 29 24 30 25 31 86 32 26 33
REMARK SMILES IDX 85 34 27 35 28 36 29 37 79 38 30 39 84 40 78 41 80 42 31 43
REMARK SMILES IDX 83 44 77 45 76 46 32 48 64 49 44 50 63 51 45 52 48 53 62 54
REMARK SMILES IDX 81 55 46 56 47 57 61 59 82 60 49 61 33 62 34 63 42 64 35 65
REMARK SMILES IDX 41 66 43 67 40 68 36 69 37 70 38 71 39 72 65 73 66 74 74 75
REMARK SMILES IDX 67 76 73 77 75 78 72 79 68 80 69 81 70 82 71 83 50 84 51 85
REMARK SMILES IDX 59 86 52 87 58 88 60 89 57 90 53 91 54 92 55 93 56 94
REMARK H PARENT 11 14 80 47 48 58
REMARK Flexibility Score: inf
ROOT
ATOM      1  C   UNL A   1      31.423  30.762  26.128  1.00  0.00     0.274 C 
ENDROOT
BRANCH   1   2
ATOM      2  O   UNL A   1      32.154  29.840  26.975  1.00  0.00    -0.462 OA
BRANCH   2   3
ATOM      3  C   UNL A   1      31.622  28.576  26.900  1.00  0.00     0.310 C 
ATOM      4  O   UNL A   1      31.222  27.994  27.905  1.00  0.00    -0.252 OA
BRANCH   3   5
ATOM      5  C   UNL A   1      31.757  27.881  25.538  1.00  0.00     0.119 C 
ATOM      6  C   UNL A   1      31.565  26.317  25.332  1.00  0.00     0.100 C 
ATOM      7  C   UNL A   1      32.894  25.917  24.608  1.00  0.00     0.025 C 
ATOM      8  C   UNL A   1      33.267  28.039  25.130  1.00  0.00     0.027 C 
ATOM      9  C   UNL A   1      33.956  25.893  25.669  1.00  0.00    -0.027 C 
ATOM     10  C   UNL A   1      33.299  27.192  23.872  1.00  0.00     0.017 C 
ATOM     11  C   UNL A   1      34.168  27.171  26.004  1.00  0.00    -0.027 C 
BRANCH   6  12
ATOM     12  C   UNL A   1      30.416  25.842  24.450  1.00  0.00     0.228 C 
ATOM     13  N   UNL A   1      30.274  24.530  24.037  1.00  0.00    -0.326 N 
ATOM     14  H   UNL A   1      29.473  24.409  23.476  1.00  0.00     0.169 HD
ATOM     15  O   UNL A   1      29.571  26.647  24.044  1.00  0.00    -0.274 OA
BRANCH  13  16
ATOM     16  C   UNL A   1      30.984  23.307  24.212  1.00  0.00     0.044 A 
ATOM     17  C   UNL A   1      30.285  23.123  26.713  1.00  0.00     0.047 C 
ATOM     18  C   UNL A   1      31.028  22.671  25.480  1.00  0.00    -0.021 A 
ATOM     19  C   UNL A   1      31.800  21.489  25.661  1.00  0.00     0.091 A 
ATOM     20  C   UNL A   1      32.499  20.915  24.598  1.00  0.00     0.269 A 
ATOM     21  C   UNL A   1      31.687  22.680  23.179  1.00  0.00     0.033 A 
ATOM     22  C   UNL A   1      32.412  21.489  23.342  1.00  0.00     0.088 A 
BRANCH  20  23
ATOM     23  N   UNL A   1      33.350  19.740  24.809  1.00  0.00     0.062 N 
ATOM     24  O   UNL A   1      32.784  18.666  25.068  1.00  0.00    -0.258 OA
ATOM     25  O   UNL A   1      34.575  19.887  24.721  1.00  0.00    -0.258 OA
ENDBRANCH  20  23
ENDBRANCH  13  16
ENDBRANCH   6  12
ENDBRANCH   3   5
ENDBRANCH   2   3
ENDBRANCH   1   2
BRANCH   1  26
ATOM     26  C   UNL A   1      31.585  32.266  26.426  1.00  0.00     0.275 C 
BRANCH  26  27
ATOM     27  O   UNL A   1      31.826  32.767  27.762  1.00  0.00    -0.458 OA
BRANCH  27  28
ATOM     28  C   UNL A   1      32.726  33.756  27.985  1.00  0.00     0.338 C 
ATOM     29  O   UNL A   1      32.430  34.930  28.034  1.00  0.00    -0.246 OA
BRANCH  28  30
ATOM     30  C   UNL A   1      34.072  33.210  28.254  1.00  0.00     0.060 A 
ATOM     31  C   UNL A   1      35.169  33.970  27.828  1.00  0.00     0.016 A 
ATOM     32  C   UNL A   1      34.222  32.135  29.132  1.00  0.00     0.016 A 
ATOM     33  C   UNL A   1      36.413  33.752  28.404  1.00  0.00     0.010 A 
ATOM     34  C   UNL A   1      35.447  31.937  29.720  1.00  0.00     0.010 A 
ATOM     35  C   UNL A   1      36.527  32.758  29.370  1.00  0.00    -0.014 A 
BRANCH  35  36
ATOM     36  C   UNL A   1      37.805  32.345  29.913  1.00  0.00     0.031 A 
ATOM     37  C   UNL A   1      38.429  31.067  29.508  1.00  0.00     0.074 A 
ATOM     38  C   UNL A   1      38.340  33.290  30.713  1.00  0.00     0.049 A 
ATOM     39  N   UNL A   1      39.109  30.298  30.290  1.00  0.00    -0.248 NA
ATOM     40  C   UNL A   1      38.251  30.486  28.173  1.00  0.00     0.031 C 
ATOM     41  C   UNL A   1      39.693  33.453  31.194  1.00  0.00     0.029 A 
ATOM     42  N   UNL A   1      37.630  34.294  31.386  1.00  0.00    -0.354 N 
ATOM     43  C   UNL A   1      39.758  29.389  29.467  1.00  0.00     0.074 A 
ATOM     44  C   UNL A   1      39.027  29.393  28.228  1.00  0.00     0.031 C 
ATOM     45  C   UNL A   1      39.662  34.250  32.281  1.00  0.00     0.029 A 
ATOM     46  C   UNL A   1      38.258  34.459  32.616  1.00  0.00     0.049 A 
ATOM     47  H   UNL A   1      36.844  34.785  31.054  1.00  0.00     0.167 HD
ATOM     48  C   UNL A   1      41.023  28.976  29.770  1.00  0.00     0.034 A 
ATOM     49  C   UNL A   1      37.657  34.103  33.792  1.00  0.00     0.034 A 
ATOM     50  C   UNL A   1      41.503  29.743  30.904  1.00  0.00     0.049 A 
ATOM     51  C   UNL A   1      38.493  33.039  34.483  1.00  0.00     0.074 A 
ATOM     52  C   UNL A   1      42.223  30.925  30.943  1.00  0.00     0.029 A 
ATOM     53  N   UNL A   1      40.968  29.543  32.160  1.00  0.00    -0.354 N 
ATOM     54  N   UNL A   1      39.171  32.111  33.857  1.00  0.00    -0.248 NA
ATOM     55  C   UNL A   1      38.693  33.011  35.925  1.00  0.00     0.031 C 
ATOM     56  C   UNL A   1      42.096  31.459  32.245  1.00  0.00     0.029 A 
ATOM     57  C   UNL A   1      41.302  30.597  32.981  1.00  0.00     0.049 A 
ATOM     58  H   UNL A   1      40.428  28.765  32.429  1.00  0.00     0.167 HD
ATOM     59  C   UNL A   1      39.989  31.467  34.762  1.00  0.00     0.074 A 
ATOM     60  C   UNL A   1      39.618  32.043  36.044  1.00  0.00     0.031 C 
ATOM     61  C   UNL A   1      40.946  30.562  34.381  1.00  0.00     0.034 A 
BRANCH  48  62
ATOM     62  C   UNL A   1      41.989  28.249  28.860  1.00  0.00     0.023 A 
ATOM     63  C   UNL A   1      42.376  26.931  29.204  1.00  0.00     0.031 A 
ATOM     64  C   UNL A   1      42.548  28.751  27.674  1.00  0.00     0.131 A 
ATOM     65  C   UNL A   1      43.331  26.215  28.466  1.00  0.00     0.055 A 
ATOM     66  C   UNL A   1      43.515  28.042  26.938  1.00  0.00     0.041 A 
ATOM     67  F   UNL A   1      42.161  29.931  27.165  1.00  0.00    -0.206 F 
ATOM     68  C   UNL A   1      43.923  26.774  27.340  1.00  0.00     0.022 A 
BRANCH  65  69
ATOM     69  S   UNL A   1      43.793  24.551  29.024  1.00  0.00     0.124 S 
ATOM     70  O   UNL A   1      44.007  24.754  30.453  1.00  0.00    -0.237 OA
ATOM     71  O   UNL A   1      42.625  23.761  28.651  1.00  0.00    -0.237 OA
ATOM     72  O   UNL A   1      45.004  24.261  28.257  1.00  0.00    -0.744 OA
ENDBRANCH  65  69
ENDBRANCH  48  62
BRANCH  49  73
ATOM     73  C   UNL A   1      36.158  34.118  33.757  1.00  0.00     0.023 A 
ATOM     74  C   UNL A   1      35.473  35.359  33.701  1.00  0.00     0.031 A 
ATOM     75  C   UNL A   1      35.446  32.981  33.365  1.00  0.00     0.131 A 
ATOM     76  C   UNL A   1      34.181  35.443  33.144  1.00  0.00     0.055 A 
ATOM     77  C   UNL A   1      34.153  33.085  32.844  1.00  0.00     0.041 A 
ATOM     78  F   UNL A   1      36.033  31.777  33.326  1.00  0.00    -0.206 F 
ATOM     79  C   UNL A   1      33.516  34.307  32.708  1.00  0.00     0.022 A 
BRANCH  76  80
ATOM     80  S   UNL A   1      33.478  37.068  32.737  1.00  0.00     0.124 S 
ATOM     81  O   UNL A   1      32.049  36.828  32.893  1.00  0.00    -0.237 OA
ATOM     82  O   UNL A   1      34.103  37.926  33.739  1.00  0.00    -0.237 OA
ATOM     83  O   UNL A   1      33.926  37.300  31.366  1.00  0.00    -0.744 OA
ENDBRANCH  76  80
ENDBRANCH  49  73
BRANCH  61  84
ATOM     84  C   UNL A   1      41.759  29.628  35.258  1.00  0.00     0.023 A 
ATOM     85  C   UNL A   1      41.410  28.299  35.487  1.00  0.00     0.031 A 
ATOM     86  C   UNL A   1      42.988  30.041  35.850  1.00  0.00     0.131 A 
ATOM     87  C   UNL A   1      42.190  27.473  36.314  1.00  0.00     0.055 A 
ATOM     88  C   UNL A   1      43.811  29.192  36.593  1.00  0.00     0.041 A 
ATOM     89  F   UNL A   1      43.467  31.288  35.729  1.00  0.00    -0.206 F 
ATOM     90  C   UNL A   1      43.404  27.897  36.845  1.00  0.00     0.022 A 
BRANCH  87  91
ATOM     91  S   UNL A   1      41.518  25.851  36.740  1.00  0.00     0.124 S 
ATOM     92  O   UNL A   1      42.707  25.157  37.230  1.00  0.00    -0.237 OA
ATOM     93  O   UNL A   1      40.519  26.185  37.750  1.00  0.00    -0.237 OA
ATOM     94  O   UNL A   1      40.985  25.355  35.475  1.00  0.00    -0.744 OA
ENDBRANCH  87  91
ENDBRANCH  61  84
ENDBRANCH  35  36
ENDBRANCH  28  30
ENDBRANCH  27  28
ENDBRANCH  26  27
ENDBRANCH   1  26
TORSDOF 17
ENDMDL
MODEL 2
REMARK VINA RESULT:     -12.9      4.604     11.298
REMARK SMILES Cc1cc([N+](=O)[O-])ccc1NC(=O)[C@@H]1[C@@H](C(=O)OCCOC(=O)c2ccc(-c3c4nc(c(-c5cc(S(=O)(=O)[O-])ccc5F)c5ccc([nH]5)c(-c5cc(S(=O)(=O)[O-])ccc5F)c5nc(c(-c6cc(S(=O)(=O)[O-])ccc6F)c6ccc3[nH]6)C=C5)C=C4)cc2)[C@H]2C=C[C@@H]1C2
REMARK SMILES IDX 19 1 18 2 16 3 17 4 15 5 14 6 90 7 87 8 89 9 91 10 88 11
REMARK SMILES IDX 12 12 11 13 13 15 10 16 1 17 2 18 3 19 4 20 9 21 8 22 5 23
REMARK SMILES IDX 6 24 7 25 20 26 21 27 22 28 23 29 24 30 25 31 86 32 26 33
REMARK SMILES IDX 85 34 27 35 28 36 29 37 79 38 30 39 84 40 78 41 80 42 31 43
REMARK SMILES IDX 83 44 77 45 76 46 32 48 64 49 44 50 63 51 45 52 48 53 62 54
REMARK SMILES IDX 81 55 46 56 47 57 61 59 82 60 49 61 33 62 34 63 42 64 35 65
REMARK SMILES IDX 41 66 43 67 40 68 36 69 37 70 38 71 39 72 65 73 66 74 74 75
REMARK SMILES IDX 67 76 73 77 75 78 72 79 68 80 69 81 70 82 71 83 50 84 51 85
REMARK SMILES IDX 59 86 52 87 58 88 60 89 57 90 53 91 54 92 55 93 56 94
REMARK H PARENT 11 14 80 47 48 58
REMARK Flexibility Score: inf
ROOT
ATOM      1  C   UNL A   1      35.723  19.691  25.013  1.00  0.00     0.274 C 
ENDROOT
BRANCH   1   2
ATOM      2  O   UNL A   1      35.342  21.046  24.669  1.00  0.00    -0.462 OA
BRANCH   2   3
ATOM      3  C   UNL A   1      34.119  21.365  25.208  1.00  0.00     0.310 C 
ATOM      4  O   UNL A   1      33.168  20.591  25.129  1.00  0.00    -0.252 OA
BRANCH   3   5
ATOM      5  C   UNL A   1      33.975  22.807  25.715  1.00  0.00     0.119 C 
ATOM      6  C   UNL A   1      32.717  23.724  25.396  1.00  0.00     0.100 C 
ATOM      7  C   UNL A   1      33.389  25.003  24.796  1.00  0.00     0.025 C 
ATOM      8  C   UNL A   1      35.112  23.622  24.999  1.00  0.00     0.027 C 
ATOM      9  C   UNL A   1      33.790  24.644  23.394  1.00  0.00    -0.027 C 
ATOM     10  C   UNL A   1      34.766  25.028  25.454  1.00  0.00     0.017 C 
ATOM     11  C   UNL A   1      34.814  23.794  23.512  1.00  0.00    -0.027 C 
BRANCH   6  12
ATOM     12  C   UNL A   1      31.846  24.183  26.560  1.00  0.00     0.228 C 
ATOM     13  N   UNL A   1      31.074  25.329  26.520  1.00  0.00    -0.326 N 
ATOM     14  H   UNL A   1      30.578  25.464  27.360  1.00  0.00     0.169 HD
ATOM     15  O   UNL A   1      31.828  23.537  27.614  1.00  0.00    -0.274 OA
BRANCH  13  16
ATOM     16  C   UNL A   1      30.810  26.366  25.579  1.00  0.00     0.044 A 
ATOM     17  C   UNL A   1      32.446  28.012  26.757  1.00  0.00     0.047 C 
ATOM     18  C   UNL A   1      31.419  27.641  25.717  1.00  0.00    -0.021 A 
ATOM     19  C   UNL A   1      31.092  28.690  24.813  1.00  0.00     0.091 A 
ATOM     20  C   UNL A   1      30.199  28.484  23.761  1.00  0.00     0.269 A 
ATOM     21  C   UNL A   1      29.938  26.209  24.496  1.00  0.00     0.033 A 
ATOM     22  C   UNL A   1      29.649  27.228  23.576  1.00  0.00     0.088 A 
BRANCH  20  23
ATOM     23  N   UNL A   1      29.813  29.590  22.879  1.00  0.00     0.062 N 
ATOM     24  O   UNL A   1      29.423  30.638  23.416  1.00  0.00    -0.258 OA
ATOM     25  O   UNL A   1      29.897  29.414  21.657  1.00  0.00    -0.258 OA
ENDBRANCH  20  23
ENDBRANCH  13  16
ENDBRANCH   6  12
ENDBRANCH   3   5
ENDBRANCH   2   3
ENDBRANCH   1   2
BRANCH   1  26
ATOM     26  C   UNL A   1      37.210  19.318  24.851  1.00  0.00     0.275 C 
BRANCH  26  27
ATOM     27  O   UNL A   1      38.270  20.292  25.002  1.00  0.00    -0.458 OA
BRANCH  27  28
ATOM     28  C   UNL A   1      39.406  19.989  25.678  1.00  0.00     0.338 C 
ATOM     29  O   UNL A   1      40.013  18.950  25.533  1.00  0.00    -0.246 OA
BRANCH  28  30
ATOM     30  C   UNL A   1      39.846  21.116  26.526  1.00  0.00     0.060 A 
ATOM     31  C   UNL A   1      40.845  20.855  27.472  1.00  0.00     0.016 A 
ATOM     32  C   UNL A   1      39.473  22.420  26.194  1.00  0.00     0.016 A 
ATOM     33  C   UNL A   1      41.590  21.909  27.982  1.00  0.00     0.010 A 
ATOM     34  C   UNL A   1      40.228  23.460  26.679  1.00  0.00     0.010 A 
ATOM     35  C   UNL A   1      41.292  23.197  27.551  1.00  0.00    -0.014 A 
BRANCH  35  36
ATOM     36  C   UNL A   1      41.900  24.374  28.139  1.00  0.00     0.031 A 
ATOM     37  C   UNL A   1      41.118  25.610  28.353  1.00  0.00     0.074 A 
ATOM     38  C   UNL A   1      43.173  24.145  28.523  1.00  0.00     0.049 A 
ATOM     39  N   UNL A   1      41.579  26.808  28.219  1.00  0.00    -0.248 NA
ATOM     40  C   UNL A   1      39.681  25.598  28.649  1.00  0.00     0.031 C 
ATOM     41  C   UNL A   1      44.031  24.890  29.415  1.00  0.00     0.029 A 
ATOM     42  N   UNL A   1      44.019  23.152  28.008  1.00  0.00    -0.354 N 
ATOM     43  C   UNL A   1      40.639  27.650  28.795  1.00  0.00     0.074 A 
ATOM     44  C   UNL A   1      39.412  26.900  28.826  1.00  0.00     0.031 C 
ATOM     45  C   UNL A   1      45.309  24.549  29.155  1.00  0.00     0.029 A 
ATOM     46  C   UNL A   1      45.293  23.710  27.963  1.00  0.00     0.049 A 
ATOM     47  H   UNL A   1      43.762  22.242  27.733  1.00  0.00     0.167 HD
ATOM     48  C   UNL A   1      41.044  28.752  29.490  1.00  0.00     0.034 A 
ATOM     49  C   UNL A   1      45.921  23.991  26.781  1.00  0.00     0.034 A 
ATOM     50  C   UNL A   1      42.490  28.727  29.600  1.00  0.00     0.049 A 
ATOM     51  C   UNL A   1      46.207  25.481  26.705  1.00  0.00     0.074 A 
ATOM     52  C   UNL A   1      43.302  28.199  30.589  1.00  0.00     0.029 A 
ATOM     53  N   UNL A   1      43.279  28.943  28.489  1.00  0.00    -0.354 N 
ATOM     54  N   UNL A   1      45.429  26.409  27.200  1.00  0.00    -0.248 NA
ATOM     55  C   UNL A   1      47.441  26.016  26.147  1.00  0.00     0.031 C 
ATOM     56  C   UNL A   1      44.603  28.072  30.052  1.00  0.00     0.029 A 
ATOM     57  C   UNL A   1      44.566  28.524  28.744  1.00  0.00     0.049 A 
ATOM     58  H   UNL A   1      42.970  29.338  27.641  1.00  0.00     0.167 HD
ATOM     59  C   UNL A   1      46.092  27.618  27.162  1.00  0.00     0.074 A 
ATOM     60  C   UNL A   1      47.328  27.319  26.457  1.00  0.00     0.031 C 
ATOM     61  C   UNL A   1      45.606  28.749  27.765  1.00  0.00     0.034 A 
BRANCH  48  62
ATOM     62  C   UNL A   1      40.209  29.600  30.426  1.00  0.00     0.023 A 
ATOM     63  C   UNL A   1      39.611  30.777  29.915  1.00  0.00     0.031 A 
ATOM     64  C   UNL A   1      39.949  29.330  31.779  1.00  0.00     0.131 A 
ATOM     65  C   UNL A   1      38.893  31.665  30.730  1.00  0.00     0.055 A 
ATOM     66  C   UNL A   1      39.241  30.223  32.603  1.00  0.00     0.041 A 
ATOM     67  F   UNL A   1      40.343  28.180  32.349  1.00  0.00    -0.206 F 
ATOM     68  C   UNL A   1      38.722  31.406  32.084  1.00  0.00     0.022 A 
BRANCH  65  69
ATOM     69  S   UNL A   1      38.211  33.172  29.985  1.00  0.00     0.124 S 
ATOM     70  O   UNL A   1      37.545  32.653  28.794  1.00  0.00    -0.237 OA
ATOM     71  O   UNL A   1      37.342  33.678  31.042  1.00  0.00    -0.237 OA
ATOM     72  O   UNL A   1      39.396  33.986  29.719  1.00  0.00    -0.744 OA
ENDBRANCH  65  69
ENDBRANCH  48  62
BRANCH  49  73
ATOM     73  C   UNL A   1      45.476  23.150  25.621  1.00  0.00     0.023 A 
ATOM     74  C   UNL A   1      45.974  21.829  25.487  1.00  0.00     0.031 A 
ATOM     75  C   UNL A   1      44.306  23.462  24.925  1.00  0.00     0.131 A 
ATOM     76  C   UNL A   1      45.236  20.849  24.791  1.00  0.00     0.055 A 
ATOM     77  C   UNL A   1      43.607  22.482  24.215  1.00  0.00     0.041 A 
ATOM     78  F   UNL A   1      43.731  24.667  25.044  1.00  0.00    -0.206 F 
ATOM     79  C   UNL A   1      44.046  21.170  24.156  1.00  0.00     0.022 A 
BRANCH  76  80
ATOM     80  S   UNL A   1      45.691  19.097  24.946  1.00  0.00     0.124 S 
ATOM     81  O   UNL A   1      45.801  18.688  23.551  1.00  0.00    -0.237 OA
ATOM     82  O   UNL A   1      46.938  19.176  25.698  1.00  0.00    -0.237 OA
ATOM     83  O   UNL A   1      44.568  18.517  25.679  1.00  0.00    -0.744 OA
ENDBRANCH  76  80
ENDBRANCH  49  73
BRANCH  61  84
ATOM     84  C   UNL A   1      46.104  30.175  27.629  1.00  0.00     0.023 A 
ATOM     85  C   UNL A   1      45.406  31.164  26.939  1.00  0.00     0.031 A 
ATOM     86  C   UNL A   1      47.297  30.615  28.274  1.00  0.00     0.131 A 
ATOM     87  C   UNL A   1      45.911  32.471  26.832  1.00  0.00     0.055 A 
ATOM     88  C   UNL A   1      47.747  31.936  28.246  1.00  0.00     0.041 A 
ATOM     89  F   UNL A   1      48.085  29.789  28.977  1.00  0.00    -0.206 F 
ATOM     90  C   UNL A   1      47.059  32.875  27.505  1.00  0.00     0.022 A 
BRANCH  87  91
ATOM     91  S   UNL A   1      45.057  33.603  25.713  1.00  0.00     0.124 S 
ATOM     92  O   UNL A   1      46.177  34.246  25.029  1.00  0.00    -0.237 OA
ATOM     93  O   UNL A   1      44.258  32.692  24.899  1.00  0.00    -0.237 OA
ATOM     94  O   UNL A   1      44.297  34.468  26.610  1.00  0.00    -0.744 OA
ENDBRANCH  87  91
ENDBRANCH  61  84
ENDBRANCH  35  36
ENDBRANCH  28  30
ENDBRANCH  27  28
ENDBRANCH  26  27
ENDBRANCH   1  26
TORSDOF 17
ENDMDL
MODEL 3
REMARK VINA RESULT:     -12.7      1.369      1.913
REMARK SMILES Cc1cc([N+](=O)[O-])ccc1NC(=O)[C@@H]1[C@@H](C(=O)OCCOC(=O)c2ccc(-c3c4nc(c(-c5cc(S(=O)(=O)[O-])ccc5F)c5ccc([nH]5)c(-c5cc(S(=O)(=O)[O-])ccc5F)c5nc(c(-c6cc(S(=O)(=O)[O-])ccc6F)c6ccc3[nH]6)C=C5)C=C4)cc2)[C@H]2C=C[C@@H]1C2
REMARK SMILES IDX 19 1 18 2 16 3 17 4 15 5 14 6 90 7 87 8 89 9 91 10 88 11
REMARK SMILES IDX 12 12 11 13 13 15 10 16 1 17 2 18 3 19 4 20 9 21 8 22 5 23
REMARK SMILES IDX 6 24 7 25 20 26 21 27 22 28 23 29 24 30 25 31 86 32 26 33
REMARK SMILES IDX 85 34 27 35 28 36 29 37 79 38 30 39 84 40 78 41 80 42 31 43
REMARK SMILES IDX 83 44 77 45 76 46 32 48 64 49 44 50 63 51 45 52 48 53 62 54
REMARK SMILES IDX 81 55 46 56 47 57 61 59 82 60 49 61 33 62 34 63 42 64 35 65
REMARK SMILES IDX 41 66 43 67 40 68 36 69 37 70 38 71 39 72 65 73 66 74 74 75
REMARK SMILES IDX 67 76 73 77 75 78 72 79 68 80 69 81 70 82 71 83 50 84 51 85
REMARK SMILES IDX 59 86 52 87 58 88 60 89 57 90 53 91 54 92 55 93 56 94
REMARK H PARENT 11 14 80 47 48 58
REMARK Flexibility Score: inf
ROOT
ATOM      1  C   UNL A   1      32.577  30.148  25.665  1.00  0.00     0.274 C 
ENDROOT
BRANCH   1   2
ATOM      2  O   UNL A   1      32.107  29.347  24.551  1.00  0.00    -0.462 OA
BRANCH   2   3
ATOM      3  C   UNL A   1      32.549  28.051  24.655  1.00  0.00     0.310 C 
ATOM      4  O   UNL A   1      33.724  27.762  24.446  1.00  0.00    -0.252 OA
BRANCH   3   5
ATOM      5  C   UNL A   1      31.454  26.991  24.838  1.00  0.00     0.119 C 
ATOM      6  C   UNL A   1      31.747  25.429  24.874  1.00  0.00     0.100 C 
ATOM      7  C   UNL A   1      30.770  24.888  23.778  1.00  0.00     0.025 C 
ATOM      8  C   UNL A   1      30.557  27.083  23.551  1.00  0.00     0.027 C 
ATOM      9  C   UNL A   1      31.400  25.222  22.457  1.00  0.00    -0.027 C 
ATOM     10  C   UNL A   1      29.630  25.904  23.780  1.00  0.00     0.017 C 
ATOM     11  C   UNL A   1      31.294  26.549  22.326  1.00  0.00    -0.027 C 
BRANCH   6  12
ATOM     12  C   UNL A   1      31.442  24.668  26.159  1.00  0.00     0.228 C 
ATOM     13  N   UNL A   1      32.210  23.611  26.612  1.00  0.00    -0.326 N 
ATOM     14  H   UNL A   1      31.863  23.244  27.458  1.00  0.00     0.169 HD
ATOM     15  O   UNL A   1      30.451  24.966  26.837  1.00  0.00    -0.274 OA
BRANCH  13  16
ATOM     16  C   UNL A   1      33.373  22.915  26.173  1.00  0.00     0.044 A 
ATOM     17  C   UNL A   1      31.968  21.131  24.902  1.00  0.00     0.047 C 
ATOM     18  C   UNL A   1      33.258  21.725  25.409  1.00  0.00    -0.021 A 
ATOM     19  C   UNL A   1      34.425  20.999  25.038  1.00  0.00     0.091 A 
ATOM     20  C   UNL A   1      35.698  21.453  25.385  1.00  0.00     0.269 A 
ATOM     21  C   UNL A   1      34.672  23.335  26.477  1.00  0.00     0.033 A 
ATOM     22  C   UNL A   1      35.826  22.646  26.074  1.00  0.00     0.088 A 
BRANCH  20  23
ATOM     23  N   UNL A   1      36.889  20.661  25.062  1.00  0.00     0.062 N 
ATOM     24  O   UNL A   1      37.967  21.268  24.964  1.00  0.00    -0.258 OA
ATOM     25  O   UNL A   1      36.750  19.442  24.903  1.00  0.00    -0.258 OA
ENDBRANCH  20  23
ENDBRANCH  13  16
ENDBRANCH   6  12
ENDBRANCH   3   5
ENDBRANCH   2   3
ENDBRANCH   1   2
BRANCH   1  26
ATOM     26  C   UNL A   1      31.621  31.230  26.203  1.00  0.00     0.275 C 
BRANCH  26  27
ATOM     27  O   UNL A   1      31.817  31.861  27.491  1.00  0.00    -0.458 OA
BRANCH  27  28
ATOM     28  C   UNL A   1      32.587  32.970  27.615  1.00  0.00     0.338 C 
ATOM     29  O   UNL A   1      32.142  34.097  27.604  1.00  0.00    -0.246 OA
BRANCH  28  30
ATOM     30  C   UNL A   1      34.002  32.621  27.860  1.00  0.00     0.060 A 
ATOM     31  C   UNL A   1      34.952  33.634  27.683  1.00  0.00     0.016 A 
ATOM     32  C   UNL A   1      34.318  31.421  28.500  1.00  0.00     0.016 A 
ATOM     33  C   UNL A   1      36.195  33.513  28.289  1.00  0.00     0.010 A 
ATOM     34  C   UNL A   1      35.538  31.314  29.122  1.00  0.00     0.010 A 
ATOM     35  C   UNL A   1      36.459  32.366  29.030  1.00  0.00    -0.014 A 
BRANCH  35  36
ATOM     36  C   UNL A   1      37.773  32.071  29.566  1.00  0.00     0.031 A 
ATOM     37  C   UNL A   1      38.443  30.785  29.279  1.00  0.00     0.074 A 
ATOM     38  C   UNL A   1      38.289  33.121  30.238  1.00  0.00     0.049 A 
ATOM     39  N   UNL A   1      39.184  30.136  30.113  1.00  0.00    -0.248 NA
ATOM     40  C   UNL A   1      38.248  30.053  28.023  1.00  0.00     0.031 C 
ATOM     41  C   UNL A   1      39.648  33.395  30.646  1.00  0.00     0.029 A 
ATOM     42  N   UNL A   1      37.555  34.162  30.824  1.00  0.00    -0.354 N 
ATOM     43  C   UNL A   1      39.848  29.171  29.370  1.00  0.00     0.074 A 
ATOM     44  C   UNL A   1      39.076  29.008  28.167  1.00  0.00     0.031 C 
ATOM     45  C   UNL A   1      39.615  34.305  31.641  1.00  0.00     0.029 A 
ATOM     46  C   UNL A   1      38.215  34.489  32.005  1.00  0.00     0.049 A 
ATOM     47  H   UNL A   1      36.736  34.578  30.471  1.00  0.00     0.167 HD
ATOM     48  C   UNL A   1      41.140  28.850  29.667  1.00  0.00     0.034 A 
ATOM     49  C   UNL A   1      37.671  34.238  33.234  1.00  0.00     0.034 A 
ATOM     50  C   UNL A   1      41.621  29.757  30.692  1.00  0.00     0.049 A 
ATOM     51  C   UNL A   1      38.579  33.294  34.004  1.00  0.00     0.074 A 
ATOM     52  C   UNL A   1      42.285  30.967  30.575  1.00  0.00     0.029 A 
ATOM     53  N   UNL A   1      41.138  29.674  31.981  1.00  0.00    -0.354 N 
ATOM     54  N   UNL A   1      39.279  32.333  33.458  1.00  0.00    -0.248 NA
ATOM     55  C   UNL A   1      38.828  33.434  35.431  1.00  0.00     0.031 C 
ATOM     56  C   UNL A   1      42.177  31.635  31.815  1.00  0.00     0.029 A 
ATOM     57  C   UNL A   1      41.449  30.826  32.670  1.00  0.00     0.049 A 
ATOM     58  H   UNL A   1      40.645  28.908  32.354  1.00  0.00     0.167 HD
ATOM     59  C   UNL A   1      40.156  31.829  34.394  1.00  0.00     0.074 A 
ATOM     60  C   UNL A   1      39.801  32.526  35.620  1.00  0.00     0.031 C 
ATOM     61  C   UNL A   1      41.142  30.930  34.078  1.00  0.00     0.034 A 
BRANCH  48  62
ATOM     62  C   UNL A   1      42.109  28.069  28.805  1.00  0.00     0.023 A 
ATOM     63  C   UNL A   1      42.125  26.659  28.919  1.00  0.00     0.031 A 
ATOM     64  C   UNL A   1      43.009  28.610  27.872  1.00  0.00     0.131 A 
ATOM     65  C   UNL A   1      43.048  25.863  28.223  1.00  0.00     0.055 A 
ATOM     66  C   UNL A   1      43.943  27.817  27.181  1.00  0.00     0.041 A 
ATOM     67  F   UNL A   1      42.999  29.917  27.569  1.00  0.00    -0.206 F 
ATOM     68  C   UNL A   1      43.977  26.438  27.366  1.00  0.00     0.022 A 
BRANCH  65  69
ATOM     69  S   UNL A   1      43.017  24.067  28.481  1.00  0.00     0.124 S 
ATOM     70  O   UNL A   1      41.598  23.759  28.335  1.00  0.00    -0.237 OA
ATOM     71  O   UNL A   1      43.895  23.584  27.422  1.00  0.00    -0.237 OA
ATOM     72  O   UNL A   1      43.542  23.910  29.837  1.00  0.00    -0.744 OA
ENDBRANCH  65  69
ENDBRANCH  48  62
BRANCH  49  73
ATOM     73  C   UNL A   1      36.172  34.184  33.255  1.00  0.00     0.023 A 
ATOM     74  C   UNL A   1      35.431  35.392  33.298  1.00  0.00     0.031 A 
ATOM     75  C   UNL A   1      35.498  33.039  32.823  1.00  0.00     0.131 A 
ATOM     76  C   UNL A   1      34.115  35.447  32.795  1.00  0.00     0.055 A 
ATOM     77  C   UNL A   1      34.182  33.112  32.357  1.00  0.00     0.041 A 
ATOM     78  F   UNL A   1      36.137  31.868  32.691  1.00  0.00    -0.206 F 
ATOM     79  C   UNL A   1      33.486  34.308  32.317  1.00  0.00     0.022 A 
BRANCH  76  80
ATOM     80  S   UNL A   1      33.324  37.058  32.512  1.00  0.00     0.124 S 
ATOM     81  O   UNL A   1      33.541  37.255  31.083  1.00  0.00    -0.237 OA
ATOM     82  O   UNL A   1      31.950  36.796  32.928  1.00  0.00    -0.237 OA
ATOM     83  O   UNL A   1      34.068  37.962  33.386  1.00  0.00    -0.744 OA
ENDBRANCH  76  80
ENDBRANCH  49  73
BRANCH  61  84
ATOM     84  C   UNL A   1      42.027  30.135  35.020  1.00  0.00     0.023 A 
ATOM     85  C   UNL A   1      41.744  28.828  35.411  1.00  0.00     0.031 A 
ATOM     86  C   UNL A   1      43.259  30.659  35.509  1.00  0.00     0.131 A 
ATOM     87  C   UNL A   1      42.590  28.133  36.292  1.00  0.00     0.055 A 
ATOM     88  C   UNL A   1      44.144  29.934  36.307  1.00  0.00     0.041 A 
ATOM     89  F   UNL A   1      43.678  31.902  35.227  1.00  0.00    -0.206 F 
ATOM     90  C   UNL A   1      43.804  28.661  36.720  1.00  0.00     0.022 A 
BRANCH  87  91
ATOM     91  S   UNL A   1      42.006  26.546  36.927  1.00  0.00     0.124 S 
ATOM     92  O   UNL A   1      43.015  26.240  37.938  1.00  0.00    -0.237 OA
ATOM     93  O   UNL A   1      40.681  26.884  37.438  1.00  0.00    -0.237 OA
ATOM     94  O   UNL A   1      42.018  25.679  35.752  1.00  0.00    -0.744 OA
ENDBRANCH  87  91
ENDBRANCH  61  84
ENDBRANCH  35  36
ENDBRANCH  28  30
ENDBRANCH  27  28
ENDBRANCH  26  27
ENDBRANCH   1  26
TORSDOF 17
ENDMDL
