MODEL 1
REMARK VINA RESULT:     -11.2      0.000      0.000
REMARK SMILES COc1ccc(Cl)cc1-c1cnc(OC)c(C(=O)OCCOC(=O)c2ccc(-c3c4nc(c(-c5cc(S(=O)(=O)[O-])ccc5F)c5ccc([nH]5)c(-c5cc(S(=O)(=O)[O-])ccc5F)c5nc(c(-c6cc(S(=O)(=O)[O-])ccc6F)c6ccc3[nH]6)C=C5)C=C4)cc2)c1
REMARK SMILES IDX 21 1 20 2 19 3 17 4 18 5 16 6 10 7 11 8 88 9 12 10 13 11
REMARK SMILES IDX 9 12 3 13 4 14 5 15 8 16 6 17 7 18 2 19 1 20 14 21 15 22
REMARK SMILES IDX 22 23 23 24 24 25 25 26 26 27 87 28 27 29 86 30 28 31 29 32
REMARK SMILES IDX 30 33 80 34 31 35 85 36 79 37 81 38 32 39 84 40 78 41 77 42
REMARK SMILES IDX 33 44 65 45 45 46 64 47 46 48 49 49 63 50 82 51 47 52 48 53
REMARK SMILES IDX 62 55 83 56 50 57 34 58 35 59 43 60 36 61 42 62 44 63 41 64
REMARK SMILES IDX 37 65 38 66 39 67 40 68 66 69 67 70 75 71 68 72 74 73 76 74
REMARK SMILES IDX 73 75 69 76 70 77 71 78 72 79 51 80 52 81 60 82 53 83 59 84
REMARK SMILES IDX 61 85 58 86 54 87 55 88 56 89 57 90
REMARK H PARENT 81 43 49 54
REMARK Flexibility Score: inf
ROOT
ATOM      1  C   UNL A   1      36.828  21.201  24.713  1.00  0.00     0.275 C 
ENDROOT
BRANCH   1   2
ATOM      2  C   UNL A   1      36.653  22.305  23.668  1.00  0.00     0.275 C 
BRANCH   2   3
ATOM      3  O   UNL A   1      35.859  23.356  24.240  1.00  0.00    -0.458 OA
BRANCH   3   4
ATOM      4  C   UNL A   1      34.700  23.642  23.606  1.00  0.00     0.343 C 
ATOM      5  O   UNL A   1      34.457  23.505  22.423  1.00  0.00    -0.246 OA
BRANCH   4   6
ATOM      6  C   UNL A   1      33.763  24.140  24.616  1.00  0.00     0.122 A 
ATOM      7  C   UNL A   1      32.487  26.066  25.386  1.00  0.00     0.005 A 
ATOM      8  C   UNL A   1      31.979  25.227  26.367  1.00  0.00     0.124 A 
ATOM      9  C   UNL A   1      33.433  25.502  24.527  1.00  0.00     0.032 A 
ATOM     10  N   UNL A   1      32.306  23.919  26.491  1.00  0.00    -0.221 NA
ATOM     11  C   UNL A   1      33.166  23.362  25.601  1.00  0.00     0.227 A 
BRANCH   7  12
ATOM     12  C   UNL A   1      31.967  27.421  25.170  1.00  0.00     0.027 A 
ATOM     13  C   UNL A   1      32.332  28.470  26.041  1.00  0.00     0.126 A 
ATOM     14  C   UNL A   1      31.878  29.775  25.837  1.00  0.00     0.048 A 
ATOM     15  C   UNL A   1      31.028  30.049  24.769  1.00  0.00     0.024 A 
ATOM     16  C   UNL A   1      31.113  27.716  24.097  1.00  0.00     0.033 A 
ATOM     17  C   UNL A   1      30.650  29.021  23.905  1.00  0.00     0.041 A 
ATOM     18  Cl  UNL A   1      29.610  29.379  22.580  1.00  0.00    -0.084 Cl
BRANCH  13  19
ATOM     19  O   UNL A   1      33.248  28.210  27.032  1.00  0.00    -0.496 OA
ATOM     20  C   UNL A   1      34.446  28.966  26.878  1.00  0.00     0.278 C 
ENDBRANCH  13  19
ENDBRANCH   7  12
BRANCH  11  21
ATOM     21  O   UNL A   1      33.305  22.042  25.874  1.00  0.00    -0.480 OA
ATOM     22  C   UNL A   1      33.941  21.582  27.047  1.00  0.00     0.280 C 
ENDBRANCH  11  21
ENDBRANCH   4   6
ENDBRANCH   3   4
ENDBRANCH   2   3
ENDBRANCH   1   2
BRANCH   1  23
ATOM     23  O   UNL A   1      37.377  21.746  25.928  1.00  0.00    -0.458 OA
BRANCH  23  24
ATOM     24  C   UNL A   1      38.702  21.514  26.123  1.00  0.00     0.338 C 
ATOM     25  O   UNL A   1      39.306  20.489  25.854  1.00  0.00    -0.246 OA
BRANCH  24  26
ATOM     26  C   UNL A   1      39.360  22.755  26.592  1.00  0.00     0.060 A 
ATOM     27  C   UNL A   1      38.910  23.975  26.074  1.00  0.00     0.016 A 
ATOM     28  C   UNL A   1      40.395  22.732  27.533  1.00  0.00     0.016 A 
ATOM     29  C   UNL A   1      39.476  25.173  26.511  1.00  0.00     0.010 A 
ATOM     30  C   UNL A   1      40.981  23.932  27.949  1.00  0.00     0.010 A 
ATOM     31  C   UNL A   1      40.527  25.159  27.436  1.00  0.00    -0.014 A 
BRANCH  31  32
ATOM     32  C   UNL A   1      41.220  26.422  27.784  1.00  0.00     0.031 A 
ATOM     33  C   UNL A   1      40.445  27.510  28.471  1.00  0.00     0.074 A 
ATOM     34  C   UNL A   1      42.525  26.586  27.506  1.00  0.00     0.049 A 
ATOM     35  N   UNL A   1      40.846  28.685  28.879  1.00  0.00    -0.248 NA
ATOM     36  C   UNL A   1      39.026  27.228  28.739  1.00  0.00     0.031 C 
ATOM     37  C   UNL A   1      43.384  25.580  26.883  1.00  0.00     0.029 A 
ATOM     38  N   UNL A   1      43.358  27.657  27.712  1.00  0.00    -0.354 N 
ATOM     39  C   UNL A   1      39.741  29.274  29.481  1.00  0.00     0.074 A 
ATOM     40  C   UNL A   1      38.640  28.343  29.341  1.00  0.00     0.031 C 
ATOM     41  C   UNL A   1      44.621  26.089  26.743  1.00  0.00     0.029 A 
ATOM     42  C   UNL A   1      44.637  27.461  27.246  1.00  0.00     0.049 A 
ATOM     43  H   UNL A   1      43.066  28.488  28.153  1.00  0.00     0.167 HD
ATOM     44  C   UNL A   1      39.654  30.477  30.100  1.00  0.00     0.034 A 
ATOM     45  C   UNL A   1      45.691  28.302  27.216  1.00  0.00     0.034 A 
ATOM     46  C   UNL A   1      40.743  31.419  30.175  1.00  0.00     0.049 A 
ATOM     47  C   UNL A   1      45.535  29.687  27.802  1.00  0.00     0.074 A 
ATOM     48  C   UNL A   1      40.756  32.682  30.745  1.00  0.00     0.029 A 
ATOM     49  N   UNL A   1      42.010  31.212  29.643  1.00  0.00    -0.354 N 
ATOM     50  N   UNL A   1      44.488  30.225  28.385  1.00  0.00    -0.248 NA
ATOM     51  C   UNL A   1      46.705  30.572  27.734  1.00  0.00     0.031 C 
ATOM     52  C   UNL A   1      42.007  33.260  30.498  1.00  0.00     0.029 A 
ATOM     53  C   UNL A   1      42.799  32.334  29.838  1.00  0.00     0.049 A 
ATOM     54  H   UNL A   1      42.303  30.388  29.193  1.00  0.00     0.167 HD
ATOM     55  C   UNL A   1      44.886  31.500  28.782  1.00  0.00     0.074 A 
ATOM     56  C   UNL A   1      46.271  31.644  28.382  1.00  0.00     0.031 C 
ATOM     57  C   UNL A   1      44.176  32.463  29.422  1.00  0.00     0.034 A 
BRANCH  44  58
ATOM     58  C   UNL A   1      38.314  30.849  30.682  1.00  0.00     0.023 A 
ATOM     59  C   UNL A   1      37.344  31.523  29.917  1.00  0.00     0.031 A 
ATOM     60  C   UNL A   1      38.020  30.574  32.028  1.00  0.00     0.131 A 
ATOM     61  C   UNL A   1      36.154  31.956  30.523  1.00  0.00     0.055 A 
ATOM     62  C   UNL A   1      36.805  30.945  32.605  1.00  0.00     0.041 A 
ATOM     63  F   UNL A   1      38.919  29.956  32.810  1.00  0.00    -0.206 F 
ATOM     64  C   UNL A   1      35.869  31.653  31.856  1.00  0.00     0.022 A 
BRANCH  61  65
ATOM     65  S   UNL A   1      35.041  33.037  29.582  1.00  0.00     0.124 S 
ATOM     66  O   UNL A   1      34.030  33.365  30.584  1.00  0.00    -0.237 OA
ATOM     67  O   UNL A   1      35.922  34.127  29.182  1.00  0.00    -0.237 OA
ATOM     68  O   UNL A   1      34.573  32.181  28.493  1.00  0.00    -0.744 OA
ENDBRANCH  61  65
ENDBRANCH  44  58
BRANCH  45  69
ATOM     69  C   UNL A   1      46.975  27.893  26.573  1.00  0.00     0.023 A 
ATOM     70  C   UNL A   1      47.169  28.014  25.188  1.00  0.00     0.031 A 
ATOM     71  C   UNL A   1      48.000  27.300  27.332  1.00  0.00     0.131 A 
ATOM     72  C   UNL A   1      48.336  27.501  24.598  1.00  0.00     0.055 A 
ATOM     73  C   UNL A   1      49.182  26.841  26.748  1.00  0.00     0.041 A 
ATOM     74  F   UNL A   1      47.865  27.153  28.661  1.00  0.00    -0.206 F 
ATOM     75  C   UNL A   1      49.348  26.927  25.370  1.00  0.00     0.022 A 
BRANCH  72  76
ATOM     76  S   UNL A   1      48.468  27.500  22.787  1.00  0.00     0.124 S 
ATOM     77  O   UNL A   1      49.730  28.203  22.581  1.00  0.00    -0.237 OA
ATOM     78  O   UNL A   1      48.469  26.074  22.484  1.00  0.00    -0.237 OA
ATOM     79  O   UNL A   1      47.274  28.226  22.359  1.00  0.00    -0.744 OA
ENDBRANCH  72  76
ENDBRANCH  45  69
BRANCH  57  80
ATOM     80  C   UNL A   1      44.906  33.739  29.762  1.00  0.00     0.023 A 
ATOM     81  C   UNL A   1      44.896  34.851  28.902  1.00  0.00     0.031 A 
ATOM     82  C   UNL A   1      45.627  33.839  30.966  1.00  0.00     0.131 A 
ATOM     83  C   UNL A   1      45.633  35.997  29.233  1.00  0.00     0.055 A 
ATOM     84  C   UNL A   1      46.316  35.001  31.315  1.00  0.00     0.041 A 
ATOM     85  F   UNL A   1      45.671  32.807  31.824  1.00  0.00    -0.206 F 
ATOM     86  C   UNL A   1      46.331  36.085  30.441  1.00  0.00     0.022 A 
BRANCH  83  87
ATOM     87  S   UNL A   1      45.731  37.351  28.030  1.00  0.00     0.124 S 
ATOM     88  O   UNL A   1      46.031  36.638  26.793  1.00  0.00    -0.237 OA
ATOM     89  O   UNL A   1      44.401  37.944  28.117  1.00  0.00    -0.237 OA
ATOM     90  O   UNL A   1      46.814  38.188  28.541  1.00  0.00    -0.744 OA
ENDBRANCH  83  87
ENDBRANCH  57  80
ENDBRANCH  31  32
ENDBRANCH  24  26
ENDBRANCH  23  24
ENDBRANCH   1  23
TORSDOF 17
ENDMDL
MODEL 2
REMARK VINA RESULT:     -11.1      5.095      9.958
REMARK SMILES COc1ccc(Cl)cc1-c1cnc(OC)c(C(=O)OCCOC(=O)c2ccc(-c3c4nc(c(-c5cc(S(=O)(=O)[O-])ccc5F)c5ccc([nH]5)c(-c5cc(S(=O)(=O)[O-])ccc5F)c5nc(c(-c6cc(S(=O)(=O)[O-])ccc6F)c6ccc3[nH]6)C=C5)C=C4)cc2)c1
REMARK SMILES IDX 21 1 20 2 19 3 17 4 18 5 16 6 10 7 11 8 88 9 12 10 13 11
REMARK SMILES IDX 9 12 3 13 4 14 5 15 8 16 6 17 7 18 2 19 1 20 14 21 15 22
REMARK SMILES IDX 22 23 23 24 24 25 25 26 26 27 87 28 27 29 86 30 28 31 29 32
REMARK SMILES IDX 30 33 80 34 31 35 85 36 79 37 81 38 32 39 84 40 78 41 77 42
REMARK SMILES IDX 33 44 65 45 45 46 64 47 46 48 49 49 63 50 82 51 47 52 48 53
REMARK SMILES IDX 62 55 83 56 50 57 34 58 35 59 43 60 36 61 42 62 44 63 41 64
REMARK SMILES IDX 37 65 38 66 39 67 40 68 66 69 67 70 75 71 68 72 74 73 76 74
REMARK SMILES IDX 73 75 69 76 70 77 71 78 72 79 51 80 52 81 60 82 53 83 59 84
REMARK SMILES IDX 61 85 58 86 54 87 55 88 56 89 57 90
REMARK H PARENT 81 43 49 54
REMARK Flexibility Score: inf
ROOT
ATOM      1  C   UNL A   1      31.904  30.040  26.348  1.00  0.00     0.275 C 
ENDROOT
BRANCH   1   2
ATOM      2  C   UNL A   1      31.707  28.940  27.393  1.00  0.00     0.275 C 
BRANCH   2   3
ATOM      3  O   UNL A   1      32.469  27.790  26.997  1.00  0.00    -0.458 OA
BRANCH   3   4
ATOM      4  C   UNL A   1      31.775  26.779  26.428  1.00  0.00     0.343 C 
ATOM      5  O   UNL A   1      30.657  26.400  26.720  1.00  0.00    -0.246 OA
BRANCH   4   6
ATOM      6  C   UNL A   1      32.614  26.219  25.366  1.00  0.00     0.122 A 
ATOM      7  C   UNL A   1      33.804  24.242  24.588  1.00  0.00     0.005 A 
ATOM      8  C   UNL A   1      34.128  24.986  23.463  1.00  0.00     0.124 A 
ATOM      9  C   UNL A   1      33.067  24.906  25.571  1.00  0.00     0.032 A 
ATOM     10  N   UNL A   1      33.728  26.263  23.258  1.00  0.00    -0.221 NA
ATOM     11  C   UNL A   1      32.944  26.872  24.185  1.00  0.00     0.227 A 
BRANCH   7  12
ATOM     12  C   UNL A   1      34.096  22.807  24.686  1.00  0.00     0.027 A 
ATOM     13  C   UNL A   1      35.269  22.362  25.333  1.00  0.00     0.126 A 
ATOM     14  C   UNL A   1      35.552  21.002  25.470  1.00  0.00     0.048 A 
ATOM     15  C   UNL A   1      34.675  20.060  24.938  1.00  0.00     0.024 A 
ATOM     16  C   UNL A   1      33.222  21.844  24.160  1.00  0.00     0.033 A 
ATOM     17  C   UNL A   1      33.516  20.483  24.287  1.00  0.00     0.041 A 
ATOM     18  Cl  UNL A   1      32.435  19.306  23.647  1.00  0.00    -0.084 Cl
BRANCH  13  19
ATOM     19  O   UNL A   1      36.076  23.295  25.940  1.00  0.00    -0.496 OA
ATOM     20  C   UNL A   1      37.323  23.454  25.268  1.00  0.00     0.278 C 
ENDBRANCH  13  19
ENDBRANCH   7  12
BRANCH  11  21
ATOM     21  O   UNL A   1      32.617  28.114  23.752  1.00  0.00    -0.480 OA
ATOM     22  C   UNL A   1      33.181  28.675  22.587  1.00  0.00     0.280 C 
ENDBRANCH  11  21
ENDBRANCH   4   6
ENDBRANCH   3   4
ENDBRANCH   2   3
ENDBRANCH   1   2
BRANCH   1  23
ATOM     23  O   UNL A   1      33.286  30.448  26.307  1.00  0.00    -0.458 OA
BRANCH  23  24
ATOM     24  C   UNL A   1      33.637  31.403  27.208  1.00  0.00     0.338 C 
ATOM     25  O   UNL A   1      32.964  32.363  27.547  1.00  0.00    -0.246 OA
BRANCH  24  26
ATOM     26  C   UNL A   1      34.925  31.039  27.842  1.00  0.00     0.060 A 
ATOM     27  C   UNL A   1      35.074  29.735  28.327  1.00  0.00     0.016 A 
ATOM     28  C   UNL A   1      35.978  31.952  27.953  1.00  0.00     0.016 A 
ATOM     29  C   UNL A   1      36.281  29.334  28.902  1.00  0.00     0.010 A 
ATOM     30  C   UNL A   1      37.178  31.559  28.555  1.00  0.00     0.010 A 
ATOM     31  C   UNL A   1      37.333  30.248  29.036  1.00  0.00    -0.014 A 
BRANCH  31  32
ATOM     32  C   UNL A   1      38.556  29.859  29.778  1.00  0.00     0.031 A 
ATOM     33  C   UNL A   1      39.468  28.824  29.183  1.00  0.00     0.074 A 
ATOM     34  C   UNL A   1      38.855  30.437  30.955  1.00  0.00     0.049 A 
ATOM     35  N   UNL A   1      40.592  28.344  29.646  1.00  0.00    -0.248 NA
ATOM     36  C   UNL A   1      39.055  28.261  27.889  1.00  0.00     0.031 C 
ATOM     37  C   UNL A   1      38.067  31.484  31.602  1.00  0.00     0.029 A 
ATOM     38  N   UNL A   1      39.904  30.226  31.816  1.00  0.00    -0.354 N 
ATOM     39  C   UNL A   1      41.041  27.445  28.687  1.00  0.00     0.074 A 
ATOM     40  C   UNL A   1      40.041  27.413  27.639  1.00  0.00     0.031 C 
ATOM     41  C   UNL A   1      38.652  31.814  32.767  1.00  0.00     0.029 A 
ATOM     42  C   UNL A   1      39.842  30.988  32.959  1.00  0.00     0.049 A 
ATOM     43  H   UNL A   1      40.631  29.589  31.631  1.00  0.00     0.167 HD
ATOM     44  C   UNL A   1      42.185  26.718  28.676  1.00  0.00     0.034 A 
ATOM     45  C   UNL A   1      40.648  31.002  34.041  1.00  0.00     0.034 A 
ATOM     46  C   UNL A   1      43.140  26.713  29.757  1.00  0.00     0.049 A 
ATOM     47  C   UNL A   1      41.854  30.091  34.062  1.00  0.00     0.074 A 
ATOM     48  C   UNL A   1      44.315  25.988  29.870  1.00  0.00     0.029 A 
ATOM     49  N   UNL A   1      43.019  27.454  30.926  1.00  0.00    -0.354 N 
ATOM     50  N   UNL A   1      42.277  29.258  33.138  1.00  0.00    -0.248 NA
ATOM     51  C   UNL A   1      42.694  30.130  35.266  1.00  0.00     0.031 C 
ATOM     52  C   UNL A   1      44.866  26.240  31.132  1.00  0.00     0.029 A 
ATOM     53  C   UNL A   1      44.076  27.177  31.779  1.00  0.00     0.049 A 
ATOM     54  H   UNL A   1      42.289  28.085  31.120  1.00  0.00     0.167 HD
ATOM     55  C   UNL A   1      43.451  28.699  33.640  1.00  0.00     0.074 A 
ATOM     56  C   UNL A   1      43.673  29.299  34.939  1.00  0.00     0.031 C 
ATOM     57  C   UNL A   1      44.274  27.778  33.077  1.00  0.00     0.034 A 
BRANCH  44  58
ATOM     58  C   UNL A   1      42.419  25.829  27.482  1.00  0.00     0.023 A 
ATOM     59  C   UNL A   1      41.932  24.509  27.443  1.00  0.00     0.031 A 
ATOM     60  C   UNL A   1      43.177  26.285  26.390  1.00  0.00     0.131 A 
ATOM     61  C   UNL A   1      42.264  23.673  26.366  1.00  0.00     0.055 A 
ATOM     62  C   UNL A   1      43.446  25.470  25.290  1.00  0.00     0.041 A 
ATOM     63  F   UNL A   1      43.688  27.526  26.386  1.00  0.00    -0.206 F 
ATOM     64  C   UNL A   1      43.000  24.151  25.280  1.00  0.00     0.022 A 
BRANCH  61  65
ATOM     65  S   UNL A   1      41.836  21.913  26.466  1.00  0.00     0.124 S 
ATOM     66  O   UNL A   1      42.804  21.320  25.547  1.00  0.00    -0.237 OA
ATOM     67  O   UNL A   1      42.033  21.619  27.881  1.00  0.00    -0.237 OA
ATOM     68  O   UNL A   1      40.448  21.871  26.008  1.00  0.00    -0.744 OA
ENDBRANCH  61  65
ENDBRANCH  44  58
BRANCH  45  69
ATOM     69  C   UNL A   1      40.331  31.865  35.217  1.00  0.00     0.023 A 
ATOM     70  C   UNL A   1      39.369  31.481  36.166  1.00  0.00     0.031 A 
ATOM     71  C   UNL A   1      40.934  33.127  35.365  1.00  0.00     0.131 A 
ATOM     72  C   UNL A   1      39.001  32.372  37.187  1.00  0.00     0.055 A 
ATOM     73  C   UNL A   1      40.604  33.986  36.414  1.00  0.00     0.041 A 
ATOM     74  F   UNL A   1      41.856  33.548  34.483  1.00  0.00    -0.206 F 
ATOM     75  C   UNL A   1      39.620  33.616  37.325  1.00  0.00     0.022 A 
BRANCH  72  76
ATOM     76  S   UNL A   1      37.620  31.923  38.278  1.00  0.00     0.124 S 
ATOM     77  O   UNL A   1      37.324  30.564  37.840  1.00  0.00    -0.237 OA
ATOM     78  O   UNL A   1      38.222  32.056  39.600  1.00  0.00    -0.237 OA
ATOM     79  O   UNL A   1      36.598  32.917  37.958  1.00  0.00    -0.744 OA
ENDBRANCH  72  76
ENDBRANCH  45  69
BRANCH  57  80
ATOM     80  C   UNL A   1      45.512  27.401  33.855  1.00  0.00     0.023 A 
ATOM     81  C   UNL A   1      45.521  26.318  34.751  1.00  0.00     0.031 A 
ATOM     82  C   UNL A   1      46.697  28.142  33.697  1.00  0.00     0.131 A 
ATOM     83  C   UNL A   1      46.677  26.036  35.494  1.00  0.00     0.055 A 
ATOM     84  C   UNL A   1      47.860  27.824  34.400  1.00  0.00     0.041 A 
ATOM     85  F   UNL A   1      46.743  29.186  32.855  1.00  0.00    -0.206 F 
ATOM     86  C   UNL A   1      47.851  26.773  35.313  1.00  0.00     0.022 A 
BRANCH  83  87
ATOM     87  S   UNL A   1      46.609  24.736  36.757  1.00  0.00     0.124 S 
ATOM     88  O   UNL A   1      46.966  25.469  37.967  1.00  0.00    -0.237 OA
ATOM     89  O   UNL A   1      45.224  24.287  36.669  1.00  0.00    -0.237 OA
ATOM     90  O   UNL A   1      47.604  23.765  36.305  1.00  0.00    -0.744 OA
ENDBRANCH  83  87
ENDBRANCH  57  80
ENDBRANCH  31  32
ENDBRANCH  24  26
ENDBRANCH  23  24
ENDBRANCH   1  23
TORSDOF 17
ENDMDL
MODEL 3
REMARK VINA RESULT:     -11.0      4.992      7.892
REMARK SMILES COc1ccc(Cl)cc1-c1cnc(OC)c(C(=O)OCCOC(=O)c2ccc(-c3c4nc(c(-c5cc(S(=O)(=O)[O-])ccc5F)c5ccc([nH]5)c(-c5cc(S(=O)(=O)[O-])ccc5F)c5nc(c(-c6cc(S(=O)(=O)[O-])ccc6F)c6ccc3[nH]6)C=C5)C=C4)cc2)c1
REMARK SMILES IDX 21 1 20 2 19 3 17 4 18 5 16 6 10 7 11 8 88 9 12 10 13 11
REMARK SMILES IDX 9 12 3 13 4 14 5 15 8 16 6 17 7 18 2 19 1 20 14 21 15 22
REMARK SMILES IDX 22 23 23 24 24 25 25 26 26 27 87 28 27 29 86 30 28 31 29 32
REMARK SMILES IDX 30 33 80 34 31 35 85 36 79 37 81 38 32 39 84 40 78 41 77 42
REMARK SMILES IDX 33 44 65 45 45 46 64 47 46 48 49 49 63 50 82 51 47 52 48 53
REMARK SMILES IDX 62 55 83 56 50 57 34 58 35 59 43 60 36 61 42 62 44 63 41 64
REMARK SMILES IDX 37 65 38 66 39 67 40 68 66 69 67 70 75 71 68 72 74 73 76 74
REMARK SMILES IDX 73 75 69 76 70 77 71 78 72 79 51 80 52 81 60 82 53 83 59 84
REMARK SMILES IDX 61 85 58 86 54 87 55 88 56 89 57 90
REMARK H PARENT 81 43 49 54
REMARK Flexibility Score: inf
ROOT
ATOM      1  C   UNL A   1      32.141  30.623  27.010  1.00  0.00     0.275 C 
ENDROOT
BRANCH   1   2
ATOM      2  C   UNL A   1      31.958  29.130  27.291  1.00  0.00     0.275 C 
BRANCH   2   3
ATOM      3  O   UNL A   1      31.469  28.495  26.098  1.00  0.00    -0.458 OA
BRANCH   3   4
ATOM      4  C   UNL A   1      31.264  27.161  26.172  1.00  0.00     0.343 C 
ATOM      5  O   UNL A   1      30.534  26.572  26.946  1.00  0.00    -0.246 OA
BRANCH   4   6
ATOM      6  C   UNL A   1      32.078  26.538  25.126  1.00  0.00     0.122 A 
ATOM      7  C   UNL A   1      33.895  24.983  24.664  1.00  0.00     0.005 A 
ATOM      8  C   UNL A   1      33.652  25.234  23.322  1.00  0.00     0.124 A 
ATOM      9  C   UNL A   1      33.109  25.695  25.573  1.00  0.00     0.032 A 
ATOM     10  N   UNL A   1      32.684  26.065  22.869  1.00  0.00    -0.221 NA
ATOM     11  C   UNL A   1      31.874  26.690  23.761  1.00  0.00     0.227 A 
BRANCH   7  12
ATOM     12  C   UNL A   1      34.822  23.936  25.108  1.00  0.00     0.027 A 
ATOM     13  C   UNL A   1      34.387  22.598  25.213  1.00  0.00     0.126 A 
ATOM     14  C   UNL A   1      35.258  21.578  25.600  1.00  0.00     0.048 A 
ATOM     15  C   UNL A   1      36.580  21.884  25.915  1.00  0.00     0.024 A 
ATOM     16  C   UNL A   1      36.159  24.226  25.426  1.00  0.00     0.033 A 
ATOM     17  C   UNL A   1      37.024  23.203  25.826  1.00  0.00     0.041 A 
ATOM     18  Cl  UNL A   1      38.664  23.564  26.204  1.00  0.00    -0.084 Cl
BRANCH  13  19
ATOM     19  O   UNL A   1      33.110  22.291  24.806  1.00  0.00    -0.496 OA
ATOM     20  C   UNL A   1      33.091  21.363  23.725  1.00  0.00     0.278 C 
ENDBRANCH  13  19
ENDBRANCH   7  12
BRANCH  11  21
ATOM     21  O   UNL A   1      30.948  27.421  23.093  1.00  0.00    -0.480 OA
ATOM     22  C   UNL A   1      31.235  28.704  22.577  1.00  0.00     0.280 C 
ENDBRANCH  11  21
ENDBRANCH   4   6
ENDBRANCH   3   4
ENDBRANCH   2   3
ENDBRANCH   1   2
BRANCH   1  23
ATOM     23  O   UNL A   1      33.525  30.912  26.729  1.00  0.00    -0.458 OA
BRANCH  23  24
ATOM     24  C   UNL A   1      34.117  31.796  27.576  1.00  0.00     0.338 C 
ATOM     25  O   UNL A   1      33.644  32.849  27.971  1.00  0.00    -0.246 OA
BRANCH  24  26
ATOM     26  C   UNL A   1      35.391  31.230  28.075  1.00  0.00     0.060 A 
ATOM     27  C   UNL A   1      35.413  29.878  28.435  1.00  0.00     0.016 A 
ATOM     28  C   UNL A   1      36.552  32.003  28.179  1.00  0.00     0.016 A 
ATOM     29  C   UNL A   1      36.598  29.290  28.879  1.00  0.00     0.010 A 
ATOM     30  C   UNL A   1      37.732  31.420  28.651  1.00  0.00     0.010 A 
ATOM     31  C   UNL A   1      37.760  30.061  29.007  1.00  0.00    -0.014 A 
BRANCH  31  32
ATOM     32  C   UNL A   1      38.975  29.468  29.617  1.00  0.00     0.031 A 
ATOM     33  C   UNL A   1      39.447  29.987  30.945  1.00  0.00     0.074 A 
ATOM     34  C   UNL A   1      39.631  28.470  29.001  1.00  0.00     0.049 A 
ATOM     35  N   UNL A   1      40.470  29.611  31.666  1.00  0.00    -0.248 NA
ATOM     36  C   UNL A   1      38.654  31.073  31.539  1.00  0.00     0.031 C 
ATOM     37  C   UNL A   1      39.236  27.859  27.733  1.00  0.00     0.029 A 
ATOM     38  N   UNL A   1      40.771  27.792  29.358  1.00  0.00    -0.354 N 
ATOM     39  C   UNL A   1      40.428  30.390  32.816  1.00  0.00     0.074 A 
ATOM     40  C   UNL A   1      39.304  31.292  32.672  1.00  0.00     0.031 C 
ATOM     41  C   UNL A   1      40.127  26.906  27.410  1.00  0.00     0.029 A 
ATOM     42  C   UNL A   1      41.168  26.853  28.435  1.00  0.00     0.049 A 
ATOM     43  H   UNL A   1      41.257  27.963  30.197  1.00  0.00     0.167 HD
ATOM     44  C   UNL A   1      41.245  30.350  33.897  1.00  0.00     0.034 A 
ATOM     45  C   UNL A   1      42.256  26.056  28.417  1.00  0.00     0.034 A 
ATOM     46  C   UNL A   1      42.397  29.489  33.999  1.00  0.00     0.049 A 
ATOM     47  C   UNL A   1      43.223  26.118  29.577  1.00  0.00     0.074 A 
ATOM     48  C   UNL A   1      43.317  29.392  35.030  1.00  0.00     0.029 A 
ATOM     49  N   UNL A   1      42.804  28.589  33.020  1.00  0.00    -0.354 N 
ATOM     50  N   UNL A   1      43.160  26.847  30.668  1.00  0.00    -0.248 NA
ATOM     51  C   UNL A   1      44.400  25.242  29.506  1.00  0.00     0.031 C 
ATOM     52  C   UNL A   1      44.312  28.485  34.646  1.00  0.00     0.029 A 
ATOM     53  C   UNL A   1      43.977  27.961  33.407  1.00  0.00     0.049 A 
ATOM     54  H   UNL A   1      42.327  28.422  32.176  1.00  0.00     0.167 HD
ATOM     55  C   UNL A   1      44.275  26.492  31.427  1.00  0.00     0.074 A 
ATOM     56  C   UNL A   1      44.982  25.477  30.674  1.00  0.00     0.031 C 
ATOM     57  C   UNL A   1      44.675  26.958  32.637  1.00  0.00     0.034 A 
BRANCH  44  58
ATOM     58  C   UNL A   1      40.944  31.314  35.016  1.00  0.00     0.023 A 
ATOM     59  C   UNL A   1      39.836  31.130  35.864  1.00  0.00     0.031 A 
ATOM     60  C   UNL A   1      41.741  32.455  35.208  1.00  0.00     0.131 A 
ATOM     61  C   UNL A   1      39.519  32.106  36.822  1.00  0.00     0.055 A 
ATOM     62  C   UNL A   1      41.460  33.387  36.209  1.00  0.00     0.041 A 
ATOM     63  F   UNL A   1      42.794  32.693  34.412  1.00  0.00    -0.206 F 
ATOM     64  C   UNL A   1      40.336  33.223  37.014  1.00  0.00     0.022 A 
BRANCH  61  65
ATOM     65  S   UNL A   1      37.951  31.965  37.723  1.00  0.00     0.124 S 
ATOM     66  O   UNL A   1      37.141  32.990  37.069  1.00  0.00    -0.237 OA
ATOM     67  O   UNL A   1      37.563  30.583  37.468  1.00  0.00    -0.237 OA
ATOM     68  O   UNL A   1      38.322  32.264  39.105  1.00  0.00    -0.744 OA
ENDBRANCH  61  65
ENDBRANCH  44  58
BRANCH  45  69
ATOM     69  C   UNL A   1      42.528  25.164  27.251  1.00  0.00     0.023 A 
ATOM     70  C   UNL A   1      42.122  23.820  27.250  1.00  0.00     0.031 A 
ATOM     71  C   UNL A   1      43.271  25.628  26.151  1.00  0.00     0.131 A 
ATOM     72  C   UNL A   1      42.506  22.974  26.196  1.00  0.00     0.055 A 
ATOM     73  C   UNL A   1      43.604  24.797  25.079  1.00  0.00     0.041 A 
ATOM     74  F   UNL A   1      43.691  26.903  26.102  1.00  0.00    -0.206 F 
ATOM     75  C   UNL A   1      43.233  23.456  25.106  1.00  0.00     0.022 A 
BRANCH  72  76
ATOM     76  S   UNL A   1      42.130  21.202  26.320  1.00  0.00     0.124 S 
ATOM     77  O   UNL A   1      43.119  20.625  25.417  1.00  0.00    -0.237 OA
ATOM     78  O   UNL A   1      42.332  20.948  27.742  1.00  0.00    -0.237 OA
ATOM     79  O   UNL A   1      40.744  21.116  25.864  1.00  0.00    -0.744 OA
ENDBRANCH  72  76
ENDBRANCH  45  69
BRANCH  57  80
ATOM     80  C   UNL A   1      45.914  26.337  33.233  1.00  0.00     0.023 A 
ATOM     81  C   UNL A   1      45.864  25.135  33.960  1.00  0.00     0.031 A 
ATOM     82  C   UNL A   1      47.163  26.965  33.074  1.00  0.00     0.131 A 
ATOM     83  C   UNL A   1      47.032  24.621  34.543  1.00  0.00     0.055 A 
ATOM     84  C   UNL A   1      48.331  26.422  33.613  1.00  0.00     0.041 A 
ATOM     85  F   UNL A   1      47.268  28.115  32.391  1.00  0.00    -0.206 F 
ATOM     86  C   UNL A   1      48.268  25.249  34.362  1.00  0.00     0.022 A 
BRANCH  83  87
ATOM     87  S   UNL A   1      46.907  23.158  35.607  1.00  0.00     0.124 S 
ATOM     88  O   UNL A   1      45.936  23.590  36.607  1.00  0.00    -0.237 OA
ATOM     89  O   UNL A   1      46.449  22.133  34.676  1.00  0.00    -0.237 OA
ATOM     90  O   UNL A   1      48.270  22.977  36.104  1.00  0.00    -0.744 OA
ENDBRANCH  83  87
ENDBRANCH  57  80
ENDBRANCH  31  32
ENDBRANCH  24  26
ENDBRANCH  23  24
ENDBRANCH   1  23
TORSDOF 17
ENDMDL
