MODEL 1
REMARK VINA RESULT:     -12.6      0.000      0.000
REMARK SMILES Cc1cc(N2CCC[C@H]2C2CCCC2)cc(C(=O)OCCOC(=O)c2ccc(-c3c4nc(c(-c5cc(S(=O)(=O)[O-])ccc5F)c5ccc([nH]5)c(-c5cc(S(=O)(=O)[O-])ccc5F)c5nc(c(-c6cc(S(=O)(=O)[O-])ccc6F)c6ccc3[nH]6)C=C5)C=C4)cc2)c1N
REMARK SMILES IDX 21 1 20 2 19 3 17 4 18 5 16 6 1 7 2 8 3 9 88 10 4 11 15 12
REMARK SMILES IDX 89 13 5 16 6 17 9 18 7 19 8 20 10 21 11 22 14 23 12 24 13 25
REMARK SMILES IDX 22 26 23 27 24 28 25 29 26 30 87 31 27 32 86 33 28 34 29 35
REMARK SMILES IDX 30 36 80 37 31 38 85 39 79 40 81 41 32 42 84 43 78 44 77 45
REMARK SMILES IDX 33 47 65 48 45 49 64 50 46 51 49 52 63 53 82 54 47 55 48 56
REMARK SMILES IDX 62 58 83 59 50 60 34 61 35 62 43 63 36 64 42 65 44 66 41 67
REMARK SMILES IDX 37 68 38 69 39 70 40 71 66 72 67 73 75 74 68 75 74 76 76 77
REMARK SMILES IDX 73 78 69 79 70 80 71 81 72 82 51 83 52 84 60 85 53 86 59 87
REMARK SMILES IDX 61 88 58 89 54 90 55 91 56 92 57 93
REMARK H PARENT 89 14 89 15 81 46 49 57
REMARK Flexibility Score: inf
ROOT
ATOM      1  C   UNL A   1      36.126  21.070  25.478  1.00  0.00     0.275 C 
ENDROOT
BRANCH   1   2
ATOM      2  C   UNL A   1      35.360  21.906  26.496  1.00  0.00     0.275 C 
BRANCH   2   3
ATOM      3  O   UNL A   1      34.099  21.277  26.797  1.00  0.00    -0.458 OA
BRANCH   3   4
ATOM      4  C   UNL A   1      33.036  22.112  26.966  1.00  0.00     0.340 C 
ATOM      5  O   UNL A   1      32.564  22.430  28.043  1.00  0.00    -0.246 OA
BRANCH   4   6
ATOM      6  C   UNL A   1      32.437  22.475  25.649  1.00  0.00     0.085 A 
ATOM      7  C   UNL A   1      31.916  21.129  22.124  1.00  0.00     0.047 C 
ATOM      8  C   UNL A   1      32.140  22.068  23.283  1.00  0.00    -0.025 A 
ATOM      9  C   UNL A   1      32.063  23.457  23.080  1.00  0.00     0.031 A 
ATOM     10  C   UNL A   1      32.424  21.573  24.569  1.00  0.00     0.049 A 
ATOM     11  C   UNL A   1      32.099  24.355  24.154  1.00  0.00     0.038 A 
ATOM     12  C   UNL A   1      32.155  23.825  25.435  1.00  0.00     0.043 A 
BRANCH  10  13
ATOM     13  N   UNL A   1      32.432  20.190  24.773  1.00  0.00    -0.398 N 
ATOM     14  H   UNL A   1      31.762  19.776  25.363  1.00  0.00     0.156 HD
ATOM     15  H   UNL A   1      33.109  19.632  24.328  1.00  0.00     0.156 HD
ENDBRANCH  10  13
BRANCH  11  16
ATOM     16  N   UNL A   1      32.180  25.738  24.014  1.00  0.00    -0.368 N 
ATOM     17  C   UNL A   1      31.827  26.323  22.718  1.00  0.00     0.117 C 
ATOM     18  C   UNL A   1      33.401  26.383  24.575  1.00  0.00     0.085 C 
ATOM     19  C   UNL A   1      33.102  27.011  22.257  1.00  0.00     0.024 C 
ATOM     20  C   UNL A   1      33.700  27.510  23.560  1.00  0.00     0.027 C 
BRANCH  18  21
ATOM     21  C   UNL A   1      33.268  26.980  25.998  1.00  0.00     0.011 C 
ATOM     22  C   UNL A   1      33.960  28.331  26.205  1.00  0.00     0.006 C 
ATOM     23  C   UNL A   1      31.856  27.144  26.584  1.00  0.00     0.006 C 
ATOM     24  C   UNL A   1      33.263  28.953  27.403  1.00  0.00     0.000 C 
ATOM     25  C   UNL A   1      31.820  28.500  27.287  1.00  0.00     0.000 C 
ENDBRANCH  18  21
ENDBRANCH  11  16
ENDBRANCH   4   6
ENDBRANCH   3   4
ENDBRANCH   2   3
ENDBRANCH   1   2
BRANCH   1  26
ATOM     26  O   UNL A   1      37.280  21.807  25.042  1.00  0.00    -0.458 OA
BRANCH  26  27
ATOM     27  C   UNL A   1      38.449  21.436  25.611  1.00  0.00     0.338 C 
ATOM     28  O   UNL A   1      39.033  20.368  25.477  1.00  0.00    -0.246 OA
BRANCH  27  29
ATOM     29  C   UNL A   1      39.000  22.548  26.400  1.00  0.00     0.060 A 
ATOM     30  C   UNL A   1      38.522  23.831  26.178  1.00  0.00     0.016 A 
ATOM     31  C   UNL A   1      40.118  22.359  27.210  1.00  0.00     0.016 A 
ATOM     32  C   UNL A   1      39.251  24.926  26.631  1.00  0.00     0.010 A 
ATOM     33  C   UNL A   1      40.763  23.468  27.779  1.00  0.00     0.010 A 
ATOM     34  C   UNL A   1      40.380  24.780  27.445  1.00  0.00    -0.014 A 
BRANCH  34  35
ATOM     35  C   UNL A   1      41.180  25.982  27.864  1.00  0.00     0.031 A 
ATOM     36  C   UNL A   1      40.558  27.041  28.751  1.00  0.00     0.074 A 
ATOM     37  C   UNL A   1      42.481  26.117  27.521  1.00  0.00     0.049 A 
ATOM     38  N   UNL A   1      40.968  28.259  29.002  1.00  0.00    -0.248 NA
ATOM     39  C   UNL A   1      39.300  26.689  29.430  1.00  0.00     0.031 C 
ATOM     40  C   UNL A   1      43.265  25.149  26.748  1.00  0.00     0.029 A 
ATOM     41  N   UNL A   1      43.392  27.111  27.799  1.00  0.00    -0.354 N 
ATOM     42  C   UNL A   1      39.978  28.846  29.790  1.00  0.00     0.074 A 
ATOM     43  C   UNL A   1      38.952  27.845  29.979  1.00  0.00     0.031 C 
ATOM     44  C   UNL A   1      44.542  25.546  26.695  1.00  0.00     0.029 A 
ATOM     45  C   UNL A   1      44.639  26.886  27.256  1.00  0.00     0.049 A 
ATOM     46  H   UNL A   1      43.173  27.909  28.333  1.00  0.00     0.167 HD
ATOM     47  C   UNL A   1      39.933  30.106  30.294  1.00  0.00     0.034 A 
ATOM     48  C   UNL A   1      45.716  27.686  27.125  1.00  0.00     0.034 A 
ATOM     49  C   UNL A   1      41.007  31.063  30.153  1.00  0.00     0.049 A 
ATOM     50  C   UNL A   1      45.619  29.102  27.623  1.00  0.00     0.074 A 
ATOM     51  C   UNL A   1      41.066  32.370  30.608  1.00  0.00     0.029 A 
ATOM     52  N   UNL A   1      42.222  30.811  29.527  1.00  0.00    -0.354 N 
ATOM     53  N   UNL A   1      44.620  29.692  28.239  1.00  0.00    -0.248 NA
ATOM     54  C   UNL A   1      46.779  29.967  27.384  1.00  0.00     0.031 C 
ATOM     55  C   UNL A   1      42.285  32.924  30.204  1.00  0.00     0.029 A 
ATOM     56  C   UNL A   1      43.024  31.941  29.568  1.00  0.00     0.049 A 
ATOM     57  H   UNL A   1      42.475  29.954  29.114  1.00  0.00     0.167 HD
ATOM     58  C   UNL A   1      45.041  30.998  28.469  1.00  0.00     0.074 A 
ATOM     59  C   UNL A   1      46.391  31.097  27.955  1.00  0.00     0.031 C 
ATOM     60  C   UNL A   1      44.367  32.026  29.046  1.00  0.00     0.034 A 
BRANCH  47  61
ATOM     61  C   UNL A   1      38.658  30.551  30.978  1.00  0.00     0.023 A 
ATOM     62  C   UNL A   1      37.594  31.154  30.285  1.00  0.00     0.031 A 
ATOM     63  C   UNL A   1      38.514  30.369  32.368  1.00  0.00     0.131 A 
ATOM     64  C   UNL A   1      36.465  31.605  30.990  1.00  0.00     0.055 A 
ATOM     65  C   UNL A   1      37.355  30.747  33.049  1.00  0.00     0.041 A 
ATOM     66  F   UNL A   1      39.502  29.819  33.090  1.00  0.00    -0.206 F 
ATOM     67  C   UNL A   1      36.326  31.381  32.362  1.00  0.00     0.022 A 
BRANCH  64  68
ATOM     68  S   UNL A   1      35.233  32.607  30.113  1.00  0.00     0.124 S 
ATOM     69  O   UNL A   1      34.232  32.821  31.154  1.00  0.00    -0.237 OA
ATOM     70  O   UNL A   1      36.003  33.780  29.716  1.00  0.00    -0.237 OA
ATOM     71  O   UNL A   1      34.804  31.742  29.016  1.00  0.00    -0.744 OA
ENDBRANCH  64  68
ENDBRANCH  47  61
BRANCH  48  72
ATOM     72  C   UNL A   1      46.923  27.216  26.378  1.00  0.00     0.023 A 
ATOM     73  C   UNL A   1      47.176  27.632  25.061  1.00  0.00     0.031 A 
ATOM     74  C   UNL A   1      47.825  26.303  26.960  1.00  0.00     0.131 A 
ATOM     75  C   UNL A   1      48.278  27.110  24.363  1.00  0.00     0.055 A 
ATOM     76  C   UNL A   1      48.962  25.850  26.290  1.00  0.00     0.041 A 
ATOM     77  F   UNL A   1      47.626  25.850  28.209  1.00  0.00    -0.206 F 
ATOM     78  C   UNL A   1      49.186  26.243  24.976  1.00  0.00     0.022 A 
BRANCH  75  79
ATOM     79  S   UNL A   1      48.449  27.491  22.597  1.00  0.00     0.124 S 
ATOM     80  O   UNL A   1      47.234  28.257  22.342  1.00  0.00    -0.237 OA
ATOM     81  O   UNL A   1      49.699  28.242  22.569  1.00  0.00    -0.237 OA
ATOM     82  O   UNL A   1      48.499  26.174  21.968  1.00  0.00    -0.744 OA
ENDBRANCH  75  79
ENDBRANCH  48  72
BRANCH  60  83
ATOM     83  C   UNL A   1      45.117  33.326  29.196  1.00  0.00     0.023 A 
ATOM     84  C   UNL A   1      45.187  34.264  28.151  1.00  0.00     0.031 A 
ATOM     85  C   UNL A   1      45.802  33.611  30.390  1.00  0.00     0.131 A 
ATOM     86  C   UNL A   1      45.980  35.412  28.297  1.00  0.00     0.055 A 
ATOM     87  C   UNL A   1      46.534  34.786  30.553  1.00  0.00     0.041 A 
ATOM     88  F   UNL A   1      45.773  32.746  31.417  1.00  0.00    -0.206 F 
ATOM     89  C   UNL A   1      46.639  35.687  29.498  1.00  0.00     0.022 A 
BRANCH  86  90
ATOM     90  S   UNL A   1      46.228  36.487  26.857  1.00  0.00     0.124 S 
ATOM     91  O   UNL A   1      47.571  37.005  27.094  1.00  0.00    -0.237 OA
ATOM     92  O   UNL A   1      46.091  35.553  25.744  1.00  0.00    -0.237 OA
ATOM     93  O   UNL A   1      45.153  37.471  26.975  1.00  0.00    -0.744 OA
ENDBRANCH  86  90
ENDBRANCH  60  83
ENDBRANCH  34  35
ENDBRANCH  27  29
ENDBRANCH  26  27
ENDBRANCH   1  26
TORSDOF 17
ENDMDL
MODEL 2
REMARK VINA RESULT:     -12.5      5.059      9.948
REMARK SMILES Cc1cc(N2CCC[C@H]2C2CCCC2)cc(C(=O)OCCOC(=O)c2ccc(-c3c4nc(c(-c5cc(S(=O)(=O)[O-])ccc5F)c5ccc([nH]5)c(-c5cc(S(=O)(=O)[O-])ccc5F)c5nc(c(-c6cc(S(=O)(=O)[O-])ccc6F)c6ccc3[nH]6)C=C5)C=C4)cc2)c1N
REMARK SMILES IDX 21 1 20 2 19 3 17 4 18 5 16 6 1 7 2 8 3 9 88 10 4 11 15 12
REMARK SMILES IDX 89 13 5 16 6 17 9 18 7 19 8 20 10 21 11 22 14 23 12 24 13 25
REMARK SMILES IDX 22 26 23 27 24 28 25 29 26 30 87 31 27 32 86 33 28 34 29 35
REMARK SMILES IDX 30 36 80 37 31 38 85 39 79 40 81 41 32 42 84 43 78 44 77 45
REMARK SMILES IDX 33 47 65 48 45 49 64 50 46 51 49 52 63 53 82 54 47 55 48 56
REMARK SMILES IDX 62 58 83 59 50 60 34 61 35 62 43 63 36 64 42 65 44 66 41 67
REMARK SMILES IDX 37 68 38 69 39 70 40 71 66 72 67 73 75 74 68 75 74 76 76 77
REMARK SMILES IDX 73 78 69 79 70 80 71 81 72 82 51 83 52 84 60 85 53 86 59 87
REMARK SMILES IDX 61 88 58 89 54 90 55 91 56 92 57 93
REMARK H PARENT 89 14 89 15 81 46 49 57
REMARK Flexibility Score: inf
ROOT
ATOM      1  C   UNL A   1      32.355  30.120  25.731  1.00  0.00     0.275 C 
ENDROOT
BRANCH   1   2
ATOM      2  C   UNL A   1      33.292  29.289  24.862  1.00  0.00     0.275 C 
BRANCH   2   3
ATOM      3  O   UNL A   1      32.859  29.339  23.489  1.00  0.00    -0.458 OA
BRANCH   3   4
ATOM      4  C   UNL A   1      33.125  28.236  22.735  1.00  0.00     0.340 C 
ATOM      5  O   UNL A   1      33.989  28.169  21.879  1.00  0.00    -0.246 OA
BRANCH   4   6
ATOM      6  C   UNL A   1      32.123  27.163  22.999  1.00  0.00     0.085 A 
ATOM      7  C   UNL A   1      28.437  26.642  23.809  1.00  0.00     0.047 C 
ATOM      8  C   UNL A   1      29.933  26.461  23.752  1.00  0.00    -0.025 A 
ATOM      9  C   UNL A   1      30.512  25.281  24.252  1.00  0.00     0.031 A 
ATOM     10  C   UNL A   1      30.762  27.456  23.202  1.00  0.00     0.049 A 
ATOM     11  C   UNL A   1      31.872  25.000  24.069  1.00  0.00     0.038 A 
ATOM     12  C   UNL A   1      32.621  25.900  23.324  1.00  0.00     0.043 A 
BRANCH  10  13
ATOM     13  N   UNL A   1      30.170  28.595  22.648  1.00  0.00    -0.398 N 
ATOM     14  H   UNL A   1      29.235  28.816  22.859  1.00  0.00     0.156 HD
ATOM     15  H   UNL A   1      30.690  29.176  22.045  1.00  0.00     0.156 HD
ENDBRANCH  10  13
BRANCH  11  16
ATOM     16  N   UNL A   1      32.536  23.931  24.665  1.00  0.00    -0.368 N 
ATOM     17  C   UNL A   1      31.730  22.877  25.285  1.00  0.00     0.117 C 
ATOM     18  C   UNL A   1      33.706  24.282  25.519  1.00  0.00     0.085 C 
ATOM     19  C   UNL A   1      32.143  22.902  26.748  1.00  0.00     0.024 C 
ATOM     20  C   UNL A   1      33.617  23.255  26.672  1.00  0.00     0.027 C 
BRANCH  18  21
ATOM     21  C   UNL A   1      35.098  24.195  24.845  1.00  0.00     0.011 C 
ATOM     22  C   UNL A   1      36.234  23.716  25.755  1.00  0.00     0.006 C 
ATOM     23  C   UNL A   1      35.225  23.371  23.554  1.00  0.00     0.006 C 
ATOM     24  C   UNL A   1      37.301  23.191  24.811  1.00  0.00     0.000 C 
ATOM     25  C   UNL A   1      36.530  22.582  23.656  1.00  0.00     0.000 C 
ENDBRANCH  18  21
ENDBRANCH  11  16
ENDBRANCH   4   6
ENDBRANCH   3   4
ENDBRANCH   2   3
ENDBRANCH   1   2
BRANCH   1  26
ATOM     26  O   UNL A   1      32.864  30.145  27.075  1.00  0.00    -0.458 OA
BRANCH  26  27
ATOM     27  C   UNL A   1      33.546  31.262  27.412  1.00  0.00     0.338 C 
ATOM     28  O   UNL A   1      33.100  32.398  27.522  1.00  0.00    -0.246 OA
BRANCH  27  29
ATOM     29  C   UNL A   1      34.945  30.928  27.713  1.00  0.00     0.060 A 
ATOM     30  C   UNL A   1      35.279  29.607  27.972  1.00  0.00     0.016 A 
ATOM     31  C   UNL A   1      35.886  31.932  27.933  1.00  0.00     0.016 A 
ATOM     32  C   UNL A   1      36.486  29.310  28.598  1.00  0.00     0.010 A 
ATOM     33  C   UNL A   1      37.155  31.603  28.434  1.00  0.00     0.010 A 
ATOM     34  C   UNL A   1      37.456  30.290  28.839  1.00  0.00    -0.014 A 
BRANCH  34  35
ATOM     35  C   UNL A   1      38.722  29.947  29.574  1.00  0.00     0.031 A 
ATOM     36  C   UNL A   1      39.735  29.008  28.952  1.00  0.00     0.074 A 
ATOM     37  C   UNL A   1      39.020  30.512  30.766  1.00  0.00     0.049 A 
ATOM     38  N   UNL A   1      40.739  28.379  29.511  1.00  0.00    -0.248 NA
ATOM     39  C   UNL A   1      39.588  28.724  27.514  1.00  0.00     0.031 C 
ATOM     40  C   UNL A   1      38.203  31.505  31.468  1.00  0.00     0.029 A 
ATOM     41  N   UNL A   1      40.108  30.354  31.595  1.00  0.00    -0.354 N 
ATOM     42  C   UNL A   1      41.284  27.561  28.522  1.00  0.00     0.074 A 
ATOM     43  C   UNL A   1      40.501  27.781  27.325  1.00  0.00     0.031 C 
ATOM     44  C   UNL A   1      38.853  31.932  32.557  1.00  0.00     0.029 A 
ATOM     45  C   UNL A   1      40.039  31.110  32.746  1.00  0.00     0.049 A 
ATOM     46  H   UNL A   1      40.863  29.757  31.387  1.00  0.00     0.167 HD
ATOM     47  C   UNL A   1      42.332  26.703  28.615  1.00  0.00     0.034 A 
ATOM     48  C   UNL A   1      40.775  31.090  33.875  1.00  0.00     0.034 A 
ATOM     49  C   UNL A   1      43.144  26.558  29.802  1.00  0.00     0.049 A 
ATOM     50  C   UNL A   1      41.884  30.081  33.987  1.00  0.00     0.074 A 
ATOM     51  C   UNL A   1      44.219  25.712  30.015  1.00  0.00     0.029 A 
ATOM     52  N   UNL A   1      42.986  27.294  30.970  1.00  0.00    -0.354 N 
ATOM     53  N   UNL A   1      42.298  29.209  33.097  1.00  0.00    -0.248 NA
ATOM     54  C   UNL A   1      42.606  30.030  35.264  1.00  0.00     0.031 C 
ATOM     55  C   UNL A   1      44.669  25.890  31.328  1.00  0.00     0.029 A 
ATOM     56  C   UNL A   1      43.930  26.907  31.909  1.00  0.00     0.049 A 
ATOM     57  H   UNL A   1      42.304  27.989  31.110  1.00  0.00     0.167 HD
ATOM     58  C   UNL A   1      43.338  28.514  33.707  1.00  0.00     0.074 A 
ATOM     59  C   UNL A   1      43.506  29.090  35.024  1.00  0.00     0.031 C 
ATOM     60  C   UNL A   1      44.081  27.486  33.223  1.00  0.00     0.034 A 
BRANCH  47  61
ATOM     61  C   UNL A   1      42.615  25.799  27.434  1.00  0.00     0.023 A 
ATOM     62  C   UNL A   1      42.122  24.486  27.345  1.00  0.00     0.031 A 
ATOM     63  C   UNL A   1      43.411  26.273  26.372  1.00  0.00     0.131 A 
ATOM     64  C   UNL A   1      42.478  23.677  26.253  1.00  0.00     0.055 A 
ATOM     65  C   UNL A   1      43.694  25.489  25.251  1.00  0.00     0.041 A 
ATOM     66  F   UNL A   1      43.930  27.510  26.406  1.00  0.00    -0.206 F 
ATOM     67  C   UNL A   1      43.237  24.178  25.192  1.00  0.00     0.022 A 
BRANCH  64  68
ATOM     68  S   UNL A   1      42.043  21.916  26.295  1.00  0.00     0.124 S 
ATOM     69  O   UNL A   1      40.605  21.961  26.042  1.00  0.00    -0.237 OA
ATOM     70  O   UNL A   1      42.863  21.361  25.224  1.00  0.00    -0.237 OA
ATOM     71  O   UNL A   1      42.417  21.501  27.645  1.00  0.00    -0.744 OA
ENDBRANCH  64  68
ENDBRANCH  47  61
BRANCH  48  72
ATOM     72  C   UNL A   1      40.406  31.957  35.037  1.00  0.00     0.023 A 
ATOM     73  C   UNL A   1      39.430  31.559  35.964  1.00  0.00     0.031 A 
ATOM     74  C   UNL A   1      40.995  33.224  35.212  1.00  0.00     0.131 A 
ATOM     75  C   UNL A   1      39.052  32.431  37.000  1.00  0.00     0.055 A 
ATOM     76  C   UNL A   1      40.674  34.053  36.287  1.00  0.00     0.041 A 
ATOM     77  F   UNL A   1      41.918  33.672  34.345  1.00  0.00    -0.206 F 
ATOM     78  C   UNL A   1      39.685  33.663  37.181  1.00  0.00     0.022 A 
BRANCH  75  79
ATOM     79  S   UNL A   1      37.637  31.982  38.042  1.00  0.00     0.124 S 
ATOM     80  O   UNL A   1      38.156  32.254  39.378  1.00  0.00    -0.237 OA
ATOM     81  O   UNL A   1      36.604  32.890  37.558  1.00  0.00    -0.237 OA
ATOM     82  O   UNL A   1      37.422  30.570  37.732  1.00  0.00    -0.744 OA
ENDBRANCH  75  79
ENDBRANCH  48  72
BRANCH  60  83
ATOM     83  C   UNL A   1      45.179  26.967  34.117  1.00  0.00     0.023 A 
ATOM     84  C   UNL A   1      44.972  25.884  34.989  1.00  0.00     0.031 A 
ATOM     85  C   UNL A   1      46.439  27.590  34.121  1.00  0.00     0.131 A 
ATOM     86  C   UNL A   1      45.988  25.499  35.876  1.00  0.00     0.055 A 
ATOM     87  C   UNL A   1      47.467  27.161  34.958  1.00  0.00     0.041 A 
ATOM     88  F   UNL A   1      46.687  28.633  33.312  1.00  0.00    -0.206 F 
ATOM     89  C   UNL A   1      47.240  26.120  35.853  1.00  0.00     0.022 A 
BRANCH  86  90
ATOM     90  S   UNL A   1      45.615  24.250  37.137  1.00  0.00     0.124 S 
ATOM     91  O   UNL A   1      44.962  23.210  36.350  1.00  0.00    -0.237 OA
ATOM     92  O   UNL A   1      46.940  23.923  37.653  1.00  0.00    -0.237 OA
ATOM     93  O   UNL A   1      44.744  24.958  38.073  1.00  0.00    -0.744 OA
ENDBRANCH  86  90
ENDBRANCH  60  83
ENDBRANCH  34  35
ENDBRANCH  27  29
ENDBRANCH  26  27
ENDBRANCH   1  26
TORSDOF 17
ENDMDL
MODEL 3
REMARK VINA RESULT:     -12.5      4.953      9.936
REMARK SMILES Cc1cc(N2CCC[C@H]2C2CCCC2)cc(C(=O)OCCOC(=O)c2ccc(-c3c4nc(c(-c5cc(S(=O)(=O)[O-])ccc5F)c5ccc([nH]5)c(-c5cc(S(=O)(=O)[O-])ccc5F)c5nc(c(-c6cc(S(=O)(=O)[O-])ccc6F)c6ccc3[nH]6)C=C5)C=C4)cc2)c1N
REMARK SMILES IDX 21 1 20 2 19 3 17 4 18 5 16 6 1 7 2 8 3 9 88 10 4 11 15 12
REMARK SMILES IDX 89 13 5 16 6 17 9 18 7 19 8 20 10 21 11 22 14 23 12 24 13 25
REMARK SMILES IDX 22 26 23 27 24 28 25 29 26 30 87 31 27 32 86 33 28 34 29 35
REMARK SMILES IDX 30 36 80 37 31 38 85 39 79 40 81 41 32 42 84 43 78 44 77 45
REMARK SMILES IDX 33 47 65 48 45 49 64 50 46 51 49 52 63 53 82 54 47 55 48 56
REMARK SMILES IDX 62 58 83 59 50 60 34 61 35 62 43 63 36 64 42 65 44 66 41 67
REMARK SMILES IDX 37 68 38 69 39 70 40 71 66 72 67 73 75 74 68 75 74 76 76 77
REMARK SMILES IDX 73 78 69 79 70 80 71 81 72 82 51 83 52 84 60 85 53 86 59 87
REMARK SMILES IDX 61 88 58 89 54 90 55 91 56 92 57 93
REMARK H PARENT 89 14 89 15 81 46 49 57
REMARK Flexibility Score: inf
ROOT
ATOM      1  C   UNL A   1      31.541  30.444  25.855  1.00  0.00     0.275 C 
ENDROOT
BRANCH   1   2
ATOM      2  C   UNL A   1      31.470  28.999  25.374  1.00  0.00     0.275 C 
BRANCH   2   3
ATOM      3  O   UNL A   1      32.405  28.795  24.297  1.00  0.00    -0.458 OA
BRANCH   3   4
ATOM      4  C   UNL A   1      33.525  28.082  24.601  1.00  0.00     0.340 C 
ATOM      5  O   UNL A   1      34.420  28.467  25.332  1.00  0.00    -0.246 OA
BRANCH   4   6
ATOM      6  C   UNL A   1      33.578  26.820  23.806  1.00  0.00     0.085 A 
ATOM      7  C   UNL A   1      32.728  25.408  20.372  1.00  0.00     0.047 C 
ATOM      8  C   UNL A   1      32.956  25.527  21.857  1.00  0.00    -0.025 A 
ATOM      9  C   UNL A   1      32.942  24.373  22.660  1.00  0.00     0.031 A 
ATOM     10  C   UNL A   1      33.185  26.780  22.456  1.00  0.00     0.049 A 
ATOM     11  C   UNL A   1      33.311  24.418  24.010  1.00  0.00     0.038 A 
ATOM     12  C   UNL A   1      33.749  25.632  24.519  1.00  0.00     0.043 A 
BRANCH  10  13
ATOM     13  N   UNL A   1      33.262  27.913  21.640  1.00  0.00    -0.398 N 
ATOM     14  H   UNL A   1      32.440  28.326  21.291  1.00  0.00     0.156 HD
ATOM     15  H   UNL A   1      34.140  28.296  21.412  1.00  0.00     0.156 HD
ENDBRANCH  10  13
BRANCH  11  16
ATOM     16  N   UNL A   1      33.175  23.349  24.893  1.00  0.00    -0.368 N 
ATOM     17  C   UNL A   1      31.823  22.889  25.218  1.00  0.00     0.117 C 
ATOM     18  C   UNL A   1      34.030  23.397  26.113  1.00  0.00     0.085 C 
ATOM     19  C   UNL A   1      31.707  23.097  26.719  1.00  0.00     0.024 C 
ATOM     20  C   UNL A   1      33.113  22.801  27.206  1.00  0.00     0.027 C 
BRANCH  18  21
ATOM     21  C   UNL A   1      35.358  22.600  26.052  1.00  0.00     0.011 C 
ATOM     22  C   UNL A   1      35.233  21.164  25.531  1.00  0.00     0.006 C 
ATOM     23  C   UNL A   1      36.536  23.219  25.282  1.00  0.00     0.006 C 
ATOM     24  C   UNL A   1      36.624  20.798  25.044  1.00  0.00     0.000 C 
ATOM     25  C   UNL A   1      37.190  22.089  24.486  1.00  0.00     0.000 C 
ENDBRANCH  18  21
ENDBRANCH  11  16
ENDBRANCH   4   6
ENDBRANCH   3   4
ENDBRANCH   2   3
ENDBRANCH   1   2
BRANCH   1  26
ATOM     26  O   UNL A   1      32.277  30.491  27.088  1.00  0.00    -0.458 OA
BRANCH  26  27
ATOM     27  C   UNL A   1      32.973  31.630  27.301  1.00  0.00     0.338 C 
ATOM     28  O   UNL A   1      32.543  32.777  27.275  1.00  0.00    -0.246 OA
BRANCH  27  29
ATOM     29  C   UNL A   1      34.366  31.313  27.650  1.00  0.00     0.060 A 
ATOM     30  C   UNL A   1      34.691  30.010  27.997  1.00  0.00     0.016 A 
ATOM     31  C   UNL A   1      35.304  32.328  27.826  1.00  0.00     0.016 A 
ATOM     32  C   UNL A   1      35.884  29.752  28.665  1.00  0.00     0.010 A 
ATOM     33  C   UNL A   1      36.562  32.029  28.373  1.00  0.00     0.010 A 
ATOM     34  C   UNL A   1      36.852  30.743  28.865  1.00  0.00    -0.014 A 
BRANCH  34  35
ATOM     35  C   UNL A   1      38.101  30.445  29.645  1.00  0.00     0.031 A 
ATOM     36  C   UNL A   1      39.191  29.584  29.040  1.00  0.00     0.074 A 
ATOM     37  C   UNL A   1      38.315  30.985  30.866  1.00  0.00     0.049 A 
ATOM     38  N   UNL A   1      40.203  28.992  29.625  1.00  0.00    -0.248 NA
ATOM     39  C   UNL A   1      39.123  29.340  27.590  1.00  0.00     0.031 C 
ATOM     40  C   UNL A   1      37.414  31.909  31.561  1.00  0.00     0.029 A 
ATOM     41  N   UNL A   1      39.373  30.860  31.739  1.00  0.00    -0.354 N 
ATOM     42  C   UNL A   1      40.835  28.238  28.637  1.00  0.00     0.074 A 
ATOM     43  C   UNL A   1      40.094  28.455  27.413  1.00  0.00     0.031 C 
ATOM     44  C   UNL A   1      37.992  32.334  32.691  1.00  0.00     0.029 A 
ATOM     45  C   UNL A   1      39.212  31.572  32.907  1.00  0.00     0.049 A 
ATOM     46  H   UNL A   1      40.168  30.312  31.546  1.00  0.00     0.167 HD
ATOM     47  C   UNL A   1      41.924  27.436  28.751  1.00  0.00     0.034 A 
ATOM     48  C   UNL A   1      39.899  31.555  34.068  1.00  0.00     0.034 A 
ATOM     49  C   UNL A   1      42.691  27.295  29.968  1.00  0.00     0.049 A 
ATOM     50  C   UNL A   1      41.057  30.604  34.199  1.00  0.00     0.074 A 
ATOM     51  C   UNL A   1      43.801  26.502  30.204  1.00  0.00     0.029 A 
ATOM     52  N   UNL A   1      42.442  27.982  31.150  1.00  0.00    -0.354 N 
ATOM     53  N   UNL A   1      41.557  29.785  33.301  1.00  0.00    -0.248 NA
ATOM     54  C   UNL A   1      41.724  30.550  35.504  1.00  0.00     0.031 C 
ATOM     55  C   UNL A   1      44.183  26.661  31.540  1.00  0.00     0.029 A 
ATOM     56  C   UNL A   1      43.364  27.616  32.118  1.00  0.00     0.049 A 
ATOM     57  H   UNL A   1      41.717  28.635  31.280  1.00  0.00     0.167 HD
ATOM     58  C   UNL A   1      42.606  29.128  33.936  1.00  0.00     0.074 A 
ATOM     59  C   UNL A   1      42.684  29.668  35.277  1.00  0.00     0.031 C 
ATOM     60  C   UNL A   1      43.425  28.158  33.455  1.00  0.00     0.034 A 
BRANCH  47  61
ATOM     61  C   UNL A   1      42.308  26.588  27.556  1.00  0.00     0.023 A 
ATOM     62  C   UNL A   1      41.892  25.255  27.404  1.00  0.00     0.031 A 
ATOM     63  C   UNL A   1      43.123  27.139  26.547  1.00  0.00     0.131 A 
ATOM     64  C   UNL A   1      42.339  24.503  26.305  1.00  0.00     0.055 A 
ATOM     65  C   UNL A   1      43.498  26.409  25.417  1.00  0.00     0.041 A 
ATOM     66  F   UNL A   1      43.572  28.400  26.643  1.00  0.00    -0.206 F 
ATOM     67  C   UNL A   1      43.116  25.078  25.296  1.00  0.00     0.022 A 
BRANCH  64  68
ATOM     68  S   UNL A   1      41.999  22.720  26.272  1.00  0.00     0.124 S 
ATOM     69  O   UNL A   1      40.539  22.699  26.275  1.00  0.00    -0.237 OA
ATOM     70  O   UNL A   1      42.643  22.298  25.033  1.00  0.00    -0.237 OA
ATOM     71  O   UNL A   1      42.624  22.228  27.498  1.00  0.00    -0.744 OA
ENDBRANCH  64  68
ENDBRANCH  47  61
BRANCH  48  72
ATOM     72  C   UNL A   1      39.432  32.361  35.238  1.00  0.00     0.023 A 
ATOM     73  C   UNL A   1      39.837  33.693  35.415  1.00  0.00     0.031 A 
ATOM     74  C   UNL A   1      38.604  31.792  36.225  1.00  0.00     0.131 A 
ATOM     75  C   UNL A   1      39.441  34.396  36.567  1.00  0.00     0.055 A 
ATOM     76  C   UNL A   1      38.150  32.519  37.326  1.00  0.00     0.041 A 
ATOM     77  F   UNL A   1      38.202  30.514  36.124  1.00  0.00    -0.206 F 
ATOM     78  C   UNL A   1      38.581  33.827  37.508  1.00  0.00     0.022 A 
BRANCH  75  79
ATOM     79  S   UNL A   1      40.161  36.033  36.876  1.00  0.00     0.124 S 
ATOM     80  O   UNL A   1      39.372  36.492  38.013  1.00  0.00    -0.237 OA
ATOM     81  O   UNL A   1      41.555  35.703  37.152  1.00  0.00    -0.237 OA
ATOM     82  O   UNL A   1      39.927  36.749  35.624  1.00  0.00    -0.744 OA
ENDBRANCH  75  79
ENDBRANCH  48  72
BRANCH  60  83
ATOM     83  C   UNL A   1      44.511  27.670  34.381  1.00  0.00     0.023 A 
ATOM     84  C   UNL A   1      44.338  26.531  35.187  1.00  0.00     0.031 A 
ATOM     85  C   UNL A   1      45.721  28.377  34.484  1.00  0.00     0.131 A 
ATOM     86  C   UNL A   1      45.332  26.172  36.108  1.00  0.00     0.055 A 
ATOM     87  C   UNL A   1      46.733  27.977  35.354  1.00  0.00     0.041 A 
ATOM     88  F   UNL A   1      45.935  29.476  33.741  1.00  0.00    -0.206 F 
ATOM     89  C   UNL A   1      46.536  26.877  36.184  1.00  0.00     0.022 A 
BRANCH  86  90
ATOM     90  S   UNL A   1      44.986  24.836  37.285  1.00  0.00     0.124 S 
ATOM     91  O   UNL A   1      43.922  25.417  38.098  1.00  0.00    -0.237 OA
ATOM     92  O   UNL A   1      44.592  23.740  36.407  1.00  0.00    -0.237 OA
ATOM     93  O   UNL A   1      46.261  24.649  37.976  1.00  0.00    -0.744 OA
ENDBRANCH  86  90
ENDBRANCH  60  83
ENDBRANCH  34  35
ENDBRANCH  27  29
ENDBRANCH  26  27
ENDBRANCH   1  26
TORSDOF 17
ENDMDL
