MODEL 1
REMARK VINA RESULT:     -11.9      0.000      0.000
REMARK SMILES [NH3+][C@@H](CNc1ccc(C(=O)OCCOC(=O)c2ccc(-c3c4nc(c(-c5cc(S(=O)(=O)[O-])ccc5F)c5ccc([nH]5)c(-c5cc(S(=O)(=O)[O-])ccc5F)c5nc(c(-c6cc(S(=O)(=O)[O-])ccc6F)c6ccc3[nH]6)C=C5)C=C4)cc2)c(F)c1F)c1ccccc1
REMARK SMILES IDX 12 1 11 2 9 3 10 4 8 5 5 6 6 7 82 8 7 9 80 10 83 11 81 12
REMARK SMILES IDX 4 13 3 15 2 16 1 17 84 21 85 22 89 23 86 24 88 25 87 26
REMARK SMILES IDX 13 27 14 28 15 29 16 30 17 31 18 32 79 33 19 34 78 35 20 36
REMARK SMILES IDX 21 37 22 38 72 39 23 40 77 41 71 42 73 43 24 44 76 45 70 46
REMARK SMILES IDX 69 47 25 49 57 50 37 51 56 52 38 53 41 54 55 55 74 56 39 57
REMARK SMILES IDX 40 58 54 60 75 61 42 62 26 63 27 64 35 65 28 66 34 67 36 68
REMARK SMILES IDX 33 69 29 70 30 71 31 72 32 73 58 74 59 75 67 76 60 77 66 78
REMARK SMILES IDX 68 79 65 80 61 81 62 82 63 83 64 84 43 85 44 86 52 87 45 88
REMARK SMILES IDX 51 89 53 90 50 91 46 92 47 93 48 94 49 95
REMARK H PARENT 4 14 1 18 1 19 1 20 73 48 41 59
REMARK Flexibility Score: inf
ROOT
ATOM      1  C   UNL A   1      35.542  20.755  24.996  1.00  0.00     0.275 C 
ENDROOT
BRANCH   1   2
ATOM      2  O   UNL A   1      35.139  22.029  25.539  1.00  0.00    -0.458 OA
BRANCH   2   3
ATOM      3  C   UNL A   1      33.853  22.388  25.314  1.00  0.00     0.341 C 
ATOM      4  O   UNL A   1      32.870  21.666  25.394  1.00  0.00    -0.246 OA
BRANCH   3   5
ATOM      5  C   UNL A   1      33.738  23.835  25.058  1.00  0.00     0.099 A 
ATOM      6  C   UNL A   1      33.441  26.610  24.654  1.00  0.00     0.074 A 
ATOM      7  C   UNL A   1      33.293  26.063  25.927  1.00  0.00     0.030 A 
ATOM      8  C   UNL A   1      33.705  25.732  23.584  1.00  0.00     0.182 A 
ATOM      9  C   UNL A   1      33.406  24.685  26.122  1.00  0.00     0.021 A 
ATOM     10  C   UNL A   1      33.874  24.363  23.782  1.00  0.00     0.175 A 
ATOM     11  F   UNL A   1      33.787  26.227  22.337  1.00  0.00    -0.201 F 
ATOM     12  F   UNL A   1      34.110  23.570  22.725  1.00  0.00    -0.203 F 
BRANCH   6  13
ATOM     13  N   UNL A   1      33.330  27.983  24.426  1.00  0.00    -0.376 N 
ATOM     14  H   UNL A   1      34.127  28.518  24.206  1.00  0.00     0.160 HD
BRANCH  13  15
ATOM     15  C   UNL A   1      32.006  28.622  24.518  1.00  0.00     0.183 C 
BRANCH  15  16
ATOM     16  C   UNL A   1      31.289  28.654  23.127  1.00  0.00     0.231 C 
BRANCH  16  17
ATOM     17  N   UNL A   1      32.090  29.385  22.119  1.00  0.00    -0.350 N 
ATOM     18  H   UNL A   1      32.729  28.737  21.659  1.00  0.00     0.345 HD
ATOM     19  H   UNL A   1      32.624  30.121  22.580  1.00  0.00     0.345 HD
ATOM     20  H   UNL A   1      31.467  29.799  21.426  1.00  0.00     0.345 HD
ENDBRANCH  16  17
BRANCH  16  21
ATOM     21  C   UNL A   1      29.872  29.200  23.279  1.00  0.00     0.011 A 
ATOM     22  C   UNL A   1      28.728  28.421  23.040  1.00  0.00     0.010 A 
ATOM     23  C   UNL A   1      29.696  30.566  23.562  1.00  0.00     0.010 A 
ATOM     24  C   UNL A   1      27.456  28.995  23.045  1.00  0.00     0.001 A 
ATOM     25  C   UNL A   1      28.422  31.138  23.573  1.00  0.00     0.001 A 
ATOM     26  C   UNL A   1      27.304  30.354  23.305  1.00  0.00     0.000 A 
ENDBRANCH  16  21
ENDBRANCH  15  16
ENDBRANCH  13  15
ENDBRANCH   6  13
ENDBRANCH   3   5
ENDBRANCH   2   3
ENDBRANCH   1   2
BRANCH   1  27
ATOM     27  C   UNL A   1      37.064  20.623  24.976  1.00  0.00     0.275 C 
BRANCH  27  28
ATOM     28  O   UNL A   1      37.658  21.715  25.701  1.00  0.00    -0.458 OA
BRANCH  28  29
ATOM     29  C   UNL A   1      38.947  21.538  26.069  1.00  0.00     0.338 C 
ATOM     30  O   UNL A   1      39.649  20.561  25.870  1.00  0.00    -0.246 OA
BRANCH  29  31
ATOM     31  C   UNL A   1      39.442  22.750  26.742  1.00  0.00     0.060 A 
ATOM     32  C   UNL A   1      38.915  23.984  26.378  1.00  0.00     0.016 A 
ATOM     33  C   UNL A   1      40.527  22.686  27.613  1.00  0.00     0.016 A 
ATOM     34  C   UNL A   1      39.540  25.163  26.784  1.00  0.00     0.010 A 
ATOM     35  C   UNL A   1      41.078  23.873  28.117  1.00  0.00     0.010 A 
ATOM     36  C   UNL A   1      40.625  25.130  27.673  1.00  0.00    -0.014 A 
BRANCH  36  37
ATOM     37  C   UNL A   1      41.308  26.393  28.102  1.00  0.00     0.031 A 
ATOM     38  C   UNL A   1      40.535  27.457  28.849  1.00  0.00     0.074 A 
ATOM     39  C   UNL A   1      42.616  26.599  27.836  1.00  0.00     0.049 A 
ATOM     40  N   UNL A   1      40.875  28.691  29.122  1.00  0.00    -0.248 NA
ATOM     41  C   UNL A   1      39.197  27.087  29.337  1.00  0.00     0.031 C 
ATOM     42  C   UNL A   1      43.507  25.649  27.165  1.00  0.00     0.029 A 
ATOM     43  N   UNL A   1      43.431  27.677  28.097  1.00  0.00    -0.354 N 
ATOM     44  C   UNL A   1      39.770  29.265  29.748  1.00  0.00     0.074 A 
ATOM     45  C   UNL A   1      38.750  28.240  29.813  1.00  0.00     0.031 C 
ATOM     46  C   UNL A   1      44.742  26.168  27.101  1.00  0.00     0.029 A 
ATOM     47  C   UNL A   1      44.716  27.528  27.623  1.00  0.00     0.049 A 
ATOM     48  H   UNL A   1      43.123  28.479  28.578  1.00  0.00     0.167 HD
ATOM     49  C   UNL A   1      39.620  30.529  30.218  1.00  0.00     0.034 A 
ATOM     50  C   UNL A   1      45.744  28.399  27.554  1.00  0.00     0.034 A 
ATOM     51  C   UNL A   1      40.667  31.524  30.208  1.00  0.00     0.049 A 
ATOM     52  C   UNL A   1      45.544  29.805  28.062  1.00  0.00     0.074 A 
ATOM     53  C   UNL A   1      40.626  32.820  30.695  1.00  0.00     0.029 A 
ATOM     54  N   UNL A   1      41.944  31.333  29.700  1.00  0.00    -0.354 N 
ATOM     55  N   UNL A   1      44.474  30.344  28.599  1.00  0.00    -0.248 NA
ATOM     56  C   UNL A   1      46.684  30.722  27.941  1.00  0.00     0.031 C 
ATOM     57  C   UNL A   1      41.856  33.430  30.429  1.00  0.00     0.029 A 
ATOM     58  C   UNL A   1      42.690  32.493  29.841  1.00  0.00     0.049 A 
ATOM     59  H   UNL A   1      42.273  30.496  29.299  1.00  0.00     0.167 HD
ATOM     60  C   UNL A   1      44.825  31.658  28.897  1.00  0.00     0.074 A 
ATOM     61  C   UNL A   1      46.208  31.822  28.504  1.00  0.00     0.031 C 
ATOM     62  C   UNL A   1      44.068  32.644  29.443  1.00  0.00     0.034 A 
BRANCH  49  63
ATOM     63  C   UNL A   1      38.259  30.937  30.730  1.00  0.00     0.023 A 
ATOM     64  C   UNL A   1      37.285  31.514  29.900  1.00  0.00     0.031 A 
ATOM     65  C   UNL A   1      37.932  30.725  32.083  1.00  0.00     0.131 A 
ATOM     66  C   UNL A   1      36.047  31.903  30.441  1.00  0.00     0.055 A 
ATOM     67  C   UNL A   1      36.677  31.049  32.599  1.00  0.00     0.041 A 
ATOM     68  F   UNL A   1      38.831  30.194  32.926  1.00  0.00    -0.206 F 
ATOM     69  C   UNL A   1      35.728  31.651  31.778  1.00  0.00     0.022 A 
BRANCH  66  70
ATOM     70  S   UNL A   1      34.896  32.835  29.396  1.00  0.00     0.124 S 
ATOM     71  O   UNL A   1      34.138  33.590  30.393  1.00  0.00    -0.237 OA
ATOM     72  O   UNL A   1      35.795  33.616  28.554  1.00  0.00    -0.237 OA
ATOM     73  O   UNL A   1      34.139  31.794  28.705  1.00  0.00    -0.744 OA
ENDBRANCH  66  70
ENDBRANCH  49  63
BRANCH  50  74
ATOM     74  C   UNL A   1      47.031  28.007  26.905  1.00  0.00     0.023 A 
ATOM     75  C   UNL A   1      47.183  28.043  25.511  1.00  0.00     0.031 A 
ATOM     76  C   UNL A   1      48.110  27.526  27.671  1.00  0.00     0.131 A 
ATOM     77  C   UNL A   1      48.363  27.559  24.923  1.00  0.00     0.055 A 
ATOM     78  C   UNL A   1      49.307  27.112  27.086  1.00  0.00     0.041 A 
ATOM     79  F   UNL A   1      48.018  27.462  29.009  1.00  0.00    -0.206 F 
ATOM     80  C   UNL A   1      49.432  27.110  25.702  1.00  0.00     0.022 A 
BRANCH  77  81
ATOM     81  S   UNL A   1      48.437  27.415  23.115  1.00  0.00     0.124 S 
ATOM     82  O   UNL A   1      48.359  25.970  22.930  1.00  0.00    -0.237 OA
ATOM     83  O   UNL A   1      47.265  28.180  22.703  1.00  0.00    -0.237 OA
ATOM     84  O   UNL A   1      49.725  28.018  22.778  1.00  0.00    -0.744 OA
ENDBRANCH  77  81
ENDBRANCH  50  74
BRANCH  62  85
ATOM     85  C   UNL A   1      44.749  33.967  29.692  1.00  0.00     0.023 A 
ATOM     86  C   UNL A   1      44.763  34.985  28.724  1.00  0.00     0.031 A 
ATOM     87  C   UNL A   1      45.411  34.201  30.910  1.00  0.00     0.131 A 
ATOM     88  C   UNL A   1      45.477  36.168  28.966  1.00  0.00     0.055 A 
ATOM     89  C   UNL A   1      46.071  35.403  31.168  1.00  0.00     0.041 A 
ATOM     90  F   UNL A   1      45.430  33.260  31.869  1.00  0.00    -0.206 F 
ATOM     91  C   UNL A   1      46.118  36.389  30.187  1.00  0.00     0.022 A 
BRANCH  88  92
ATOM     92  S   UNL A   1      45.633  37.381  27.625  1.00  0.00     0.124 S 
ATOM     93  O   UNL A   1      46.148  36.562  26.533  1.00  0.00    -0.237 OA
ATOM     94  O   UNL A   1      44.262  37.857  27.474  1.00  0.00    -0.237 OA
ATOM     95  O   UNL A   1      46.575  38.363  28.160  1.00  0.00    -0.744 OA
ENDBRANCH  88  92
ENDBRANCH  62  85
ENDBRANCH  36  37
ENDBRANCH  29  31
ENDBRANCH  28  29
ENDBRANCH  27  28
ENDBRANCH   1  27
TORSDOF 19
ENDMDL
MODEL 2
REMARK VINA RESULT:     -11.8      1.763      2.153
REMARK SMILES [NH3+][C@@H](CNc1ccc(C(=O)OCCOC(=O)c2ccc(-c3c4nc(c(-c5cc(S(=O)(=O)[O-])ccc5F)c5ccc([nH]5)c(-c5cc(S(=O)(=O)[O-])ccc5F)c5nc(c(-c6cc(S(=O)(=O)[O-])ccc6F)c6ccc3[nH]6)C=C5)C=C4)cc2)c(F)c1F)c1ccccc1
REMARK SMILES IDX 12 1 11 2 9 3 10 4 8 5 5 6 6 7 82 8 7 9 80 10 83 11 81 12
REMARK SMILES IDX 4 13 3 15 2 16 1 17 84 21 85 22 89 23 86 24 88 25 87 26
REMARK SMILES IDX 13 27 14 28 15 29 16 30 17 31 18 32 79 33 19 34 78 35 20 36
REMARK SMILES IDX 21 37 22 38 72 39 23 40 77 41 71 42 73 43 24 44 76 45 70 46
REMARK SMILES IDX 69 47 25 49 57 50 37 51 56 52 38 53 41 54 55 55 74 56 39 57
REMARK SMILES IDX 40 58 54 60 75 61 42 62 26 63 27 64 35 65 28 66 34 67 36 68
REMARK SMILES IDX 33 69 29 70 30 71 31 72 32 73 58 74 59 75 67 76 60 77 66 78
REMARK SMILES IDX 68 79 65 80 61 81 62 82 63 83 64 84 43 85 44 86 52 87 45 88
REMARK SMILES IDX 51 89 53 90 50 91 46 92 47 93 48 94 49 95
REMARK H PARENT 4 14 1 18 1 19 1 20 73 48 41 59
REMARK Flexibility Score: inf
ROOT
ATOM      1  C   UNL A   1      35.036  20.568  25.118  1.00  0.00     0.275 C 
ENDROOT
BRANCH   1   2
ATOM      2  O   UNL A   1      34.385  21.454  24.184  1.00  0.00    -0.458 OA
BRANCH   2   3
ATOM      3  C   UNL A   1      33.509  22.337  24.718  1.00  0.00     0.341 C 
ATOM      4  O   UNL A   1      32.856  22.188  25.739  1.00  0.00    -0.246 OA
BRANCH   3   5
ATOM      5  C   UNL A   1      33.505  23.606  23.968  1.00  0.00     0.099 A 
ATOM      6  C   UNL A   1      33.480  26.090  22.633  1.00  0.00     0.074 A 
ATOM      7  C   UNL A   1      33.958  25.996  23.939  1.00  0.00     0.030 A 
ATOM      8  C   UNL A   1      32.981  24.920  22.027  1.00  0.00     0.182 A 
ATOM      9  C   UNL A   1      33.940  24.773  24.612  1.00  0.00     0.021 A 
ATOM     10  C   UNL A   1      33.011  23.686  22.674  1.00  0.00     0.175 A 
ATOM     11  F   UNL A   1      32.454  24.997  20.793  1.00  0.00    -0.201 F 
ATOM     12  F   UNL A   1      32.510  22.606  22.054  1.00  0.00    -0.203 F 
BRANCH   6  13
ATOM     13  N   UNL A   1      33.481  27.298  21.934  1.00  0.00    -0.376 N 
ATOM     14  H   UNL A   1      33.684  27.317  20.971  1.00  0.00     0.160 HD
BRANCH  13  15
ATOM     15  C   UNL A   1      33.177  28.546  22.656  1.00  0.00     0.183 C 
BRANCH  15  16
ATOM     16  C   UNL A   1      31.672  28.605  23.085  1.00  0.00     0.231 C 
BRANCH  16  17
ATOM     17  N   UNL A   1      30.964  29.728  22.432  1.00  0.00    -0.350 N 
ATOM     18  H   UNL A   1      30.696  30.416  23.136  1.00  0.00     0.345 HD
ATOM     19  H   UNL A   1      30.128  29.377  21.964  1.00  0.00     0.345 HD
ATOM     20  H   UNL A   1      31.579  30.165  21.746  1.00  0.00     0.345 HD
ENDBRANCH  16  17
BRANCH  16  21
ATOM     21  C   UNL A   1      31.561  28.627  24.607  1.00  0.00     0.011 A 
ATOM     22  C   UNL A   1      31.922  29.744  25.378  1.00  0.00     0.010 A 
ATOM     23  C   UNL A   1      31.188  27.450  25.279  1.00  0.00     0.010 A 
ATOM     24  C   UNL A   1      31.949  29.675  26.772  1.00  0.00     0.001 A 
ATOM     25  C   UNL A   1      31.208  27.384  26.674  1.00  0.00     0.001 A 
ATOM     26  C   UNL A   1      31.597  28.493  27.419  1.00  0.00     0.000 A 
ENDBRANCH  16  21
ENDBRANCH  15  16
ENDBRANCH  13  15
ENDBRANCH   6  13
ENDBRANCH   3   5
ENDBRANCH   2   3
ENDBRANCH   1   2
BRANCH   1  27
ATOM     27  C   UNL A   1      36.527  20.442  24.809  1.00  0.00     0.275 C 
BRANCH  27  28
ATOM     28  O   UNL A   1      37.252  21.504  25.456  1.00  0.00    -0.458 OA
BRANCH  28  29
ATOM     29  C   UNL A   1      38.516  21.203  25.831  1.00  0.00     0.338 C 
ATOM     30  O   UNL A   1      39.117  20.160  25.644  1.00  0.00    -0.246 OA
BRANCH  29  31
ATOM     31  C   UNL A   1      39.127  22.367  26.494  1.00  0.00     0.060 A 
ATOM     32  C   UNL A   1      38.641  23.638  26.205  1.00  0.00     0.016 A 
ATOM     33  C   UNL A   1      40.271  22.220  27.275  1.00  0.00     0.016 A 
ATOM     34  C   UNL A   1      39.359  24.769  26.591  1.00  0.00     0.010 A 
ATOM     35  C   UNL A   1      40.924  23.361  27.763  1.00  0.00     0.010 A 
ATOM     36  C   UNL A   1      40.506  24.653  27.389  1.00  0.00    -0.014 A 
BRANCH  36  37
ATOM     37  C   UNL A   1      41.288  25.865  27.796  1.00  0.00     0.031 A 
ATOM     38  C   UNL A   1      40.638  26.940  28.637  1.00  0.00     0.074 A 
ATOM     39  C   UNL A   1      42.578  26.014  27.426  1.00  0.00     0.049 A 
ATOM     40  N   UNL A   1      41.063  28.146  28.917  1.00  0.00    -0.248 NA
ATOM     41  C   UNL A   1      39.327  26.621  29.226  1.00  0.00     0.031 C 
ATOM     42  C   UNL A   1      43.359  25.044  26.654  1.00  0.00     0.029 A 
ATOM     43  N   UNL A   1      43.468  27.041  27.648  1.00  0.00    -0.354 N 
ATOM     44  C   UNL A   1      40.047  28.753  29.650  1.00  0.00     0.074 A 
ATOM     45  C   UNL A   1      38.983  27.779  29.772  1.00  0.00     0.031 C 
ATOM     46  C   UNL A   1      44.610  25.502  26.500  1.00  0.00     0.029 A 
ATOM     47  C   UNL A   1      44.699  26.844  27.062  1.00  0.00     0.049 A 
ATOM     48  H   UNL A   1      43.244  27.840  28.177  1.00  0.00     0.167 HD
ATOM     49  C   UNL A   1      40.003  30.007  30.168  1.00  0.00     0.034 A 
ATOM     50  C   UNL A   1      45.762  27.664  26.932  1.00  0.00     0.034 A 
ATOM     51  C   UNL A   1      41.096  30.947  30.099  1.00  0.00     0.049 A 
ATOM     52  C   UNL A   1      45.680  29.060  27.495  1.00  0.00     0.074 A 
ATOM     53  C   UNL A   1      41.165  32.227  30.625  1.00  0.00     0.029 A 
ATOM     54  N   UNL A   1      42.315  30.710  29.478  1.00  0.00    -0.354 N 
ATOM     55  N   UNL A   1      44.688  29.633  28.138  1.00  0.00    -0.248 NA
ATOM     56  C   UNL A   1      46.853  29.923  27.305  1.00  0.00     0.031 C 
ATOM     57  C   UNL A   1      42.399  32.783  30.274  1.00  0.00     0.029 A 
ATOM     58  C   UNL A   1      43.130  31.826  29.590  1.00  0.00     0.049 A 
ATOM     59  H   UNL A   1      42.564  29.872  29.027  1.00  0.00     0.167 HD
ATOM     60  C   UNL A   1      45.131  30.918  28.443  1.00  0.00     0.074 A 
ATOM     61  C   UNL A   1      46.483  31.026  27.939  1.00  0.00     0.031 C 
ATOM     62  C   UNL A   1      44.476  31.921  29.081  1.00  0.00     0.034 A 
BRANCH  49  63
ATOM     63  C   UNL A   1      38.713  30.465  30.807  1.00  0.00     0.023 A 
ATOM     64  C   UNL A   1      37.694  31.094  30.075  1.00  0.00     0.031 A 
ATOM     65  C   UNL A   1      38.500  30.246  32.181  1.00  0.00     0.131 A 
ATOM     66  C   UNL A   1      36.528  31.527  30.730  1.00  0.00     0.055 A 
ATOM     67  C   UNL A   1      37.312  30.616  32.812  1.00  0.00     0.041 A 
ATOM     68  F   UNL A   1      39.448  29.665  32.934  1.00  0.00    -0.206 F 
ATOM     69  C   UNL A   1      36.321  31.270  32.087  1.00  0.00     0.022 A 
BRANCH  66  70
ATOM     70  S   UNL A   1      35.330  32.524  29.805  1.00  0.00     0.124 S 
ATOM     71  O   UNL A   1      36.164  33.627  29.334  1.00  0.00    -0.237 OA
ATOM     72  O   UNL A   1      34.867  31.593  28.782  1.00  0.00    -0.237 OA
ATOM     73  O   UNL A   1      34.335  32.888  30.811  1.00  0.00    -0.744 OA
ENDBRANCH  66  70
ENDBRANCH  49  63
BRANCH  50  74
ATOM     74  C   UNL A   1      46.968  27.230  26.164  1.00  0.00     0.023 A 
ATOM     75  C   UNL A   1      48.063  26.632  26.806  1.00  0.00     0.031 A 
ATOM     76  C   UNL A   1      47.069  27.470  24.780  1.00  0.00     0.131 A 
ATOM     77  C   UNL A   1      49.228  26.341  26.077  1.00  0.00     0.055 A 
ATOM     78  C   UNL A   1      48.202  27.115  24.048  1.00  0.00     0.041 A 
ATOM     79  F   UNL A   1      46.056  28.047  24.115  1.00  0.00    -0.206 F 
ATOM     80  C   UNL A   1      49.298  26.562  24.700  1.00  0.00     0.022 A 
BRANCH  77  81
ATOM     81  S   UNL A   1      50.698  25.775  26.979  1.00  0.00     0.124 S 
ATOM     82  O   UNL A   1      50.305  24.426  27.370  1.00  0.00    -0.237 OA
ATOM     83  O   UNL A   1      51.735  25.872  25.957  1.00  0.00    -0.237 OA
ATOM     84  O   UNL A   1      50.813  26.734  28.076  1.00  0.00    -0.744 OA
ENDBRANCH  77  81
ENDBRANCH  50  74
BRANCH  62  85
ATOM     85  C   UNL A   1      45.244  33.199  29.310  1.00  0.00     0.023 A 
ATOM     86  C   UNL A   1      45.230  34.248  28.374  1.00  0.00     0.031 A 
ATOM     87  C   UNL A   1      46.017  33.358  30.473  1.00  0.00     0.131 A 
ATOM     88  C   UNL A   1      46.023  35.384  28.589  1.00  0.00     0.055 A 
ATOM     89  C   UNL A   1      46.759  34.516  30.708  1.00  0.00     0.041 A 
ATOM     90  F   UNL A   1      46.067  32.386  31.398  1.00  0.00    -0.206 F 
ATOM     91  C   UNL A   1      46.776  35.532  29.757  1.00  0.00     0.022 A 
BRANCH  88  92
ATOM     92  S   UNL A   1      46.130  36.633  27.276  1.00  0.00     0.124 S 
ATOM     93  O   UNL A   1      46.298  35.808  26.085  1.00  0.00    -0.237 OA
ATOM     94  O   UNL A   1      44.850  37.324  27.398  1.00  0.00    -0.237 OA
ATOM     95  O   UNL A   1      47.299  37.426  27.652  1.00  0.00    -0.744 OA
ENDBRANCH  88  92
ENDBRANCH  62  85
ENDBRANCH  36  37
ENDBRANCH  29  31
ENDBRANCH  28  29
ENDBRANCH  27  28
ENDBRANCH   1  27
TORSDOF 19
ENDMDL
MODEL 3
REMARK VINA RESULT:     -11.8      1.428      7.637
REMARK SMILES [NH3+][C@@H](CNc1ccc(C(=O)OCCOC(=O)c2ccc(-c3c4nc(c(-c5cc(S(=O)(=O)[O-])ccc5F)c5ccc([nH]5)c(-c5cc(S(=O)(=O)[O-])ccc5F)c5nc(c(-c6cc(S(=O)(=O)[O-])ccc6F)c6ccc3[nH]6)C=C5)C=C4)cc2)c(F)c1F)c1ccccc1
REMARK SMILES IDX 12 1 11 2 9 3 10 4 8 5 5 6 6 7 82 8 7 9 80 10 83 11 81 12
REMARK SMILES IDX 4 13 3 15 2 16 1 17 84 21 85 22 89 23 86 24 88 25 87 26
REMARK SMILES IDX 13 27 14 28 15 29 16 30 17 31 18 32 79 33 19 34 78 35 20 36
REMARK SMILES IDX 21 37 22 38 72 39 23 40 77 41 71 42 73 43 24 44 76 45 70 46
REMARK SMILES IDX 69 47 25 49 57 50 37 51 56 52 38 53 41 54 55 55 74 56 39 57
REMARK SMILES IDX 40 58 54 60 75 61 42 62 26 63 27 64 35 65 28 66 34 67 36 68
REMARK SMILES IDX 33 69 29 70 30 71 31 72 32 73 58 74 59 75 67 76 60 77 66 78
REMARK SMILES IDX 68 79 65 80 61 81 62 82 63 83 64 84 43 85 44 86 52 87 45 88
REMARK SMILES IDX 51 89 53 90 50 91 46 92 47 93 48 94 49 95
REMARK H PARENT 4 14 1 18 1 19 1 20 73 48 41 59
REMARK Flexibility Score: inf
ROOT
ATOM      1  C   UNL A   1      36.961  21.632  23.932  1.00  0.00     0.275 C 
ENDROOT
BRANCH   1   2
ATOM      2  O   UNL A   1      36.107  22.444  24.765  1.00  0.00    -0.458 OA
BRANCH   2   3
ATOM      3  C   UNL A   1      34.775  22.274  24.589  1.00  0.00     0.341 C 
ATOM      4  O   UNL A   1      34.100  21.341  24.996  1.00  0.00    -0.246 OA
BRANCH   3   5
ATOM      5  C   UNL A   1      34.172  23.440  23.920  1.00  0.00     0.099 A 
ATOM      6  C   UNL A   1      33.027  25.617  22.539  1.00  0.00     0.074 A 
ATOM      7  C   UNL A   1      32.840  24.314  22.081  1.00  0.00     0.030 A 
ATOM      8  C   UNL A   1      33.829  25.806  23.682  1.00  0.00     0.182 A 
ATOM      9  C   UNL A   1      33.435  23.239  22.744  1.00  0.00     0.021 A 
ATOM     10  C   UNL A   1      34.379  24.733  24.380  1.00  0.00     0.175 A 
ATOM     11  F   UNL A   1      34.077  27.057  24.106  1.00  0.00    -0.201 F 
ATOM     12  F   UNL A   1      35.146  24.972  25.455  1.00  0.00    -0.203 F 
BRANCH   6  13
ATOM     13  N   UNL A   1      32.449  26.712  21.896  1.00  0.00    -0.376 N 
ATOM     14  H   UNL A   1      32.931  27.179  21.175  1.00  0.00     0.160 HD
BRANCH  13  15
ATOM     15  C   UNL A   1      31.108  27.164  22.308  1.00  0.00     0.183 C 
BRANCH  15  16
ATOM     16  C   UNL A   1      31.157  28.597  22.937  1.00  0.00     0.231 C 
BRANCH  16  17
ATOM     17  N   UNL A   1      32.243  29.412  22.349  1.00  0.00    -0.350 N 
ATOM     18  H   UNL A   1      32.321  30.292  22.858  1.00  0.00     0.345 HD
ATOM     19  H   UNL A   1      32.032  29.603  21.369  1.00  0.00     0.345 HD
ATOM     20  H   UNL A   1      33.124  28.902  22.413  1.00  0.00     0.345 HD
ENDBRANCH  16  17
BRANCH  16  21
ATOM     21  C   UNL A   1      31.233  28.500  24.457  1.00  0.00     0.011 A 
ATOM     22  C   UNL A   1      31.715  29.546  25.261  1.00  0.00     0.010 A 
ATOM     23  C   UNL A   1      30.916  27.279  25.078  1.00  0.00     0.010 A 
ATOM     24  C   UNL A   1      31.910  29.365  26.632  1.00  0.00     0.001 A 
ATOM     25  C   UNL A   1      31.105  27.101  26.450  1.00  0.00     0.001 A 
ATOM     26  C   UNL A   1      31.610  28.142  27.225  1.00  0.00     0.000 A 
ENDBRANCH  16  21
ENDBRANCH  15  16
ENDBRANCH  13  15
ENDBRANCH   6  13
ENDBRANCH   3   5
ENDBRANCH   2   3
ENDBRANCH   1   2
BRANCH   1  27
ATOM     27  C   UNL A   1      37.694  20.577  24.759  1.00  0.00     0.275 C 
BRANCH  27  28
ATOM     28  O   UNL A   1      38.048  21.122  26.043  1.00  0.00    -0.458 OA
BRANCH  28  29
ATOM     29  C   UNL A   1      39.367  21.101  26.342  1.00  0.00     0.338 C 
ATOM     30  O   UNL A   1      40.137  20.162  26.234  1.00  0.00    -0.246 OA
BRANCH  29  31
ATOM     31  C   UNL A   1      39.794  22.433  26.801  1.00  0.00     0.060 A 
ATOM     32  C   UNL A   1      39.130  23.555  26.317  1.00  0.00     0.016 A 
ATOM     33  C   UNL A   1      40.939  22.582  27.579  1.00  0.00     0.016 A 
ATOM     34  C   UNL A   1      39.671  24.827  26.506  1.00  0.00     0.010 A 
ATOM     35  C   UNL A   1      41.413  23.870  27.869  1.00  0.00     0.010 A 
ATOM     36  C   UNL A   1      40.814  25.010  27.298  1.00  0.00    -0.014 A 
BRANCH  36  37
ATOM     37  C   UNL A   1      41.406  26.373  27.493  1.00  0.00     0.031 A 
ATOM     38  C   UNL A   1      42.740  26.716  26.870  1.00  0.00     0.074 A 
ATOM     39  C   UNL A   1      40.761  27.311  28.219  1.00  0.00     0.049 A 
ATOM     40  N   UNL A   1      43.516  27.749  27.085  1.00  0.00    -0.248 NA
ATOM     41  C   UNL A   1      43.280  25.763  25.887  1.00  0.00     0.031 C 
ATOM     42  C   UNL A   1      39.447  27.147  28.845  1.00  0.00     0.029 A 
ATOM     43  N   UNL A   1      41.122  28.596  28.557  1.00  0.00    -0.354 N 
ATOM     44  C   UNL A   1      44.662  27.535  26.324  1.00  0.00     0.074 A 
ATOM     45  C   UNL A   1      44.478  26.272  25.640  1.00  0.00     0.031 C 
ATOM     46  C   UNL A   1      39.099  28.291  29.454  1.00  0.00     0.029 A 
ATOM     47  C   UNL A   1      40.205  29.236  29.362  1.00  0.00     0.049 A 
ATOM     48  H   UNL A   1      41.957  29.017  28.251  1.00  0.00     0.167 HD
ATOM     49  C   UNL A   1      45.766  28.316  26.211  1.00  0.00     0.034 A 
ATOM     50  C   UNL A   1      40.263  30.419  30.008  1.00  0.00     0.034 A 
ATOM     51  C   UNL A   1      45.912  29.605  26.844  1.00  0.00     0.049 A 
ATOM     52  C   UNL A   1      41.510  31.257  29.885  1.00  0.00     0.074 A 
ATOM     53  C   UNL A   1      46.975  30.489  26.761  1.00  0.00     0.029 A 
ATOM     54  N   UNL A   1      44.966  30.202  27.666  1.00  0.00    -0.354 N 
ATOM     55  N   UNL A   1      42.605  31.011  29.204  1.00  0.00    -0.248 NA
ATOM     56  C   UNL A   1      41.534  32.524  30.627  1.00  0.00     0.031 C 
ATOM     57  C   UNL A   1      46.697  31.591  27.576  1.00  0.00     0.029 A 
ATOM     58  C   UNL A   1      45.430  31.429  28.112  1.00  0.00     0.049 A 
ATOM     59  H   UNL A   1      44.092  29.811  27.896  1.00  0.00     0.167 HD
ATOM     60  C   UNL A   1      43.438  32.105  29.423  1.00  0.00     0.074 A 
ATOM     61  C   UNL A   1      42.711  33.021  30.276  1.00  0.00     0.031 C 
ATOM     62  C   UNL A   1      44.696  32.332  28.964  1.00  0.00     0.034 A 
BRANCH  49  63
ATOM     63  C   UNL A   1      46.936  27.778  25.420  1.00  0.00     0.023 A 
ATOM     64  C   UNL A   1      47.127  28.079  24.062  1.00  0.00     0.031 A 
ATOM     65  C   UNL A   1      47.887  26.958  26.055  1.00  0.00     0.131 A 
ATOM     66  C   UNL A   1      48.217  27.523  23.370  1.00  0.00     0.055 A 
ATOM     67  C   UNL A   1      49.005  26.466  25.380  1.00  0.00     0.041 A 
ATOM     68  F   UNL A   1      47.745  26.622  27.347  1.00  0.00    -0.206 F 
ATOM     69  C   UNL A   1      49.170  26.740  24.026  1.00  0.00     0.022 A 
BRANCH  66  70
ATOM     70  S   UNL A   1      48.317  27.756  21.575  1.00  0.00     0.124 S 
ATOM     71  O   UNL A   1      49.407  28.723  21.463  1.00  0.00    -0.237 OA
ATOM     72  O   UNL A   1      48.608  26.409  21.097  1.00  0.00    -0.237 OA
ATOM     73  O   UNL A   1      46.996  28.271  21.221  1.00  0.00    -0.744 OA
ENDBRANCH  66  70
ENDBRANCH  49  63
BRANCH  50  74
ATOM     74  C   UNL A   1      39.148  30.852  30.902  1.00  0.00     0.023 A 
ATOM     75  C   UNL A   1      38.075  31.613  30.412  1.00  0.00     0.031 A 
ATOM     76  C   UNL A   1      39.174  30.566  32.281  1.00  0.00     0.131 A 
ATOM     77  C   UNL A   1      37.102  32.103  31.298  1.00  0.00     0.055 A 
ATOM     78  C   UNL A   1      38.168  30.997  33.145  1.00  0.00     0.041 A 
ATOM     79  F   UNL A   1      40.180  29.850  32.807  1.00  0.00    -0.206 F 
ATOM     80  C   UNL A   1      37.132  31.786  32.658  1.00  0.00     0.022 A 
BRANCH  77  81
ATOM     81  S   UNL A   1      35.857  33.263  30.666  1.00  0.00     0.124 S 
ATOM     82  O   UNL A   1      36.457  33.683  29.405  1.00  0.00    -0.237 OA
ATOM     83  O   UNL A   1      34.676  32.412  30.565  1.00  0.00    -0.237 OA
ATOM     84  O   UNL A   1      35.796  34.293  31.702  1.00  0.00    -0.744 OA
ENDBRANCH  77  81
ENDBRANCH  50  74
BRANCH  62  85
ATOM     85  C   UNL A   1      45.331  33.647  29.338  1.00  0.00     0.023 A 
ATOM     86  C   UNL A   1      45.170  34.798  28.547  1.00  0.00     0.031 A 
ATOM     87  C   UNL A   1      46.129  33.742  30.492  1.00  0.00     0.131 A 
ATOM     88  C   UNL A   1      45.845  35.978  28.888  1.00  0.00     0.055 A 
ATOM     89  C   UNL A   1      46.752  34.935  30.858  1.00  0.00     0.041 A 
ATOM     90  F   UNL A   1      46.318  32.672  31.282  1.00  0.00    -0.206 F 
ATOM     91  C   UNL A   1      46.623  36.059  30.046  1.00  0.00     0.022 A 
BRANCH  88  92
ATOM     92  S   UNL A   1      45.767  37.387  27.747  1.00  0.00     0.124 S 
ATOM     93  O   UNL A   1      46.933  37.157  26.901  1.00  0.00    -0.237 OA
ATOM     94  O   UNL A   1      44.469  37.200  27.108  1.00  0.00    -0.237 OA
ATOM     95  O   UNL A   1      45.861  38.549  28.630  1.00  0.00    -0.744 OA
ENDBRANCH  88  92
ENDBRANCH  62  85
ENDBRANCH  36  37
ENDBRANCH  29  31
ENDBRANCH  28  29
ENDBRANCH  27  28
ENDBRANCH   1  27
TORSDOF 19
ENDMDL
