MODEL 1
REMARK VINA RESULT:     -13.6      0.000      0.000
REMARK SMILES O=C(OCCOC(=O)c1cc2c(c(S(=O)(=O)Nc3cc(C(F)(F)F)ccc3-n3cccn3)c1)CCC2)c1ccc(-c2c3nc(c(-c4cc(S(=O)(=O)[O-])ccc4F)c4ccc([nH]4)c(-c4cc(S(=O)(=O)[O-])ccc4F)c4nc(c(-c5cc(S(=O)(=O)[O-])ccc5F)c5ccc2[nH]5)C=C4)C=C3)cc1
REMARK SMILES IDX 5 1 4 2 3 3 2 4 1 5 37 6 38 7 99 8 39 9 98 10 40 11 41 12
REMARK SMILES IDX 42 13 92 14 43 15 97 16 91 17 93 18 44 19 96 20 90 21 89 22
REMARK SMILES IDX 45 24 77 25 57 26 76 27 58 28 61 29 75 30 94 31 59 32 60 33
REMARK SMILES IDX 74 35 95 36 62 37 46 38 47 39 55 40 48 41 54 42 56 43 53 44
REMARK SMILES IDX 49 45 50 46 51 47 52 48 78 49 79 50 87 51 80 52 86 53 88 54
REMARK SMILES IDX 85 55 81 56 82 57 83 58 84 59 63 60 64 61 72 62 65 63 71 64
REMARK SMILES IDX 73 65 70 66 66 67 67 68 68 69 69 70 6 71 7 72 8 73 9 74
REMARK SMILES IDX 10 75 33 76 11 77 13 78 12 79 36 80 34 81 35 82 14 83 15 84
REMARK SMILES IDX 16 85 17 86 18 88 19 89 27 90 20 91 26 92 25 93 28 94 29 95
REMARK SMILES IDX 32 96 30 97 31 98 21 99 22 100 23 101 24 102
REMARK H PARENT 93 23 61 34 17 87
REMARK Flexibility Score: inf
ROOT
ATOM      1  C   UNL A   1      32.717  30.003  27.213  1.00  0.00     0.275 C 
ENDROOT
BRANCH   1   2
ATOM      2  C   UNL A   1      34.203  30.360  27.233  1.00  0.00     0.275 C 
BRANCH   2   3
ATOM      3  O   UNL A   1      35.088  29.474  27.945  1.00  0.00    -0.458 OA
BRANCH   3   4
ATOM      4  C   UNL A   1      35.908  30.000  28.883  1.00  0.00     0.338 C 
ATOM      5  O   UNL A   1      35.554  30.777  29.755  1.00  0.00    -0.246 OA
BRANCH   4   6
ATOM      6  C   UNL A   1      37.265  29.419  28.789  1.00  0.00     0.060 A 
ATOM      7  C   UNL A   1      38.088  29.660  27.681  1.00  0.00     0.016 A 
ATOM      8  C   UNL A   1      37.730  28.640  29.853  1.00  0.00     0.016 A 
ATOM      9  C   UNL A   1      39.346  29.078  27.608  1.00  0.00     0.010 A 
ATOM     10  C   UNL A   1      38.998  28.071  29.784  1.00  0.00     0.010 A 
ATOM     11  C   UNL A   1      39.796  28.263  28.647  1.00  0.00    -0.014 A 
BRANCH  11  12
ATOM     12  C   UNL A   1      41.150  27.702  28.546  1.00  0.00     0.031 A 
ATOM     13  C   UNL A   1      41.288  26.340  27.935  1.00  0.00     0.074 A 
ATOM     14  C   UNL A   1      42.250  28.436  28.822  1.00  0.00     0.049 A 
ATOM     15  N   UNL A   1      42.108  25.390  28.249  1.00  0.00    -0.248 NA
ATOM     16  C   UNL A   1      40.396  25.976  26.826  1.00  0.00     0.031 C 
ATOM     17  C   UNL A   1      42.297  29.851  29.200  1.00  0.00     0.029 A 
ATOM     18  N   UNL A   1      43.571  28.103  28.699  1.00  0.00    -0.354 N 
ATOM     19  C   UNL A   1      41.986  24.415  27.259  1.00  0.00     0.074 A 
ATOM     20  C   UNL A   1      40.904  24.819  26.408  1.00  0.00     0.031 C 
ATOM     21  C   UNL A   1      43.556  30.308  29.049  1.00  0.00     0.029 A 
ATOM     22  C   UNL A   1      44.422  29.203  28.672  1.00  0.00     0.049 A 
ATOM     23  H   UNL A   1      43.890  27.173  28.635  1.00  0.00     0.167 HD
ATOM     24  C   UNL A   1      42.864  23.386  27.141  1.00  0.00     0.034 A 
ATOM     25  C   UNL A   1      45.729  29.242  28.308  1.00  0.00     0.034 A 
ATOM     26  C   UNL A   1      43.435  23.048  28.422  1.00  0.00     0.049 A 
ATOM     27  C   UNL A   1      46.272  27.870  28.426  1.00  0.00     0.074 A 
ATOM     28  C   UNL A   1      42.880  22.716  29.645  1.00  0.00     0.029 A 
ATOM     29  N   UNL A   1      44.750  23.348  28.692  1.00  0.00    -0.354 N 
ATOM     30  N   UNL A   1      46.430  27.248  29.561  1.00  0.00    -0.248 NA
ATOM     31  C   UNL A   1      46.288  27.018  27.247  1.00  0.00     0.031 C 
ATOM     32  C   UNL A   1      43.709  23.361  30.605  1.00  0.00     0.029 A 
ATOM     33  C   UNL A   1      44.752  23.976  29.912  1.00  0.00     0.049 A 
ATOM     34  H   UNL A   1      45.532  23.152  28.126  1.00  0.00     0.167 HD
ATOM     35  C   UNL A   1      46.135  25.924  29.286  1.00  0.00     0.074 A 
ATOM     36  C   UNL A   1      46.185  25.822  27.831  1.00  0.00     0.031 C 
ATOM     37  C   UNL A   1      45.601  25.103  30.240  1.00  0.00     0.034 A 
BRANCH  24  38
ATOM     38  C   UNL A   1      43.468  22.955  25.824  1.00  0.00     0.023 A 
ATOM     39  C   UNL A   1      43.596  21.571  25.616  1.00  0.00     0.031 A 
ATOM     40  C   UNL A   1      44.226  23.782  24.964  1.00  0.00     0.131 A 
ATOM     41  C   UNL A   1      44.581  21.060  24.757  1.00  0.00     0.055 A 
ATOM     42  C   UNL A   1      45.147  23.265  24.044  1.00  0.00     0.041 A 
ATOM     43  F   UNL A   1      44.174  25.120  25.019  1.00  0.00    -0.206 F 
ATOM     44  C   UNL A   1      45.367  21.898  23.974  1.00  0.00     0.022 A 
BRANCH  41  45
ATOM     45  S   UNL A   1      44.975  19.298  24.901  1.00  0.00     0.124 S 
ATOM     46  O   UNL A   1      44.927  18.885  23.502  1.00  0.00    -0.237 OA
ATOM     47  O   UNL A   1      46.298  19.338  25.515  1.00  0.00    -0.237 OA
ATOM     48  O   UNL A   1      43.905  18.780  25.748  1.00  0.00    -0.744 OA
ENDBRANCH  41  45
ENDBRANCH  24  38
BRANCH  25  49
ATOM     49  C   UNL A   1      46.466  30.373  27.685  1.00  0.00     0.023 A 
ATOM     50  C   UNL A   1      45.819  31.379  26.941  1.00  0.00     0.031 A 
ATOM     51  C   UNL A   1      47.828  30.591  27.994  1.00  0.00     0.131 A 
ATOM     52  C   UNL A   1      46.534  32.525  26.523  1.00  0.00     0.055 A 
ATOM     53  C   UNL A   1      48.536  31.713  27.558  1.00  0.00     0.041 A 
ATOM     54  F   UNL A   1      48.502  29.759  28.804  1.00  0.00    -0.206 F 
ATOM     55  C   UNL A   1      47.889  32.690  26.824  1.00  0.00     0.022 A 
BRANCH  52  56
ATOM     56  S   UNL A   1      45.672  33.890  25.680  1.00  0.00     0.124 S 
ATOM     57  O   UNL A   1      46.780  34.675  25.148  1.00  0.00    -0.237 OA
ATOM     58  O   UNL A   1      44.846  33.189  24.704  1.00  0.00    -0.237 OA
ATOM     59  O   UNL A   1      44.923  34.536  26.758  1.00  0.00    -0.744 OA
ENDBRANCH  52  56
ENDBRANCH  25  49
BRANCH  37  60
ATOM     60  C   UNL A   1      45.646  25.525  31.693  1.00  0.00     0.023 A 
ATOM     61  C   UNL A   1      46.732  25.291  32.565  1.00  0.00     0.031 A 
ATOM     62  C   UNL A   1      44.585  26.316  32.175  1.00  0.00     0.131 A 
ATOM     63  C   UNL A   1      46.720  25.825  33.867  1.00  0.00     0.055 A 
ATOM     64  C   UNL A   1      44.588  26.864  33.458  1.00  0.00     0.041 A 
ATOM     65  F   UNL A   1      43.536  26.608  31.387  1.00  0.00    -0.206 F 
ATOM     66  C   UNL A   1      45.654  26.612  34.312  1.00  0.00     0.022 A 
BRANCH  63  67
ATOM     67  S   UNL A   1      48.089  25.490  35.020  1.00  0.00     0.124 S 
ATOM     68  O   UNL A   1      48.409  24.089  34.782  1.00  0.00    -0.237 OA
ATOM     69  O   UNL A   1      49.096  26.460  34.598  1.00  0.00    -0.237 OA
ATOM     70  O   UNL A   1      47.497  25.766  36.331  1.00  0.00    -0.744 OA
ENDBRANCH  63  67
ENDBRANCH  37  60
ENDBRANCH  11  12
ENDBRANCH   4   6
ENDBRANCH   3   4
ENDBRANCH   2   3
ENDBRANCH   1   2
BRANCH   1  71
ATOM     71  O   UNL A   1      32.497  28.844  26.391  1.00  0.00    -0.458 OA
BRANCH  71  72
ATOM     72  C   UNL A   1      31.771  27.847  26.955  1.00  0.00     0.338 C 
ATOM     73  O   UNL A   1      31.229  27.831  28.052  1.00  0.00    -0.246 OA
BRANCH  72  74
ATOM     74  C   UNL A   1      31.867  26.683  26.068  1.00  0.00     0.061 A 
ATOM     75  C   UNL A   1      32.167  26.933  24.735  1.00  0.00     0.019 A 
ATOM     76  C   UNL A   1      31.679  25.370  26.537  1.00  0.00     0.038 A 
ATOM     77  C   UNL A   1      32.183  25.857  23.874  1.00  0.00    -0.043 A 
ATOM     78  C   UNL A   1      31.694  24.264  25.649  1.00  0.00     0.092 A 
ATOM     79  C   UNL A   1      31.868  24.539  24.295  1.00  0.00    -0.024 A 
ATOM     80  C   UNL A   1      32.489  25.928  22.407  1.00  0.00     0.036 C 
ATOM     81  C   UNL A   1      31.691  23.736  23.046  1.00  0.00     0.037 C 
ATOM     82  C   UNL A   1      32.670  24.443  22.101  1.00  0.00     0.010 C 
BRANCH  78  83
ATOM     83  S   UNL A   1      31.534  22.667  26.442  1.00  0.00     0.262 S 
ATOM     84  O   UNL A   1      32.153  22.785  27.747  1.00  0.00    -0.201 OA
ATOM     85  O   UNL A   1      30.137  22.318  26.387  1.00  0.00    -0.201 OA
BRANCH  83  86
ATOM     86  N   UNL A   1      32.289  21.402  25.636  1.00  0.00    -0.277 N 
ATOM     87  H   UNL A   1      31.699  20.655  25.385  1.00  0.00     0.180 HD
BRANCH  86  88
ATOM     88  C   UNL A   1      33.656  21.249  25.260  1.00  0.00     0.075 A 
ATOM     89  C   UNL A   1      34.378  22.464  25.264  1.00  0.00     0.042 A 
ATOM     90  C   UNL A   1      34.365  20.066  25.041  1.00  0.00     0.089 A 
ATOM     91  C   UNL A   1      35.784  22.491  25.261  1.00  0.00     0.058 A 
ATOM     92  C   UNL A   1      35.773  20.086  24.988  1.00  0.00     0.031 A 
ATOM     93  C   UNL A   1      36.476  21.289  25.106  1.00  0.00     0.015 A 
BRANCH  90  94
ATOM     94  N   UNL A   1      33.743  18.815  24.884  1.00  0.00    -0.239 N 
ATOM     95  C   UNL A   1      34.136  17.781  24.072  1.00  0.00     0.115 A 
ATOM     96  N   UNL A   1      32.647  18.494  25.616  1.00  0.00    -0.177 NA
ATOM     97  C   UNL A   1      33.124  16.850  24.114  1.00  0.00     0.042 A 
ATOM     98  C   UNL A   1      32.206  17.369  25.043  1.00  0.00     0.135 A 
ENDBRANCH  90  94
BRANCH  91  99
ATOM     99  C   UNL A   1      36.511  23.788  25.538  1.00  0.00     0.416 C 
ATOM    100  F   UNL A   1      37.357  24.143  24.537  1.00  0.00    -0.166 F 
ATOM    101  F   UNL A   1      35.653  24.831  25.706  1.00  0.00    -0.166 F 
ATOM    102  F   UNL A   1      37.263  23.745  26.674  1.00  0.00    -0.166 F 
ENDBRANCH  91  99
ENDBRANCH  86  88
ENDBRANCH  83  86
ENDBRANCH  78  83
ENDBRANCH  72  74
ENDBRANCH  71  72
ENDBRANCH   1  71
TORSDOF 19
ENDMDL
MODEL 2
REMARK VINA RESULT:     -13.5      2.063      6.442
REMARK SMILES O=C(OCCOC(=O)c1cc2c(c(S(=O)(=O)Nc3cc(C(F)(F)F)ccc3-n3cccn3)c1)CCC2)c1ccc(-c2c3nc(c(-c4cc(S(=O)(=O)[O-])ccc4F)c4ccc([nH]4)c(-c4cc(S(=O)(=O)[O-])ccc4F)c4nc(c(-c5cc(S(=O)(=O)[O-])ccc5F)c5ccc2[nH]5)C=C4)C=C3)cc1
REMARK SMILES IDX 5 1 4 2 3 3 2 4 1 5 37 6 38 7 99 8 39 9 98 10 40 11 41 12
REMARK SMILES IDX 42 13 92 14 43 15 97 16 91 17 93 18 44 19 96 20 90 21 89 22
REMARK SMILES IDX 45 24 77 25 57 26 76 27 58 28 61 29 75 30 94 31 59 32 60 33
REMARK SMILES IDX 74 35 95 36 62 37 46 38 47 39 55 40 48 41 54 42 56 43 53 44
REMARK SMILES IDX 49 45 50 46 51 47 52 48 78 49 79 50 87 51 80 52 86 53 88 54
REMARK SMILES IDX 85 55 81 56 82 57 83 58 84 59 63 60 64 61 72 62 65 63 71 64
REMARK SMILES IDX 73 65 70 66 66 67 67 68 68 69 69 70 6 71 7 72 8 73 9 74
REMARK SMILES IDX 10 75 33 76 11 77 13 78 12 79 36 80 34 81 35 82 14 83 15 84
REMARK SMILES IDX 16 85 17 86 18 88 19 89 27 90 20 91 26 92 25 93 28 94 29 95
REMARK SMILES IDX 32 96 30 97 31 98 21 99 22 100 23 101 24 102
REMARK H PARENT 93 23 61 34 17 87
REMARK Flexibility Score: inf
ROOT
ATOM      1  C   UNL A   1      32.195  30.152  26.850  1.00  0.00     0.275 C 
ENDROOT
BRANCH   1   2
ATOM      2  C   UNL A   1      33.673  30.538  26.918  1.00  0.00     0.275 C 
BRANCH   2   3
ATOM      3  O   UNL A   1      34.300  30.534  28.216  1.00  0.00    -0.458 OA
BRANCH   3   4
ATOM      4  C   UNL A   1      35.285  31.429  28.456  1.00  0.00     0.338 C 
ATOM      5  O   UNL A   1      35.128  32.637  28.502  1.00  0.00    -0.246 OA
BRANCH   4   6
ATOM      6  C   UNL A   1      36.557  30.744  28.776  1.00  0.00     0.060 A 
ATOM      7  C   UNL A   1      36.671  29.349  28.715  1.00  0.00     0.016 A 
ATOM      8  C   UNL A   1      37.666  31.524  29.115  1.00  0.00     0.016 A 
ATOM      9  C   UNL A   1      37.869  28.732  29.049  1.00  0.00     0.010 A 
ATOM     10  C   UNL A   1      38.870  30.905  29.433  1.00  0.00     0.010 A 
ATOM     11  C   UNL A   1      38.965  29.506  29.432  1.00  0.00    -0.014 A 
BRANCH  11  12
ATOM     12  C   UNL A   1      40.225  28.814  29.736  1.00  0.00     0.031 A 
ATOM     13  C   UNL A   1      40.615  28.693  31.178  1.00  0.00     0.074 A 
ATOM     14  C   UNL A   1      40.925  28.153  28.787  1.00  0.00     0.049 A 
ATOM     15  N   UNL A   1      41.795  28.744  31.706  1.00  0.00    -0.248 NA
ATOM     16  C   UNL A   1      39.555  28.492  32.176  1.00  0.00     0.031 C 
ATOM     17  C   UNL A   1      40.555  27.974  27.380  1.00  0.00     0.029 A 
ATOM     18  N   UNL A   1      42.055  27.393  28.911  1.00  0.00    -0.354 N 
ATOM     19  C   UNL A   1      41.649  28.372  33.042  1.00  0.00     0.074 A 
ATOM     20  C   UNL A   1      40.243  28.238  33.287  1.00  0.00     0.031 C 
ATOM     21  C   UNL A   1      41.301  26.986  26.849  1.00  0.00     0.029 A 
ATOM     22  C   UNL A   1      42.272  26.538  27.836  1.00  0.00     0.049 A 
ATOM     23  H   UNL A   1      42.658  27.446  29.688  1.00  0.00     0.167 HD
ATOM     24  C   UNL A   1      42.714  28.089  33.836  1.00  0.00     0.034 A 
ATOM     25  C   UNL A   1      43.130  25.491  27.759  1.00  0.00     0.034 A 
ATOM     26  C   UNL A   1      43.881  28.822  33.413  1.00  0.00     0.049 A 
ATOM     27  C   UNL A   1      44.174  25.686  28.790  1.00  0.00     0.074 A 
ATOM     28  C   UNL A   1      44.125  30.168  33.202  1.00  0.00     0.029 A 
ATOM     29  N   UNL A   1      44.926  28.166  32.804  1.00  0.00    -0.354 N 
ATOM     30  N   UNL A   1      45.063  26.638  28.750  1.00  0.00    -0.248 NA
ATOM     31  C   UNL A   1      44.004  25.052  30.089  1.00  0.00     0.031 C 
ATOM     32  C   UNL A   1      44.953  30.208  32.045  1.00  0.00     0.029 A 
ATOM     33  C   UNL A   1      45.220  28.889  31.675  1.00  0.00     0.049 A 
ATOM     34  H   UNL A   1      45.373  27.346  33.115  1.00  0.00     0.167 HD
ATOM     35  C   UNL A   1      45.245  27.012  30.070  1.00  0.00     0.074 A 
ATOM     36  C   UNL A   1      44.672  25.920  30.852  1.00  0.00     0.031 C 
ATOM     37  C   UNL A   1      45.583  28.293  30.406  1.00  0.00     0.034 A 
BRANCH  24  38
ATOM     38  C   UNL A   1      42.778  26.878  34.741  1.00  0.00     0.023 A 
ATOM     39  C   UNL A   1      43.609  25.825  34.319  1.00  0.00     0.031 A 
ATOM     40  C   UNL A   1      41.838  26.559  35.746  1.00  0.00     0.131 A 
ATOM     41  C   UNL A   1      43.358  24.505  34.723  1.00  0.00     0.055 A 
ATOM     42  C   UNL A   1      41.649  25.251  36.210  1.00  0.00     0.041 A 
ATOM     43  F   UNL A   1      41.007  27.470  36.272  1.00  0.00    -0.206 F 
ATOM     44  C   UNL A   1      42.376  24.207  35.661  1.00  0.00     0.022 A 
BRANCH  41  45
ATOM     45  S   UNL A   1      44.170  23.183  33.788  1.00  0.00     0.124 S 
ATOM     46  O   UNL A   1      43.208  22.971  32.711  1.00  0.00    -0.237 OA
ATOM     47  O   UNL A   1      45.430  23.814  33.412  1.00  0.00    -0.237 OA
ATOM     48  O   UNL A   1      44.276  22.098  34.760  1.00  0.00    -0.744 OA
ENDBRANCH  41  45
ENDBRANCH  24  38
BRANCH  25  49
ATOM     49  C   UNL A   1      42.976  24.244  26.963  1.00  0.00     0.023 A 
ATOM     50  C   UNL A   1      43.962  23.793  26.064  1.00  0.00     0.031 A 
ATOM     51  C   UNL A   1      41.913  23.351  27.237  1.00  0.00     0.131 A 
ATOM     52  C   UNL A   1      43.850  22.516  25.467  1.00  0.00     0.055 A 
ATOM     53  C   UNL A   1      41.795  22.102  26.627  1.00  0.00     0.041 A 
ATOM     54  F   UNL A   1      40.992  23.630  28.173  1.00  0.00    -0.206 F 
ATOM     55  C   UNL A   1      42.768  21.675  25.742  1.00  0.00     0.022 A 
BRANCH  52  56
ATOM     56  S   UNL A   1      45.187  21.874  24.411  1.00  0.00     0.124 S 
ATOM     57  O   UNL A   1      45.453  23.003  23.526  1.00  0.00    -0.237 OA
ATOM     58  O   UNL A   1      46.228  21.549  25.379  1.00  0.00    -0.237 OA
ATOM     59  O   UNL A   1      44.578  20.713  23.761  1.00  0.00    -0.744 OA
ENDBRANCH  52  56
ENDBRANCH  25  49
BRANCH  37  60
ATOM     60  C   UNL A   1      46.100  29.230  29.335  1.00  0.00     0.023 A 
ATOM     61  C   UNL A   1      45.288  30.070  28.541  1.00  0.00     0.031 A 
ATOM     62  C   UNL A   1      47.497  29.369  29.208  1.00  0.00     0.131 A 
ATOM     63  C   UNL A   1      45.878  30.988  27.653  1.00  0.00     0.055 A 
ATOM     64  C   UNL A   1      48.076  30.297  28.344  1.00  0.00     0.041 A 
ATOM     65  F   UNL A   1      48.328  28.627  29.959  1.00  0.00    -0.206 F 
ATOM     66  C   UNL A   1      47.267  31.104  27.555  1.00  0.00     0.022 A 
BRANCH  63  67
ATOM     67  S   UNL A   1      44.844  32.041  26.586  1.00  0.00     0.124 S 
ATOM     68  O   UNL A   1      45.723  32.381  25.475  1.00  0.00    -0.237 OA
ATOM     69  O   UNL A   1      43.722  31.160  26.272  1.00  0.00    -0.237 OA
ATOM     70  O   UNL A   1      44.502  33.167  27.458  1.00  0.00    -0.744 OA
ENDBRANCH  63  67
ENDBRANCH  37  60
ENDBRANCH  11  12
ENDBRANCH   4   6
ENDBRANCH   3   4
ENDBRANCH   2   3
ENDBRANCH   1   2
BRANCH   1  71
ATOM     71  O   UNL A   1      32.037  28.926  26.115  1.00  0.00    -0.458 OA
BRANCH  71  72
ATOM     72  C   UNL A   1      31.643  27.849  26.838  1.00  0.00     0.338 C 
ATOM     73  O   UNL A   1      31.335  27.802  28.022  1.00  0.00    -0.246 OA
BRANCH  72  74
ATOM     74  C   UNL A   1      31.794  26.669  25.981  1.00  0.00     0.061 A 
ATOM     75  C   UNL A   1      32.158  26.896  24.660  1.00  0.00     0.019 A 
ATOM     76  C   UNL A   1      31.595  25.364  26.466  1.00  0.00     0.038 A 
ATOM     77  C   UNL A   1      32.228  25.804  23.823  1.00  0.00    -0.043 A 
ATOM     78  C   UNL A   1      31.665  24.241  25.602  1.00  0.00     0.092 A 
ATOM     79  C   UNL A   1      31.905  24.492  24.253  1.00  0.00    -0.024 A 
ATOM     80  C   UNL A   1      32.606  25.850  22.372  1.00  0.00     0.036 C 
ATOM     81  C   UNL A   1      31.798  23.662  23.014  1.00  0.00     0.037 C 
ATOM     82  C   UNL A   1      32.817  24.361  22.105  1.00  0.00     0.010 C 
BRANCH  78  83
ATOM     83  S   UNL A   1      31.482  22.658  26.418  1.00  0.00     0.262 S 
ATOM     84  O   UNL A   1      32.070  22.796  27.735  1.00  0.00    -0.201 OA
ATOM     85  O   UNL A   1      30.085  22.313  26.336  1.00  0.00    -0.201 OA
BRANCH  83  86
ATOM     86  N   UNL A   1      32.250  21.377  25.651  1.00  0.00    -0.277 N 
ATOM     87  H   UNL A   1      31.672  20.608  25.441  1.00  0.00     0.180 HD
BRANCH  86  88
ATOM     88  C   UNL A   1      33.615  21.238  25.259  1.00  0.00     0.075 A 
ATOM     89  C   UNL A   1      34.327  22.458  25.265  1.00  0.00     0.042 A 
ATOM     90  C   UNL A   1      34.330  20.061  25.021  1.00  0.00     0.089 A 
ATOM     91  C   UNL A   1      35.733  22.495  25.247  1.00  0.00     0.058 A 
ATOM     92  C   UNL A   1      35.736  20.093  24.952  1.00  0.00     0.031 A 
ATOM     93  C   UNL A   1      36.432  21.299  25.074  1.00  0.00     0.015 A 
BRANCH  90  94
ATOM     94  N   UNL A   1      33.715  18.807  24.860  1.00  0.00    -0.239 N 
ATOM     95  C   UNL A   1      34.105  17.784  24.034  1.00  0.00     0.115 A 
ATOM     96  N   UNL A   1      32.630  18.471  25.602  1.00  0.00    -0.177 NA
ATOM     97  C   UNL A   1      33.100  16.845  24.080  1.00  0.00     0.042 A 
ATOM     98  C   UNL A   1      32.190  17.349  25.024  1.00  0.00     0.135 A 
ENDBRANCH  90  94
BRANCH  91  99
ATOM     99  C   UNL A   1      36.454  23.795  25.527  1.00  0.00     0.416 C 
ATOM    100  F   UNL A   1      37.057  23.813  26.743  1.00  0.00    -0.166 F 
ATOM    101  F   UNL A   1      37.427  24.049  24.610  1.00  0.00    -0.166 F 
ATOM    102  F   UNL A   1      35.629  24.879  25.495  1.00  0.00    -0.166 F 
ENDBRANCH  91  99
ENDBRANCH  86  88
ENDBRANCH  83  86
ENDBRANCH  78  83
ENDBRANCH  72  74
ENDBRANCH  71  72
ENDBRANCH   1  71
TORSDOF 19
ENDMDL
MODEL 3
REMARK VINA RESULT:     -13.5      3.332      7.552
REMARK SMILES O=C(OCCOC(=O)c1cc2c(c(S(=O)(=O)Nc3cc(C(F)(F)F)ccc3-n3cccn3)c1)CCC2)c1ccc(-c2c3nc(c(-c4cc(S(=O)(=O)[O-])ccc4F)c4ccc([nH]4)c(-c4cc(S(=O)(=O)[O-])ccc4F)c4nc(c(-c5cc(S(=O)(=O)[O-])ccc5F)c5ccc2[nH]5)C=C4)C=C3)cc1
REMARK SMILES IDX 5 1 4 2 3 3 2 4 1 5 37 6 38 7 99 8 39 9 98 10 40 11 41 12
REMARK SMILES IDX 42 13 92 14 43 15 97 16 91 17 93 18 44 19 96 20 90 21 89 22
REMARK SMILES IDX 45 24 77 25 57 26 76 27 58 28 61 29 75 30 94 31 59 32 60 33
REMARK SMILES IDX 74 35 95 36 62 37 46 38 47 39 55 40 48 41 54 42 56 43 53 44
REMARK SMILES IDX 49 45 50 46 51 47 52 48 78 49 79 50 87 51 80 52 86 53 88 54
REMARK SMILES IDX 85 55 81 56 82 57 83 58 84 59 63 60 64 61 72 62 65 63 71 64
REMARK SMILES IDX 73 65 70 66 66 67 67 68 68 69 69 70 6 71 7 72 8 73 9 74
REMARK SMILES IDX 10 75 33 76 11 77 13 78 12 79 36 80 34 81 35 82 14 83 15 84
REMARK SMILES IDX 16 85 17 86 18 88 19 89 27 90 20 91 26 92 25 93 28 94 29 95
REMARK SMILES IDX 32 96 30 97 31 98 21 99 22 100 23 101 24 102
REMARK H PARENT 93 23 61 34 17 87
REMARK Flexibility Score: inf
ROOT
ATOM      1  C   UNL A   1      33.217  30.487  26.448  1.00  0.00     0.275 C 
ENDROOT
BRANCH   1   2
ATOM      2  C   UNL A   1      33.592  31.404  27.612  1.00  0.00     0.275 C 
BRANCH   2   3
ATOM      3  O   UNL A   1      34.646  30.964  28.490  1.00  0.00    -0.458 OA
BRANCH   3   4
ATOM      4  C   UNL A   1      35.678  31.804  28.727  1.00  0.00     0.338 C 
ATOM      5  O   UNL A   1      35.584  33.019  28.787  1.00  0.00    -0.246 OA
BRANCH   4   6
ATOM      6  C   UNL A   1      36.917  31.053  29.024  1.00  0.00     0.060 A 
ATOM      7  C   UNL A   1      36.933  29.652  29.055  1.00  0.00     0.016 A 
ATOM      8  C   UNL A   1      38.095  31.772  29.246  1.00  0.00     0.016 A 
ATOM      9  C   UNL A   1      38.105  28.974  29.365  1.00  0.00     0.010 A 
ATOM     10  C   UNL A   1      39.272  31.090  29.540  1.00  0.00     0.010 A 
ATOM     11  C   UNL A   1      39.272  29.691  29.632  1.00  0.00    -0.014 A 
BRANCH  11  12
ATOM     12  C   UNL A   1      40.497  28.932  29.914  1.00  0.00     0.031 A 
ATOM     13  C   UNL A   1      40.888  28.763  31.351  1.00  0.00     0.074 A 
ATOM     14  C   UNL A   1      41.159  28.258  28.948  1.00  0.00     0.049 A 
ATOM     15  N   UNL A   1      42.071  28.745  31.873  1.00  0.00    -0.248 NA
ATOM     16  C   UNL A   1      39.824  28.593  32.351  1.00  0.00     0.031 C 
ATOM     17  C   UNL A   1      40.774  28.126  27.540  1.00  0.00     0.029 A 
ATOM     18  N   UNL A   1      42.251  27.441  29.050  1.00  0.00    -0.354 N 
ATOM     19  C   UNL A   1      41.915  28.353  33.202  1.00  0.00     0.074 A 
ATOM     20  C   UNL A   1      40.504  28.283  33.453  1.00  0.00     0.031 C 
ATOM     21  C   UNL A   1      41.468  27.113  26.984  1.00  0.00     0.029 A 
ATOM     22  C   UNL A   1      42.420  26.599  27.956  1.00  0.00     0.049 A 
ATOM     23  H   UNL A   1      42.860  27.448  29.824  1.00  0.00     0.167 HD
ATOM     24  C   UNL A   1      42.968  28.001  33.984  1.00  0.00     0.034 A 
ATOM     25  C   UNL A   1      43.226  25.512  27.853  1.00  0.00     0.034 A 
ATOM     26  C   UNL A   1      44.167  28.686  33.569  1.00  0.00     0.049 A 
ATOM     27  C   UNL A   1      44.284  25.635  28.881  1.00  0.00     0.074 A 
ATOM     28  C   UNL A   1      44.476  30.022  33.384  1.00  0.00     0.029 A 
ATOM     29  N   UNL A   1      45.176  27.992  32.941  1.00  0.00    -0.354 N 
ATOM     30  N   UNL A   1      45.218  26.543  28.856  1.00  0.00    -0.248 NA
ATOM     31  C   UNL A   1      44.088  24.984  30.168  1.00  0.00     0.031 C 
ATOM     32  C   UNL A   1      45.299  30.045  32.223  1.00  0.00     0.029 A 
ATOM     33  C   UNL A   1      45.500  28.723  31.825  1.00  0.00     0.049 A 
ATOM     34  H   UNL A   1      45.584  27.145  33.232  1.00  0.00     0.167 HD
ATOM     35  C   UNL A   1      45.424  26.880  30.182  1.00  0.00     0.074 A 
ATOM     36  C   UNL A   1      44.802  25.802  30.945  1.00  0.00     0.031 C 
ATOM     37  C   UNL A   1      45.827  28.135  30.542  1.00  0.00     0.034 A 
BRANCH  24  38
ATOM     38  C   UNL A   1      42.977  26.771  34.863  1.00  0.00     0.023 A 
ATOM     39  C   UNL A   1      43.782  25.701  34.435  1.00  0.00     0.031 A 
ATOM     40  C   UNL A   1      42.009  26.461  35.845  1.00  0.00     0.131 A 
ATOM     41  C   UNL A   1      43.482  24.382  34.805  1.00  0.00     0.055 A 
ATOM     42  C   UNL A   1      41.770  25.151  36.277  1.00  0.00     0.041 A 
ATOM     43  F   UNL A   1      41.198  27.387  36.375  1.00  0.00    -0.206 F 
ATOM     44  C   UNL A   1      42.474  24.095  35.718  1.00  0.00     0.022 A 
BRANCH  41  45
ATOM     45  S   UNL A   1      44.269  23.054  33.857  1.00  0.00     0.124 S 
ATOM     46  O   UNL A   1      43.348  22.931  32.731  1.00  0.00    -0.237 OA
ATOM     47  O   UNL A   1      45.575  23.632  33.560  1.00  0.00    -0.237 OA
ATOM     48  O   UNL A   1      44.277  21.931  34.790  1.00  0.00    -0.744 OA
ENDBRANCH  41  45
ENDBRANCH  24  38
BRANCH  25  49
ATOM     49  C   UNL A   1      43.007  24.291  27.033  1.00  0.00     0.023 A 
ATOM     50  C   UNL A   1      43.976  23.797  26.138  1.00  0.00     0.031 A 
ATOM     51  C   UNL A   1      41.888  23.461  27.277  1.00  0.00     0.131 A 
ATOM     52  C   UNL A   1      43.794  22.539  25.517  1.00  0.00     0.055 A 
ATOM     53  C   UNL A   1      41.702  22.231  26.644  1.00  0.00     0.041 A 
ATOM     54  F   UNL A   1      40.973  23.779  28.207  1.00  0.00    -0.206 F 
ATOM     55  C   UNL A   1      42.659  21.762  25.763  1.00  0.00     0.022 A 
BRANCH  52  56
ATOM     56  S   UNL A   1      45.104  21.835  24.467  1.00  0.00     0.124 S 
ATOM     57  O   UNL A   1      45.344  22.908  23.508  1.00  0.00    -0.237 OA
ATOM     58  O   UNL A   1      46.171  21.569  25.425  1.00  0.00    -0.237 OA
ATOM     59  O   UNL A   1      44.480  20.636  23.904  1.00  0.00    -0.744 OA
ENDBRANCH  52  56
ENDBRANCH  25  49
BRANCH  37  60
ATOM     60  C   UNL A   1      46.384  29.068  29.487  1.00  0.00     0.023 A 
ATOM     61  C   UNL A   1      45.617  30.000  28.752  1.00  0.00     0.031 A 
ATOM     62  C   UNL A   1      47.782  29.100  29.317  1.00  0.00     0.131 A 
ATOM     63  C   UNL A   1      46.251  30.901  27.876  1.00  0.00     0.055 A 
ATOM     64  C   UNL A   1      48.407  30.011  28.466  1.00  0.00     0.041 A 
ATOM     65  F   UNL A   1      48.574  28.266  30.012  1.00  0.00    -0.206 F 
ATOM     66  C   UNL A   1      47.641  30.909  27.735  1.00  0.00     0.022 A 
BRANCH  63  67
ATOM     67  S   UNL A   1      45.273  32.072  26.884  1.00  0.00     0.124 S 
ATOM     68  O   UNL A   1      45.543  31.674  25.508  1.00  0.00    -0.237 OA
ATOM     69  O   UNL A   1      43.916  31.833  27.367  1.00  0.00    -0.237 OA
ATOM     70  O   UNL A   1      45.828  33.374  27.260  1.00  0.00    -0.744 OA
ENDBRANCH  63  67
ENDBRANCH  37  60
ENDBRANCH  11  12
ENDBRANCH   4   6
ENDBRANCH   3   4
ENDBRANCH   2   3
ENDBRANCH   1   2
BRANCH   1  71
ATOM     71  O   UNL A   1      33.850  29.205  26.603  1.00  0.00    -0.458 OA
BRANCH  71  72
ATOM     72  C   UNL A   1      33.024  28.165  26.874  1.00  0.00     0.338 C 
ATOM     73  O   UNL A   1      32.234  28.046  27.801  1.00  0.00    -0.246 OA
BRANCH  72  74
ATOM     74  C   UNL A   1      33.346  27.094  25.926  1.00  0.00     0.061 A 
ATOM     75  C   UNL A   1      33.800  25.896  26.464  1.00  0.00     0.019 A 
ATOM     76  C   UNL A   1      33.195  27.256  24.537  1.00  0.00     0.038 A 
ATOM     77  C   UNL A   1      34.182  24.908  25.583  1.00  0.00    -0.043 A 
ATOM     78  C   UNL A   1      33.591  26.238  23.631  1.00  0.00     0.092 A 
ATOM     79  C   UNL A   1      34.163  25.091  24.176  1.00  0.00    -0.024 A 
ATOM     80  C   UNL A   1      34.692  23.551  25.972  1.00  0.00     0.036 C 
ATOM     81  C   UNL A   1      34.926  23.943  23.597  1.00  0.00     0.037 C 
ATOM     82  C   UNL A   1      34.622  22.843  24.622  1.00  0.00     0.010 C 
BRANCH  78  83
ATOM     83  S   UNL A   1      33.231  26.586  21.913  1.00  0.00     0.262 S 
ATOM     84  O   UNL A   1      33.928  27.812  21.580  1.00  0.00    -0.201 OA
ATOM     85  O   UNL A   1      33.570  25.396  21.173  1.00  0.00    -0.201 OA
BRANCH  83  86
ATOM     86  N   UNL A   1      31.605  26.816  21.565  1.00  0.00    -0.277 N 
ATOM     87  H   UNL A   1      31.341  26.604  20.641  1.00  0.00     0.180 HD
BRANCH  86  88
ATOM     88  C   UNL A   1      30.550  27.273  22.410  1.00  0.00     0.075 A 
ATOM     89  C   UNL A   1      30.126  28.588  22.115  1.00  0.00     0.042 A 
ATOM     90  C   UNL A   1      29.823  26.546  23.356  1.00  0.00     0.089 A 
ATOM     91  C   UNL A   1      28.900  29.094  22.583  1.00  0.00     0.058 A 
ATOM     92  C   UNL A   1      28.618  27.063  23.869  1.00  0.00     0.031 A 
ATOM     93  C   UNL A   1      28.156  28.323  23.479  1.00  0.00     0.015 A 
BRANCH  90  94
ATOM     94  N   UNL A   1      30.223  25.283  23.827  1.00  0.00    -0.239 N 
ATOM     95  C   UNL A   1      30.372  24.885  25.132  1.00  0.00     0.115 A 
ATOM     96  N   UNL A   1      30.468  24.269  22.959  1.00  0.00    -0.177 NA
ATOM     97  C   UNL A   1      30.954  23.640  25.092  1.00  0.00     0.042 A 
ATOM     98  C   UNL A   1      31.038  23.333  23.724  1.00  0.00     0.135 A 
ENDBRANCH  90  94
BRANCH  91  99
ATOM     99  C   UNL A   1      28.362  30.394  22.028  1.00  0.00     0.416 C 
ATOM    100  F   UNL A   1      29.307  31.366  21.949  1.00  0.00    -0.166 F 
ATOM    101  F   UNL A   1      27.855  30.244  20.774  1.00  0.00    -0.166 F 
ATOM    102  F   UNL A   1      27.346  30.912  22.774  1.00  0.00    -0.166 F 
ENDBRANCH  91  99
ENDBRANCH  86  88
ENDBRANCH  83  86
ENDBRANCH  78  83
ENDBRANCH  72  74
ENDBRANCH  71  72
ENDBRANCH   1  71
TORSDOF 19
ENDMDL
