MODEL 1
REMARK VINA RESULT:      -9.4      0.000      0.000
REMARK SMILES C[C@H](C(=O)OCCOC(=O)c1ccc(-c2c3nc(c(-c4cc(S(=O)(=O)[O-])ccc4F)c4ccc([nH]4)c(-c4cc(S(=O)(=O)[O-])ccc4F)c4nc(c(-c5cc(S(=O)(=O)[O-])ccc5F)c5ccc2[nH]5)C=C4)C=C3)cc1)c1ccc(C[C@@H]2CCC[C@H]2O)cc1
REMARK SMILES IDX 6 1 5 2 3 3 4 4 2 5 1 6 74 7 75 8 86 9 76 10 85 11 77 12
REMARK SMILES IDX 78 13 79 14 80 15 83 16 81 17 82 18 84 19 7 21 8 22 9 23
REMARK SMILES IDX 10 24 11 25 12 26 73 27 13 28 72 29 14 30 15 31 16 32 66 33
REMARK SMILES IDX 17 34 71 35 65 36 67 37 18 38 70 39 64 40 63 41 19 43 51 44
REMARK SMILES IDX 31 45 50 46 32 47 35 48 49 49 68 50 33 51 34 52 48 54 69 55
REMARK SMILES IDX 36 56 20 57 21 58 29 59 22 60 28 61 30 62 27 63 23 64 24 65
REMARK SMILES IDX 25 66 26 67 52 68 53 69 61 70 54 71 60 72 62 73 59 74 55 75
REMARK SMILES IDX 56 76 57 77 58 78 37 79 38 80 46 81 39 82 45 83 47 84 44 85
REMARK SMILES IDX 40 86 41 87 42 88 43 89
REMARK H PARENT 84 20 67 42 35 53
REMARK Flexibility Score: inf
ROOT
ATOM      1  C   UNL A   1      42.681  20.286  26.447  1.00  0.00     0.274 C 
ENDROOT
BRANCH   1   2
ATOM      2  O   UNL A   1      43.303  20.882  25.293  1.00  0.00    -0.462 OA
BRANCH   2   3
ATOM      3  C   UNL A   1      43.603  22.214  25.389  1.00  0.00     0.313 C 
ATOM      4  O   UNL A   1      42.785  23.113  25.251  1.00  0.00    -0.252 OA
BRANCH   3   5
ATOM      5  C   UNL A   1      45.092  22.393  25.695  1.00  0.00     0.126 C 
ATOM      6  C   UNL A   1      45.820  23.014  24.502  1.00  0.00     0.025 C 
BRANCH   5   7
ATOM      7  C   UNL A   1      45.337  23.151  26.993  1.00  0.00    -0.034 A 
ATOM      8  C   UNL A   1      46.401  24.055  27.128  1.00  0.00     0.005 A 
ATOM      9  C   UNL A   1      44.446  23.012  28.066  1.00  0.00     0.005 A 
ATOM     10  C   UNL A   1      46.543  24.831  28.282  1.00  0.00     0.004 A 
ATOM     11  C   UNL A   1      44.572  23.809  29.206  1.00  0.00     0.004 A 
ATOM     12  C   UNL A   1      45.621  24.724  29.330  1.00  0.00    -0.048 A 
BRANCH  12  13
ATOM     13  C   UNL A   1      45.739  25.599  30.554  1.00  0.00     0.041 C 
BRANCH  13  14
ATOM     14  C   UNL A   1      44.931  26.912  30.585  1.00  0.00     0.022 C 
ATOM     15  C   UNL A   1      45.674  28.096  31.208  1.00  0.00     0.007 C 
ATOM     16  C   UNL A   1      43.622  26.855  31.381  1.00  0.00     0.117 C 
ATOM     17  C   UNL A   1      45.257  28.138  32.674  1.00  0.00     0.003 C 
ATOM     18  C   UNL A   1      43.951  27.351  32.788  1.00  0.00     0.032 C 
BRANCH  16  19
ATOM     19  O   UNL A   1      42.662  27.745  30.810  1.00  0.00    -0.393 OA
ATOM     20  H   UNL A   1      42.097  28.105  31.512  1.00  0.00     0.210 HD
ENDBRANCH  16  19
ENDBRANCH  13  14
ENDBRANCH  12  13
ENDBRANCH   5   7
ENDBRANCH   3   5
ENDBRANCH   2   3
ENDBRANCH   1   2
BRANCH   1  21
ATOM     21  C   UNL A   1      41.250  19.886  26.104  1.00  0.00     0.275 C 
BRANCH  21  22
ATOM     22  O   UNL A   1      40.341  20.572  26.983  1.00  0.00    -0.458 OA
BRANCH  22  23
ATOM     23  C   UNL A   1      39.498  21.446  26.391  1.00  0.00     0.338 C 
ATOM     24  O   UNL A   1      38.619  21.195  25.575  1.00  0.00    -0.246 OA
BRANCH  23  25
ATOM     25  C   UNL A   1      39.770  22.804  26.882  1.00  0.00     0.060 A 
ATOM     26  C   UNL A   1      39.222  23.894  26.213  1.00  0.00     0.016 A 
ATOM     27  C   UNL A   1      40.669  23.004  27.930  1.00  0.00     0.016 A 
ATOM     28  C   UNL A   1      39.639  25.186  26.533  1.00  0.00     0.010 A 
ATOM     29  C   UNL A   1      41.018  24.309  28.304  1.00  0.00     0.010 A 
ATOM     30  C   UNL A   1      40.541  25.418  27.582  1.00  0.00    -0.014 A 
BRANCH  30  31
ATOM     31  C   UNL A   1      41.032  26.802  27.873  1.00  0.00     0.031 A 
ATOM     32  C   UNL A   1      42.440  27.199  27.499  1.00  0.00     0.074 A 
ATOM     33  C   UNL A   1      40.222  27.724  28.433  1.00  0.00     0.049 A 
ATOM     34  N   UNL A   1      43.118  28.272  27.825  1.00  0.00    -0.248 NA
ATOM     35  C   UNL A   1      43.188  26.256  26.655  1.00  0.00     0.031 C 
ATOM     36  C   UNL A   1      38.817  27.518  28.789  1.00  0.00     0.029 A 
ATOM     37  N   UNL A   1      40.462  29.030  28.793  1.00  0.00    -0.354 N 
ATOM     38  C   UNL A   1      44.386  28.108  27.274  1.00  0.00     0.074 A 
ATOM     39  C   UNL A   1      44.382  26.827  26.600  1.00  0.00     0.031 C 
ATOM     40  C   UNL A   1      38.311  28.662  29.271  1.00  0.00     0.029 A 
ATOM     41  C   UNL A   1      39.374  29.658  29.357  1.00  0.00     0.049 A 
ATOM     42  H   UNL A   1      41.330  29.474  28.660  1.00  0.00     0.167 HD
ATOM     43  C   UNL A   1      45.453  28.946  27.327  1.00  0.00     0.034 A 
ATOM     44  C   UNL A   1      39.250  30.874  29.926  1.00  0.00     0.034 A 
ATOM     45  C   UNL A   1      45.434  30.243  27.960  1.00  0.00     0.049 A 
ATOM     46  C   UNL A   1      40.461  31.765  30.024  1.00  0.00     0.074 A 
ATOM     47  C   UNL A   1      46.463  31.163  28.076  1.00  0.00     0.029 A 
ATOM     48  N   UNL A   1      44.325  30.815  28.569  1.00  0.00    -0.354 N 
ATOM     49  N   UNL A   1      41.682  31.549  29.594  1.00  0.00    -0.248 NA
ATOM     50  C   UNL A   1      40.280  33.054  30.704  1.00  0.00     0.031 C 
ATOM     51  C   UNL A   1      45.991  32.267  28.798  1.00  0.00     0.029 A 
ATOM     52  C   UNL A   1      44.650  32.063  29.080  1.00  0.00     0.049 A 
ATOM     53  H   UNL A   1      43.437  30.395  28.631  1.00  0.00     0.167 HD
ATOM     54  C   UNL A   1      42.413  32.679  29.951  1.00  0.00     0.074 A 
ATOM     55  C   UNL A   1      41.492  33.583  30.608  1.00  0.00     0.031 C 
ATOM     56  C   UNL A   1      43.729  32.944  29.756  1.00  0.00     0.034 A 
BRANCH  43  57
ATOM     57  C   UNL A   1      46.753  28.448  26.741  1.00  0.00     0.023 A 
ATOM     58  C   UNL A   1      46.971  28.373  25.355  1.00  0.00     0.031 A 
ATOM     59  C   UNL A   1      47.781  28.010  27.596  1.00  0.00     0.131 A 
ATOM     60  C   UNL A   1      48.161  27.810  24.866  1.00  0.00     0.055 A 
ATOM     61  C   UNL A   1      48.991  27.518  27.103  1.00  0.00     0.041 A 
ATOM     62  F   UNL A   1      47.621  28.039  28.929  1.00  0.00    -0.206 F 
ATOM     63  C   UNL A   1      49.181  27.403  25.730  1.00  0.00     0.022 A 
BRANCH  60  64
ATOM     64  S   UNL A   1      48.303  27.487  23.086  1.00  0.00     0.124 S 
ATOM     65  O   UNL A   1      49.600  28.083  22.778  1.00  0.00    -0.237 OA
ATOM     66  O   UNL A   1      48.237  26.031  23.023  1.00  0.00    -0.237 OA
ATOM     67  O   UNL A   1      47.153  28.188  22.518  1.00  0.00    -0.744 OA
ENDBRANCH  60  64
ENDBRANCH  43  57
BRANCH  44  68
ATOM     68  C   UNL A   1      37.953  31.293  30.532  1.00  0.00     0.023 A 
ATOM     69  C   UNL A   1      36.986  31.977  29.781  1.00  0.00     0.031 A 
ATOM     70  C   UNL A   1      37.685  31.050  31.891  1.00  0.00     0.131 A 
ATOM     71  C   UNL A   1      35.807  32.422  30.401  1.00  0.00     0.055 A 
ATOM     72  C   UNL A   1      36.490  31.447  32.490  1.00  0.00     0.041 A 
ATOM     73  F   UNL A   1      38.580  30.405  32.656  1.00  0.00    -0.206 F 
ATOM     74  C   UNL A   1      35.546  32.148  31.747  1.00  0.00     0.022 A 
BRANCH  71  75
ATOM     75  S   UNL A   1      34.644  33.432  29.443  1.00  0.00     0.124 S 
ATOM     76  O   UNL A   1      34.096  32.453  28.512  1.00  0.00    -0.237 OA
ATOM     77  O   UNL A   1      33.736  33.914  30.479  1.00  0.00    -0.237 OA
ATOM     78  O   UNL A   1      35.497  34.456  28.842  1.00  0.00    -0.744 OA
ENDBRANCH  71  75
ENDBRANCH  44  68
BRANCH  56  79
ATOM     79  C   UNL A   1      44.233  34.279  30.241  1.00  0.00     0.023 A 
ATOM     80  C   UNL A   1      44.118  35.439  29.454  1.00  0.00     0.031 A 
ATOM     81  C   UNL A   1      44.859  34.387  31.495  1.00  0.00     0.131 A 
ATOM     82  C   UNL A   1      44.665  36.648  29.909  1.00  0.00     0.055 A 
ATOM     83  C   UNL A   1      45.360  35.603  31.962  1.00  0.00     0.041 A 
ATOM     84  F   UNL A   1      44.996  33.310  32.284  1.00  0.00    -0.206 F 
ATOM     85  C   UNL A   1      45.275  36.740  31.163  1.00  0.00     0.022 A 
BRANCH  82  86
ATOM     86  S   UNL A   1      44.638  38.088  28.806  1.00  0.00     0.124 S 
ATOM     87  O   UNL A   1      45.677  37.752  27.839  1.00  0.00    -0.237 OA
ATOM     88  O   UNL A   1      43.268  38.072  28.303  1.00  0.00    -0.237 OA
ATOM     89  O   UNL A   1      44.956  39.207  29.693  1.00  0.00    -0.744 OA
ENDBRANCH  82  86
ENDBRANCH  56  79
ENDBRANCH  30  31
ENDBRANCH  23  25
ENDBRANCH  22  23
ENDBRANCH  21  22
ENDBRANCH   1  21
TORSDOF 18
ENDMDL
MODEL 2
REMARK VINA RESULT:      -9.1      1.448      1.794
REMARK SMILES C[C@H](C(=O)OCCOC(=O)c1ccc(-c2c3nc(c(-c4cc(S(=O)(=O)[O-])ccc4F)c4ccc([nH]4)c(-c4cc(S(=O)(=O)[O-])ccc4F)c4nc(c(-c5cc(S(=O)(=O)[O-])ccc5F)c5ccc2[nH]5)C=C4)C=C3)cc1)c1ccc(C[C@@H]2CCC[C@H]2O)cc1
REMARK SMILES IDX 6 1 5 2 3 3 4 4 2 5 1 6 74 7 75 8 86 9 76 10 85 11 77 12
REMARK SMILES IDX 78 13 79 14 80 15 83 16 81 17 82 18 84 19 7 21 8 22 9 23
REMARK SMILES IDX 10 24 11 25 12 26 73 27 13 28 72 29 14 30 15 31 16 32 66 33
REMARK SMILES IDX 17 34 71 35 65 36 67 37 18 38 70 39 64 40 63 41 19 43 51 44
REMARK SMILES IDX 31 45 50 46 32 47 35 48 49 49 68 50 33 51 34 52 48 54 69 55
REMARK SMILES IDX 36 56 20 57 21 58 29 59 22 60 28 61 30 62 27 63 23 64 24 65
REMARK SMILES IDX 25 66 26 67 52 68 53 69 61 70 54 71 60 72 62 73 59 74 55 75
REMARK SMILES IDX 56 76 57 77 58 78 37 79 38 80 46 81 39 82 45 83 47 84 44 85
REMARK SMILES IDX 40 86 41 87 42 88 43 89
REMARK H PARENT 84 20 67 42 35 53
REMARK Flexibility Score: inf
ROOT
ATOM      1  C   UNL A   1      42.620  20.022  26.440  1.00  0.00     0.274 C 
ENDROOT
BRANCH   1   2
ATOM      2  O   UNL A   1      43.085  21.062  25.559  1.00  0.00    -0.462 OA
BRANCH   2   3
ATOM      3  C   UNL A   1      44.432  21.092  25.322  1.00  0.00     0.313 C 
ATOM      4  O   UNL A   1      45.139  20.096  25.250  1.00  0.00    -0.252 OA
BRANCH   3   5
ATOM      5  C   UNL A   1      44.901  22.540  25.161  1.00  0.00     0.126 C 
ATOM      6  C   UNL A   1      43.841  23.378  24.443  1.00  0.00     0.025 C 
BRANCH   5   7
ATOM      7  C   UNL A   1      45.348  23.162  26.479  1.00  0.00    -0.034 A 
ATOM      8  C   UNL A   1      46.505  23.950  26.566  1.00  0.00     0.005 A 
ATOM      9  C   UNL A   1      44.558  23.015  27.627  1.00  0.00     0.005 A 
ATOM     10  C   UNL A   1      46.836  24.609  27.753  1.00  0.00     0.004 A 
ATOM     11  C   UNL A   1      44.874  23.699  28.803  1.00  0.00     0.004 A 
ATOM     12  C   UNL A   1      46.017  24.500  28.882  1.00  0.00    -0.048 A 
BRANCH  12  13
ATOM     13  C   UNL A   1      46.342  25.255  30.148  1.00  0.00     0.041 C 
BRANCH  13  14
ATOM     14  C   UNL A   1      45.464  26.469  30.511  1.00  0.00     0.022 C 
ATOM     15  C   UNL A   1      46.125  27.461  31.473  1.00  0.00     0.007 C 
ATOM     16  C   UNL A   1      44.138  26.135  31.202  1.00  0.00     0.117 C 
ATOM     17  C   UNL A   1      45.664  27.069  32.872  1.00  0.00     0.003 C 
ATOM     18  C   UNL A   1      44.399  26.227  32.704  1.00  0.00     0.032 C 
BRANCH  16  19
ATOM     19  O   UNL A   1      43.150  27.108  30.863  1.00  0.00    -0.393 OA
ATOM     20  H   UNL A   1      42.528  26.729  30.222  1.00  0.00     0.210 HD
ENDBRANCH  16  19
ENDBRANCH  13  14
ENDBRANCH  12  13
ENDBRANCH   5   7
ENDBRANCH   3   5
ENDBRANCH   2   3
ENDBRANCH   1   2
BRANCH   1  21
ATOM     21  C   UNL A   1      41.146  19.743  26.163  1.00  0.00     0.275 C 
BRANCH  21  22
ATOM     22  O   UNL A   1      40.337  20.578  27.011  1.00  0.00    -0.458 OA
BRANCH  22  23
ATOM     23  C   UNL A   1      39.568  21.490  26.375  1.00  0.00     0.338 C 
ATOM     24  O   UNL A   1      38.733  21.280  25.504  1.00  0.00    -0.246 OA
BRANCH  23  25
ATOM     25  C   UNL A   1      39.863  22.832  26.896  1.00  0.00     0.060 A 
ATOM     26  C   UNL A   1      39.292  23.942  26.281  1.00  0.00     0.016 A 
ATOM     27  C   UNL A   1      40.802  23.000  27.914  1.00  0.00     0.016 A 
ATOM     28  C   UNL A   1      39.725  25.224  26.623  1.00  0.00     0.010 A 
ATOM     29  C   UNL A   1      41.168  24.292  28.313  1.00  0.00     0.010 A 
ATOM     30  C   UNL A   1      40.668  25.423  27.643  1.00  0.00    -0.014 A 
BRANCH  30  31
ATOM     31  C   UNL A   1      41.173  26.797  27.956  1.00  0.00     0.031 A 
ATOM     32  C   UNL A   1      42.575  27.196  27.559  1.00  0.00     0.074 A 
ATOM     33  C   UNL A   1      40.381  27.709  28.556  1.00  0.00     0.049 A 
ATOM     34  N   UNL A   1      43.265  28.257  27.896  1.00  0.00    -0.248 NA
ATOM     35  C   UNL A   1      43.298  26.269  26.676  1.00  0.00     0.031 C 
ATOM     36  C   UNL A   1      38.983  27.502  28.939  1.00  0.00     0.029 A 
ATOM     37  N   UNL A   1      40.637  29.005  28.942  1.00  0.00    -0.354 N 
ATOM     38  C   UNL A   1      44.520  28.099  27.312  1.00  0.00     0.074 A 
ATOM     39  C   UNL A   1      44.493  26.834  26.608  1.00  0.00     0.031 C 
ATOM     40  C   UNL A   1      38.495  28.637  29.461  1.00  0.00     0.029 A 
ATOM     41  C   UNL A   1      39.565  29.624  29.546  1.00  0.00     0.049 A 
ATOM     42  H   UNL A   1      41.504  29.447  28.800  1.00  0.00     0.167 HD
ATOM     43  C   UNL A   1      45.593  28.929  27.360  1.00  0.00     0.034 A 
ATOM     44  C   UNL A   1      39.462  30.827  30.146  1.00  0.00     0.034 A 
ATOM     45  C   UNL A   1      45.595  30.211  28.025  1.00  0.00     0.049 A 
ATOM     46  C   UNL A   1      40.680  31.710  30.238  1.00  0.00     0.074 A 
ATOM     47  C   UNL A   1      46.632  31.123  28.139  1.00  0.00     0.029 A 
ATOM     48  N   UNL A   1      44.504  30.774  28.673  1.00  0.00    -0.354 N 
ATOM     49  N   UNL A   1      41.890  31.498  29.775  1.00  0.00    -0.248 NA
ATOM     50  C   UNL A   1      40.522  32.982  30.953  1.00  0.00     0.031 C 
ATOM     51  C   UNL A   1      46.184  32.211  28.899  1.00  0.00     0.029 A 
ATOM     52  C   UNL A   1      44.848  32.008  29.206  1.00  0.00     0.049 A 
ATOM     53  H   UNL A   1      43.615  30.358  28.745  1.00  0.00     0.167 HD
ATOM     54  C   UNL A   1      42.635  32.614  30.142  1.00  0.00     0.074 A 
ATOM     55  C   UNL A   1      41.734  33.507  30.842  1.00  0.00     0.031 C 
ATOM     56  C   UNL A   1      43.948  32.877  29.924  1.00  0.00     0.034 A 
BRANCH  43  57
ATOM     57  C   UNL A   1      46.876  28.439  26.733  1.00  0.00     0.023 A 
ATOM     58  C   UNL A   1      47.057  28.384  25.341  1.00  0.00     0.031 A 
ATOM     59  C   UNL A   1      47.926  27.988  27.554  1.00  0.00     0.131 A 
ATOM     60  C   UNL A   1      48.233  27.827  24.812  1.00  0.00     0.055 A 
ATOM     61  C   UNL A   1      49.122  27.503  27.022  1.00  0.00     0.041 A 
ATOM     62  F   UNL A   1      47.801  27.998  28.891  1.00  0.00    -0.206 F 
ATOM     63  C   UNL A   1      49.275  27.407  25.643  1.00  0.00     0.022 A 
BRANCH  60  64
ATOM     64  S   UNL A   1      48.327  27.530  23.025  1.00  0.00     0.124 S 
ATOM     65  O   UNL A   1      47.159  28.261  22.541  1.00  0.00    -0.237 OA
ATOM     66  O   UNL A   1      49.625  28.097  22.678  1.00  0.00    -0.237 OA
ATOM     67  O   UNL A   1      48.232  26.076  22.913  1.00  0.00    -0.744 OA
ENDBRANCH  60  64
ENDBRANCH  43  57
BRANCH  44  68
ATOM     68  C   UNL A   1      38.182  31.239  30.792  1.00  0.00     0.023 A 
ATOM     69  C   UNL A   1      37.190  31.922  30.073  1.00  0.00     0.031 A 
ATOM     70  C   UNL A   1      37.954  30.988  32.158  1.00  0.00     0.131 A 
ATOM     71  C   UNL A   1      36.028  32.359  30.729  1.00  0.00     0.055 A 
ATOM     72  C   UNL A   1      36.776  31.378  32.793  1.00  0.00     0.041 A 
ATOM     73  F   UNL A   1      38.874  30.343  32.893  1.00  0.00    -0.206 F 
ATOM     74  C   UNL A   1      35.808  32.078  32.081  1.00  0.00     0.022 A 
BRANCH  71  75
ATOM     75  S   UNL A   1      34.834  33.368  29.810  1.00  0.00     0.124 S 
ATOM     76  O   UNL A   1      35.706  34.319  29.132  1.00  0.00    -0.237 OA
ATOM     77  O   UNL A   1      34.185  32.373  28.962  1.00  0.00    -0.237 OA
ATOM     78  O   UNL A   1      33.987  33.934  30.859  1.00  0.00    -0.744 OA
ENDBRANCH  71  75
ENDBRANCH  44  68
BRANCH  56  79
ATOM     79  C   UNL A   1      44.470  34.197  30.429  1.00  0.00     0.023 A 
ATOM     80  C   UNL A   1      45.017  34.327  31.719  1.00  0.00     0.031 A 
ATOM     81  C   UNL A   1      44.395  35.345  29.621  1.00  0.00     0.131 A 
ATOM     82  C   UNL A   1      45.425  35.587  32.180  1.00  0.00     0.055 A 
ATOM     83  C   UNL A   1      44.846  36.588  30.069  1.00  0.00     0.041 A 
ATOM     84  F   UNL A   1      43.881  35.275  28.383  1.00  0.00    -0.206 F 
ATOM     85  C   UNL A   1      45.354  36.716  31.359  1.00  0.00     0.022 A 
BRANCH  82  86
ATOM     86  S   UNL A   1      45.981  35.750  33.899  1.00  0.00     0.124 S 
ATOM     87  O   UNL A   1      45.995  37.198  34.080  1.00  0.00    -0.237 OA
ATOM     88  O   UNL A   1      44.946  35.026  34.632  1.00  0.00    -0.237 OA
ATOM     89  O   UNL A   1      47.297  35.113  33.897  1.00  0.00    -0.744 OA
ENDBRANCH  82  86
ENDBRANCH  56  79
ENDBRANCH  30  31
ENDBRANCH  23  25
ENDBRANCH  22  23
ENDBRANCH  21  22
ENDBRANCH   1  21
TORSDOF 18
ENDMDL
MODEL 3
REMARK VINA RESULT:      -9.1      3.913     10.202
REMARK SMILES C[C@H](C(=O)OCCOC(=O)c1ccc(-c2c3nc(c(-c4cc(S(=O)(=O)[O-])ccc4F)c4ccc([nH]4)c(-c4cc(S(=O)(=O)[O-])ccc4F)c4nc(c(-c5cc(S(=O)(=O)[O-])ccc5F)c5ccc2[nH]5)C=C4)C=C3)cc1)c1ccc(C[C@@H]2CCC[C@H]2O)cc1
REMARK SMILES IDX 6 1 5 2 3 3 4 4 2 5 1 6 74 7 75 8 86 9 76 10 85 11 77 12
REMARK SMILES IDX 78 13 79 14 80 15 83 16 81 17 82 18 84 19 7 21 8 22 9 23
REMARK SMILES IDX 10 24 11 25 12 26 73 27 13 28 72 29 14 30 15 31 16 32 66 33
REMARK SMILES IDX 17 34 71 35 65 36 67 37 18 38 70 39 64 40 63 41 19 43 51 44
REMARK SMILES IDX 31 45 50 46 32 47 35 48 49 49 68 50 33 51 34 52 48 54 69 55
REMARK SMILES IDX 36 56 20 57 21 58 29 59 22 60 28 61 30 62 27 63 23 64 24 65
REMARK SMILES IDX 25 66 26 67 52 68 53 69 61 70 54 71 60 72 62 73 59 74 55 75
REMARK SMILES IDX 56 76 57 77 58 78 37 79 38 80 46 81 39 82 45 83 47 84 44 85
REMARK SMILES IDX 40 86 41 87 42 88 43 89
REMARK H PARENT 84 20 67 42 35 53
REMARK Flexibility Score: inf
ROOT
ATOM      1  C   UNL A   1      35.052  20.648  24.682  1.00  0.00     0.274 C 
ENDROOT
BRANCH   1   2
ATOM      2  O   UNL A   1      34.479  21.386  25.778  1.00  0.00    -0.462 OA
BRANCH   2   3
ATOM      3  C   UNL A   1      33.116  21.506  25.776  1.00  0.00     0.313 C 
ATOM      4  O   UNL A   1      32.378  20.936  24.984  1.00  0.00    -0.252 OA
BRANCH   3   5
ATOM      5  C   UNL A   1      32.674  22.445  26.901  1.00  0.00     0.126 C 
ATOM      6  C   UNL A   1      33.715  22.479  28.021  1.00  0.00     0.025 C 
BRANCH   5   7
ATOM      7  C   UNL A   1      32.309  23.835  26.394  1.00  0.00    -0.034 A 
ATOM      8  C   UNL A   1      30.982  24.293  26.392  1.00  0.00     0.005 A 
ATOM      9  C   UNL A   1      33.315  24.719  25.986  1.00  0.00     0.005 A 
ATOM     10  C   UNL A   1      30.679  25.611  26.037  1.00  0.00     0.004 A 
ATOM     11  C   UNL A   1      33.014  26.044  25.660  1.00  0.00     0.004 A 
ATOM     12  C   UNL A   1      31.694  26.504  25.677  1.00  0.00    -0.048 A 
BRANCH  12  13
ATOM     13  C   UNL A   1      31.376  27.942  25.348  1.00  0.00     0.041 C 
BRANCH  13  14
ATOM     14  C   UNL A   1      30.997  28.284  23.893  1.00  0.00     0.022 C 
ATOM     15  C   UNL A   1      30.387  27.119  23.109  1.00  0.00     0.007 C 
ATOM     16  C   UNL A   1      32.158  28.741  23.005  1.00  0.00     0.117 C 
ATOM     17  C   UNL A   1      31.539  26.465  22.353  1.00  0.00     0.003 C 
ATOM     18  C   UNL A   1      32.667  27.495  22.283  1.00  0.00     0.032 C 
BRANCH  16  19
ATOM     19  O   UNL A   1      31.689  29.662  22.019  1.00  0.00    -0.393 OA
ATOM     20  H   UNL A   1      30.770  29.906  22.215  1.00  0.00     0.210 HD
ENDBRANCH  16  19
ENDBRANCH  13  14
ENDBRANCH  12  13
ENDBRANCH   5   7
ENDBRANCH   3   5
ENDBRANCH   2   3
ENDBRANCH   1   2
BRANCH   1  21
ATOM     21  C   UNL A   1      36.452  20.176  25.063  1.00  0.00     0.275 C 
BRANCH  21  22
ATOM     22  O   UNL A   1      37.221  21.299  25.529  1.00  0.00    -0.458 OA
BRANCH  22  23
ATOM     23  C   UNL A   1      38.516  21.045  25.819  1.00  0.00     0.338 C 
ATOM     24  O   UNL A   1      39.135  20.009  25.608  1.00  0.00    -0.246 OA
BRANCH  23  25
ATOM     25  C   UNL A   1      39.124  22.229  26.440  1.00  0.00     0.060 A 
ATOM     26  C   UNL A   1      38.625  23.492  26.133  1.00  0.00     0.016 A 
ATOM     27  C   UNL A   1      40.268  22.100  27.228  1.00  0.00     0.016 A 
ATOM     28  C   UNL A   1      39.320  24.631  26.541  1.00  0.00     0.010 A 
ATOM     29  C   UNL A   1      40.912  23.248  27.708  1.00  0.00     0.010 A 
ATOM     30  C   UNL A   1      40.472  24.531  27.335  1.00  0.00    -0.014 A 
BRANCH  30  31
ATOM     31  C   UNL A   1      41.246  25.757  27.712  1.00  0.00     0.031 A 
ATOM     32  C   UNL A   1      40.598  26.830  28.554  1.00  0.00     0.074 A 
ATOM     33  C   UNL A   1      42.535  25.906  27.344  1.00  0.00     0.049 A 
ATOM     34  N   UNL A   1      41.021  28.039  28.832  1.00  0.00    -0.248 NA
ATOM     35  C   UNL A   1      39.296  26.502  29.152  1.00  0.00     0.031 C 
ATOM     36  C   UNL A   1      43.323  24.929  26.589  1.00  0.00     0.029 A 
ATOM     37  N   UNL A   1      43.419  26.937  27.566  1.00  0.00    -0.354 N 
ATOM     38  C   UNL A   1      40.015  28.633  29.589  1.00  0.00     0.074 A 
ATOM     39  C   UNL A   1      38.958  27.651  29.717  1.00  0.00     0.031 C 
ATOM     40  C   UNL A   1      44.576  25.385  26.451  1.00  0.00     0.029 A 
ATOM     41  C   UNL A   1      44.663  26.728  27.015  1.00  0.00     0.049 A 
ATOM     42  H   UNL A   1      43.183  27.747  28.072  1.00  0.00     0.167 HD
ATOM     43  C   UNL A   1      39.974  29.879  30.125  1.00  0.00     0.034 A 
ATOM     44  C   UNL A   1      45.738  27.537  26.924  1.00  0.00     0.034 A 
ATOM     45  C   UNL A   1      41.053  30.835  30.034  1.00  0.00     0.049 A 
ATOM     46  C   UNL A   1      45.652  28.937  27.476  1.00  0.00     0.074 A 
ATOM     47  C   UNL A   1      41.108  32.126  30.533  1.00  0.00     0.029 A 
ATOM     48  N   UNL A   1      42.274  30.601  29.416  1.00  0.00    -0.354 N 
ATOM     49  N   UNL A   1      44.652  29.521  28.094  1.00  0.00    -0.248 NA
ATOM     50  C   UNL A   1      46.833  29.791  27.298  1.00  0.00     0.031 C 
ATOM     51  C   UNL A   1      42.339  32.689  30.174  1.00  0.00     0.029 A 
ATOM     52  C   UNL A   1      43.078  31.728  29.504  1.00  0.00     0.049 A 
ATOM     53  H   UNL A   1      42.531  29.758  28.978  1.00  0.00     0.167 HD
ATOM     54  C   UNL A   1      45.088  30.812  28.379  1.00  0.00     0.074 A 
ATOM     55  C   UNL A   1      46.447  30.912  27.890  1.00  0.00     0.031 C 
ATOM     56  C   UNL A   1      44.423  31.824  28.989  1.00  0.00     0.034 A 
BRANCH  43  57
ATOM     57  C   UNL A   1      38.691  30.302  30.798  1.00  0.00     0.023 A 
ATOM     58  C   UNL A   1      37.656  30.948  30.100  1.00  0.00     0.031 A 
ATOM     59  C   UNL A   1      38.519  30.080  32.177  1.00  0.00     0.131 A 
ATOM     60  C   UNL A   1      36.526  31.408  30.797  1.00  0.00     0.055 A 
ATOM     61  C   UNL A   1      37.361  30.476  32.849  1.00  0.00     0.041 A 
ATOM     62  F   UNL A   1      39.483  29.486  32.898  1.00  0.00    -0.206 F 
ATOM     63  C   UNL A   1      36.362  31.156  32.161  1.00  0.00     0.022 A 
BRANCH  60  64
ATOM     64  S   UNL A   1      35.336  32.462  29.923  1.00  0.00     0.124 S 
ATOM     65  O   UNL A   1      34.874  31.572  28.861  1.00  0.00    -0.237 OA
ATOM     66  O   UNL A   1      34.364  32.772  30.965  1.00  0.00    -0.237 OA
ATOM     67  O   UNL A   1      36.145  33.592  29.470  1.00  0.00    -0.744 OA
ENDBRANCH  60  64
ENDBRANCH  43  57
BRANCH  44  68
ATOM     68  C   UNL A   1      46.963  27.083  26.205  1.00  0.00     0.023 A 
ATOM     69  C   UNL A   1      48.009  26.439  26.882  1.00  0.00     0.031 A 
ATOM     70  C   UNL A   1      47.120  27.330  24.828  1.00  0.00     0.131 A 
ATOM     71  C   UNL A   1      49.180  26.091  26.189  1.00  0.00     0.055 A 
ATOM     72  C   UNL A   1      48.262  26.934  24.133  1.00  0.00     0.041 A 
ATOM     73  F   UNL A   1      46.151  27.949  24.134  1.00  0.00    -0.206 F 
ATOM     74  C   UNL A   1      49.306  26.320  24.816  1.00  0.00     0.022 A 
BRANCH  71  75
ATOM     75  S   UNL A   1      50.572  25.396  27.121  1.00  0.00     0.124 S 
ATOM     76  O   UNL A   1      51.003  26.542  27.913  1.00  0.00    -0.237 OA
ATOM     77  O   UNL A   1      49.932  24.309  27.857  1.00  0.00    -0.237 OA
ATOM     78  O   UNL A   1      51.503  24.972  26.077  1.00  0.00    -0.744 OA
ENDBRANCH  71  75
ENDBRANCH  44  68
BRANCH  56  79
ATOM     79  C   UNL A   1      45.176  33.116  29.177  1.00  0.00     0.023 A 
ATOM     80  C   UNL A   1      45.171  34.121  28.193  1.00  0.00     0.031 A 
ATOM     81  C   UNL A   1      45.929  33.333  30.344  1.00  0.00     0.131 A 
ATOM     82  C   UNL A   1      45.943  35.278  28.373  1.00  0.00     0.055 A 
ATOM     83  C   UNL A   1      46.659  34.507  30.538  1.00  0.00     0.041 A 
ATOM     84  F   UNL A   1      45.969  32.405  31.313  1.00  0.00    -0.206 F 
ATOM     85  C   UNL A   1      46.678  35.482  29.544  1.00  0.00     0.022 A 
BRANCH  82  86
ATOM     86  S   UNL A   1      46.039  36.484  27.021  1.00  0.00     0.124 S 
ATOM     87  O   UNL A   1      44.793  37.224  27.183  1.00  0.00    -0.237 OA
ATOM     88  O   UNL A   1      47.262  37.215  27.341  1.00  0.00    -0.237 OA
ATOM     89  O   UNL A   1      46.114  35.650  25.822  1.00  0.00    -0.744 OA
ENDBRANCH  82  86
ENDBRANCH  56  79
ENDBRANCH  30  31
ENDBRANCH  23  25
ENDBRANCH  22  23
ENDBRANCH  21  22
ENDBRANCH   1  21
TORSDOF 18
ENDMDL
