MODEL 1
REMARK VINA RESULT:     -11.0      0.000      0.000
REMARK SMILES Cc1cc(NC[C@H](C)[NH+](C)C)cc(C(=O)OCCOC(=O)c2ccc(-c3c4nc(c(-c5cc(S(=O)(=O)[O-])ccc5F)c5ccc([nH]5)c(-c5cc(S(=O)(=O)[O-])ccc5F)c5nc(c(-c6cc(S(=O)(=O)[O-])ccc6F)c6ccc3[nH]6)C=C5)C=C4)cc2)c1N
REMARK SMILES IDX 17 1 16 2 14 3 15 4 13 5 1 6 2 7 3 8 85 9 4 10 12 11 86 12
REMARK SMILES IDX 5 15 6 17 7 18 8 19 9 20 10 21 11 22 18 24 19 25 20 26 21 27
REMARK SMILES IDX 22 28 23 29 84 30 24 31 83 32 25 33 26 34 27 35 77 36 28 37
REMARK SMILES IDX 82 38 76 39 78 40 29 41 81 42 75 43 74 44 30 46 62 47 42 48
REMARK SMILES IDX 61 49 43 50 46 51 60 52 79 53 44 54 45 55 59 57 80 58 47 59
REMARK SMILES IDX 31 60 32 61 40 62 33 63 39 64 41 65 38 66 34 67 35 68 36 69
REMARK SMILES IDX 37 70 63 71 64 72 72 73 65 74 71 75 73 76 70 77 66 78 67 79
REMARK SMILES IDX 68 80 69 81 48 82 49 83 57 84 50 85 56 86 58 87 55 88 51 89
REMARK SMILES IDX 52 90 53 91 54 92
REMARK H PARENT 86 13 86 14 5 16 9 23 78 45 46 56
REMARK Flexibility Score: inf
ROOT
ATOM      1  C   UNL A   1      35.442  22.211  24.143  1.00  0.00     0.275 C 
ENDROOT
BRANCH   1   2
ATOM      2  O   UNL A   1      34.130  22.690  24.501  1.00  0.00    -0.458 OA
BRANCH   2   3
ATOM      3  C   UNL A   1      34.075  23.759  25.341  1.00  0.00     0.340 C 
ATOM      4  O   UNL A   1      35.032  24.368  25.795  1.00  0.00    -0.246 OA
BRANCH   3   5
ATOM      5  C   UNL A   1      32.655  24.122  25.606  1.00  0.00     0.085 A 
ATOM      6  C   UNL A   1      29.509  22.748  27.265  1.00  0.00     0.047 C 
ATOM      7  C   UNL A   1      30.467  23.626  26.502  1.00  0.00    -0.025 A 
ATOM      8  C   UNL A   1      30.058  24.925  26.148  1.00  0.00     0.031 A 
ATOM      9  C   UNL A   1      31.750  23.179  26.139  1.00  0.00     0.049 A 
ATOM     10  C   UNL A   1      30.903  25.812  25.474  1.00  0.00     0.035 A 
ATOM     11  C   UNL A   1      32.223  25.415  25.271  1.00  0.00     0.043 A 
BRANCH   9  12
ATOM     12  N   UNL A   1      32.140  21.873  26.429  1.00  0.00    -0.398 N 
ATOM     13  H   UNL A   1      31.507  21.256  26.863  1.00  0.00     0.156 HD
ATOM     14  H   UNL A   1      33.048  21.568  26.201  1.00  0.00     0.156 HD
ENDBRANCH   9  12
BRANCH  10  15
ATOM     15  N   UNL A   1      30.412  27.042  25.080  1.00  0.00    -0.379 N 
ATOM     16  H   UNL A   1      29.436  27.165  25.036  1.00  0.00     0.160 HD
BRANCH  15  17
ATOM     17  C   UNL A   1      31.268  28.166  24.724  1.00  0.00     0.177 C 
BRANCH  17  18
ATOM     18  C   UNL A   1      31.073  28.615  23.246  1.00  0.00     0.199 C 
ATOM     19  C   UNL A   1      29.623  28.313  22.828  1.00  0.00     0.077 C 
BRANCH  18  20
ATOM     20  N   UNL A   1      32.014  28.095  22.223  1.00  0.00    -0.336 N 
ATOM     21  C   UNL A   1      33.415  28.355  22.552  1.00  0.00     0.332 C 
ATOM     22  C   UNL A   1      31.842  26.676  21.911  1.00  0.00     0.332 C 
ATOM     23  H   UNL A   1      31.766  28.621  21.385  1.00  0.00     0.347 HD
ENDBRANCH  18  20
ENDBRANCH  17  18
ENDBRANCH  15  17
ENDBRANCH  10  15
ENDBRANCH   3   5
ENDBRANCH   2   3
ENDBRANCH   1   2
BRANCH   1  24
ATOM     24  C   UNL A   1      35.823  21.015  25.014  1.00  0.00     0.275 C 
BRANCH  24  25
ATOM     25  O   UNL A   1      36.745  21.466  26.015  1.00  0.00    -0.458 OA
BRANCH  25  26
ATOM     26  C   UNL A   1      38.062  21.303  25.740  1.00  0.00     0.338 C 
ATOM     27  O   UNL A   1      38.565  20.376  25.129  1.00  0.00    -0.246 OA
BRANCH  26  28
ATOM     28  C   UNL A   1      38.815  22.449  26.311  1.00  0.00     0.060 A 
ATOM     29  C   UNL A   1      38.385  23.757  26.084  1.00  0.00     0.016 A 
ATOM     30  C   UNL A   1      39.991  22.237  27.030  1.00  0.00     0.016 A 
ATOM     31  C   UNL A   1      39.139  24.844  26.525  1.00  0.00     0.010 A 
ATOM     32  C   UNL A   1      40.706  23.332  27.542  1.00  0.00     0.010 A 
ATOM     33  C   UNL A   1      40.301  24.656  27.279  1.00  0.00    -0.014 A 
BRANCH  33  34
ATOM     34  C   UNL A   1      41.130  25.827  27.709  1.00  0.00     0.031 A 
ATOM     35  C   UNL A   1      40.528  26.864  28.624  1.00  0.00     0.074 A 
ATOM     36  C   UNL A   1      42.420  25.967  27.335  1.00  0.00     0.049 A 
ATOM     37  N   UNL A   1      40.944  28.074  28.898  1.00  0.00    -0.248 NA
ATOM     38  C   UNL A   1      39.276  26.493  29.301  1.00  0.00     0.031 C 
ATOM     39  C   UNL A   1      43.181  25.016  26.523  1.00  0.00     0.029 A 
ATOM     40  N   UNL A   1      43.330  26.965  27.603  1.00  0.00    -0.354 N 
ATOM     41  C   UNL A   1      39.960  28.642  29.703  1.00  0.00     0.074 A 
ATOM     42  C   UNL A   1      38.936  27.634  29.883  1.00  0.00     0.031 C 
ATOM     43  C   UNL A   1      44.447  25.447  26.406  1.00  0.00     0.029 A 
ATOM     44  C   UNL A   1      44.566  26.760  27.031  1.00  0.00     0.049 A 
ATOM     45  H   UNL A   1      43.115  27.753  28.153  1.00  0.00     0.167 HD
ATOM     46  C   UNL A   1      39.913  29.892  30.228  1.00  0.00     0.034 A 
ATOM     47  C   UNL A   1      45.653  27.556  26.960  1.00  0.00     0.034 A 
ATOM     48  C   UNL A   1      40.981  30.856  30.110  1.00  0.00     0.049 A 
ATOM     49  C   UNL A   1      45.582  28.943  27.550  1.00  0.00     0.074 A 
ATOM     50  C   UNL A   1      41.031  32.155  30.587  1.00  0.00     0.029 A 
ATOM     51  N   UNL A   1      42.203  30.615  29.495  1.00  0.00    -0.354 N 
ATOM     52  N   UNL A   1      44.584  29.524  28.174  1.00  0.00    -0.248 NA
ATOM     53  C   UNL A   1      46.772  29.790  27.396  1.00  0.00     0.031 C 
ATOM     54  C   UNL A   1      42.266  32.710  30.231  1.00  0.00     0.029 A 
ATOM     55  C   UNL A   1      43.011  31.739  29.581  1.00  0.00     0.049 A 
ATOM     56  H   UNL A   1      42.459  29.769  29.062  1.00  0.00     0.167 HD
ATOM     57  C   UNL A   1      45.028  30.808  28.480  1.00  0.00     0.074 A 
ATOM     58  C   UNL A   1      46.393  30.903  28.006  1.00  0.00     0.031 C 
ATOM     59  C   UNL A   1      44.363  31.823  29.087  1.00  0.00     0.034 A 
BRANCH  46  60
ATOM     60  C   UNL A   1      38.634  30.310  30.912  1.00  0.00     0.023 A 
ATOM     61  C   UNL A   1      37.602  30.981  30.237  1.00  0.00     0.031 A 
ATOM     62  C   UNL A   1      38.464  30.050  32.285  1.00  0.00     0.131 A 
ATOM     63  C   UNL A   1      36.478  31.427  30.949  1.00  0.00     0.055 A 
ATOM     64  C   UNL A   1      37.310  30.428  32.972  1.00  0.00     0.041 A 
ATOM     65  F   UNL A   1      39.427  29.429  32.987  1.00  0.00    -0.206 F 
ATOM     66  C   UNL A   1      36.313  31.133  32.306  1.00  0.00     0.022 A 
BRANCH  63  67
ATOM     67  S   UNL A   1      35.287  32.507  30.108  1.00  0.00     0.124 S 
ATOM     68  O   UNL A   1      36.129  33.643  29.739  1.00  0.00    -0.237 OA
ATOM     69  O   UNL A   1      34.825  31.670  29.006  1.00  0.00    -0.237 OA
ATOM     70  O   UNL A   1      34.289  32.788  31.138  1.00  0.00    -0.744 OA
ENDBRANCH  63  67
ENDBRANCH  46  60
BRANCH  47  71
ATOM     71  C   UNL A   1      46.873  27.113  26.221  1.00  0.00     0.023 A 
ATOM     72  C   UNL A   1      47.135  27.555  24.914  1.00  0.00     0.031 A 
ATOM     73  C   UNL A   1      47.771  26.195  26.797  1.00  0.00     0.131 A 
ATOM     74  C   UNL A   1      48.248  27.057  24.217  1.00  0.00     0.055 A 
ATOM     75  C   UNL A   1      48.908  25.749  26.122  1.00  0.00     0.041 A 
ATOM     76  F   UNL A   1      47.563  25.729  28.039  1.00  0.00    -0.206 F 
ATOM     77  C   UNL A   1      49.145  26.172  24.819  1.00  0.00     0.022 A 
BRANCH  74  78
ATOM     78  S   UNL A   1      48.465  27.516  22.475  1.00  0.00     0.124 S 
ATOM     79  O   UNL A   1      47.251  28.284  22.216  1.00  0.00    -0.237 OA
ATOM     80  O   UNL A   1      49.709  28.277  22.514  1.00  0.00    -0.237 OA
ATOM     81  O   UNL A   1      48.545  26.228  21.790  1.00  0.00    -0.744 OA
ENDBRANCH  74  78
ENDBRANCH  47  71
BRANCH  59  82
ATOM     82  C   UNL A   1      45.124  33.108  29.290  1.00  0.00     0.023 A 
ATOM     83  C   UNL A   1      45.043  34.163  28.365  1.00  0.00     0.031 A 
ATOM     84  C   UNL A   1      45.961  33.266  30.408  1.00  0.00     0.131 A 
ATOM     85  C   UNL A   1      45.829  35.311  28.546  1.00  0.00     0.055 A 
ATOM     86  C   UNL A   1      46.704  34.429  30.608  1.00  0.00     0.041 A 
ATOM     87  F   UNL A   1      46.074  32.286  31.319  1.00  0.00    -0.206 F 
ATOM     88  C   UNL A   1      46.650  35.456  29.668  1.00  0.00     0.022 A 
BRANCH  85  89
ATOM     89  S   UNL A   1      45.826  36.585  27.254  1.00  0.00     0.124 S 
ATOM     90  O   UNL A   1      44.520  36.385  26.634  1.00  0.00    -0.237 OA
ATOM     91  O   UNL A   1      45.986  37.813  28.024  1.00  0.00    -0.237 OA
ATOM     92  O   UNL A   1      46.970  36.226  26.417  1.00  0.00    -0.744 OA
ENDBRANCH  85  89
ENDBRANCH  59  82
ENDBRANCH  33  34
ENDBRANCH  26  28
ENDBRANCH  25  26
ENDBRANCH  24  25
ENDBRANCH   1  24
TORSDOF 19
ENDMDL
MODEL 2
REMARK VINA RESULT:     -10.8      5.193     10.071
REMARK SMILES Cc1cc(NC[C@H](C)[NH+](C)C)cc(C(=O)OCCOC(=O)c2ccc(-c3c4nc(c(-c5cc(S(=O)(=O)[O-])ccc5F)c5ccc([nH]5)c(-c5cc(S(=O)(=O)[O-])ccc5F)c5nc(c(-c6cc(S(=O)(=O)[O-])ccc6F)c6ccc3[nH]6)C=C5)C=C4)cc2)c1N
REMARK SMILES IDX 17 1 16 2 14 3 15 4 13 5 1 6 2 7 3 8 85 9 4 10 12 11 86 12
REMARK SMILES IDX 5 15 6 17 7 18 8 19 9 20 10 21 11 22 18 24 19 25 20 26 21 27
REMARK SMILES IDX 22 28 23 29 84 30 24 31 83 32 25 33 26 34 27 35 77 36 28 37
REMARK SMILES IDX 82 38 76 39 78 40 29 41 81 42 75 43 74 44 30 46 62 47 42 48
REMARK SMILES IDX 61 49 43 50 46 51 60 52 79 53 44 54 45 55 59 57 80 58 47 59
REMARK SMILES IDX 31 60 32 61 40 62 33 63 39 64 41 65 38 66 34 67 35 68 36 69
REMARK SMILES IDX 37 70 63 71 64 72 72 73 65 74 71 75 73 76 70 77 66 78 67 79
REMARK SMILES IDX 68 80 69 81 48 82 49 83 57 84 50 85 56 86 58 87 55 88 51 89
REMARK SMILES IDX 52 90 53 91 54 92
REMARK H PARENT 86 13 86 14 5 16 9 23 78 45 46 56
REMARK Flexibility Score: inf
ROOT
ATOM      1  C   UNL A   1      31.834  28.187  26.882  1.00  0.00     0.275 C 
ENDROOT
BRANCH   1   2
ATOM      2  O   UNL A   1      32.568  27.110  26.264  1.00  0.00    -0.458 OA
BRANCH   2   3
ATOM      3  C   UNL A   1      31.919  25.920  26.135  1.00  0.00     0.340 C 
ATOM      4  O   UNL A   1      31.032  25.501  26.863  1.00  0.00    -0.246 OA
BRANCH   3   5
ATOM      5  C   UNL A   1      32.418  25.200  24.930  1.00  0.00     0.085 A 
ATOM      6  C   UNL A   1      32.656  25.580  21.143  1.00  0.00     0.047 C 
ATOM      7  C   UNL A   1      32.745  25.027  22.542  1.00  0.00    -0.025 A 
ATOM      8  C   UNL A   1      33.471  23.841  22.756  1.00  0.00     0.031 A 
ATOM      9  C   UNL A   1      32.123  25.666  23.631  1.00  0.00     0.049 A 
ATOM     10  C   UNL A   1      33.631  23.287  24.030  1.00  0.00     0.035 A 
ATOM     11  C   UNL A   1      33.154  24.019  25.115  1.00  0.00     0.043 A 
BRANCH   9  12
ATOM     12  N   UNL A   1      31.349  26.805  23.418  1.00  0.00    -0.398 N 
ATOM     13  H   UNL A   1      31.775  27.692  23.397  1.00  0.00     0.156 HD
ATOM     14  H   UNL A   1      30.376  26.722  23.290  1.00  0.00     0.156 HD
ENDBRANCH   9  12
BRANCH  10  15
ATOM     15  N   UNL A   1      34.283  22.076  24.161  1.00  0.00    -0.379 N 
ATOM     16  H   UNL A   1      35.099  21.922  23.631  1.00  0.00     0.160 HD
BRANCH  15  17
ATOM     17  C   UNL A   1      33.821  21.013  25.043  1.00  0.00     0.177 C 
BRANCH  17  18
ATOM     18  C   UNL A   1      33.711  19.642  24.314  1.00  0.00     0.199 C 
ATOM     19  C   UNL A   1      32.380  19.601  23.543  1.00  0.00     0.077 C 
BRANCH  18  20
ATOM     20  N   UNL A   1      33.870  18.403  25.115  1.00  0.00    -0.336 N 
ATOM     21  C   UNL A   1      32.605  17.705  25.343  1.00  0.00     0.332 C 
ATOM     22  C   UNL A   1      34.856  17.463  24.584  1.00  0.00     0.332 C 
ATOM     23  H   UNL A   1      34.227  18.743  26.008  1.00  0.00     0.347 HD
ENDBRANCH  18  20
ENDBRANCH  17  18
ENDBRANCH  15  17
ENDBRANCH  10  15
ENDBRANCH   3   5
ENDBRANCH   2   3
ENDBRANCH   1   2
BRANCH   1  24
ATOM     24  C   UNL A   1      31.736  29.375  25.926  1.00  0.00     0.275 C 
BRANCH  24  25
ATOM     25  O   UNL A   1      33.003  30.046  25.915  1.00  0.00    -0.458 OA
BRANCH  25  26
ATOM     26  C   UNL A   1      33.180  31.017  26.844  1.00  0.00     0.338 C 
ATOM     27  O   UNL A   1      32.403  31.919  27.104  1.00  0.00    -0.246 OA
BRANCH  26  28
ATOM     28  C   UNL A   1      34.492  30.810  27.508  1.00  0.00     0.060 A 
ATOM     29  C   UNL A   1      34.919  29.524  27.840  1.00  0.00     0.016 A 
ATOM     30  C   UNL A   1      35.287  31.900  27.861  1.00  0.00     0.016 A 
ATOM     31  C   UNL A   1      36.098  29.324  28.556  1.00  0.00     0.010 A 
ATOM     32  C   UNL A   1      36.514  31.691  28.512  1.00  0.00     0.010 A 
ATOM     33  C   UNL A   1      36.929  30.398  28.889  1.00  0.00    -0.014 A 
BRANCH  33  34
ATOM     34  C   UNL A   1      38.171  30.181  29.697  1.00  0.00     0.031 A 
ATOM     35  C   UNL A   1      39.304  29.374  29.113  1.00  0.00     0.074 A 
ATOM     36  C   UNL A   1      38.328  30.719  30.926  1.00  0.00     0.049 A 
ATOM     37  N   UNL A   1      40.333  28.830  29.711  1.00  0.00    -0.248 NA
ATOM     38  C   UNL A   1      39.255  29.131  27.664  1.00  0.00     0.031 C 
ATOM     39  C   UNL A   1      37.367  31.591  31.606  1.00  0.00     0.029 A 
ATOM     40  N   UNL A   1      39.367  30.620  31.824  1.00  0.00    -0.354 N 
ATOM     41  C   UNL A   1      41.002  28.104  28.731  1.00  0.00     0.074 A 
ATOM     42  C   UNL A   1      40.267  28.292  27.497  1.00  0.00     0.031 C 
ATOM     43  C   UNL A   1      37.883  31.988  32.779  1.00  0.00     0.029 A 
ATOM     44  C   UNL A   1      39.157  31.311  32.997  1.00  0.00     0.049 A 
ATOM     45  H   UNL A   1      40.185  30.103  31.643  1.00  0.00     0.167 HD
ATOM     46  C   UNL A   1      42.117  27.340  28.856  1.00  0.00     0.034 A 
ATOM     47  C   UNL A   1      39.870  31.352  34.142  1.00  0.00     0.034 A 
ATOM     48  C   UNL A   1      42.886  27.231  30.072  1.00  0.00     0.049 A 
ATOM     49  C   UNL A   1      41.107  30.496  34.262  1.00  0.00     0.074 A 
ATOM     50  C   UNL A   1      44.020  26.473  30.314  1.00  0.00     0.029 A 
ATOM     51  N   UNL A   1      42.619  27.925  31.246  1.00  0.00    -0.354 N 
ATOM     52  N   UNL A   1      41.642  29.690  33.376  1.00  0.00    -0.248 NA
ATOM     53  C   UNL A   1      41.815  30.532  35.548  1.00  0.00     0.031 C 
ATOM     54  C   UNL A   1      44.416  26.681  31.641  1.00  0.00     0.029 A 
ATOM     55  C   UNL A   1      43.564  27.613  32.211  1.00  0.00     0.049 A 
ATOM     56  H   UNL A   1      41.867  28.548  31.373  1.00  0.00     0.167 HD
ATOM     57  C   UNL A   1      42.747  29.119  34.003  1.00  0.00     0.074 A 
ATOM     58  C   UNL A   1      42.822  29.700  35.327  1.00  0.00     0.031 C 
ATOM     59  C   UNL A   1      43.614  28.187  33.532  1.00  0.00     0.034 A 
BRANCH  46  60
ATOM     60  C   UNL A   1      42.525  26.506  27.665  1.00  0.00     0.023 A 
ATOM     61  C   UNL A   1      42.039  25.206  27.453  1.00  0.00     0.031 A 
ATOM     62  C   UNL A   1      43.446  27.026  26.737  1.00  0.00     0.131 A 
ATOM     63  C   UNL A   1      42.527  24.446  26.379  1.00  0.00     0.055 A 
ATOM     64  C   UNL A   1      43.870  26.293  25.627  1.00  0.00     0.041 A 
ATOM     65  F   UNL A   1      43.960  28.256  26.899  1.00  0.00    -0.206 F 
ATOM     66  C   UNL A   1      43.420  24.989  25.450  1.00  0.00     0.022 A 
BRANCH  63  67
ATOM     67  S   UNL A   1      42.077  22.691  26.279  1.00  0.00     0.124 S 
ATOM     68  O   UNL A   1      42.714  22.155  27.479  1.00  0.00    -0.237 OA
ATOM     69  O   UNL A   1      40.619  22.738  26.296  1.00  0.00    -0.237 OA
ATOM     70  O   UNL A   1      42.672  22.254  25.017  1.00  0.00    -0.744 OA
ENDBRANCH  63  67
ENDBRANCH  46  60
BRANCH  47  71
ATOM     71  C   UNL A   1      39.390  32.150  35.309  1.00  0.00     0.023 A 
ATOM     72  C   UNL A   1      39.785  33.485  35.492  1.00  0.00     0.031 A 
ATOM     73  C   UNL A   1      38.565  31.568  36.289  1.00  0.00     0.131 A 
ATOM     74  C   UNL A   1      39.381  34.183  36.642  1.00  0.00     0.055 A 
ATOM     75  C   UNL A   1      38.117  32.284  37.400  1.00  0.00     0.041 A 
ATOM     76  F   UNL A   1      38.166  30.291  36.172  1.00  0.00    -0.206 F 
ATOM     77  C   UNL A   1      38.535  33.597  37.587  1.00  0.00     0.022 A 
BRANCH  74  78
ATOM     78  S   UNL A   1      40.045  35.846  36.934  1.00  0.00     0.124 S 
ATOM     79  O   UNL A   1      39.318  36.251  38.132  1.00  0.00    -0.237 OA
ATOM     80  O   UNL A   1      41.469  35.578  37.107  1.00  0.00    -0.237 OA
ATOM     81  O   UNL A   1      39.693  36.572  35.716  1.00  0.00    -0.744 OA
ENDBRANCH  74  78
ENDBRANCH  47  71
BRANCH  59  82
ATOM     82  C   UNL A   1      44.729  27.770  34.457  1.00  0.00     0.023 A 
ATOM     83  C   UNL A   1      44.595  26.666  35.316  1.00  0.00     0.031 A 
ATOM     84  C   UNL A   1      45.927  28.504  34.497  1.00  0.00     0.131 A 
ATOM     85  C   UNL A   1      45.624  26.357  36.219  1.00  0.00     0.055 A 
ATOM     86  C   UNL A   1      46.965  28.163  35.364  1.00  0.00     0.041 A 
ATOM     87  F   UNL A   1      46.102  29.568  33.697  1.00  0.00    -0.206 F 
ATOM     88  C   UNL A   1      46.813  27.092  36.240  1.00  0.00     0.022 A 
BRANCH  85  89
ATOM     89  S   UNL A   1      45.357  25.028  37.424  1.00  0.00     0.124 S 
ATOM     90  O   UNL A   1      45.240  23.855  36.563  1.00  0.00    -0.237 OA
ATOM     91  O   UNL A   1      46.562  25.101  38.243  1.00  0.00    -0.237 OA
ATOM     92  O   UNL A   1      44.123  25.423  38.103  1.00  0.00    -0.744 OA
ENDBRANCH  85  89
ENDBRANCH  59  82
ENDBRANCH  33  34
ENDBRANCH  26  28
ENDBRANCH  25  26
ENDBRANCH  24  25
ENDBRANCH   1  24
TORSDOF 19
ENDMDL
MODEL 3
REMARK VINA RESULT:     -10.8      5.112     10.109
REMARK SMILES Cc1cc(NC[C@H](C)[NH+](C)C)cc(C(=O)OCCOC(=O)c2ccc(-c3c4nc(c(-c5cc(S(=O)(=O)[O-])ccc5F)c5ccc([nH]5)c(-c5cc(S(=O)(=O)[O-])ccc5F)c5nc(c(-c6cc(S(=O)(=O)[O-])ccc6F)c6ccc3[nH]6)C=C5)C=C4)cc2)c1N
REMARK SMILES IDX 17 1 16 2 14 3 15 4 13 5 1 6 2 7 3 8 85 9 4 10 12 11 86 12
REMARK SMILES IDX 5 15 6 17 7 18 8 19 9 20 10 21 11 22 18 24 19 25 20 26 21 27
REMARK SMILES IDX 22 28 23 29 84 30 24 31 83 32 25 33 26 34 27 35 77 36 28 37
REMARK SMILES IDX 82 38 76 39 78 40 29 41 81 42 75 43 74 44 30 46 62 47 42 48
REMARK SMILES IDX 61 49 43 50 46 51 60 52 79 53 44 54 45 55 59 57 80 58 47 59
REMARK SMILES IDX 31 60 32 61 40 62 33 63 39 64 41 65 38 66 34 67 35 68 36 69
REMARK SMILES IDX 37 70 63 71 64 72 72 73 65 74 71 75 73 76 70 77 66 78 67 79
REMARK SMILES IDX 68 80 69 81 48 82 49 83 57 84 50 85 56 86 58 87 55 88 51 89
REMARK SMILES IDX 52 90 53 91 54 92
REMARK H PARENT 86 13 86 14 5 16 9 23 78 45 46 56
REMARK Flexibility Score: inf
ROOT
ATOM      1  C   UNL A   1      32.305  28.066  25.176  1.00  0.00     0.275 C 
ENDROOT
BRANCH   1   2
ATOM      2  O   UNL A   1      31.087  27.294  25.226  1.00  0.00    -0.458 OA
BRANCH   2   3
ATOM      3  C   UNL A   1      30.892  26.391  24.226  1.00  0.00     0.340 C 
ATOM      4  O   UNL A   1      30.652  26.651  23.057  1.00  0.00    -0.246 OA
BRANCH   3   5
ATOM      5  C   UNL A   1      31.058  25.009  24.754  1.00  0.00     0.085 A 
ATOM      6  C   UNL A   1      29.480  22.580  27.236  1.00  0.00     0.047 C 
ATOM      7  C   UNL A   1      30.398  23.198  26.213  1.00  0.00    -0.025 A 
ATOM      8  C   UNL A   1      31.374  22.388  25.603  1.00  0.00     0.031 A 
ATOM      9  C   UNL A   1      30.302  24.556  25.857  1.00  0.00     0.049 A 
ATOM     10  C   UNL A   1      32.236  22.879  24.618  1.00  0.00     0.035 A 
ATOM     11  C   UNL A   1      32.017  24.176  24.158  1.00  0.00     0.043 A 
BRANCH   9  12
ATOM     12  N   UNL A   1      29.382  25.380  26.502  1.00  0.00    -0.398 N 
ATOM     13  H   UNL A   1      29.697  26.115  27.077  1.00  0.00     0.156 HD
ATOM     14  H   UNL A   1      28.416  25.227  26.383  1.00  0.00     0.156 HD
ENDBRANCH   9  12
BRANCH  10  15
ATOM     15  N   UNL A   1      33.229  22.056  24.120  1.00  0.00    -0.379 N 
ATOM     16  H   UNL A   1      33.637  22.285  23.253  1.00  0.00     0.160 HD
BRANCH  15  17
ATOM     17  C   UNL A   1      33.699  20.865  24.814  1.00  0.00     0.177 C 
BRANCH  17  18
ATOM     18  C   UNL A   1      34.921  21.158  25.733  1.00  0.00     0.199 C 
ATOM     19  C   UNL A   1      34.404  21.556  27.126  1.00  0.00     0.077 C 
BRANCH  18  20
ATOM     20  N   UNL A   1      35.931  22.142  25.268  1.00  0.00    -0.336 N 
ATOM     21  C   UNL A   1      36.011  23.324  26.126  1.00  0.00     0.332 C 
ATOM     22  C   UNL A   1      37.271  21.587  25.078  1.00  0.00     0.332 C 
ATOM     23  H   UNL A   1      35.586  22.421  24.350  1.00  0.00     0.347 HD
ENDBRANCH  18  20
ENDBRANCH  17  18
ENDBRANCH  15  17
ENDBRANCH  10  15
ENDBRANCH   3   5
ENDBRANCH   2   3
ENDBRANCH   1   2
BRANCH   1  24
ATOM     24  C   UNL A   1      31.993  29.554  25.333  1.00  0.00     0.275 C 
BRANCH  24  25
ATOM     25  O   UNL A   1      32.125  29.896  26.719  1.00  0.00    -0.458 OA
BRANCH  25  26
ATOM     26  C   UNL A   1      32.665  31.108  26.993  1.00  0.00     0.338 C 
ATOM     27  O   UNL A   1      32.159  32.193  26.765  1.00  0.00    -0.246 OA
BRANCH  26  28
ATOM     28  C   UNL A   1      33.994  30.907  27.626  1.00  0.00     0.060 A 
ATOM     29  C   UNL A   1      34.452  29.620  27.908  1.00  0.00     0.016 A 
ATOM     30  C   UNL A   1      34.773  32.002  27.999  1.00  0.00     0.016 A 
ATOM     31  C   UNL A   1      35.649  29.422  28.595  1.00  0.00     0.010 A 
ATOM     32  C   UNL A   1      36.017  31.797  28.620  1.00  0.00     0.010 A 
ATOM     33  C   UNL A   1      36.465  30.501  28.947  1.00  0.00    -0.014 A 
BRANCH  33  34
ATOM     34  C   UNL A   1      37.725  30.284  29.725  1.00  0.00     0.031 A 
ATOM     35  C   UNL A   1      38.854  29.501  29.103  1.00  0.00     0.074 A 
ATOM     36  C   UNL A   1      37.903  30.802  30.960  1.00  0.00     0.049 A 
ATOM     37  N   UNL A   1      39.902  28.959  29.669  1.00  0.00    -0.248 NA
ATOM     38  C   UNL A   1      38.778  29.283  27.651  1.00  0.00     0.031 C 
ATOM     39  C   UNL A   1      36.947  31.651  31.675  1.00  0.00     0.029 A 
ATOM     40  N   UNL A   1      38.962  30.700  31.834  1.00  0.00    -0.354 N 
ATOM     41  C   UNL A   1      40.559  28.258  28.662  1.00  0.00     0.074 A 
ATOM     42  C   UNL A   1      39.795  28.459  27.447  1.00  0.00     0.031 C 
ATOM     43  C   UNL A   1      37.484  32.033  32.845  1.00  0.00     0.029 A 
ATOM     44  C   UNL A   1      38.770  31.367  33.023  1.00  0.00     0.049 A 
ATOM     45  H   UNL A   1      39.782  30.196  31.626  1.00  0.00     0.167 HD
ATOM     46  C   UNL A   1      41.684  27.505  28.749  1.00  0.00     0.034 A 
ATOM     47  C   UNL A   1      39.506  31.396  34.153  1.00  0.00     0.034 A 
ATOM     48  C   UNL A   1      42.480  27.383  29.947  1.00  0.00     0.049 A 
ATOM     49  C   UNL A   1      40.755  30.552  34.232  1.00  0.00     0.074 A 
ATOM     50  C   UNL A   1      43.627  26.634  30.151  1.00  0.00     0.029 A 
ATOM     51  N   UNL A   1      42.230  28.053  31.138  1.00  0.00    -0.354 N 
ATOM     52  N   UNL A   1      41.280  29.768  33.320  1.00  0.00    -0.248 NA
ATOM     53  C   UNL A   1      41.490  30.574  35.503  1.00  0.00     0.031 C 
ATOM     54  C   UNL A   1      44.050  26.823  31.472  1.00  0.00     0.029 A 
ATOM     55  C   UNL A   1      43.199  27.735  32.077  1.00  0.00     0.049 A 
ATOM     56  H   UNL A   1      41.475  28.665  31.292  1.00  0.00     0.167 HD
ATOM     57  C   UNL A   1      42.404  29.199  33.913  1.00  0.00     0.074 A 
ATOM     58  C   UNL A   1      42.501  29.758  35.245  1.00  0.00     0.031 C 
ATOM     59  C   UNL A   1      43.271  28.286  33.407  1.00  0.00     0.034 A 
BRANCH  46  60
ATOM     60  C   UNL A   1      42.075  26.697  27.535  1.00  0.00     0.023 A 
ATOM     61  C   UNL A   1      41.765  25.334  27.404  1.00  0.00     0.031 A 
ATOM     62  C   UNL A   1      42.803  27.311  26.498  1.00  0.00     0.131 A 
ATOM     63  C   UNL A   1      42.238  24.615  26.295  1.00  0.00     0.055 A 
ATOM     64  C   UNL A   1      43.204  26.608  25.361  1.00  0.00     0.041 A 
ATOM     65  F   UNL A   1      43.145  28.607  26.579  1.00  0.00    -0.206 F 
ATOM     66  C   UNL A   1      42.933  25.247  25.261  1.00  0.00     0.022 A 
BRANCH  63  67
ATOM     67  S   UNL A   1      42.041  22.811  26.280  1.00  0.00     0.124 S 
ATOM     68  O   UNL A   1      42.653  22.459  25.001  1.00  0.00    -0.237 OA
ATOM     69  O   UNL A   1      42.775  22.403  27.473  1.00  0.00    -0.237 OA
ATOM     70  O   UNL A   1      40.593  22.622  26.345  1.00  0.00    -0.744 OA
ENDBRANCH  63  67
ENDBRANCH  46  60
BRANCH  47  71
ATOM     71  C   UNL A   1      39.042  32.168  35.344  1.00  0.00     0.023 A 
ATOM     72  C   UNL A   1      38.444  31.527  36.441  1.00  0.00     0.031 A 
ATOM     73  C   UNL A   1      39.145  33.571  35.378  1.00  0.00     0.131 A 
ATOM     74  C   UNL A   1      37.945  32.289  37.510  1.00  0.00     0.055 A 
ATOM     75  C   UNL A   1      38.701  34.319  36.470  1.00  0.00     0.041 A 
ATOM     76  F   UNL A   1      39.696  34.237  34.351  1.00  0.00    -0.206 F 
ATOM     77  C   UNL A   1      38.086  33.678  37.539  1.00  0.00     0.022 A 
BRANCH  74  78
ATOM     78  S   UNL A   1      37.028  31.447  38.831  1.00  0.00     0.124 S 
ATOM     79  O   UNL A   1      37.927  31.610  39.968  1.00  0.00    -0.237 OA
ATOM     80  O   UNL A   1      35.788  32.216  38.877  1.00  0.00    -0.237 OA
ATOM     81  O   UNL A   1      36.893  30.080  38.334  1.00  0.00    -0.744 OA
ENDBRANCH  74  78
ENDBRANCH  47  71
BRANCH  59  82
ATOM     82  C   UNL A   1      44.410  27.866  34.301  1.00  0.00     0.023 A 
ATOM     83  C   UNL A   1      44.314  26.735  35.130  1.00  0.00     0.031 A 
ATOM     84  C   UNL A   1      45.594  28.622  34.341  1.00  0.00     0.131 A 
ATOM     85  C   UNL A   1      45.364  26.421  36.006  1.00  0.00     0.055 A 
ATOM     86  C   UNL A   1      46.654  28.278  35.180  1.00  0.00     0.041 A 
ATOM     87  F   UNL A   1      45.735  29.711  33.569  1.00  0.00    -0.206 F 
ATOM     88  C   UNL A   1      46.538  27.179  36.027  1.00  0.00     0.022 A 
BRANCH  85  89
ATOM     89  S   UNL A   1      45.144  25.054  37.177  1.00  0.00     0.124 S 
ATOM     90  O   UNL A   1      43.899  25.421  37.843  1.00  0.00    -0.237 OA
ATOM     91  O   UNL A   1      45.079  23.893  36.296  1.00  0.00    -0.237 OA
ATOM     92  O   UNL A   1      46.340  25.126  38.017  1.00  0.00    -0.744 OA
ENDBRANCH  85  89
ENDBRANCH  59  82
ENDBRANCH  33  34
ENDBRANCH  26  28
ENDBRANCH  25  26
ENDBRANCH  24  25
ENDBRANCH   1  24
TORSDOF 19
ENDMDL
