MODEL 1
REMARK VINA RESULT:     -12.7      0.000      0.000
REMARK SMILES Cc1cccc(CC(=O)N2CCC3(CCC(=O)N([C@H](C)C(=O)OCCOC(=O)c4ccc(-c5c6nc(c(-c7cc(S(=O)(=O)[O-])ccc7F)c7ccc([nH]7)c(-c7cc(S(=O)(=O)[O-])ccc7F)c7nc(c(-c8cc(S(=O)(=O)[O-])ccc8F)c8ccc5[nH]8)C=C7)C=C6)cc4)C3)CC2)c1
REMARK SMILES IDX 24 1 23 2 21 3 22 4 19 5 20 6 18 7 8 8 9 9 10 10 11 11 94 12
REMARK SMILES IDX 12 13 93 14 13 15 14 16 92 17 15 18 16 19 17 20 7 21 6 22
REMARK SMILES IDX 1 23 2 24 3 25 95 26 4 27 5 28 25 29 26 30 27 31 28 32 29 33
REMARK SMILES IDX 30 34 91 35 31 36 90 37 32 38 33 39 34 40 84 41 35 42 89 43
REMARK SMILES IDX 83 44 85 45 36 46 88 47 82 48 81 49 37 51 69 52 49 53 68 54
REMARK SMILES IDX 50 55 53 56 67 57 86 58 51 59 52 60 66 62 87 63 54 64 38 65
REMARK SMILES IDX 39 66 47 67 40 68 46 69 48 70 45 71 41 72 42 73 43 74 44 75
REMARK SMILES IDX 70 76 71 77 79 78 72 79 78 80 80 81 77 82 73 83 74 84 75 85
REMARK SMILES IDX 76 86 55 87 56 88 64 89 57 90 63 91 65 92 62 93 58 94 59 95
REMARK SMILES IDX 60 96 61 97
REMARK H PARENT 85 50 53 61
REMARK Flexibility Score: inf
ROOT
ATOM      1  C   UNL A   1      33.414  30.221  27.183  1.00  0.00     0.274 C 
ENDROOT
BRANCH   1   2
ATOM      2  O   UNL A   1      33.200  29.490  25.974  1.00  0.00    -0.461 OA
BRANCH   2   3
ATOM      3  C   UNL A   1      32.707  28.222  26.138  1.00  0.00     0.328 C 
ATOM      4  O   UNL A   1      33.151  27.415  26.917  1.00  0.00    -0.250 OA
BRANCH   3   5
ATOM      5  C   UNL A   1      31.419  28.049  25.303  1.00  0.00     0.192 C 
ATOM      6  C   UNL A   1      31.038  29.316  24.538  1.00  0.00     0.044 C 
BRANCH   5   7
ATOM      7  N   UNL A   1      31.481  26.867  24.431  1.00  0.00    -0.329 N 
ATOM      8  C   UNL A   1      35.436  21.822  25.187  1.00  0.00     0.226 C 
ATOM      9  O   UNL A   1      35.087  21.177  26.184  1.00  0.00    -0.275 OA
ATOM     10  N   UNL A   1      34.576  22.730  24.576  1.00  0.00    -0.342 N 
ATOM     11  C   UNL A   1      33.367  23.088  25.296  1.00  0.00     0.120 C 
ATOM     12  C   UNL A   1      34.614  23.166  23.172  1.00  0.00     0.120 C 
ATOM     13  C   UNL A   1      33.128  24.582  25.183  1.00  0.00     0.030 C 
ATOM     14  C   UNL A   1      34.295  24.659  22.991  1.00  0.00     0.030 C 
ATOM     15  C   UNL A   1      32.989  25.053  23.713  1.00  0.00    -0.008 C 
ATOM     16  C   UNL A   1      31.790  24.462  22.947  1.00  0.00     0.019 C 
ATOM     17  C   UNL A   1      32.737  26.569  23.721  1.00  0.00     0.127 C 
ATOM     18  C   UNL A   1      30.470  24.744  23.634  1.00  0.00     0.101 C 
ATOM     19  C   UNL A   1      30.341  26.090  24.309  1.00  0.00     0.223 C 
ATOM     20  O   UNL A   1      29.269  26.395  24.837  1.00  0.00    -0.275 OA
BRANCH   8  21
ATOM     21  C   UNL A   1      36.889  21.743  24.748  1.00  0.00     0.135 C 
BRANCH  21  22
ATOM     22  C   UNL A   1      37.885  22.489  25.590  1.00  0.00    -0.038 A 
ATOM     23  C   UNL A   1      40.989  21.601  27.606  1.00  0.00     0.044 C 
ATOM     24  C   UNL A   1      39.869  22.394  26.997  1.00  0.00    -0.051 A 
ATOM     25  C   UNL A   1      39.609  23.702  27.420  1.00  0.00     0.003 A 
ATOM     26  C   UNL A   1      39.029  21.813  26.047  1.00  0.00     0.007 A 
ATOM     27  C   UNL A   1      38.517  24.410  26.912  1.00  0.00     0.001 A 
ATOM     28  C   UNL A   1      37.653  23.806  26.000  1.00  0.00     0.004 A 
ENDBRANCH  21  22
ENDBRANCH   8  21
ENDBRANCH   5   7
ENDBRANCH   3   5
ENDBRANCH   2   3
ENDBRANCH   1   2
BRANCH   1  29
ATOM     29  C   UNL A   1      34.915  30.484  27.373  1.00  0.00     0.275 C 
BRANCH  29  30
ATOM     30  O   UNL A   1      35.733  29.373  27.869  1.00  0.00    -0.458 OA
BRANCH  30  31
ATOM     31  C   UNL A   1      36.662  29.297  28.863  1.00  0.00     0.338 C 
ATOM     32  O   UNL A   1      36.353  29.505  30.033  1.00  0.00    -0.246 OA
BRANCH  31  33
ATOM     33  C   UNL A   1      38.007  28.766  28.560  1.00  0.00     0.060 A 
ATOM     34  C   UNL A   1      38.835  29.384  27.604  1.00  0.00     0.016 A 
ATOM     35  C   UNL A   1      38.500  27.724  29.314  1.00  0.00     0.016 A 
ATOM     36  C   UNL A   1      40.197  29.066  27.549  1.00  0.00     0.010 A 
ATOM     37  C   UNL A   1      39.855  27.579  29.428  1.00  0.00     0.010 A 
ATOM     38  C   UNL A   1      40.712  28.204  28.520  1.00  0.00    -0.014 A 
BRANCH  38  39
ATOM     39  C   UNL A   1      42.060  27.645  28.547  1.00  0.00     0.031 A 
ATOM     40  C   UNL A   1      42.365  26.338  27.940  1.00  0.00     0.074 A 
ATOM     41  C   UNL A   1      42.968  28.462  29.126  1.00  0.00     0.049 A 
ATOM     42  N   UNL A   1      42.832  25.300  28.552  1.00  0.00    -0.248 NA
ATOM     43  C   UNL A   1      42.109  26.097  26.518  1.00  0.00     0.031 C 
ATOM     44  C   UNL A   1      44.403  28.359  29.293  1.00  0.00     0.029 A 
ATOM     45  N   UNL A   1      42.687  29.625  29.822  1.00  0.00    -0.354 N 
ATOM     46  C   UNL A   1      43.279  24.457  27.545  1.00  0.00     0.074 A 
ATOM     47  C   UNL A   1      42.586  24.860  26.345  1.00  0.00     0.031 C 
ATOM     48  C   UNL A   1      44.768  29.182  30.305  1.00  0.00     0.029 A 
ATOM     49  C   UNL A   1      43.565  29.792  30.867  1.00  0.00     0.049 A 
ATOM     50  H   UNL A   1      41.958  30.248  29.599  1.00  0.00     0.167 HD
ATOM     51  C   UNL A   1      44.474  23.800  27.640  1.00  0.00     0.034 A 
ATOM     52  C   UNL A   1      43.059  29.662  32.133  1.00  0.00     0.034 A 
ATOM     53  C   UNL A   1      45.225  24.307  28.780  1.00  0.00     0.049 A 
ATOM     54  C   UNL A   1      43.490  28.327  32.708  1.00  0.00     0.074 A 
ATOM     55  C   UNL A   1      46.210  25.280  28.852  1.00  0.00     0.029 A 
ATOM     56  N   UNL A   1      44.738  24.142  30.068  1.00  0.00    -0.354 N 
ATOM     57  N   UNL A   1      43.897  27.321  31.979  1.00  0.00    -0.248 NA
ATOM     58  C   UNL A   1      43.545  28.040  34.136  1.00  0.00     0.031 C 
ATOM     59  C   UNL A   1      46.222  25.786  30.178  1.00  0.00     0.029 A 
ATOM     60  C   UNL A   1      45.263  25.106  30.909  1.00  0.00     0.049 A 
ATOM     61  H   UNL A   1      44.107  23.439  30.343  1.00  0.00     0.167 HD
ATOM     62  C   UNL A   1      44.325  26.309  32.786  1.00  0.00     0.074 A 
ATOM     63  C   UNL A   1      44.082  26.807  34.133  1.00  0.00     0.031 C 
ATOM     64  C   UNL A   1      44.861  25.147  32.302  1.00  0.00     0.034 A 
BRANCH  51  65
ATOM     65  C   UNL A   1      45.108  23.066  26.479  1.00  0.00     0.023 A 
ATOM     66  C   UNL A   1      44.768  21.726  26.198  1.00  0.00     0.031 A 
ATOM     67  C   UNL A   1      46.033  23.663  25.598  1.00  0.00     0.131 A 
ATOM     68  C   UNL A   1      45.379  21.017  25.146  1.00  0.00     0.055 A 
ATOM     69  C   UNL A   1      46.660  22.951  24.563  1.00  0.00     0.041 A 
ATOM     70  F   UNL A   1      46.354  24.963  25.713  1.00  0.00    -0.206 F 
ATOM     71  C   UNL A   1      46.340  21.617  24.337  1.00  0.00     0.022 A 
BRANCH  68  72
ATOM     72  S   UNL A   1      44.880  19.297  24.840  1.00  0.00     0.124 S 
ATOM     73  O   UNL A   1      46.099  18.561  25.158  1.00  0.00    -0.237 OA
ATOM     74  O   UNL A   1      43.765  19.126  25.765  1.00  0.00    -0.237 OA
ATOM     75  O   UNL A   1      44.510  19.297  23.425  1.00  0.00    -0.744 OA
ENDBRANCH  68  72
ENDBRANCH  51  65
BRANCH  52  76
ATOM     76  C   UNL A   1      41.696  30.305  32.296  1.00  0.00     0.023 A 
ATOM     77  C   UNL A   1      41.620  31.702  32.058  1.00  0.00     0.031 A 
ATOM     78  C   UNL A   1      40.486  29.597  32.295  1.00  0.00     0.131 A 
ATOM     79  C   UNL A   1      40.426  32.295  31.614  1.00  0.00     0.055 A 
ATOM     80  C   UNL A   1      39.272  30.220  31.955  1.00  0.00     0.041 A 
ATOM     81  F   UNL A   1      40.463  28.275  32.516  1.00  0.00    -0.206 F 
ATOM     82  C   UNL A   1      39.245  31.559  31.560  1.00  0.00     0.022 A 
BRANCH  79  83
ATOM     83  S   UNL A   1      40.513  33.910  30.767  1.00  0.00     0.124 S 
ATOM     84  O   UNL A   1      39.360  33.857  29.878  1.00  0.00    -0.237 OA
ATOM     85  O   UNL A   1      40.429  34.857  31.875  1.00  0.00    -0.237 OA
ATOM     86  O   UNL A   1      41.824  33.876  30.118  1.00  0.00    -0.744 OA
ENDBRANCH  79  83
ENDBRANCH  52  76
BRANCH  64  87
ATOM     87  C   UNL A   1      45.151  23.953  33.157  1.00  0.00     0.023 A 
ATOM     88  C   UNL A   1      46.359  23.824  33.841  1.00  0.00     0.031 A 
ATOM     89  C   UNL A   1      44.193  22.933  33.362  1.00  0.00     0.131 A 
ATOM     90  C   UNL A   1      46.657  22.652  34.539  1.00  0.00     0.055 A 
ATOM     91  C   UNL A   1      44.442  21.829  34.175  1.00  0.00     0.041 A 
ATOM     92  F   UNL A   1      42.986  22.967  32.778  1.00  0.00    -0.206 F 
ATOM     93  C   UNL A   1      45.697  21.662  34.740  1.00  0.00     0.022 A 
BRANCH  90  94
ATOM     94  S   UNL A   1      48.380  22.396  35.013  1.00  0.00     0.124 S 
ATOM     95  O   UNL A   1      49.054  23.435  34.239  1.00  0.00    -0.237 OA
ATOM     96  O   UNL A   1      48.342  22.607  36.456  1.00  0.00    -0.237 OA
ATOM     97  O   UNL A   1      48.652  21.026  34.585  1.00  0.00    -0.744 OA
ENDBRANCH  90  94
ENDBRANCH  64  87
ENDBRANCH  38  39
ENDBRANCH  31  33
ENDBRANCH  30  31
ENDBRANCH  29  30
ENDBRANCH   1  29
TORSDOF 17
ENDMDL
MODEL 2
REMARK VINA RESULT:     -12.7      1.452      1.755
REMARK SMILES Cc1cccc(CC(=O)N2CCC3(CCC(=O)N([C@H](C)C(=O)OCCOC(=O)c4ccc(-c5c6nc(c(-c7cc(S(=O)(=O)[O-])ccc7F)c7ccc([nH]7)c(-c7cc(S(=O)(=O)[O-])ccc7F)c7nc(c(-c8cc(S(=O)(=O)[O-])ccc8F)c8ccc5[nH]8)C=C7)C=C6)cc4)C3)CC2)c1
REMARK SMILES IDX 24 1 23 2 21 3 22 4 19 5 20 6 18 7 8 8 9 9 10 10 11 11 94 12
REMARK SMILES IDX 12 13 93 14 13 15 14 16 92 17 15 18 16 19 17 20 7 21 6 22
REMARK SMILES IDX 1 23 2 24 3 25 95 26 4 27 5 28 25 29 26 30 27 31 28 32 29 33
REMARK SMILES IDX 30 34 91 35 31 36 90 37 32 38 33 39 34 40 84 41 35 42 89 43
REMARK SMILES IDX 83 44 85 45 36 46 88 47 82 48 81 49 37 51 69 52 49 53 68 54
REMARK SMILES IDX 50 55 53 56 67 57 86 58 51 59 52 60 66 62 87 63 54 64 38 65
REMARK SMILES IDX 39 66 47 67 40 68 46 69 48 70 45 71 41 72 42 73 43 74 44 75
REMARK SMILES IDX 70 76 71 77 79 78 72 79 78 80 80 81 77 82 73 83 74 84 75 85
REMARK SMILES IDX 76 86 55 87 56 88 64 89 57 90 63 91 65 92 62 93 58 94 59 95
REMARK SMILES IDX 60 96 61 97
REMARK H PARENT 85 50 53 61
REMARK Flexibility Score: inf
ROOT
ATOM      1  C   UNL A   1      33.544  28.761  27.366  1.00  0.00     0.274 C 
ENDROOT
BRANCH   1   2
ATOM      2  O   UNL A   1      32.788  28.725  26.154  1.00  0.00    -0.461 OA
BRANCH   2   3
ATOM      3  C   UNL A   1      31.761  27.819  26.134  1.00  0.00     0.328 C 
ATOM      4  O   UNL A   1      31.393  27.187  27.093  1.00  0.00    -0.250 OA
BRANCH   3   5
ATOM      5  C   UNL A   1      31.058  27.855  24.759  1.00  0.00     0.192 C 
ATOM      6  C   UNL A   1      31.466  29.065  23.921  1.00  0.00     0.044 C 
BRANCH   5   7
ATOM      7  N   UNL A   1      31.213  26.589  24.027  1.00  0.00    -0.329 N 
ATOM      8  C   UNL A   1      35.634  22.045  25.239  1.00  0.00     0.226 C 
ATOM      9  O   UNL A   1      35.366  21.492  26.313  1.00  0.00    -0.275 OA
ATOM     10  N   UNL A   1      34.683  22.793  24.553  1.00  0.00    -0.342 N 
ATOM     11  C   UNL A   1      33.459  23.123  25.263  1.00  0.00     0.120 C 
ATOM     12  C   UNL A   1      34.653  23.064  23.108  1.00  0.00     0.120 C 
ATOM     13  C   UNL A   1      33.081  24.566  24.987  1.00  0.00     0.030 C 
ATOM     14  C   UNL A   1      34.194  24.491  22.766  1.00  0.00     0.030 C 
ATOM     15  C   UNL A   1      32.870  24.848  23.477  1.00  0.00    -0.008 C 
ATOM     16  C   UNL A   1      31.717  24.065  22.820  1.00  0.00     0.019 C 
ATOM     17  C   UNL A   1      32.478  26.325  23.319  1.00  0.00     0.127 C 
ATOM     18  C   UNL A   1      30.390  24.305  23.508  1.00  0.00     0.101 C 
ATOM     19  C   UNL A   1      30.148  25.704  24.029  1.00  0.00     0.223 C 
ATOM     20  O   UNL A   1      29.063  25.970  24.549  1.00  0.00    -0.275 OA
BRANCH   8  21
ATOM     21  C   UNL A   1      37.081  22.047  24.768  1.00  0.00     0.135 C 
BRANCH  21  22
ATOM     22  C   UNL A   1      38.086  22.671  25.694  1.00  0.00    -0.038 A 
ATOM     23  C   UNL A   1      41.054  21.457  27.745  1.00  0.00     0.044 C 
ATOM     24  C   UNL A   1      40.005  22.358  27.157  1.00  0.00    -0.051 A 
ATOM     25  C   UNL A   1      39.806  23.646  27.664  1.00  0.00     0.003 A 
ATOM     26  C   UNL A   1      39.170  21.896  26.140  1.00  0.00     0.007 A 
ATOM     27  C   UNL A   1      38.778  24.453  27.171  1.00  0.00     0.001 A 
ATOM     28  C   UNL A   1      37.915  23.967  26.190  1.00  0.00     0.004 A 
ENDBRANCH  21  22
ENDBRANCH   8  21
ENDBRANCH   5   7
ENDBRANCH   3   5
ENDBRANCH   2   3
ENDBRANCH   1   2
BRANCH   1  29
ATOM     29  C   UNL A   1      34.589  29.885  27.295  1.00  0.00     0.275 C 
BRANCH  29  30
ATOM     30  O   UNL A   1      36.000  29.487  27.283  1.00  0.00    -0.458 OA
BRANCH  30  31
ATOM     31  C   UNL A   1      36.958  29.493  28.253  1.00  0.00     0.338 C 
ATOM     32  O   UNL A   1      36.690  29.837  29.401  1.00  0.00    -0.246 OA
BRANCH  31  33
ATOM     33  C   UNL A   1      38.279  28.893  27.973  1.00  0.00     0.060 A 
ATOM     34  C   UNL A   1      39.114  29.412  26.965  1.00  0.00     0.016 A 
ATOM     35  C   UNL A   1      38.745  27.890  28.793  1.00  0.00     0.016 A 
ATOM     36  C   UNL A   1      40.463  29.041  26.917  1.00  0.00     0.010 A 
ATOM     37  C   UNL A   1      40.095  27.705  28.902  1.00  0.00     0.010 A 
ATOM     38  C   UNL A   1      40.960  28.232  27.942  1.00  0.00    -0.014 A 
BRANCH  38  39
ATOM     39  C   UNL A   1      42.289  27.627  27.992  1.00  0.00     0.031 A 
ATOM     40  C   UNL A   1      42.529  26.256  27.513  1.00  0.00     0.074 A 
ATOM     41  C   UNL A   1      43.241  28.463  28.463  1.00  0.00     0.049 A 
ATOM     42  N   UNL A   1      42.976  25.267  28.216  1.00  0.00    -0.248 NA
ATOM     43  C   UNL A   1      42.225  25.884  26.129  1.00  0.00     0.031 C 
ATOM     44  C   UNL A   1      44.675  28.323  28.605  1.00  0.00     0.029 A 
ATOM     45  N   UNL A   1      43.020  29.700  29.045  1.00  0.00    -0.354 N 
ATOM     46  C   UNL A   1      43.365  24.311  27.288  1.00  0.00     0.074 A 
ATOM     47  C   UNL A   1      42.654  24.617  26.071  1.00  0.00     0.031 C 
ATOM     48  C   UNL A   1      45.098  29.228  29.520  1.00  0.00     0.029 A 
ATOM     49  C   UNL A   1      43.933  29.937  30.046  1.00  0.00     0.049 A 
ATOM     50  H   UNL A   1      42.308  30.325  28.777  1.00  0.00     0.167 HD
ATOM     51  C   UNL A   1      44.538  23.622  27.421  1.00  0.00     0.034 A 
ATOM     52  C   UNL A   1      43.458  29.954  31.331  1.00  0.00     0.034 A 
ATOM     53  C   UNL A   1      45.338  24.211  28.485  1.00  0.00     0.049 A 
ATOM     54  C   UNL A   1      43.857  28.668  32.027  1.00  0.00     0.074 A 
ATOM     55  C   UNL A   1      46.358  25.148  28.435  1.00  0.00     0.029 A 
ATOM     56  N   UNL A   1      44.882  24.195  29.794  1.00  0.00    -0.354 N 
ATOM     57  N   UNL A   1      44.207  27.579  31.393  1.00  0.00    -0.248 NA
ATOM     58  C   UNL A   1      43.941  28.523  33.475  1.00  0.00     0.031 C 
ATOM     59  C   UNL A   1      46.426  25.784  29.702  1.00  0.00     0.029 A 
ATOM     60  C   UNL A   1      45.464  25.218  30.521  1.00  0.00     0.049 A 
ATOM     61  H   UNL A   1      44.234  23.547  30.155  1.00  0.00     0.167 HD
ATOM     62  C   UNL A   1      44.622  26.637  32.288  1.00  0.00     0.074 A 
ATOM     63  C   UNL A   1      44.434  27.277  33.584  1.00  0.00     0.031 C 
ATOM     64  C   UNL A   1      45.102  25.414  31.912  1.00  0.00     0.034 A 
BRANCH  51  65
ATOM     65  C   UNL A   1      45.113  22.752  26.324  1.00  0.00     0.023 A 
ATOM     66  C   UNL A   1      44.646  21.435  26.127  1.00  0.00     0.031 A 
ATOM     67  C   UNL A   1      46.105  23.194  25.426  1.00  0.00     0.131 A 
ATOM     68  C   UNL A   1      45.200  20.599  25.138  1.00  0.00     0.055 A 
ATOM     69  C   UNL A   1      46.673  22.354  24.454  1.00  0.00     0.041 A 
ATOM     70  F   UNL A   1      46.551  24.461  25.460  1.00  0.00    -0.206 F 
ATOM     71  C   UNL A   1      46.226  21.046  24.311  1.00  0.00     0.022 A 
BRANCH  68  72
ATOM     72  S   UNL A   1      44.538  18.919  24.937  1.00  0.00     0.124 S 
ATOM     73  O   UNL A   1      43.295  18.984  25.697  1.00  0.00    -0.237 OA
ATOM     74  O   UNL A   1      44.403  18.809  23.488  1.00  0.00    -0.237 OA
ATOM     75  O   UNL A   1      45.577  18.072  25.523  1.00  0.00    -0.744 OA
ENDBRANCH  68  72
ENDBRANCH  51  65
BRANCH  52  76
ATOM     76  C   UNL A   1      42.124  30.662  31.460  1.00  0.00     0.023 A 
ATOM     77  C   UNL A   1      40.986  29.840  31.666  1.00  0.00     0.031 A 
ATOM     78  C   UNL A   1      41.981  32.025  31.757  1.00  0.00     0.131 A 
ATOM     79  C   UNL A   1      39.858  30.325  32.350  1.00  0.00     0.055 A 
ATOM     80  C   UNL A   1      40.806  32.529  32.343  1.00  0.00     0.041 A 
ATOM     81  F   UNL A   1      43.002  32.876  31.588  1.00  0.00    -0.206 F 
ATOM     82  C   UNL A   1      39.760  31.671  32.692  1.00  0.00     0.022 A 
BRANCH  79  83
ATOM     83  S   UNL A   1      38.709  29.124  33.104  1.00  0.00     0.124 S 
ATOM     84  O   UNL A   1      37.696  28.971  32.068  1.00  0.00    -0.237 OA
ATOM     85  O   UNL A   1      39.567  27.967  33.342  1.00  0.00    -0.237 OA
ATOM     86  O   UNL A   1      38.276  29.799  34.327  1.00  0.00    -0.744 OA
ENDBRANCH  79  83
ENDBRANCH  52  76
BRANCH  64  87
ATOM     87  C   UNL A   1      45.373  24.300  32.876  1.00  0.00     0.023 A 
ATOM     88  C   UNL A   1      46.502  24.306  33.695  1.00  0.00     0.031 A 
ATOM     89  C   UNL A   1      44.470  23.227  33.048  1.00  0.00     0.131 A 
ATOM     90  C   UNL A   1      46.797  23.207  34.502  1.00  0.00     0.055 A 
ATOM     91  C   UNL A   1      44.699  22.198  33.959  1.00  0.00     0.041 A 
ATOM     92  F   UNL A   1      43.337  23.133  32.334  1.00  0.00    -0.206 F 
ATOM     93  C   UNL A   1      45.890  22.162  34.668  1.00  0.00     0.022 A 
BRANCH  90  94
ATOM     94  S   UNL A   1      48.468  23.112  35.178  1.00  0.00     0.124 S 
ATOM     95  O   UNL A   1      48.514  21.731  35.653  1.00  0.00    -0.237 OA
ATOM     96  O   UNL A   1      49.294  23.407  34.012  1.00  0.00    -0.237 OA
ATOM     97  O   UNL A   1      48.472  24.131  36.224  1.00  0.00    -0.744 OA
ENDBRANCH  90  94
ENDBRANCH  64  87
ENDBRANCH  38  39
ENDBRANCH  31  33
ENDBRANCH  30  31
ENDBRANCH  29  30
ENDBRANCH   1  29
TORSDOF 17
ENDMDL
MODEL 3
REMARK VINA RESULT:     -12.6      3.950     10.762
REMARK SMILES Cc1cccc(CC(=O)N2CCC3(CCC(=O)N([C@H](C)C(=O)OCCOC(=O)c4ccc(-c5c6nc(c(-c7cc(S(=O)(=O)[O-])ccc7F)c7ccc([nH]7)c(-c7cc(S(=O)(=O)[O-])ccc7F)c7nc(c(-c8cc(S(=O)(=O)[O-])ccc8F)c8ccc5[nH]8)C=C7)C=C6)cc4)C3)CC2)c1
REMARK SMILES IDX 24 1 23 2 21 3 22 4 19 5 20 6 18 7 8 8 9 9 10 10 11 11 94 12
REMARK SMILES IDX 12 13 93 14 13 15 14 16 92 17 15 18 16 19 17 20 7 21 6 22
REMARK SMILES IDX 1 23 2 24 3 25 95 26 4 27 5 28 25 29 26 30 27 31 28 32 29 33
REMARK SMILES IDX 30 34 91 35 31 36 90 37 32 38 33 39 34 40 84 41 35 42 89 43
REMARK SMILES IDX 83 44 85 45 36 46 88 47 82 48 81 49 37 51 69 52 49 53 68 54
REMARK SMILES IDX 50 55 53 56 67 57 86 58 51 59 52 60 66 62 87 63 54 64 38 65
REMARK SMILES IDX 39 66 47 67 40 68 46 69 48 70 45 71 41 72 42 73 43 74 44 75
REMARK SMILES IDX 70 76 71 77 79 78 72 79 78 80 80 81 77 82 73 83 74 84 75 85
REMARK SMILES IDX 76 86 55 87 56 88 64 89 57 90 63 91 65 92 62 93 58 94 59 95
REMARK SMILES IDX 60 96 61 97
REMARK H PARENT 85 50 53 61
REMARK Flexibility Score: inf
ROOT
ATOM      1  C   UNL A   1      37.668  23.383  25.276  1.00  0.00     0.274 C 
ENDROOT
BRANCH   1   2
ATOM      2  O   UNL A   1      36.239  23.369  25.267  1.00  0.00    -0.461 OA
BRANCH   2   3
ATOM      3  C   UNL A   1      35.666  23.041  24.067  1.00  0.00     0.328 C 
ATOM      4  O   UNL A   1      36.081  23.402  22.994  1.00  0.00    -0.250 OA
BRANCH   3   5
ATOM      5  C   UNL A   1      34.527  22.023  24.293  1.00  0.00     0.192 C 
ATOM      6  C   UNL A   1      34.822  21.052  25.435  1.00  0.00     0.044 C 
BRANCH   5   7
ATOM      7  N   UNL A   1      33.220  22.682  24.443  1.00  0.00    -0.329 N 
ATOM      8  C   UNL A   1      32.264  28.991  25.415  1.00  0.00     0.226 C 
ATOM      9  O   UNL A   1      32.557  29.610  24.385  1.00  0.00    -0.275 OA
ATOM     10  N   UNL A   1      32.024  27.620  25.392  1.00  0.00    -0.342 N 
ATOM     11  C   UNL A   1      32.386  26.904  24.181  1.00  0.00     0.120 C 
ATOM     12  C   UNL A   1      31.203  26.856  26.343  1.00  0.00     0.120 C 
ATOM     13  C   UNL A   1      33.054  25.592  24.545  1.00  0.00     0.030 C 
ATOM     14  C   UNL A   1      31.793  25.478  26.683  1.00  0.00     0.030 C 
ATOM     15  C   UNL A   1      32.146  24.680  25.410  1.00  0.00    -0.008 C 
ATOM     16  C   UNL A   1      30.844  24.217  24.726  1.00  0.00     0.019 C 
ATOM     17  C   UNL A   1      32.914  23.382  25.702  1.00  0.00     0.127 C 
ATOM     18  C   UNL A   1      31.103  23.486  23.425  1.00  0.00     0.101 C 
ATOM     19  C   UNL A   1      32.328  22.601  23.386  1.00  0.00     0.223 C 
ATOM     20  O   UNL A   1      32.557  21.940  22.372  1.00  0.00    -0.275 OA
BRANCH   8  21
ATOM     21  C   UNL A   1      32.351  29.721  26.747  1.00  0.00     0.135 C 
BRANCH  21  22
ATOM     22  C   UNL A   1      33.729  30.076  27.227  1.00  0.00    -0.038 A 
ATOM     23  C   UNL A   1      35.596  33.281  28.083  1.00  0.00     0.044 C 
ATOM     24  C   UNL A   1      35.301  31.827  27.851  1.00  0.00    -0.051 A 
ATOM     25  C   UNL A   1      36.335  30.886  27.814  1.00  0.00     0.003 A 
ATOM     26  C   UNL A   1      33.994  31.404  27.603  1.00  0.00     0.007 A 
ATOM     27  C   UNL A   1      36.068  29.547  27.518  1.00  0.00     0.001 A 
ATOM     28  C   UNL A   1      34.768  29.140  27.221  1.00  0.00     0.004 A 
ENDBRANCH  21  22
ENDBRANCH   8  21
ENDBRANCH   5   7
ENDBRANCH   3   5
ENDBRANCH   2   3
ENDBRANCH   1   2
BRANCH   1  29
ATOM     29  C   UNL A   1      38.174  24.190  26.480  1.00  0.00     0.275 C 
BRANCH  29  30
ATOM     30  O   UNL A   1      39.604  24.513  26.518  1.00  0.00    -0.458 OA
BRANCH  30  31
ATOM     31  C   UNL A   1      40.276  25.693  26.408  1.00  0.00     0.338 C 
ATOM     32  O   UNL A   1      40.898  25.972  25.386  1.00  0.00    -0.246 OA
BRANCH  31  33
ATOM     33  C   UNL A   1      40.094  26.732  27.443  1.00  0.00     0.060 A 
ATOM     34  C   UNL A   1      39.973  26.390  28.803  1.00  0.00     0.016 A 
ATOM     35  C   UNL A   1      40.167  28.058  27.079  1.00  0.00     0.016 A 
ATOM     36  C   UNL A   1      40.110  27.377  29.786  1.00  0.00     0.010 A 
ATOM     37  C   UNL A   1      40.534  28.978  28.021  1.00  0.00     0.010 A 
ATOM     38  C   UNL A   1      40.460  28.666  29.380  1.00  0.00    -0.014 A 
BRANCH  38  39
ATOM     39  C   UNL A   1      40.509  29.852  30.230  1.00  0.00     0.031 A 
ATOM     40  C   UNL A   1      39.345  30.740  30.383  1.00  0.00     0.074 A 
ATOM     41  C   UNL A   1      41.689  30.001  30.875  1.00  0.00     0.049 A 
ATOM     42  N   UNL A   1      39.293  31.995  30.079  1.00  0.00    -0.248 NA
ATOM     43  C   UNL A   1      38.072  30.220  30.889  1.00  0.00     0.031 C 
ATOM     44  C   UNL A   1      42.145  30.960  31.860  1.00  0.00     0.029 A 
ATOM     45  N   UNL A   1      42.839  29.266  30.645  1.00  0.00    -0.354 N 
ATOM     46  C   UNL A   1      38.154  32.474  30.710  1.00  0.00     0.074 A 
ATOM     47  C   UNL A   1      37.318  31.324  30.960  1.00  0.00     0.031 C 
ATOM     48  C   UNL A   1      43.499  30.962  31.848  1.00  0.00     0.029 A 
ATOM     49  C   UNL A   1      43.958  30.049  30.803  1.00  0.00     0.049 A 
ATOM     50  H   UNL A   1      42.853  28.312  30.402  1.00  0.00     0.167 HD
ATOM     51  C   UNL A   1      38.152  33.669  31.372  1.00  0.00     0.034 A 
ATOM     52  C   UNL A   1      44.679  30.341  29.676  1.00  0.00     0.034 A 
ATOM     53  C   UNL A   1      39.514  34.169  31.489  1.00  0.00     0.049 A 
ATOM     54  C   UNL A   1      44.408  31.776  29.269  1.00  0.00     0.074 A 
ATOM     55  C   UNL A   1      40.433  34.054  32.520  1.00  0.00     0.029 A 
ATOM     56  N   UNL A   1      40.235  34.506  30.353  1.00  0.00    -0.354 N 
ATOM     57  N   UNL A   1      43.364  32.458  29.665  1.00  0.00    -0.248 NA
ATOM     58  C   UNL A   1      45.307  32.566  28.437  1.00  0.00     0.031 C 
ATOM     59  C   UNL A   1      41.730  34.205  31.963  1.00  0.00     0.029 A 
ATOM     60  C   UNL A   1      41.593  34.432  30.604  1.00  0.00     0.049 A 
ATOM     61  H   UNL A   1      39.836  34.762  29.491  1.00  0.00     0.167 HD
ATOM     62  C   UNL A   1      43.462  33.747  29.231  1.00  0.00     0.074 A 
ATOM     63  C   UNL A   1      44.700  33.765  28.462  1.00  0.00     0.031 C 
ATOM     64  C   UNL A   1      42.541  34.708  29.542  1.00  0.00     0.034 A 
BRANCH  51  65
ATOM     65  C   UNL A   1      37.016  34.116  32.267  1.00  0.00     0.023 A 
ATOM     66  C   UNL A   1      35.875  34.747  31.726  1.00  0.00     0.031 A 
ATOM     67  C   UNL A   1      37.002  33.910  33.661  1.00  0.00     0.131 A 
ATOM     68  C   UNL A   1      34.829  35.205  32.550  1.00  0.00     0.055 A 
ATOM     69  C   UNL A   1      35.970  34.386  34.486  1.00  0.00     0.041 A 
ATOM     70  F   UNL A   1      37.991  33.232  34.268  1.00  0.00    -0.206 F 
ATOM     71  C   UNL A   1      34.879  35.045  33.931  1.00  0.00     0.022 A 
BRANCH  68  72
ATOM     72  S   UNL A   1      33.387  35.998  31.779  1.00  0.00     0.124 S 
ATOM     73  O   UNL A   1      32.275  35.307  32.421  1.00  0.00    -0.237 OA
ATOM     74  O   UNL A   1      33.572  37.399  32.143  1.00  0.00    -0.237 OA
ATOM     75  O   UNL A   1      33.558  35.705  30.356  1.00  0.00    -0.744 OA
ENDBRANCH  68  72
ENDBRANCH  51  65
BRANCH  52  76
ATOM     76  C   UNL A   1      44.817  29.160  28.738  1.00  0.00     0.023 A 
ATOM     77  C   UNL A   1      45.453  28.004  29.260  1.00  0.00     0.031 A 
ATOM     78  C   UNL A   1      44.065  28.992  27.566  1.00  0.00     0.131 A 
ATOM     79  C   UNL A   1      45.150  26.725  28.763  1.00  0.00     0.055 A 
ATOM     80  C   UNL A   1      43.852  27.719  27.007  1.00  0.00     0.041 A 
ATOM     81  F   UNL A   1      43.434  30.030  26.999  1.00  0.00    -0.206 F 
ATOM     82  C   UNL A   1      44.349  26.574  27.633  1.00  0.00     0.022 A 
BRANCH  79  83
ATOM     83  S   UNL A   1      45.501  25.272  29.811  1.00  0.00     0.124 S 
ATOM     84  O   UNL A   1      44.394  25.297  30.757  1.00  0.00    -0.237 OA
ATOM     85  O   UNL A   1      45.500  24.175  28.847  1.00  0.00    -0.237 OA
ATOM     86  O   UNL A   1      46.822  25.571  30.364  1.00  0.00    -0.744 OA
ENDBRANCH  79  83
ENDBRANCH  52  76
BRANCH  64  87
ATOM     87  C   UNL A   1      42.525  36.069  28.917  1.00  0.00     0.023 A 
ATOM     88  C   UNL A   1      43.195  37.145  29.500  1.00  0.00     0.031 A 
ATOM     89  C   UNL A   1      41.888  36.314  27.679  1.00  0.00     0.131 A 
ATOM     90  C   UNL A   1      43.072  38.428  28.966  1.00  0.00     0.055 A 
ATOM     91  C   UNL A   1      41.887  37.569  27.076  1.00  0.00     0.041 A 
ATOM     92  F   UNL A   1      41.238  35.346  27.014  1.00  0.00    -0.206 F 
ATOM     93  C   UNL A   1      42.450  38.650  27.739  1.00  0.00     0.022 A 
BRANCH  90  94
ATOM     94  S   UNL A   1      43.596  39.804  30.011  1.00  0.00     0.124 S 
ATOM     95  O   UNL A   1      44.098  39.102  31.189  1.00  0.00    -0.237 OA
ATOM     96  O   UNL A   1      44.605  40.458  29.186  1.00  0.00    -0.237 OA
ATOM     97  O   UNL A   1      42.365  40.564  30.217  1.00  0.00    -0.744 OA
ENDBRANCH  90  94
ENDBRANCH  64  87
ENDBRANCH  38  39
ENDBRANCH  31  33
ENDBRANCH  30  31
ENDBRANCH  29  30
ENDBRANCH   1  29
TORSDOF 17
ENDMDL
