MODEL 1
REMARK VINA RESULT:     -11.5      0.000      0.000
REMARK SMILES C[C@@H](C(=O)OCCOC(=O)c1ccc(-c2c3nc(c(-c4cc(S(=O)(=O)[O-])ccc4F)c4ccc([nH]4)c(-c4cc(S(=O)(=O)[O-])ccc4F)c4nc(c(-c5cc(S(=O)(=O)[O-])ccc5F)c5ccc2[nH]5)C=C4)C=C3)cc1)c1ccc(C[C@H]2CCC[C@@H]2O)cc1Br
REMARK SMILES IDX 6 1 5 2 3 3 4 4 2 5 1 6 74 7 75 8 86 9 76 10 85 11 87 12
REMARK SMILES IDX 77 13 78 14 79 15 80 16 83 17 81 18 82 19 84 20 7 22 8 23
REMARK SMILES IDX 9 24 10 25 11 26 12 27 73 28 13 29 72 30 14 31 15 32 16 33
REMARK SMILES IDX 66 34 17 35 71 36 65 37 67 38 18 39 70 40 64 41 63 42 19 44
REMARK SMILES IDX 51 45 31 46 50 47 32 48 35 49 49 50 68 51 33 52 34 53 48 55
REMARK SMILES IDX 69 56 36 57 20 58 21 59 29 60 22 61 28 62 30 63 27 64 23 65
REMARK SMILES IDX 24 66 25 67 26 68 52 69 53 70 61 71 54 72 60 73 62 74 59 75
REMARK SMILES IDX 55 76 56 77 57 78 58 79 37 80 38 81 46 82 39 83 45 84 47 85
REMARK SMILES IDX 44 86 40 87 41 88 42 89 43 90
REMARK H PARENT 84 21 67 43 35 54
REMARK Flexibility Score: inf
ROOT
ATOM      1  C   UNL A   1      38.240  20.355  25.137  1.00  0.00     0.274 C 
ENDROOT
BRANCH   1   2
ATOM      2  O   UNL A   1      37.692  21.688  25.087  1.00  0.00    -0.462 OA
BRANCH   2   3
ATOM      3  C   UNL A   1      36.344  21.799  25.298  1.00  0.00     0.313 C 
ATOM      4  O   UNL A   1      35.822  21.455  26.348  1.00  0.00    -0.252 OA
BRANCH   3   5
ATOM      5  C   UNL A   1      35.605  22.317  24.039  1.00  0.00     0.127 C 
ATOM      6  C   UNL A   1      36.663  22.914  23.080  1.00  0.00     0.025 C 
BRANCH   5   7
ATOM      7  C   UNL A   1      34.458  23.306  24.344  1.00  0.00    -0.020 A 
ATOM      8  C   UNL A   1      34.750  24.624  24.744  1.00  0.00     0.006 A 
ATOM      9  C   UNL A   1      33.088  22.984  24.270  1.00  0.00     0.022 A 
ATOM     10  C   UNL A   1      33.770  25.494  25.229  1.00  0.00     0.004 A 
ATOM     11  C   UNL A   1      32.112  23.837  24.828  1.00  0.00     0.019 A 
ATOM     12  Br  UNL A   1      32.434  21.453  23.346  1.00  0.00    -0.050 Br
ATOM     13  C   UNL A   1      32.457  25.078  25.388  1.00  0.00    -0.047 A 
BRANCH  13  14
ATOM     14  C   UNL A   1      31.411  25.916  26.100  1.00  0.00     0.041 C 
BRANCH  14  15
ATOM     15  C   UNL A   1      30.674  27.044  25.337  1.00  0.00     0.022 C 
ATOM     16  C   UNL A   1      31.486  28.300  24.997  1.00  0.00     0.007 C 
ATOM     17  C   UNL A   1      29.987  26.670  24.021  1.00  0.00     0.117 C 
ATOM     18  C   UNL A   1      30.930  28.841  23.679  1.00  0.00     0.003 C 
ATOM     19  C   UNL A   1      29.672  28.032  23.409  1.00  0.00     0.032 C 
BRANCH  17  20
ATOM     20  O   UNL A   1      28.824  25.896  24.241  1.00  0.00    -0.393 OA
ATOM     21  H   UNL A   1      29.022  25.186  24.872  1.00  0.00     0.210 HD
ENDBRANCH  17  20
ENDBRANCH  14  15
ENDBRANCH  13  14
ENDBRANCH   5   7
ENDBRANCH   3   5
ENDBRANCH   2   3
ENDBRANCH   1   2
BRANCH   1  22
ATOM     22  C   UNL A   1      39.442  20.229  26.081  1.00  0.00     0.275 C 
BRANCH  22  23
ATOM     23  O   UNL A   1      40.456  19.354  25.552  1.00  0.00    -0.458 OA
BRANCH  23  24
ATOM     24  C   UNL A   1      41.699  19.530  26.062  1.00  0.00     0.338 C 
ATOM     25  O   UNL A   1      42.635  18.752  25.988  1.00  0.00    -0.246 OA
BRANCH  24  26
ATOM     26  C   UNL A   1      41.836  20.903  26.585  1.00  0.00     0.060 A 
ATOM     27  C   UNL A   1      41.914  21.921  25.641  1.00  0.00     0.016 A 
ATOM     28  C   UNL A   1      41.964  21.201  27.944  1.00  0.00     0.016 A 
ATOM     29  C   UNL A   1      42.098  23.237  26.043  1.00  0.00     0.010 A 
ATOM     30  C   UNL A   1      42.184  22.535  28.344  1.00  0.00     0.010 A 
ATOM     31  C   UNL A   1      42.269  23.563  27.391  1.00  0.00    -0.014 A 
BRANCH  31  32
ATOM     32  C   UNL A   1      42.645  24.969  27.716  1.00  0.00     0.031 A 
ATOM     33  C   UNL A   1      44.006  25.486  27.326  1.00  0.00     0.074 A 
ATOM     34  C   UNL A   1      41.716  25.840  28.159  1.00  0.00     0.049 A 
ATOM     35  N   UNL A   1      44.490  26.700  27.420  1.00  0.00    -0.248 NA
ATOM     36  C   UNL A   1      44.921  24.522  26.694  1.00  0.00     0.031 C 
ATOM     37  C   UNL A   1      40.317  25.508  28.435  1.00  0.00     0.029 A 
ATOM     38  N   UNL A   1      41.793  27.188  28.419  1.00  0.00    -0.354 N 
ATOM     39  C   UNL A   1      45.748  26.656  26.830  1.00  0.00     0.074 A 
ATOM     40  C   UNL A   1      45.969  25.285  26.417  1.00  0.00     0.031 C 
ATOM     41  C   UNL A   1      39.667  26.623  28.807  1.00  0.00     0.029 A 
ATOM     42  C   UNL A   1      40.612  27.736  28.864  1.00  0.00     0.049 A 
ATOM     43  H   UNL A   1      42.618  27.712  28.299  1.00  0.00     0.167 HD
ATOM     44  C   UNL A   1      46.634  27.664  26.636  1.00  0.00     0.034 A 
ATOM     45  C   UNL A   1      40.329  28.981  29.306  1.00  0.00     0.034 A 
ATOM     46  C   UNL A   1      46.441  29.019  27.091  1.00  0.00     0.049 A 
ATOM     47  C   UNL A   1      41.426  30.019  29.322  1.00  0.00     0.074 A 
ATOM     48  C   UNL A   1      47.316  30.089  27.013  1.00  0.00     0.029 A 
ATOM     49  N   UNL A   1      45.301  29.487  27.729  1.00  0.00    -0.354 N 
ATOM     50  N   UNL A   1      42.642  29.944  28.832  1.00  0.00    -0.248 NA
ATOM     51  C   UNL A   1      41.117  31.303  29.966  1.00  0.00     0.031 C 
ATOM     52  C   UNL A   1      46.738  31.179  27.675  1.00  0.00     0.029 A 
ATOM     53  C   UNL A   1      45.472  30.814  28.101  1.00  0.00     0.049 A 
ATOM     54  H   UNL A   1      44.489  28.957  27.894  1.00  0.00     0.167 HD
ATOM     55  C   UNL A   1      43.234  31.178  29.094  1.00  0.00     0.074 A 
ATOM     56  C   UNL A   1      42.236  31.983  29.768  1.00  0.00     0.031 C 
ATOM     57  C   UNL A   1      44.488  31.606  28.799  1.00  0.00     0.034 A 
BRANCH  44  58
ATOM     58  C   UNL A   1      47.934  27.305  25.965  1.00  0.00     0.023 A 
ATOM     59  C   UNL A   1      48.139  27.516  24.590  1.00  0.00     0.031 A 
ATOM     60  C   UNL A   1      48.967  26.704  26.706  1.00  0.00     0.131 A 
ATOM     61  C   UNL A   1      49.330  27.082  23.989  1.00  0.00     0.055 A 
ATOM     62  C   UNL A   1      50.171  26.326  26.114  1.00  0.00     0.041 A 
ATOM     63  F   UNL A   1      48.812  26.459  28.017  1.00  0.00    -0.206 F 
ATOM     64  C   UNL A   1      50.354  26.503  24.745  1.00  0.00     0.022 A 
BRANCH  61  65
ATOM     65  S   UNL A   1      49.474  27.162  22.182  1.00  0.00     0.124 S 
ATOM     66  O   UNL A   1      48.545  26.118  21.759  1.00  0.00    -0.237 OA
ATOM     67  O   UNL A   1      49.069  28.533  21.895  1.00  0.00    -0.237 OA
ATOM     68  O   UNL A   1      50.884  26.864  21.938  1.00  0.00    -0.744 OA
ENDBRANCH  61  65
ENDBRANCH  44  58
BRANCH  45  69
ATOM     69  C   UNL A   1      38.984  29.301  29.874  1.00  0.00     0.023 A 
ATOM     70  C   UNL A   1      38.040  30.056  29.157  1.00  0.00     0.031 A 
ATOM     71  C   UNL A   1      38.660  28.929  31.193  1.00  0.00     0.131 A 
ATOM     72  C   UNL A   1      36.842  30.447  29.778  1.00  0.00     0.055 A 
ATOM     73  C   UNL A   1      37.443  29.267  31.783  1.00  0.00     0.041 A 
ATOM     74  F   UNL A   1      39.534  28.230  31.936  1.00  0.00    -0.206 F 
ATOM     75  C   UNL A   1      36.530  30.043  31.078  1.00  0.00     0.022 A 
BRANCH  72  76
ATOM     76  S   UNL A   1      35.733  31.586  28.901  1.00  0.00     0.124 S 
ATOM     77  O   UNL A   1      34.769  31.922  29.943  1.00  0.00    -0.237 OA
ATOM     78  O   UNL A   1      36.645  32.651  28.501  1.00  0.00    -0.237 OA
ATOM     79  O   UNL A   1      35.207  30.773  27.805  1.00  0.00    -0.744 OA
ENDBRANCH  72  76
ENDBRANCH  45  69
BRANCH  57  80
ATOM     80  C   UNL A   1      44.843  33.020  29.192  1.00  0.00     0.023 A 
ATOM     81  C   UNL A   1      44.577  34.109  28.342  1.00  0.00     0.031 A 
ATOM     82  C   UNL A   1      45.462  33.282  30.427  1.00  0.00     0.131 A 
ATOM     83  C   UNL A   1      44.971  35.404  28.718  1.00  0.00     0.055 A 
ATOM     84  C   UNL A   1      45.804  34.578  30.818  1.00  0.00     0.041 A 
ATOM     85  F   UNL A   1      45.742  32.282  31.277  1.00  0.00    -0.206 F 
ATOM     86  C   UNL A   1      45.568  35.646  29.958  1.00  0.00     0.022 A 
BRANCH  83  87
ATOM     87  S   UNL A   1      44.759  36.761  27.534  1.00  0.00     0.124 S 
ATOM     88  O   UNL A   1      43.438  36.481  26.980  1.00  0.00    -0.237 OA
ATOM     89  O   UNL A   1      44.854  37.941  28.388  1.00  0.00    -0.237 OA
ATOM     90  O   UNL A   1      45.871  36.583  26.603  1.00  0.00    -0.744 OA
ENDBRANCH  83  87
ENDBRANCH  57  80
ENDBRANCH  31  32
ENDBRANCH  24  26
ENDBRANCH  23  24
ENDBRANCH  22  23
ENDBRANCH   1  22
TORSDOF 18
ENDMDL
MODEL 2
REMARK VINA RESULT:     -11.4      5.317     10.813
REMARK SMILES C[C@@H](C(=O)OCCOC(=O)c1ccc(-c2c3nc(c(-c4cc(S(=O)(=O)[O-])ccc4F)c4ccc([nH]4)c(-c4cc(S(=O)(=O)[O-])ccc4F)c4nc(c(-c5cc(S(=O)(=O)[O-])ccc5F)c5ccc2[nH]5)C=C4)C=C3)cc1)c1ccc(C[C@H]2CCC[C@@H]2O)cc1Br
REMARK SMILES IDX 6 1 5 2 3 3 4 4 2 5 1 6 74 7 75 8 86 9 76 10 85 11 87 12
REMARK SMILES IDX 77 13 78 14 79 15 80 16 83 17 81 18 82 19 84 20 7 22 8 23
REMARK SMILES IDX 9 24 10 25 11 26 12 27 73 28 13 29 72 30 14 31 15 32 16 33
REMARK SMILES IDX 66 34 17 35 71 36 65 37 67 38 18 39 70 40 64 41 63 42 19 44
REMARK SMILES IDX 51 45 31 46 50 47 32 48 35 49 49 50 68 51 33 52 34 53 48 55
REMARK SMILES IDX 69 56 36 57 20 58 21 59 29 60 22 61 28 62 30 63 27 64 23 65
REMARK SMILES IDX 24 66 25 67 26 68 52 69 53 70 61 71 54 72 60 73 62 74 59 75
REMARK SMILES IDX 55 76 56 77 57 78 58 79 37 80 38 81 46 82 39 83 45 84 47 85
REMARK SMILES IDX 44 86 40 87 41 88 42 89 43 90
REMARK H PARENT 84 21 67 43 35 54
REMARK Flexibility Score: inf
ROOT
ATOM      1  C   UNL A   1      32.651  30.763  26.144  1.00  0.00     0.274 C 
ENDROOT
BRANCH   1   2
ATOM      2  O   UNL A   1      31.695  29.898  25.497  1.00  0.00    -0.462 OA
BRANCH   2   3
ATOM      3  C   UNL A   1      32.064  28.588  25.350  1.00  0.00     0.313 C 
ATOM      4  O   UNL A   1      32.938  28.244  24.568  1.00  0.00    -0.252 OA
BRANCH   3   5
ATOM      5  C   UNL A   1      31.193  27.644  26.216  1.00  0.00     0.127 C 
ATOM      6  C   UNL A   1      31.522  27.925  27.702  1.00  0.00     0.025 C 
BRANCH   5   7
ATOM      7  C   UNL A   1      31.330  26.149  25.851  1.00  0.00    -0.020 A 
ATOM      8  C   UNL A   1      32.206  25.323  26.579  1.00  0.00     0.006 A 
ATOM      9  C   UNL A   1      30.637  25.519  24.798  1.00  0.00     0.022 A 
ATOM     10  C   UNL A   1      32.527  24.026  26.170  1.00  0.00     0.004 A 
ATOM     11  C   UNL A   1      31.016  24.237  24.347  1.00  0.00     0.019 A 
ATOM     12  Br  UNL A   1      29.098  26.279  23.972  1.00  0.00    -0.050 Br
ATOM     13  C   UNL A   1      32.027  23.503  24.987  1.00  0.00    -0.047 A 
BRANCH  13  14
ATOM     14  C   UNL A   1      32.508  22.188  24.403  1.00  0.00     0.041 C 
BRANCH  14  15
ATOM     15  C   UNL A   1      33.976  22.041  23.933  1.00  0.00     0.022 C 
ATOM     16  C   UNL A   1      34.617  23.261  23.260  1.00  0.00     0.007 C 
ATOM     17  C   UNL A   1      35.007  21.601  24.977  1.00  0.00     0.117 C 
ATOM     18  C   UNL A   1      36.105  23.228  23.610  1.00  0.00     0.003 C 
ATOM     19  C   UNL A   1      36.333  21.881  24.275  1.00  0.00     0.032 C 
BRANCH  17  20
ATOM     20  O   UNL A   1      34.855  20.236  25.316  1.00  0.00    -0.393 OA
ATOM     21  H   UNL A   1      35.376  19.691  24.706  1.00  0.00     0.210 HD
ENDBRANCH  17  20
ENDBRANCH  14  15
ENDBRANCH  13  14
ENDBRANCH   5   7
ENDBRANCH   3   5
ENDBRANCH   2   3
ENDBRANCH   1   2
BRANCH   1  22
ATOM     22  C   UNL A   1      31.997  31.875  26.974  1.00  0.00     0.275 C 
BRANCH  22  23
ATOM     23  O   UNL A   1      32.664  33.140  26.804  1.00  0.00    -0.458 OA
BRANCH  23  24
ATOM     24  C   UNL A   1      33.122  33.713  27.944  1.00  0.00     0.338 C 
ATOM     25  O   UNL A   1      32.522  34.498  28.657  1.00  0.00    -0.246 OA
BRANCH  24  26
ATOM     26  C   UNL A   1      34.417  33.114  28.321  1.00  0.00     0.060 A 
ATOM     27  C   UNL A   1      34.365  31.986  29.132  1.00  0.00     0.016 A 
ATOM     28  C   UNL A   1      35.653  33.662  27.969  1.00  0.00     0.016 A 
ATOM     29  C   UNL A   1      35.536  31.389  29.579  1.00  0.00     0.010 A 
ATOM     30  C   UNL A   1      36.838  33.071  28.453  1.00  0.00     0.010 A 
ATOM     31  C   UNL A   1      36.786  31.936  29.277  1.00  0.00    -0.014 A 
BRANCH  31  32
ATOM     32  C   UNL A   1      37.977  31.341  29.949  1.00  0.00     0.031 A 
ATOM     33  C   UNL A   1      38.307  31.732  31.367  1.00  0.00     0.074 A 
ATOM     34  C   UNL A   1      38.634  30.307  29.385  1.00  0.00     0.049 A 
ATOM     35  N   UNL A   1      39.230  31.256  32.165  1.00  0.00    -0.248 NA
ATOM     36  C   UNL A   1      37.447  32.753  31.986  1.00  0.00     0.031 C 
ATOM     37  C   UNL A   1      38.322  29.725  28.078  1.00  0.00     0.029 A 
ATOM     38  N   UNL A   1      39.672  29.536  29.851  1.00  0.00    -0.354 N 
ATOM     39  C   UNL A   1      39.042  31.890  33.388  1.00  0.00     0.074 A 
ATOM     40  C   UNL A   1      37.942  32.816  33.214  1.00  0.00     0.031 C 
ATOM     41  C   UNL A   1      39.138  28.681  27.857  1.00  0.00     0.029 A 
ATOM     42  C   UNL A   1      40.076  28.558  28.970  1.00  0.00     0.049 A 
ATOM     43  H   UNL A   1      40.089  29.671  30.733  1.00  0.00     0.167 HD
ATOM     44  C   UNL A   1      39.712  31.711  34.553  1.00  0.00     0.034 A 
ATOM     45  C   UNL A   1      41.107  27.688  29.031  1.00  0.00     0.034 A 
ATOM     46  C   UNL A   1      40.841  30.829  34.717  1.00  0.00     0.049 A 
ATOM     47  C   UNL A   1      42.003  27.699  30.247  1.00  0.00     0.074 A 
ATOM     48  C   UNL A   1      41.635  30.642  35.836  1.00  0.00     0.029 A 
ATOM     49  N   UNL A   1      41.352  30.000  33.728  1.00  0.00    -0.354 N 
ATOM     50  N   UNL A   1      41.863  28.362  31.372  1.00  0.00    -0.248 NA
ATOM     51  C   UNL A   1      43.206  26.857  30.194  1.00  0.00     0.031 C 
ATOM     52  C   UNL A   1      42.671  29.764  35.498  1.00  0.00     0.029 A 
ATOM     53  C   UNL A   1      42.483  29.343  34.192  1.00  0.00     0.049 A 
ATOM     54  H   UNL A   1      40.968  29.894  32.828  1.00  0.00     0.167 HD
ATOM     55  C   UNL A   1      42.950  28.001  32.165  1.00  0.00     0.074 A 
ATOM     56  C   UNL A   1      43.726  27.049  31.398  1.00  0.00     0.031 C 
ATOM     57  C   UNL A   1      43.273  28.417  33.416  1.00  0.00     0.034 A 
BRANCH  44  58
ATOM     58  C   UNL A   1      39.280  32.558  35.721  1.00  0.00     0.023 A 
ATOM     59  C   UNL A   1      39.705  33.892  35.864  1.00  0.00     0.031 A 
ATOM     60  C   UNL A   1      38.465  32.010  36.727  1.00  0.00     0.131 A 
ATOM     61  C   UNL A   1      39.354  34.615  37.014  1.00  0.00     0.055 A 
ATOM     62  C   UNL A   1      38.073  32.752  37.839  1.00  0.00     0.041 A 
ATOM     63  F   UNL A   1      38.052  30.735  36.649  1.00  0.00    -0.206 F 
ATOM     64  C   UNL A   1      38.527  34.059  37.995  1.00  0.00     0.022 A 
BRANCH  61  65
ATOM     65  S   UNL A   1      40.100  36.248  37.277  1.00  0.00     0.124 S 
ATOM     66  O   UNL A   1      39.952  36.863  35.962  1.00  0.00    -0.237 OA
ATOM     67  O   UNL A   1      39.270  36.804  38.339  1.00  0.00    -0.237 OA
ATOM     68  O   UNL A   1      41.476  35.937  37.659  1.00  0.00    -0.744 OA
ENDBRANCH  61  65
ENDBRANCH  44  58
BRANCH  45  69
ATOM     69  C   UNL A   1      41.428  26.802  27.871  1.00  0.00     0.023 A 
ATOM     70  C   UNL A   1      41.147  25.426  27.893  1.00  0.00     0.031 A 
ATOM     71  C   UNL A   1      42.111  27.314  26.751  1.00  0.00     0.131 A 
ATOM     72  C   UNL A   1      41.584  24.607  26.837  1.00  0.00     0.055 A 
ATOM     73  C   UNL A   1      42.488  26.508  25.678  1.00  0.00     0.041 A 
ATOM     74  F   UNL A   1      42.430  28.618  26.687  1.00  0.00    -0.206 F 
ATOM     75  C   UNL A   1      42.236  25.141  25.724  1.00  0.00     0.022 A 
BRANCH  72  76
ATOM     76  S   UNL A   1      41.385  22.809  26.984  1.00  0.00     0.124 S 
ATOM     77  O   UNL A   1      41.730  22.361  25.640  1.00  0.00    -0.237 OA
ATOM     78  O   UNL A   1      42.342  22.481  28.036  1.00  0.00    -0.237 OA
ATOM     79  O   UNL A   1      39.979  22.651  27.352  1.00  0.00    -0.744 OA
ENDBRANCH  72  76
ENDBRANCH  45  69
BRANCH  57  80
ATOM     80  C   UNL A   1      44.516  27.827  34.039  1.00  0.00     0.023 A 
ATOM     81  C   UNL A   1      44.467  26.648  34.804  1.00  0.00     0.031 A 
ATOM     82  C   UNL A   1      45.763  28.454  33.872  1.00  0.00     0.131 A 
ATOM     83  C   UNL A   1      45.634  26.158  35.413  1.00  0.00     0.055 A 
ATOM     84  C   UNL A   1      46.929  27.934  34.435  1.00  0.00     0.041 A 
ATOM     85  F   UNL A   1      45.869  29.583  33.153  1.00  0.00    -0.206 F 
ATOM     86  C   UNL A   1      46.867  26.786  35.219  1.00  0.00     0.022 A 
BRANCH  83  87
ATOM     87  S   UNL A   1      45.510  24.730  36.523  1.00  0.00     0.124 S 
ATOM     88  O   UNL A   1      46.815  24.734  37.175  1.00  0.00    -0.237 OA
ATOM     89  O   UNL A   1      44.374  25.087  37.367  1.00  0.00    -0.237 OA
ATOM     90  O   UNL A   1      45.275  23.608  35.616  1.00  0.00    -0.744 OA
ENDBRANCH  83  87
ENDBRANCH  57  80
ENDBRANCH  31  32
ENDBRANCH  24  26
ENDBRANCH  23  24
ENDBRANCH  22  23
ENDBRANCH   1  22
TORSDOF 18
ENDMDL
MODEL 3
REMARK VINA RESULT:     -11.4      1.648      7.860
REMARK SMILES C[C@@H](C(=O)OCCOC(=O)c1ccc(-c2c3nc(c(-c4cc(S(=O)(=O)[O-])ccc4F)c4ccc([nH]4)c(-c4cc(S(=O)(=O)[O-])ccc4F)c4nc(c(-c5cc(S(=O)(=O)[O-])ccc5F)c5ccc2[nH]5)C=C4)C=C3)cc1)c1ccc(C[C@H]2CCC[C@@H]2O)cc1Br
REMARK SMILES IDX 6 1 5 2 3 3 4 4 2 5 1 6 74 7 75 8 86 9 76 10 85 11 87 12
REMARK SMILES IDX 77 13 78 14 79 15 80 16 83 17 81 18 82 19 84 20 7 22 8 23
REMARK SMILES IDX 9 24 10 25 11 26 12 27 73 28 13 29 72 30 14 31 15 32 16 33
REMARK SMILES IDX 66 34 17 35 71 36 65 37 67 38 18 39 70 40 64 41 63 42 19 44
REMARK SMILES IDX 51 45 31 46 50 47 32 48 35 49 49 50 68 51 33 52 34 53 48 55
REMARK SMILES IDX 69 56 36 57 20 58 21 59 29 60 22 61 28 62 30 63 27 64 23 65
REMARK SMILES IDX 24 66 25 67 26 68 52 69 53 70 61 71 54 72 60 73 62 74 59 75
REMARK SMILES IDX 55 76 56 77 57 78 58 79 37 80 38 81 46 82 39 83 45 84 47 85
REMARK SMILES IDX 44 86 40 87 41 88 42 89 43 90
REMARK H PARENT 84 21 67 43 35 54
REMARK Flexibility Score: inf
ROOT
ATOM      1  C   UNL A   1      35.912  21.201  24.591  1.00  0.00     0.274 C 
ENDROOT
BRANCH   1   2
ATOM      2  O   UNL A   1      34.872  20.284  24.990  1.00  0.00    -0.462 OA
BRANCH   2   3
ATOM      3  C   UNL A   1      33.872  20.802  25.767  1.00  0.00     0.313 C 
ATOM      4  O   UNL A   1      34.053  21.113  26.935  1.00  0.00    -0.252 OA
BRANCH   3   5
ATOM      5  C   UNL A   1      32.521  20.851  25.010  1.00  0.00     0.127 C 
ATOM      6  C   UNL A   1      32.524  19.713  23.961  1.00  0.00     0.025 C 
BRANCH   5   7
ATOM      7  C   UNL A   1      32.196  22.228  24.388  1.00  0.00    -0.020 A 
ATOM      8  C   UNL A   1      32.645  22.540  23.091  1.00  0.00     0.006 A 
ATOM      9  C   UNL A   1      31.476  23.247  25.042  1.00  0.00     0.022 A 
ATOM     10  C   UNL A   1      32.563  23.829  22.560  1.00  0.00     0.004 A 
ATOM     11  C   UNL A   1      31.460  24.563  24.534  1.00  0.00     0.019 A 
ATOM     12  Br  UNL A   1      30.401  22.929  26.582  1.00  0.00    -0.050 Br
ATOM     13  C   UNL A   1      32.076  24.886  23.314  1.00  0.00    -0.047 A 
BRANCH  13  14
ATOM     14  C   UNL A   1      32.161  26.330  22.855  1.00  0.00     0.041 C 
BRANCH  14  15
ATOM     15  C   UNL A   1      31.299  27.413  23.548  1.00  0.00     0.022 C 
ATOM     16  C   UNL A   1      31.755  27.884  24.935  1.00  0.00     0.007 C 
ATOM     17  C   UNL A   1      31.044  28.710  22.774  1.00  0.00     0.117 C 
ATOM     18  C   UNL A   1      31.351  29.354  25.056  1.00  0.00     0.003 C 
ATOM     19  C   UNL A   1      30.475  29.633  23.847  1.00  0.00     0.032 C 
BRANCH  17  20
ATOM     20  O   UNL A   1      30.142  28.508  21.703  1.00  0.00    -0.393 OA
ATOM     21  H   UNL A   1      29.954  29.358  21.275  1.00  0.00     0.210 HD
ENDBRANCH  17  20
ENDBRANCH  14  15
ENDBRANCH  13  14
ENDBRANCH   5   7
ENDBRANCH   3   5
ENDBRANCH   2   3
ENDBRANCH   1   2
BRANCH   1  22
ATOM     22  C   UNL A   1      37.306  20.782  25.074  1.00  0.00     0.275 C 
BRANCH  22  23
ATOM     23  O   UNL A   1      37.856  21.720  26.020  1.00  0.00    -0.458 OA
BRANCH  23  24
ATOM     24  C   UNL A   1      39.174  21.565  26.293  1.00  0.00     0.338 C 
ATOM     25  O   UNL A   1      39.865  20.597  26.025  1.00  0.00    -0.246 OA
BRANCH  24  26
ATOM     26  C   UNL A   1      39.729  22.827  26.818  1.00  0.00     0.060 A 
ATOM     27  C   UNL A   1      39.222  24.001  26.272  1.00  0.00     0.016 A 
ATOM     28  C   UNL A   1      40.763  22.884  27.755  1.00  0.00     0.016 A 
ATOM     29  C   UNL A   1      39.725  25.233  26.668  1.00  0.00     0.010 A 
ATOM     30  C   UNL A   1      41.293  24.136  28.129  1.00  0.00     0.010 A 
ATOM     31  C   UNL A   1      40.786  25.322  27.574  1.00  0.00    -0.014 A 
BRANCH  31  32
ATOM     32  C   UNL A   1      41.385  26.669  27.801  1.00  0.00     0.031 A 
ATOM     33  C   UNL A   1      40.600  27.720  28.544  1.00  0.00     0.074 A 
ATOM     34  C   UNL A   1      42.690  26.888  27.540  1.00  0.00     0.049 A 
ATOM     35  N   UNL A   1      40.975  28.911  28.937  1.00  0.00    -0.248 NA
ATOM     36  C   UNL A   1      39.232  27.357  28.946  1.00  0.00     0.031 C 
ATOM     37  C   UNL A   1      43.608  25.906  26.960  1.00  0.00     0.029 A 
ATOM     38  N   UNL A   1      43.482  27.990  27.762  1.00  0.00    -0.354 N 
ATOM     39  C   UNL A   1      39.907  29.428  29.661  1.00  0.00     0.074 A 
ATOM     40  C   UNL A   1      38.853  28.435  29.618  1.00  0.00     0.031 C 
ATOM     41  C   UNL A   1      44.837  26.444  26.890  1.00  0.00     0.029 A 
ATOM     42  C   UNL A   1      44.786  27.828  27.354  1.00  0.00     0.049 A 
ATOM     43  H   UNL A   1      43.146  28.819  28.175  1.00  0.00     0.167 HD
ATOM     44  C   UNL A   1      39.814  30.613  30.315  1.00  0.00     0.034 A 
ATOM     45  C   UNL A   1      45.814  28.704  27.318  1.00  0.00     0.034 A 
ATOM     46  C   UNL A   1      40.840  31.625  30.318  1.00  0.00     0.049 A 
ATOM     47  C   UNL A   1      45.593  30.111  27.818  1.00  0.00     0.074 A 
ATOM     48  C   UNL A   1      40.805  32.889  30.882  1.00  0.00     0.029 A 
ATOM     49  N   UNL A   1      42.081  31.500  29.709  1.00  0.00    -0.354 N 
ATOM     50  N   UNL A   1      44.549  30.617  28.433  1.00  0.00    -0.248 NA
ATOM     51  C   UNL A   1      46.685  31.072  27.603  1.00  0.00     0.031 C 
ATOM     52  C   UNL A   1      41.990  33.555  30.545  1.00  0.00     0.029 A 
ATOM     53  C   UNL A   1      42.797  32.683  29.834  1.00  0.00     0.049 A 
ATOM     54  H   UNL A   1      42.407  30.691  29.253  1.00  0.00     0.167 HD
ATOM     55  C   UNL A   1      44.868  31.948  28.693  1.00  0.00     0.074 A 
ATOM     56  C   UNL A   1      46.207  32.162  28.186  1.00  0.00     0.031 C 
ATOM     57  C   UNL A   1      44.121  32.904  29.302  1.00  0.00     0.034 A 
BRANCH  44  58
ATOM     58  C   UNL A   1      38.512  30.901  31.015  1.00  0.00     0.023 A 
ATOM     59  C   UNL A   1      37.448  31.546  30.359  1.00  0.00     0.031 A 
ATOM     60  C   UNL A   1      38.349  30.562  32.369  1.00  0.00     0.131 A 
ATOM     61  C   UNL A   1      36.288  31.878  31.074  1.00  0.00     0.055 A 
ATOM     62  C   UNL A   1      37.171  30.843  33.060  1.00  0.00     0.041 A 
ATOM     63  F   UNL A   1      39.343  29.965  33.047  1.00  0.00    -0.206 F 
ATOM     64  C   UNL A   1      36.136  31.516  32.416  1.00  0.00     0.022 A 
BRANCH  61  65
ATOM     65  S   UNL A   1      35.030  32.906  30.266  1.00  0.00     0.124 S 
ATOM     66  O   UNL A   1      35.828  34.021  29.765  1.00  0.00    -0.237 OA
ATOM     67  O   UNL A   1      34.488  32.004  29.257  1.00  0.00    -0.237 OA
ATOM     68  O   UNL A   1      34.116  33.247  31.355  1.00  0.00    -0.744 OA
ENDBRANCH  61  65
ENDBRANCH  44  58
BRANCH  45  69
ATOM     69  C   UNL A   1      47.118  28.324  26.693  1.00  0.00     0.023 A 
ATOM     70  C   UNL A   1      47.263  28.208  25.301  1.00  0.00     0.031 A 
ATOM     71  C   UNL A   1      48.220  27.981  27.499  1.00  0.00     0.131 A 
ATOM     72  C   UNL A   1      48.467  27.722  24.762  1.00  0.00     0.055 A 
ATOM     73  C   UNL A   1      49.433  27.558  26.956  1.00  0.00     0.041 A 
ATOM     74  F   UNL A   1      48.131  28.047  28.837  1.00  0.00    -0.206 F 
ATOM     75  C   UNL A   1      49.557  27.413  25.579  1.00  0.00     0.022 A 
BRANCH  72  76
ATOM     76  S   UNL A   1      48.558  27.393  22.980  1.00  0.00     0.124 S 
ATOM     77  O   UNL A   1      47.471  28.220  22.469  1.00  0.00    -0.237 OA
ATOM     78  O   UNL A   1      49.910  27.837  22.657  1.00  0.00    -0.237 OA
ATOM     79  O   UNL A   1      48.339  25.950  22.888  1.00  0.00    -0.744 OA
ENDBRANCH  72  76
ENDBRANCH  45  69
BRANCH  57  80
ATOM     80  C   UNL A   1      44.748  34.268  29.466  1.00  0.00     0.023 A 
ATOM     81  C   UNL A   1      44.464  35.321  28.577  1.00  0.00     0.031 A 
ATOM     82  C   UNL A   1      45.646  34.517  30.518  1.00  0.00     0.131 A 
ATOM     83  C   UNL A   1      45.108  36.560  28.730  1.00  0.00     0.055 A 
ATOM     84  C   UNL A   1      46.243  35.766  30.697  1.00  0.00     0.041 A 
ATOM     85  F   UNL A   1      45.956  33.549  31.396  1.00  0.00    -0.206 F 
ATOM     86  C   UNL A   1      45.983  36.793  29.794  1.00  0.00     0.022 A 
BRANCH  83  87
ATOM     87  S   UNL A   1      44.844  37.844  27.477  1.00  0.00     0.124 S 
ATOM     88  O   UNL A   1      44.848  39.062  28.281  1.00  0.00    -0.237 OA
ATOM     89  O   UNL A   1      45.990  37.660  26.593  1.00  0.00    -0.237 OA
ATOM     90  O   UNL A   1      43.551  37.493  26.892  1.00  0.00    -0.744 OA
ENDBRANCH  83  87
ENDBRANCH  57  80
ENDBRANCH  31  32
ENDBRANCH  24  26
ENDBRANCH  23  24
ENDBRANCH  22  23
ENDBRANCH   1  22
TORSDOF 18
ENDMDL
