MODEL 1
REMARK VINA RESULT:     -12.9      0.000      0.000
REMARK SMILES O=C(OCCOC(=O)[C@@H]1CCCN(c2ccc3cc(S(=O)(=O)N4CCCCC4)ccc3n2)C1)c1ccc(-c2c3nc(c(-c4cc(S(=O)(=O)[O-])ccc4F)c4ccc([nH]4)c(-c4cc(S(=O)(=O)[O-])ccc4F)c4nc(c(-c5cc(S(=O)(=O)[O-])ccc5F)c5ccc2[nH]5)C=C4)C=C3)cc1
REMARK SMILES IDX 4 1 3 2 2 3 1 4 34 5 35 6 96 7 36 8 95 9 37 10 38 11 39 12
REMARK SMILES IDX 89 13 40 14 94 15 88 16 90 17 41 18 93 19 87 20 86 21 42 23
REMARK SMILES IDX 74 24 54 25 73 26 55 27 58 28 72 29 91 30 56 31 57 32 71 34
REMARK SMILES IDX 92 35 59 36 43 37 44 38 52 39 45 40 51 41 53 42 50 43 46 44
REMARK SMILES IDX 47 45 48 46 49 47 75 48 76 49 84 50 77 51 83 52 85 53 82 54
REMARK SMILES IDX 78 55 79 56 80 57 81 58 60 59 61 60 69 61 62 62 68 63 70 64
REMARK SMILES IDX 67 65 63 66 64 67 65 68 66 69 5 70 6 71 7 72 8 73 9 74 10 75
REMARK SMILES IDX 33 76 11 77 13 78 12 79 14 80 15 81 32 82 16 83 31 84 17 85
REMARK SMILES IDX 30 86 18 87 29 88 19 89 20 90 21 91 22 92 23 93 24 94 28 95
REMARK SMILES IDX 25 96 27 97 26 98
REMARK H PARENT 90 22 58 33
REMARK Flexibility Score: inf
ROOT
ATOM      1  C   UNL A   1      32.060  29.577  26.400  1.00  0.00     0.275 C 
ENDROOT
BRANCH   1   2
ATOM      2  O   UNL A   1      33.327  30.209  26.353  1.00  0.00    -0.458 OA
BRANCH   2   3
ATOM      3  C   UNL A   1      33.516  31.160  27.290  1.00  0.00     0.338 C 
ATOM      4  O   UNL A   1      32.772  32.081  27.515  1.00  0.00    -0.246 OA
BRANCH   3   5
ATOM      5  C   UNL A   1      34.928  30.987  27.731  1.00  0.00     0.060 A 
ATOM      6  C   UNL A   1      35.795  32.069  27.897  1.00  0.00     0.016 A 
ATOM      7  C   UNL A   1      35.316  29.738  28.191  1.00  0.00     0.016 A 
ATOM      8  C   UNL A   1      37.024  31.884  28.514  1.00  0.00     0.010 A 
ATOM      9  C   UNL A   1      36.551  29.524  28.760  1.00  0.00     0.010 A 
ATOM     10  C   UNL A   1      37.397  30.607  28.942  1.00  0.00    -0.014 A 
BRANCH  10  11
ATOM     11  C   UNL A   1      38.646  30.380  29.661  1.00  0.00     0.031 A 
ATOM     12  C   UNL A   1      38.776  30.900  31.051  1.00  0.00     0.074 A 
ATOM     13  C   UNL A   1      39.660  29.814  28.985  1.00  0.00     0.049 A 
ATOM     14  N   UNL A   1      39.729  30.700  31.914  1.00  0.00    -0.248 NA
ATOM     15  C   UNL A   1      37.721  31.820  31.514  1.00  0.00     0.031 C 
ATOM     16  C   UNL A   1      39.646  29.489  27.553  1.00  0.00     0.029 A 
ATOM     17  N   UNL A   1      40.890  29.407  29.406  1.00  0.00    -0.354 N 
ATOM     18  C   UNL A   1      39.374  31.444  33.031  1.00  0.00     0.074 A 
ATOM     19  C   UNL A   1      38.202  32.211  32.681  1.00  0.00     0.031 C 
ATOM     20  C   UNL A   1      40.794  28.873  27.233  1.00  0.00     0.029 A 
ATOM     21  C   UNL A   1      41.604  28.745  28.436  1.00  0.00     0.049 A 
ATOM     22  H   UNL A   1      41.233  29.571  30.314  1.00  0.00     0.167 HD
ATOM     23  C   UNL A   1      39.949  31.414  34.255  1.00  0.00     0.034 A 
ATOM     24  C   UNL A   1      42.753  28.054  28.554  1.00  0.00     0.034 A 
ATOM     25  C   UNL A   1      41.107  30.600  34.522  1.00  0.00     0.049 A 
ATOM     26  C   UNL A   1      43.315  27.924  29.947  1.00  0.00     0.074 A 
ATOM     27  C   UNL A   1      41.771  30.379  35.711  1.00  0.00     0.029 A 
ATOM     28  N   UNL A   1      41.771  29.858  33.546  1.00  0.00    -0.354 N 
ATOM     29  N   UNL A   1      42.893  28.487  31.061  1.00  0.00    -0.248 NA
ATOM     30  C   UNL A   1      44.462  27.030  30.116  1.00  0.00     0.031 C 
ATOM     31  C   UNL A   1      42.851  29.525  35.447  1.00  0.00     0.029 A 
ATOM     32  C   UNL A   1      42.833  29.174  34.104  1.00  0.00     0.049 A 
ATOM     33  H   UNL A   1      41.520  29.827  32.595  1.00  0.00     0.167 HD
ATOM     34  C   UNL A   1      43.704  27.988  32.071  1.00  0.00     0.074 A 
ATOM     35  C   UNL A   1      44.620  27.058  31.430  1.00  0.00     0.031 C 
ATOM     36  C   UNL A   1      43.710  28.264  33.402  1.00  0.00     0.034 A 
BRANCH  23  37
ATOM     37  C   UNL A   1      39.303  32.241  35.339  1.00  0.00     0.023 A 
ATOM     38  C   UNL A   1      39.665  33.589  35.534  1.00  0.00     0.031 A 
ATOM     39  C   UNL A   1      38.390  31.678  36.245  1.00  0.00     0.131 A 
ATOM     40  C   UNL A   1      39.221  34.286  36.666  1.00  0.00     0.055 A 
ATOM     41  C   UNL A   1      37.871  32.409  37.318  1.00  0.00     0.041 A 
ATOM     42  F   UNL A   1      38.014  30.394  36.128  1.00  0.00    -0.206 F 
ATOM     43  C   UNL A   1      38.303  33.714  37.548  1.00  0.00     0.022 A 
BRANCH  40  44
ATOM     44  S   UNL A   1      39.998  35.878  37.060  1.00  0.00     0.124 S 
ATOM     45  O   UNL A   1      41.392  35.483  37.249  1.00  0.00    -0.237 OA
ATOM     46  O   UNL A   1      39.717  36.672  35.869  1.00  0.00    -0.237 OA
ATOM     47  O   UNL A   1      39.307  36.307  38.273  1.00  0.00    -0.744 OA
ENDBRANCH  40  44
ENDBRANCH  23  37
BRANCH  24  48
ATOM     48  C   UNL A   1      43.342  27.352  27.381  1.00  0.00     0.023 A 
ATOM     49  C   UNL A   1      44.607  27.705  26.887  1.00  0.00     0.031 A 
ATOM     50  C   UNL A   1      42.652  26.312  26.732  1.00  0.00     0.131 A 
ATOM     51  C   UNL A   1      45.121  27.069  25.745  1.00  0.00     0.055 A 
ATOM     52  C   UNL A   1      43.187  25.650  25.623  1.00  0.00     0.041 A 
ATOM     53  F   UNL A   1      41.453  25.910  27.181  1.00  0.00    -0.206 F 
ATOM     54  C   UNL A   1      44.422  26.040  25.113  1.00  0.00     0.022 A 
BRANCH  51  55
ATOM     55  S   UNL A   1      46.684  27.670  25.046  1.00  0.00     0.124 S 
ATOM     56  O   UNL A   1      46.330  29.026  24.639  1.00  0.00    -0.237 OA
ATOM     57  O   UNL A   1      47.586  27.557  26.188  1.00  0.00    -0.237 OA
ATOM     58  O   UNL A   1      46.946  26.738  23.951  1.00  0.00    -0.744 OA
ENDBRANCH  51  55
ENDBRANCH  24  48
BRANCH  36  59
ATOM     59  C   UNL A   1      44.730  27.529  34.223  1.00  0.00     0.023 A 
ATOM     60  C   UNL A   1      44.399  26.340  34.889  1.00  0.00     0.031 A 
ATOM     61  C   UNL A   1      46.039  28.026  34.343  1.00  0.00     0.131 A 
ATOM     62  C   UNL A   1      45.350  25.715  35.703  1.00  0.00     0.055 A 
ATOM     63  C   UNL A   1      47.001  27.362  35.100  1.00  0.00     0.041 A 
ATOM     64  F   UNL A   1      46.399  29.161  33.721  1.00  0.00    -0.206 F 
ATOM     65  C   UNL A   1      46.654  26.207  35.798  1.00  0.00     0.022 A 
BRANCH  62  66
ATOM     66  S   UNL A   1      44.822  24.305  36.710  1.00  0.00     0.124 S 
ATOM     67  O   UNL A   1      43.890  24.933  37.642  1.00  0.00    -0.237 OA
ATOM     68  O   UNL A   1      44.228  23.417  35.718  1.00  0.00    -0.237 OA
ATOM     69  O   UNL A   1      46.068  23.827  37.305  1.00  0.00    -0.744 OA
ENDBRANCH  62  66
ENDBRANCH  36  59
ENDBRANCH  10  11
ENDBRANCH   3   5
ENDBRANCH   2   3
ENDBRANCH   1   2
BRANCH   1  70
ATOM     70  C   UNL A   1      31.956  28.121  26.940  1.00  0.00     0.274 C 
BRANCH  70  71
ATOM     71  O   UNL A   1      32.676  27.076  26.234  1.00  0.00    -0.462 OA
BRANCH  71  72
ATOM     72  C   UNL A   1      32.001  25.908  26.039  1.00  0.00     0.310 C 
ATOM     73  O   UNL A   1      31.254  25.417  26.884  1.00  0.00    -0.252 OA
BRANCH  72  74
ATOM     74  C   UNL A   1      32.165  25.249  24.661  1.00  0.00     0.118 C 
ATOM     75  C   UNL A   1      31.370  23.968  24.402  1.00  0.00     0.019 C 
ATOM     76  C   UNL A   1      33.651  25.202  24.265  1.00  0.00     0.133 C 
ATOM     77  C   UNL A   1      31.894  23.116  23.229  1.00  0.00     0.022 C 
ATOM     78  N   UNL A   1      34.110  23.836  24.025  1.00  0.00    -0.356 N 
ATOM     79  C   UNL A   1      33.417  23.053  23.024  1.00  0.00     0.118 C 
BRANCH  78  80
ATOM     80  C   UNL A   1      35.464  23.581  24.259  1.00  0.00     0.129 A 
ATOM     81  C   UNL A   1      36.089  22.625  23.466  1.00  0.00     0.047 A 
ATOM     82  N   UNL A   1      36.106  24.086  25.331  1.00  0.00    -0.231 NA
ATOM     83  C   UNL A   1      37.127  21.872  23.974  1.00  0.00     0.014 A 
ATOM     84  C   UNL A   1      37.289  23.523  25.676  1.00  0.00     0.073 A 
ATOM     85  C   UNL A   1      37.735  22.310  25.121  1.00  0.00     0.002 A 
ATOM     86  C   UNL A   1      38.169  24.139  26.551  1.00  0.00     0.030 A 
ATOM     87  C   UNL A   1      38.833  21.607  25.608  1.00  0.00     0.032 A 
ATOM     88  C   UNL A   1      39.384  23.533  26.919  1.00  0.00     0.024 A 
ATOM     89  C   UNL A   1      39.674  22.226  26.515  1.00  0.00     0.083 A 
BRANCH  89  90
ATOM     90  S   UNL A   1      41.136  21.308  26.973  1.00  0.00     0.243 S 
ATOM     91  O   UNL A   1      40.781  20.504  28.122  1.00  0.00    -0.207 OA
ATOM     92  O   UNL A   1      41.647  20.704  25.759  1.00  0.00    -0.207 OA
BRANCH  90  93
ATOM     93  N   UNL A   1      42.286  22.468  27.466  1.00  0.00    -0.198 NA
ATOM     94  C   UNL A   1      42.165  22.877  28.885  1.00  0.00     0.102 C 
ATOM     95  C   UNL A   1      43.607  22.347  26.810  1.00  0.00     0.102 C 
ATOM     96  C   UNL A   1      43.271  23.813  29.330  1.00  0.00     0.017 C 
ATOM     97  C   UNL A   1      44.711  23.177  27.437  1.00  0.00     0.017 C 
ATOM     98  C   UNL A   1      44.624  23.241  28.951  1.00  0.00     0.003 C 
ENDBRANCH  90  93
ENDBRANCH  89  90
ENDBRANCH  78  80
ENDBRANCH  72  74
ENDBRANCH  71  72
ENDBRANCH  70  71
ENDBRANCH   1  70
TORSDOF 17
ENDMDL
MODEL 2
REMARK VINA RESULT:     -12.5      3.871      7.370
REMARK SMILES O=C(OCCOC(=O)[C@@H]1CCCN(c2ccc3cc(S(=O)(=O)N4CCCCC4)ccc3n2)C1)c1ccc(-c2c3nc(c(-c4cc(S(=O)(=O)[O-])ccc4F)c4ccc([nH]4)c(-c4cc(S(=O)(=O)[O-])ccc4F)c4nc(c(-c5cc(S(=O)(=O)[O-])ccc5F)c5ccc2[nH]5)C=C4)C=C3)cc1
REMARK SMILES IDX 4 1 3 2 2 3 1 4 34 5 35 6 96 7 36 8 95 9 37 10 38 11 39 12
REMARK SMILES IDX 89 13 40 14 94 15 88 16 90 17 41 18 93 19 87 20 86 21 42 23
REMARK SMILES IDX 74 24 54 25 73 26 55 27 58 28 72 29 91 30 56 31 57 32 71 34
REMARK SMILES IDX 92 35 59 36 43 37 44 38 52 39 45 40 51 41 53 42 50 43 46 44
REMARK SMILES IDX 47 45 48 46 49 47 75 48 76 49 84 50 77 51 83 52 85 53 82 54
REMARK SMILES IDX 78 55 79 56 80 57 81 58 60 59 61 60 69 61 62 62 68 63 70 64
REMARK SMILES IDX 67 65 63 66 64 67 65 68 66 69 5 70 6 71 7 72 8 73 9 74 10 75
REMARK SMILES IDX 33 76 11 77 13 78 12 79 14 80 15 81 32 82 16 83 31 84 17 85
REMARK SMILES IDX 30 86 18 87 29 88 19 89 20 90 21 91 22 92 23 93 24 94 28 95
REMARK SMILES IDX 25 96 27 97 26 98
REMARK H PARENT 90 22 58 33
REMARK Flexibility Score: inf
ROOT
ATOM      1  C   UNL A   1      35.300  33.326  28.019  1.00  0.00     0.275 C 
ENDROOT
BRANCH   1   2
ATOM      2  O   UNL A   1      35.114  32.083  28.673  1.00  0.00    -0.458 OA
BRANCH   2   3
ATOM      3  C   UNL A   1      35.091  31.013  27.851  1.00  0.00     0.338 C 
ATOM      4  O   UNL A   1      34.165  30.684  27.154  1.00  0.00    -0.246 OA
BRANCH   3   5
ATOM      5  C   UNL A   1      36.290  30.215  28.230  1.00  0.00     0.060 A 
ATOM      6  C   UNL A   1      37.494  30.298  27.526  1.00  0.00     0.016 A 
ATOM      7  C   UNL A   1      36.264  29.538  29.439  1.00  0.00     0.016 A 
ATOM      8  C   UNL A   1      38.639  29.707  28.040  1.00  0.00     0.010 A 
ATOM      9  C   UNL A   1      37.377  28.902  29.942  1.00  0.00     0.010 A 
ATOM     10  C   UNL A   1      38.573  29.009  29.249  1.00  0.00    -0.014 A 
BRANCH  10  11
ATOM     11  C   UNL A   1      39.767  28.436  29.863  1.00  0.00     0.031 A 
ATOM     12  C   UNL A   1      40.245  28.997  31.157  1.00  0.00     0.074 A 
ATOM     13  C   UNL A   1      40.441  27.508  29.165  1.00  0.00     0.049 A 
ATOM     14  N   UNL A   1      41.189  28.561  31.939  1.00  0.00    -0.248 NA
ATOM     15  C   UNL A   1      39.617  30.254  31.605  1.00  0.00     0.031 C 
ATOM     16  C   UNL A   1      40.129  27.087  27.792  1.00  0.00     0.029 A 
ATOM     17  N   UNL A   1      41.518  26.747  29.508  1.00  0.00    -0.354 N 
ATOM     18  C   UNL A   1      41.250  29.473  32.984  1.00  0.00     0.074 A 
ATOM     19  C   UNL A   1      40.352  30.557  32.660  1.00  0.00     0.031 C 
ATOM     20  C   UNL A   1      40.962  26.096  27.438  1.00  0.00     0.029 A 
ATOM     21  C   UNL A   1      41.841  25.804  28.561  1.00  0.00     0.049 A 
ATOM     22  H   UNL A   1      42.016  26.863  30.350  1.00  0.00     0.167 HD
ATOM     23  C   UNL A   1      41.943  29.355  34.139  1.00  0.00     0.034 A 
ATOM     24  C   UNL A   1      42.710  24.781  28.649  1.00  0.00     0.034 A 
ATOM     25  C   UNL A   1      42.801  28.224  34.388  1.00  0.00     0.049 A 
ATOM     26  C   UNL A   1      43.383  24.587  29.985  1.00  0.00     0.074 A 
ATOM     27  C   UNL A   1      43.512  27.894  35.524  1.00  0.00     0.029 A 
ATOM     28  N   UNL A   1      43.051  27.223  33.451  1.00  0.00    -0.354 N 
ATOM     29  N   UNL A   1      43.321  25.350  31.056  1.00  0.00    -0.248 NA
ATOM     30  C   UNL A   1      44.190  23.377  30.148  1.00  0.00     0.031 C 
ATOM     31  C   UNL A   1      44.211  26.708  35.262  1.00  0.00     0.029 A 
ATOM     32  C   UNL A   1      43.899  26.271  33.981  1.00  0.00     0.049 A 
ATOM     33  H   UNL A   1      42.676  27.198  32.541  1.00  0.00     0.167 HD
ATOM     34  C   UNL A   1      44.055  24.695  32.035  1.00  0.00     0.074 A 
ATOM     35  C   UNL A   1      44.525  23.461  31.426  1.00  0.00     0.031 C 
ATOM     36  C   UNL A   1      44.331  25.063  33.314  1.00  0.00     0.034 A 
BRANCH  23  37
ATOM     37  C   UNL A   1      41.753  30.440  35.171  1.00  0.00     0.023 A 
ATOM     38  C   UNL A   1      40.522  30.594  35.839  1.00  0.00     0.031 A 
ATOM     39  C   UNL A   1      42.758  31.384  35.435  1.00  0.00     0.131 A 
ATOM     40  C   UNL A   1      40.285  31.725  36.634  1.00  0.00     0.055 A 
ATOM     41  C   UNL A   1      42.549  32.456  36.308  1.00  0.00     0.041 A 
ATOM     42  F   UNL A   1      43.948  31.306  34.820  1.00  0.00    -0.206 F 
ATOM     43  C   UNL A   1      41.300  32.645  36.896  1.00  0.00     0.022 A 
BRANCH  40  44
ATOM     44  S   UNL A   1      38.584  32.060  37.171  1.00  0.00     0.124 S 
ATOM     45  O   UNL A   1      38.252  33.237  36.369  1.00  0.00    -0.237 OA
ATOM     46  O   UNL A   1      37.889  30.830  36.812  1.00  0.00    -0.237 OA
ATOM     47  O   UNL A   1      38.718  32.307  38.604  1.00  0.00    -0.744 OA
ENDBRANCH  40  44
ENDBRANCH  23  37
BRANCH  24  48
ATOM     48  C   UNL A   1      42.876  23.825  27.520  1.00  0.00     0.023 A 
ATOM     49  C   UNL A   1      44.011  23.867  26.696  1.00  0.00     0.031 A 
ATOM     50  C   UNL A   1      41.902  22.848  27.243  1.00  0.00     0.131 A 
ATOM     51  C   UNL A   1      44.122  22.994  25.602  1.00  0.00     0.055 A 
ATOM     52  C   UNL A   1      42.038  21.950  26.180  1.00  0.00     0.041 A 
ATOM     53  F   UNL A   1      40.811  22.740  28.017  1.00  0.00    -0.206 F 
ATOM     54  C   UNL A   1      43.145  22.033  25.342  1.00  0.00     0.022 A 
BRANCH  51  55
ATOM     55  S   UNL A   1      45.526  23.195  24.470  1.00  0.00     0.124 S 
ATOM     56  O   UNL A   1      44.949  22.774  23.198  1.00  0.00    -0.237 OA
ATOM     57  O   UNL A   1      45.817  24.619  24.603  1.00  0.00    -0.237 OA
ATOM     58  O   UNL A   1      46.539  22.298  25.024  1.00  0.00    -0.744 OA
ENDBRANCH  51  55
ENDBRANCH  24  48
BRANCH  36  59
ATOM     59  C   UNL A   1      45.159  24.100  34.114  1.00  0.00     0.023 A 
ATOM     60  C   UNL A   1      46.559  24.188  34.124  1.00  0.00     0.031 A 
ATOM     61  C   UNL A   1      44.543  23.085  34.864  1.00  0.00     0.131 A 
ATOM     62  C   UNL A   1      47.307  23.234  34.822  1.00  0.00     0.055 A 
ATOM     63  C   UNL A   1      45.291  22.178  35.612  1.00  0.00     0.041 A 
ATOM     64  F   UNL A   1      43.205  22.964  34.883  1.00  0.00    -0.206 F 
ATOM     65  C   UNL A   1      46.683  22.241  35.581  1.00  0.00     0.022 A 
BRANCH  62  66
ATOM     66  S   UNL A   1      49.109  23.256  34.638  1.00  0.00     0.124 S 
ATOM     67  O   UNL A   1      49.539  23.740  35.946  1.00  0.00    -0.237 OA
ATOM     68  O   UNL A   1      49.410  21.859  34.345  1.00  0.00    -0.237 OA
ATOM     69  O   UNL A   1      49.327  24.183  33.530  1.00  0.00    -0.744 OA
ENDBRANCH  62  66
ENDBRANCH  36  59
ENDBRANCH  10  11
ENDBRANCH   3   5
ENDBRANCH   2   3
ENDBRANCH   1   2
BRANCH   1  70
ATOM     70  C   UNL A   1      34.117  34.336  27.958  1.00  0.00     0.274 C 
BRANCH  70  71
ATOM     71  O   UNL A   1      34.226  35.565  28.722  1.00  0.00    -0.462 OA
BRANCH  71  72
ATOM     72  C   UNL A   1      33.114  35.944  29.413  1.00  0.00     0.310 C 
ATOM     73  O   UNL A   1      32.107  36.393  28.868  1.00  0.00    -0.252 OA
BRANCH  72  74
ATOM     74  C   UNL A   1      33.146  35.717  30.932  1.00  0.00     0.118 C 
ATOM     75  C   UNL A   1      33.166  36.961  31.823  1.00  0.00     0.019 C 
ATOM     76  C   UNL A   1      34.174  34.628  31.288  1.00  0.00     0.133 C 
ATOM     77  C   UNL A   1      33.648  36.709  33.265  1.00  0.00     0.022 C 
ATOM     78  N   UNL A   1      35.202  35.123  32.200  1.00  0.00    -0.356 N 
ATOM     79  C   UNL A   1      34.776  35.682  33.465  1.00  0.00     0.118 C 
BRANCH  78  80
ATOM     80  C   UNL A   1      36.453  34.505  32.125  1.00  0.00     0.129 A 
ATOM     81  C   UNL A   1      37.246  34.509  33.268  1.00  0.00     0.047 A 
ATOM     82  N   UNL A   1      36.971  34.091  30.951  1.00  0.00    -0.231 NA
ATOM     83  C   UNL A   1      38.621  34.529  33.159  1.00  0.00     0.014 A 
ATOM     84  C   UNL A   1      38.300  33.833  30.910  1.00  0.00     0.073 A 
ATOM     85  C   UNL A   1      39.172  34.208  31.947  1.00  0.00     0.002 A 
ATOM     86  C   UNL A   1      38.879  33.124  29.869  1.00  0.00     0.030 A 
ATOM     87  C   UNL A   1      40.559  34.147  31.837  1.00  0.00     0.032 A 
ATOM     88  C   UNL A   1      40.264  32.884  29.825  1.00  0.00     0.024 A 
ATOM     89  C   UNL A   1      41.115  33.472  30.766  1.00  0.00     0.083 A 
BRANCH  89  90
ATOM     90  S   UNL A   1      42.894  33.318  30.782  1.00  0.00     0.243 S 
ATOM     91  O   UNL A   1      43.381  33.976  29.589  1.00  0.00    -0.207 OA
ATOM     92  O   UNL A   1      43.337  33.724  32.101  1.00  0.00    -0.207 OA
BRANCH  90  93
ATOM     93  N   UNL A   1      43.224  31.650  30.645  1.00  0.00    -0.198 NA
ATOM     94  C   UNL A   1      43.204  31.139  29.254  1.00  0.00     0.102 C 
ATOM     95  C   UNL A   1      44.184  31.125  31.643  1.00  0.00     0.102 C 
ATOM     96  C   UNL A   1      43.620  29.685  29.148  1.00  0.00     0.017 C 
ATOM     97  C   UNL A   1      44.700  29.727  31.360  1.00  0.00     0.017 C 
ATOM     98  C   UNL A   1      44.927  29.461  29.884  1.00  0.00     0.003 C 
ENDBRANCH  90  93
ENDBRANCH  89  90
ENDBRANCH  78  80
ENDBRANCH  72  74
ENDBRANCH  71  72
ENDBRANCH  70  71
ENDBRANCH   1  70
TORSDOF 17
ENDMDL
MODEL 3
REMARK VINA RESULT:     -12.3      1.544      1.956
REMARK SMILES O=C(OCCOC(=O)[C@@H]1CCCN(c2ccc3cc(S(=O)(=O)N4CCCCC4)ccc3n2)C1)c1ccc(-c2c3nc(c(-c4cc(S(=O)(=O)[O-])ccc4F)c4ccc([nH]4)c(-c4cc(S(=O)(=O)[O-])ccc4F)c4nc(c(-c5cc(S(=O)(=O)[O-])ccc5F)c5ccc2[nH]5)C=C4)C=C3)cc1
REMARK SMILES IDX 4 1 3 2 2 3 1 4 34 5 35 6 96 7 36 8 95 9 37 10 38 11 39 12
REMARK SMILES IDX 89 13 40 14 94 15 88 16 90 17 41 18 93 19 87 20 86 21 42 23
REMARK SMILES IDX 74 24 54 25 73 26 55 27 58 28 72 29 91 30 56 31 57 32 71 34
REMARK SMILES IDX 92 35 59 36 43 37 44 38 52 39 45 40 51 41 53 42 50 43 46 44
REMARK SMILES IDX 47 45 48 46 49 47 75 48 76 49 84 50 77 51 83 52 85 53 82 54
REMARK SMILES IDX 78 55 79 56 80 57 81 58 60 59 61 60 69 61 62 62 68 63 70 64
REMARK SMILES IDX 67 65 63 66 64 67 65 68 66 69 5 70 6 71 7 72 8 73 9 74 10 75
REMARK SMILES IDX 33 76 11 77 13 78 12 79 14 80 15 81 32 82 16 83 31 84 17 85
REMARK SMILES IDX 30 86 18 87 29 88 19 89 20 90 21 91 22 92 23 93 24 94 28 95
REMARK SMILES IDX 25 96 27 97 26 98
REMARK H PARENT 90 22 58 33
REMARK Flexibility Score: inf
ROOT
ATOM      1  C   UNL A   1      32.391  29.302  26.401  1.00  0.00     0.275 C 
ENDROOT
BRANCH   1   2
ATOM      2  O   UNL A   1      33.666  29.921  26.394  1.00  0.00    -0.458 OA
BRANCH   2   3
ATOM      3  C   UNL A   1      33.814  30.914  27.295  1.00  0.00     0.338 C 
ATOM      4  O   UNL A   1      33.043  31.823  27.470  1.00  0.00    -0.246 OA
BRANCH   3   5
ATOM      5  C   UNL A   1      35.222  30.795  27.766  1.00  0.00     0.060 A 
ATOM      6  C   UNL A   1      36.034  31.912  27.975  1.00  0.00     0.016 A 
ATOM      7  C   UNL A   1      35.656  29.555  28.208  1.00  0.00     0.016 A 
ATOM      8  C   UNL A   1      37.256  31.769  28.617  1.00  0.00     0.010 A 
ATOM      9  C   UNL A   1      36.887  29.384  28.803  1.00  0.00     0.010 A 
ATOM     10  C   UNL A   1      37.677  30.501  29.027  1.00  0.00    -0.014 A 
BRANCH  10  11
ATOM     11  C   UNL A   1      38.919  30.315  29.771  1.00  0.00     0.031 A 
ATOM     12  C   UNL A   1      39.011  30.858  31.155  1.00  0.00     0.074 A 
ATOM     13  C   UNL A   1      39.957  29.764  29.121  1.00  0.00     0.049 A 
ATOM     14  N   UNL A   1      39.954  30.694  32.036  1.00  0.00    -0.248 NA
ATOM     15  C   UNL A   1      37.927  31.759  31.585  1.00  0.00     0.031 C 
ATOM     16  C   UNL A   1      39.976  29.417  27.694  1.00  0.00     0.029 A 
ATOM     17  N   UNL A   1      41.189  29.393  29.569  1.00  0.00    -0.354 N 
ATOM     18  C   UNL A   1      39.562  31.447  33.136  1.00  0.00     0.074 A 
ATOM     19  C   UNL A   1      38.378  32.179  32.754  1.00  0.00     0.031 C 
ATOM     20  C   UNL A   1      41.144  28.824  27.403  1.00  0.00     0.029 A 
ATOM     21  C   UNL A   1      41.935  28.734  28.621  1.00  0.00     0.049 A 
ATOM     22  H   UNL A   1      41.513  29.579  30.481  1.00  0.00     0.167 HD
ATOM     23  C   UNL A   1      40.116  31.448  34.370  1.00  0.00     0.034 A 
ATOM     24  C   UNL A   1      43.098  28.073  28.769  1.00  0.00     0.034 A 
ATOM     25  C   UNL A   1      41.288  30.667  34.669  1.00  0.00     0.049 A 
ATOM     26  C   UNL A   1      43.640  27.978  30.174  1.00  0.00     0.074 A 
ATOM     27  C   UNL A   1      41.936  30.480  35.873  1.00  0.00     0.029 A 
ATOM     28  N   UNL A   1      41.987  29.927  33.716  1.00  0.00    -0.354 N 
ATOM     29  N   UNL A   1      43.185  28.546  31.272  1.00  0.00    -0.248 NA
ATOM     30  C   UNL A   1      44.804  27.114  30.376  1.00  0.00     0.031 C 
ATOM     31  C   UNL A   1      43.041  29.649  35.641  1.00  0.00     0.029 A 
ATOM     32  C   UNL A   1      43.055  29.277  34.302  1.00  0.00     0.049 A 
ATOM     33  H   UNL A   1      41.753  29.875  32.761  1.00  0.00     0.167 HD
ATOM     34  C   UNL A   1      43.990  28.083  32.303  1.00  0.00     0.074 A 
ATOM     35  C   UNL A   1      44.938  27.166  31.692  1.00  0.00     0.031 C 
ATOM     36  C   UNL A   1      43.966  28.378  33.630  1.00  0.00     0.034 A 
BRANCH  23  37
ATOM     37  C   UNL A   1      39.431  32.276  35.430  1.00  0.00     0.023 A 
ATOM     38  C   UNL A   1      39.793  33.621  35.644  1.00  0.00     0.031 A 
ATOM     39  C   UNL A   1      38.479  31.715  36.296  1.00  0.00     0.131 A 
ATOM     40  C   UNL A   1      39.307  34.316  36.760  1.00  0.00     0.055 A 
ATOM     41  C   UNL A   1      37.921  32.445  37.350  1.00  0.00     0.041 A 
ATOM     42  F   UNL A   1      38.101  30.434  36.159  1.00  0.00    -0.206 F 
ATOM     43  C   UNL A   1      38.351  33.747  37.602  1.00  0.00     0.022 A 
BRANCH  40  44
ATOM     44  S   UNL A   1      40.077  35.903  37.190  1.00  0.00     0.124 S 
ATOM     45  O   UNL A   1      39.838  36.681  35.976  1.00  0.00    -0.237 OA
ATOM     46  O   UNL A   1      39.321  36.313  38.368  1.00  0.00    -0.237 OA
ATOM     47  O   UNL A   1      41.473  35.552  37.435  1.00  0.00    -0.744 OA
ENDBRANCH  40  44
ENDBRANCH  23  37
BRANCH  24  48
ATOM     48  C   UNL A   1      43.725  27.368  27.618  1.00  0.00     0.023 A 
ATOM     49  C   UNL A   1      44.866  27.887  26.985  1.00  0.00     0.031 A 
ATOM     50  C   UNL A   1      43.197  26.160  27.129  1.00  0.00     0.131 A 
ATOM     51  C   UNL A   1      45.408  27.236  25.865  1.00  0.00     0.055 A 
ATOM     52  C   UNL A   1      43.766  25.491  26.041  1.00  0.00     0.041 A 
ATOM     53  F   UNL A   1      42.127  25.601  27.715  1.00  0.00    -0.206 F 
ATOM     54  C   UNL A   1      44.869  26.039  25.392  1.00  0.00     0.022 A 
BRANCH  51  55
ATOM     55  S   UNL A   1      46.780  28.029  24.980  1.00  0.00     0.124 S 
ATOM     56  O   UNL A   1      47.875  27.097  25.228  1.00  0.00    -0.237 OA
ATOM     57  O   UNL A   1      46.270  28.072  23.613  1.00  0.00    -0.237 OA
ATOM     58  O   UNL A   1      46.903  29.327  25.640  1.00  0.00    -0.744 OA
ENDBRANCH  51  55
ENDBRANCH  24  48
BRANCH  36  59
ATOM     59  C   UNL A   1      44.989  27.680  34.479  1.00  0.00     0.023 A 
ATOM     60  C   UNL A   1      46.242  28.262  34.723  1.00  0.00     0.031 A 
ATOM     61  C   UNL A   1      44.708  26.424  35.042  1.00  0.00     0.131 A 
ATOM     62  C   UNL A   1      47.200  27.557  35.459  1.00  0.00     0.055 A 
ATOM     63  C   UNL A   1      45.643  25.757  35.831  1.00  0.00     0.041 A 
ATOM     64  F   UNL A   1      43.521  25.831  34.834  1.00  0.00    -0.206 F 
ATOM     65  C   UNL A   1      46.903  26.317  36.031  1.00  0.00     0.022 A 
BRANCH  62  66
ATOM     66  S   UNL A   1      48.871  28.246  35.572  1.00  0.00     0.124 S 
ATOM     67  O   UNL A   1      48.797  29.014  36.810  1.00  0.00    -0.237 OA
ATOM     68  O   UNL A   1      49.701  27.047  35.615  1.00  0.00    -0.237 OA
ATOM     69  O   UNL A   1      48.994  29.042  34.353  1.00  0.00    -0.744 OA
ENDBRANCH  62  66
ENDBRANCH  36  59
ENDBRANCH  10  11
ENDBRANCH   3   5
ENDBRANCH   2   3
ENDBRANCH   1   2
BRANCH   1  70
ATOM     70  C   UNL A   1      32.253  27.852  26.949  1.00  0.00     0.274 C 
BRANCH  70  71
ATOM     71  O   UNL A   1      32.973  26.791  26.267  1.00  0.00    -0.462 OA
BRANCH  71  72
ATOM     72  C   UNL A   1      32.274  25.646  26.031  1.00  0.00     0.310 C 
ATOM     73  O   UNL A   1      31.464  25.179  26.830  1.00  0.00    -0.252 OA
BRANCH  72  74
ATOM     74  C   UNL A   1      32.497  24.981  24.664  1.00  0.00     0.118 C 
ATOM     75  C   UNL A   1      31.714  23.699  24.376  1.00  0.00     0.019 C 
ATOM     76  C   UNL A   1      34.000  24.931  24.333  1.00  0.00     0.133 C 
ATOM     77  C   UNL A   1      32.287  22.842  23.231  1.00  0.00     0.022 C 
ATOM     78  N   UNL A   1      34.467  23.564  24.119  1.00  0.00    -0.356 N 
ATOM     79  C   UNL A   1      33.818  22.778  23.092  1.00  0.00     0.118 C 
BRANCH  78  80
ATOM     80  C   UNL A   1      35.810  23.310  24.412  1.00  0.00     0.129 A 
ATOM     81  C   UNL A   1      36.405  22.205  23.813  1.00  0.00     0.047 A 
ATOM     82  N   UNL A   1      36.462  23.978  25.384  1.00  0.00    -0.231 NA
ATOM     83  C   UNL A   1      37.411  21.521  24.462  1.00  0.00     0.014 A 
ATOM     84  C   UNL A   1      37.622  23.446  25.840  1.00  0.00     0.073 A 
ATOM     85  C   UNL A   1      38.027  22.138  25.519  1.00  0.00     0.002 A 
ATOM     86  C   UNL A   1      38.518  24.180  26.601  1.00  0.00     0.030 A 
ATOM     87  C   UNL A   1      39.096  21.497  26.139  1.00  0.00     0.032 A 
ATOM     88  C   UNL A   1      39.708  23.608  27.088  1.00  0.00     0.024 A 
ATOM     89  C   UNL A   1      39.953  22.241  26.930  1.00  0.00     0.083 A 
BRANCH  89  90
ATOM     90  S   UNL A   1      41.378  21.372  27.565  1.00  0.00     0.243 S 
ATOM     91  O   UNL A   1      42.073  22.292  28.439  1.00  0.00    -0.207 OA
ATOM     92  O   UNL A   1      40.905  20.088  28.044  1.00  0.00    -0.207 OA
BRANCH  90  93
ATOM     93  N   UNL A   1      42.377  21.056  26.218  1.00  0.00    -0.198 NA
ATOM     94  C   UNL A   1      43.448  22.058  26.009  1.00  0.00     0.102 C 
ATOM     95  C   UNL A   1      42.601  19.620  25.938  1.00  0.00     0.102 C 
ATOM     96  C   UNL A   1      44.395  21.690  24.884  1.00  0.00     0.017 C 
ATOM     97  C   UNL A   1      43.701  19.328  24.935  1.00  0.00     0.017 C 
ATOM     98  C   UNL A   1      44.887  20.266  25.059  1.00  0.00     0.003 C 
ENDBRANCH  90  93
ENDBRANCH  89  90
ENDBRANCH  78  80
ENDBRANCH  72  74
ENDBRANCH  71  72
ENDBRANCH  70  71
ENDBRANCH   1  70
TORSDOF 17
ENDMDL
