MODEL 1
REMARK VINA RESULT:     -13.4      0.000      0.000
REMARK SMILES O=C(OCCOC(=O)c1ccc(-c2c3nc(c(-c4cc(S(=O)(=O)[O-])ccc4F)c4ccc([nH]4)c(-c4cc(S(=O)(=O)[O-])ccc4F)c4nc(c(-c5cc(S(=O)(=O)[O-])ccc5F)c5ccc2[nH]5)C=C4)C=C3)cc1)C1=Cc2c(Cl)ccc(Cl)c2O[C@@H]1C(F)(F)F
REMARK SMILES IDX 5 1 4 2 3 3 2 4 1 5 72 6 73 7 83 8 74 9 82 10 75 11 81 12
REMARK SMILES IDX 76 13 77 14 79 15 78 16 80 17 84 18 85 19 86 20 87 21 6 22
REMARK SMILES IDX 7 23 8 24 9 25 10 26 71 27 11 28 70 29 12 30 13 31 14 32
REMARK SMILES IDX 64 33 15 34 69 35 63 36 65 37 16 38 68 39 62 40 61 41 17 43
REMARK SMILES IDX 49 44 29 45 48 46 30 47 33 48 47 49 66 50 31 51 32 52 46 54
REMARK SMILES IDX 67 55 34 56 18 57 19 58 27 59 20 60 26 61 28 62 25 63 21 64
REMARK SMILES IDX 22 65 23 66 24 67 50 68 51 69 59 70 52 71 58 72 60 73 57 74
REMARK SMILES IDX 53 75 54 76 55 77 56 78 35 79 36 80 44 81 37 82 43 83 45 84
REMARK SMILES IDX 42 85 38 86 39 87 40 88 41 89
REMARK H PARENT 65 42 33 53
REMARK Flexibility Score: inf
ROOT
ATOM      1  C   UNL A   1      31.063  32.030  26.491  1.00  0.00     0.275 C 
ENDROOT
BRANCH   1   2
ATOM      2  C   UNL A   1      31.214  30.289  25.191  1.00  0.00     0.275 C 
BRANCH   2   3
ATOM      3  O   UNL A   1      30.817  28.842  25.547  1.00  0.00    -0.459 OA
BRANCH   3   4
ATOM      4  C   UNL A   1      31.574  27.922  24.938  1.00  0.00     0.338 C 
ATOM      5  O   UNL A   1      31.589  27.580  23.785  1.00  0.00    -0.246 OA
BRANCH   4   6
ATOM      6  C   UNL A   1      32.023  27.283  26.155  1.00  0.00     0.087 C 
ATOM      7  C   UNL A   1      31.280  26.054  26.454  1.00  0.00     0.029 C 
ATOM      8  C   UNL A   1      33.900  27.378  25.726  1.00  0.00     0.316 C 
ATOM      9  C   UNL A   1      31.968  24.389  26.244  1.00  0.00     0.037 A 
ATOM     10  O   UNL A   1      34.648  25.622  25.444  1.00  0.00    -0.474 OA
ATOM     11  C   UNL A   1      31.143  23.293  26.319  1.00  0.00     0.052 A 
ATOM     12  C   UNL A   1      33.597  24.140  25.668  1.00  0.00     0.148 A 
ATOM     13  Cl  UNL A   1      29.506  23.372  26.818  1.00  0.00    -0.084 Cl
ATOM     14  C   UNL A   1      31.703  22.077  25.892  1.00  0.00     0.023 A 
ATOM     15  C   UNL A   1      34.053  22.910  25.276  1.00  0.00     0.083 A 
ATOM     16  C   UNL A   1      33.066  21.900  25.397  1.00  0.00     0.026 A 
ATOM     17  Cl  UNL A   1      35.583  22.578  24.626  1.00  0.00    -0.080 Cl
BRANCH   8  18
ATOM     18  C   UNL A   1      34.216  28.572  26.723  1.00  0.00     0.430 C 
ATOM     19  F   UNL A   1      35.501  28.590  27.092  1.00  0.00    -0.167 F 
ATOM     20  F   UNL A   1      34.059  29.752  26.043  1.00  0.00    -0.167 F 
ATOM     21  F   UNL A   1      33.395  28.740  27.772  1.00  0.00    -0.167 F 
ENDBRANCH   8  18
ENDBRANCH   4   6
ENDBRANCH   3   4
ENDBRANCH   2   3
ENDBRANCH   1   2
BRANCH   1  22
ATOM     22  O   UNL A   1      32.321  33.159  26.791  1.00  0.00    -0.458 OA
BRANCH  22  23
ATOM     23  C   UNL A   1      33.007  33.817  27.785  1.00  0.00     0.338 C 
ATOM     24  O   UNL A   1      32.613  34.642  28.588  1.00  0.00    -0.246 OA
BRANCH  23  25
ATOM     25  C   UNL A   1      34.258  33.022  27.981  1.00  0.00     0.060 A 
ATOM     26  C   UNL A   1      35.489  33.702  28.013  1.00  0.00     0.016 A 
ATOM     27  C   UNL A   1      34.163  31.729  28.499  1.00  0.00     0.016 A 
ATOM     28  C   UNL A   1      36.566  33.162  28.740  1.00  0.00     0.010 A 
ATOM     29  C   UNL A   1      35.234  31.196  29.224  1.00  0.00     0.010 A 
ATOM     30  C   UNL A   1      36.426  31.927  29.393  1.00  0.00    -0.014 A 
BRANCH  30  31
ATOM     31  C   UNL A   1      37.623  31.227  29.931  1.00  0.00     0.031 A 
ATOM     32  C   UNL A   1      37.947  31.572  31.356  1.00  0.00     0.074 A 
ATOM     33  C   UNL A   1      38.409  30.388  29.223  1.00  0.00     0.049 A 
ATOM     34  N   UNL A   1      38.931  31.179  32.117  1.00  0.00    -0.248 NA
ATOM     35  C   UNL A   1      37.036  32.539  31.993  1.00  0.00     0.031 C 
ATOM     36  C   UNL A   1      38.209  29.985  27.830  1.00  0.00     0.029 A 
ATOM     37  N   UNL A   1      39.556  29.719  29.591  1.00  0.00    -0.354 N 
ATOM     38  C   UNL A   1      38.744  31.850  33.320  1.00  0.00     0.074 A 
ATOM     39  C   UNL A   1      37.629  32.747  33.149  1.00  0.00     0.031 C 
ATOM     40  C   UNL A   1      39.192  29.133  27.469  1.00  0.00     0.029 A 
ATOM     41  C   UNL A   1      40.103  28.933  28.596  1.00  0.00     0.049 A 
ATOM     42  H   UNL A   1      39.953  29.795  30.489  1.00  0.00     0.167 HD
ATOM     43  C   UNL A   1      39.416  31.705  34.484  1.00  0.00     0.034 A 
ATOM     44  C   UNL A   1      41.204  28.147  28.615  1.00  0.00     0.034 A 
ATOM     45  C   UNL A   1      40.555  30.843  34.620  1.00  0.00     0.049 A 
ATOM     46  C   UNL A   1      42.004  28.062  29.906  1.00  0.00     0.074 A 
ATOM     47  C   UNL A   1      41.344  30.623  35.730  1.00  0.00     0.029 A 
ATOM     48  N   UNL A   1      41.081  30.073  33.588  1.00  0.00    -0.354 N 
ATOM     49  N   UNL A   1      41.784  28.655  31.060  1.00  0.00    -0.248 NA
ATOM     50  C   UNL A   1      43.185  27.188  29.902  1.00  0.00     0.031 C 
ATOM     51  C   UNL A   1      42.391  29.776  35.351  1.00  0.00     0.029 A 
ATOM     52  C   UNL A   1      42.199  29.392  34.030  1.00  0.00     0.049 A 
ATOM     53  H   UNL A   1      40.711  30.021  32.677  1.00  0.00     0.167 HD
ATOM     54  C   UNL A   1      42.762  28.174  31.931  1.00  0.00     0.074 A 
ATOM     55  C   UNL A   1      43.570  27.245  31.167  1.00  0.00     0.031 C 
ATOM     56  C   UNL A   1      42.971  28.457  33.244  1.00  0.00     0.034 A 
BRANCH  43  57
ATOM     57  C   UNL A   1      38.939  32.555  35.635  1.00  0.00     0.023 A 
ATOM     58  C   UNL A   1      39.342  33.900  35.764  1.00  0.00     0.031 A 
ATOM     59  C   UNL A   1      38.220  31.978  36.693  1.00  0.00     0.131 A 
ATOM     60  C   UNL A   1      39.139  34.574  36.976  1.00  0.00     0.055 A 
ATOM     61  C   UNL A   1      37.924  32.695  37.853  1.00  0.00     0.041 A 
ATOM     62  F   UNL A   1      37.844  30.691  36.641  1.00  0.00    -0.206 F 
ATOM     63  C   UNL A   1      38.408  33.991  38.011  1.00  0.00     0.022 A 
BRANCH  60  64
ATOM     64  S   UNL A   1      40.041  36.125  37.262  1.00  0.00     0.124 S 
ATOM     65  O   UNL A   1      41.370  35.630  37.613  1.00  0.00    -0.237 OA
ATOM     66  O   UNL A   1      39.930  36.799  35.974  1.00  0.00    -0.237 OA
ATOM     67  O   UNL A   1      39.307  36.750  38.360  1.00  0.00    -0.744 OA
ENDBRANCH  60  64
ENDBRANCH  43  57
BRANCH  44  68
ATOM     68  C   UNL A   1      41.645  27.356  27.416  1.00  0.00     0.023 A 
ATOM     69  C   UNL A   1      41.521  25.953  27.379  1.00  0.00     0.031 A 
ATOM     70  C   UNL A   1      42.297  27.973  26.333  1.00  0.00     0.131 A 
ATOM     71  C   UNL A   1      42.089  25.215  26.324  1.00  0.00     0.055 A 
ATOM     72  C   UNL A   1      42.813  27.240  25.258  1.00  0.00     0.041 A 
ATOM     73  F   UNL A   1      42.462  29.306  26.310  1.00  0.00    -0.206 F 
ATOM     74  C   UNL A   1      42.724  25.851  25.257  1.00  0.00     0.022 A 
BRANCH  71  75
ATOM     75  S   UNL A   1      42.079  23.399  26.413  1.00  0.00     0.124 S 
ATOM     76  O   UNL A   1      42.877  23.156  27.609  1.00  0.00    -0.237 OA
ATOM     77  O   UNL A   1      40.654  23.107  26.520  1.00  0.00    -0.237 OA
ATOM     78  O   UNL A   1      42.702  22.991  25.154  1.00  0.00    -0.744 OA
ENDBRANCH  71  75
ENDBRANCH  44  68
BRANCH  56  79
ATOM     79  C   UNL A   1      44.053  27.686  33.961  1.00  0.00     0.023 A 
ATOM     80  C   UNL A   1      43.837  26.405  34.495  1.00  0.00     0.031 A 
ATOM     81  C   UNL A   1      45.337  28.250  34.090  1.00  0.00     0.131 A 
ATOM     82  C   UNL A   1      44.871  25.756  35.186  1.00  0.00     0.055 A 
ATOM     83  C   UNL A   1      46.383  27.567  34.711  1.00  0.00     0.041 A 
ATOM     84  F   UNL A   1      45.601  29.471  33.599  1.00  0.00    -0.206 F 
ATOM     85  C   UNL A   1      46.147  26.318  35.277  1.00  0.00     0.022 A 
BRANCH  82  86
ATOM     86  S   UNL A   1      44.495  24.215  36.064  1.00  0.00     0.124 S 
ATOM     87  O   UNL A   1      45.767  23.504  35.989  1.00  0.00    -0.237 OA
ATOM     88  O   UNL A   1      44.111  24.696  37.387  1.00  0.00    -0.237 OA
ATOM     89  O   UNL A   1      43.411  23.629  35.278  1.00  0.00    -0.744 OA
ENDBRANCH  82  86
ENDBRANCH  56  79
ENDBRANCH  30  31
ENDBRANCH  23  25
ENDBRANCH  22  23
ENDBRANCH   1  22
TORSDOF 15
ENDMDL
MODEL 2
REMARK VINA RESULT:     -13.3      2.484      3.259
REMARK SMILES O=C(OCCOC(=O)c1ccc(-c2c3nc(c(-c4cc(S(=O)(=O)[O-])ccc4F)c4ccc([nH]4)c(-c4cc(S(=O)(=O)[O-])ccc4F)c4nc(c(-c5cc(S(=O)(=O)[O-])ccc5F)c5ccc2[nH]5)C=C4)C=C3)cc1)C1=Cc2c(Cl)ccc(Cl)c2O[C@@H]1C(F)(F)F
REMARK SMILES IDX 5 1 4 2 3 3 2 4 1 5 72 6 73 7 83 8 74 9 82 10 75 11 81 12
REMARK SMILES IDX 76 13 77 14 79 15 78 16 80 17 84 18 85 19 86 20 87 21 6 22
REMARK SMILES IDX 7 23 8 24 9 25 10 26 71 27 11 28 70 29 12 30 13 31 14 32
REMARK SMILES IDX 64 33 15 34 69 35 63 36 65 37 16 38 68 39 62 40 61 41 17 43
REMARK SMILES IDX 49 44 29 45 48 46 30 47 33 48 47 49 66 50 31 51 32 52 46 54
REMARK SMILES IDX 67 55 34 56 18 57 19 58 27 59 20 60 26 61 28 62 25 63 21 64
REMARK SMILES IDX 22 65 23 66 24 67 50 68 51 69 59 70 52 71 58 72 60 73 57 74
REMARK SMILES IDX 53 75 54 76 55 77 56 78 35 79 36 80 44 81 37 82 43 83 45 84
REMARK SMILES IDX 42 85 38 86 39 87 40 88 41 89
REMARK H PARENT 65 42 33 53
REMARK Flexibility Score: inf
ROOT
ATOM      1  C   UNL A   1      31.940  30.517  26.605  1.00  0.00     0.275 C 
ENDROOT
BRANCH   1   2
ATOM      2  C   UNL A   1      31.935  28.723  25.368  1.00  0.00     0.275 C 
BRANCH   2   3
ATOM      3  O   UNL A   1      33.059  27.672  25.273  1.00  0.00    -0.459 OA
BRANCH   3   4
ATOM      4  C   UNL A   1      32.608  26.413  25.307  1.00  0.00     0.338 C 
ATOM      5  O   UNL A   1      31.943  25.856  26.141  1.00  0.00    -0.246 OA
BRANCH   4   6
ATOM      6  C   UNL A   1      33.485  25.924  24.267  1.00  0.00     0.087 C 
ATOM      7  C   UNL A   1      34.662  25.230  24.802  1.00  0.00     0.029 C 
ATOM      8  C   UNL A   1      32.086  25.106  23.222  1.00  0.00     0.316 C 
ATOM      9  C   UNL A   1      34.874  23.429  24.754  1.00  0.00     0.037 A 
ATOM     10  O   UNL A   1      32.255  23.185  23.198  1.00  0.00    -0.474 OA
ATOM     11  C   UNL A   1      35.883  22.840  25.476  1.00  0.00     0.052 A 
ATOM     12  C   UNL A   1      33.668  22.386  24.045  1.00  0.00     0.148 A 
ATOM     13  Cl  UNL A   1      37.118  23.722  26.273  1.00  0.00    -0.084 Cl
ATOM     14  C   UNL A   1      35.816  21.441  25.589  1.00  0.00     0.023 A 
ATOM     15  C   UNL A   1      33.690  21.028  24.210  1.00  0.00     0.083 A 
ATOM     16  C   UNL A   1      34.783  20.593  25.001  1.00  0.00     0.026 A 
ATOM     17  Cl  UNL A   1      32.524  19.937  23.636  1.00  0.00    -0.080 Cl
BRANCH   8  18
ATOM     18  C   UNL A   1      32.064  26.233  22.104  1.00  0.00     0.430 C 
ATOM     19  F   UNL A   1      33.291  26.519  21.657  1.00  0.00    -0.167 F 
ATOM     20  F   UNL A   1      31.428  25.729  20.999  1.00  0.00    -0.167 F 
ATOM     21  F   UNL A   1      31.354  27.344  22.356  1.00  0.00    -0.167 F 
ENDBRANCH   8  18
ENDBRANCH   4   6
ENDBRANCH   3   4
ENDBRANCH   2   3
ENDBRANCH   1   2
BRANCH   1  22
ATOM     22  O   UNL A   1      33.241  31.036  27.597  1.00  0.00    -0.458 OA
BRANCH  22  23
ATOM     23  C   UNL A   1      34.194  32.015  27.754  1.00  0.00     0.338 C 
ATOM     24  O   UNL A   1      34.065  33.182  28.072  1.00  0.00    -0.246 OA
BRANCH  23  25
ATOM     25  C   UNL A   1      35.488  31.277  27.872  1.00  0.00     0.060 A 
ATOM     26  C   UNL A   1      36.668  32.015  28.077  1.00  0.00     0.016 A 
ATOM     27  C   UNL A   1      35.464  29.911  28.159  1.00  0.00     0.016 A 
ATOM     28  C   UNL A   1      37.752  31.425  28.752  1.00  0.00     0.010 A 
ATOM     29  C   UNL A   1      36.542  29.328  28.834  1.00  0.00     0.010 A 
ATOM     30  C   UNL A   1      37.674  30.091  29.179  1.00  0.00    -0.014 A 
BRANCH  30  31
ATOM     31  C   UNL A   1      38.896  29.384  29.647  1.00  0.00     0.031 A 
ATOM     32  C   UNL A   1      39.416  29.866  30.971  1.00  0.00     0.074 A 
ATOM     33  C   UNL A   1      39.546  28.424  28.954  1.00  0.00     0.049 A 
ATOM     34  N   UNL A   1      40.470  29.502  31.647  1.00  0.00    -0.248 NA
ATOM     35  C   UNL A   1      38.639  30.952  31.595  1.00  0.00     0.031 C 
ATOM     36  C   UNL A   1      39.150  27.880  27.653  1.00  0.00     0.029 A 
ATOM     37  N   UNL A   1      40.698  27.732  29.257  1.00  0.00    -0.354 N 
ATOM     38  C   UNL A   1      40.470  30.313  32.776  1.00  0.00     0.074 A 
ATOM     39  C   UNL A   1      39.385  31.252  32.637  1.00  0.00     0.031 C 
ATOM     40  C   UNL A   1      40.038  26.934  27.280  1.00  0.00     0.029 A 
ATOM     41  C   UNL A   1      41.076  26.807  28.303  1.00  0.00     0.049 A 
ATOM     42  H   UNL A   1      41.209  27.883  30.084  1.00  0.00     0.167 HD
ATOM     43  C   UNL A   1      41.278  30.259  33.859  1.00  0.00     0.034 A 
ATOM     44  C   UNL A   1      42.132  25.962  28.281  1.00  0.00     0.034 A 
ATOM     45  C   UNL A   1      42.384  29.350  33.956  1.00  0.00     0.049 A 
ATOM     46  C   UNL A   1      43.086  25.975  29.466  1.00  0.00     0.074 A 
ATOM     47  C   UNL A   1      43.297  29.208  34.981  1.00  0.00     0.029 A 
ATOM     48  N   UNL A   1      42.736  28.438  32.968  1.00  0.00    -0.354 N 
ATOM     49  N   UNL A   1      43.043  26.705  30.560  1.00  0.00    -0.248 NA
ATOM     50  C   UNL A   1      44.215  25.035  29.422  1.00  0.00     0.031 C 
ATOM     51  C   UNL A   1      44.246  28.261  34.580  1.00  0.00     0.029 A 
ATOM     52  C   UNL A   1      43.869  27.745  33.348  1.00  0.00     0.049 A 
ATOM     53  H   UNL A   1      42.251  28.307  32.121  1.00  0.00     0.167 HD
ATOM     54  C   UNL A   1      44.101  26.266  31.356  1.00  0.00     0.074 A 
ATOM     55  C   UNL A   1      44.761  25.210  30.616  1.00  0.00     0.031 C 
ATOM     56  C   UNL A   1      44.489  26.681  32.591  1.00  0.00     0.034 A 
BRANCH  43  57
ATOM     57  C   UNL A   1      40.992  31.261  34.949  1.00  0.00     0.023 A 
ATOM     58  C   UNL A   1      39.948  31.055  35.873  1.00  0.00     0.031 A 
ATOM     59  C   UNL A   1      41.650  32.500  34.963  1.00  0.00     0.131 A 
ATOM     60  C   UNL A   1      39.508  32.117  36.675  1.00  0.00     0.055 A 
ATOM     61  C   UNL A   1      41.278  33.516  35.845  1.00  0.00     0.041 A 
ATOM     62  F   UNL A   1      42.627  32.766  34.081  1.00  0.00    -0.206 F 
ATOM     63  C   UNL A   1      40.185  33.337  36.688  1.00  0.00     0.022 A 
BRANCH  60  64
ATOM     64  S   UNL A   1      37.909  31.956  37.521  1.00  0.00     0.124 S 
ATOM     65  O   UNL A   1      37.621  30.536  37.336  1.00  0.00    -0.237 OA
ATOM     66  O   UNL A   1      38.226  32.373  38.882  1.00  0.00    -0.237 OA
ATOM     67  O   UNL A   1      37.036  32.862  36.777  1.00  0.00    -0.744 OA
ENDBRANCH  60  64
ENDBRANCH  43  57
BRANCH  44  68
ATOM     68  C   UNL A   1      42.379  25.017  27.140  1.00  0.00     0.023 A 
ATOM     69  C   UNL A   1      41.931  23.681  27.187  1.00  0.00     0.031 A 
ATOM     70  C   UNL A   1      43.159  25.395  26.032  1.00  0.00     0.131 A 
ATOM     71  C   UNL A   1      42.313  22.766  26.188  1.00  0.00     0.055 A 
ATOM     72  C   UNL A   1      43.491  24.496  25.013  1.00  0.00     0.041 A 
ATOM     73  F   UNL A   1      43.630  26.649  25.931  1.00  0.00    -0.206 F 
ATOM     74  C   UNL A   1      43.081  23.168  25.095  1.00  0.00     0.022 A 
BRANCH  71  75
ATOM     75  S   UNL A   1      41.880  21.011  26.388  1.00  0.00     0.124 S 
ATOM     76  O   UNL A   1      42.278  20.763  27.769  1.00  0.00    -0.237 OA
ATOM     77  O   UNL A   1      40.446  21.019  26.124  1.00  0.00    -0.237 OA
ATOM     78  O   UNL A   1      42.693  20.340  25.374  1.00  0.00    -0.744 OA
ENDBRANCH  71  75
ENDBRANCH  44  68
BRANCH  56  79
ATOM     79  C   UNL A   1      45.618  25.931  33.257  1.00  0.00     0.023 A 
ATOM     80  C   UNL A   1      45.404  24.771  34.020  1.00  0.00     0.031 A 
ATOM     81  C   UNL A   1      46.941  26.386  33.102  1.00  0.00     0.131 A 
ATOM     82  C   UNL A   1      46.488  24.142  34.648  1.00  0.00     0.055 A 
ATOM     83  C   UNL A   1      48.024  25.711  33.665  1.00  0.00     0.041 A 
ATOM     84  F   UNL A   1      47.205  27.490  32.383  1.00  0.00    -0.206 F 
ATOM     85  C   UNL A   1      47.798  24.590  34.457  1.00  0.00     0.022 A 
BRANCH  82  86
ATOM     86  S   UNL A   1      46.153  22.793  35.812  1.00  0.00     0.124 S 
ATOM     87  O   UNL A   1      44.696  22.803  35.879  1.00  0.00    -0.237 OA
ATOM     88  O   UNL A   1      46.752  21.644  35.140  1.00  0.00    -0.237 OA
ATOM     89  O   UNL A   1      46.832  23.219  37.034  1.00  0.00    -0.744 OA
ENDBRANCH  82  86
ENDBRANCH  56  79
ENDBRANCH  30  31
ENDBRANCH  23  25
ENDBRANCH  22  23
ENDBRANCH   1  22
TORSDOF 15
ENDMDL
MODEL 3
REMARK VINA RESULT:     -13.3      1.734      2.300
REMARK SMILES O=C(OCCOC(=O)c1ccc(-c2c3nc(c(-c4cc(S(=O)(=O)[O-])ccc4F)c4ccc([nH]4)c(-c4cc(S(=O)(=O)[O-])ccc4F)c4nc(c(-c5cc(S(=O)(=O)[O-])ccc5F)c5ccc2[nH]5)C=C4)C=C3)cc1)C1=Cc2c(Cl)ccc(Cl)c2O[C@@H]1C(F)(F)F
REMARK SMILES IDX 5 1 4 2 3 3 2 4 1 5 72 6 73 7 83 8 74 9 82 10 75 11 81 12
REMARK SMILES IDX 76 13 77 14 79 15 78 16 80 17 84 18 85 19 86 20 87 21 6 22
REMARK SMILES IDX 7 23 8 24 9 25 10 26 71 27 11 28 70 29 12 30 13 31 14 32
REMARK SMILES IDX 64 33 15 34 69 35 63 36 65 37 16 38 68 39 62 40 61 41 17 43
REMARK SMILES IDX 49 44 29 45 48 46 30 47 33 48 47 49 66 50 31 51 32 52 46 54
REMARK SMILES IDX 67 55 34 56 18 57 19 58 27 59 20 60 26 61 28 62 25 63 21 64
REMARK SMILES IDX 22 65 23 66 24 67 50 68 51 69 59 70 52 71 58 72 60 73 57 74
REMARK SMILES IDX 53 75 54 76 55 77 56 78 35 79 36 80 44 81 37 82 43 83 45 84
REMARK SMILES IDX 42 85 38 86 39 87 40 88 41 89
REMARK H PARENT 65 42 33 53
REMARK Flexibility Score: inf
ROOT
ATOM      1  C   UNL A   1      31.391  30.779  26.023  1.00  0.00     0.275 C 
ENDROOT
BRANCH   1   2
ATOM      2  C   UNL A   1      31.575  28.858  25.013  1.00  0.00     0.275 C 
BRANCH   2   3
ATOM      3  O   UNL A   1      32.738  27.855  25.157  1.00  0.00    -0.459 OA
BRANCH   3   4
ATOM      4  C   UNL A   1      32.333  26.581  25.198  1.00  0.00     0.338 C 
ATOM      5  O   UNL A   1      31.674  26.009  26.026  1.00  0.00    -0.246 OA
BRANCH   4   6
ATOM      6  C   UNL A   1      33.247  26.112  24.180  1.00  0.00     0.087 C 
ATOM      7  C   UNL A   1      34.405  25.408  24.742  1.00  0.00     0.029 C 
ATOM      8  C   UNL A   1      31.887  25.316  23.069  1.00  0.00     0.316 C 
ATOM      9  C   UNL A   1      34.620  23.608  24.665  1.00  0.00     0.037 A 
ATOM     10  O   UNL A   1      32.058  23.396  23.013  1.00  0.00    -0.474 OA
ATOM     11  C   UNL A   1      35.603  23.005  25.411  1.00  0.00     0.052 A 
ATOM     12  C   UNL A   1      33.441  22.580  23.893  1.00  0.00     0.148 A 
ATOM     13  Cl  UNL A   1      36.807  23.870  26.270  1.00  0.00    -0.084 Cl
ATOM     14  C   UNL A   1      35.533  21.604  25.494  1.00  0.00     0.023 A 
ATOM     15  C   UNL A   1      33.457  21.218  24.031  1.00  0.00     0.083 A 
ATOM     16  C   UNL A   1      34.522  20.767  24.851  1.00  0.00     0.026 A 
ATOM     17  Cl  UNL A   1      32.314  20.140  23.394  1.00  0.00    -0.080 Cl
BRANCH   8  18
ATOM     18  C   UNL A   1      31.904  26.465  21.974  1.00  0.00     0.430 C 
ATOM     19  F   UNL A   1      33.149  26.848  21.669  1.00  0.00    -0.167 F 
ATOM     20  F   UNL A   1      31.431  25.944  20.798  1.00  0.00    -0.167 F 
ATOM     21  F   UNL A   1      31.092  27.517  22.165  1.00  0.00    -0.167 F 
ENDBRANCH   8  18
ENDBRANCH   4   6
ENDBRANCH   3   4
ENDBRANCH   2   3
ENDBRANCH   1   2
BRANCH   1  22
ATOM     22  O   UNL A   1      32.503  31.411  27.169  1.00  0.00    -0.458 OA
BRANCH  22  23
ATOM     23  C   UNL A   1      33.347  32.464  27.432  1.00  0.00     0.338 C 
ATOM     24  O   UNL A   1      33.087  33.616  27.724  1.00  0.00    -0.246 OA
BRANCH  23  25
ATOM     25  C   UNL A   1      34.674  31.834  27.706  1.00  0.00     0.060 A 
ATOM     26  C   UNL A   1      35.773  32.669  27.975  1.00  0.00     0.016 A 
ATOM     27  C   UNL A   1      34.722  30.485  28.065  1.00  0.00     0.016 A 
ATOM     28  C   UNL A   1      36.829  32.198  28.777  1.00  0.00     0.010 A 
ATOM     29  C   UNL A   1      35.770  30.020  28.865  1.00  0.00     0.010 A 
ATOM     30  C   UNL A   1      36.807  30.883  29.269  1.00  0.00    -0.014 A 
BRANCH  30  31
ATOM     31  C   UNL A   1      38.028  30.296  29.882  1.00  0.00     0.031 A 
ATOM     32  C   UNL A   1      38.289  30.753  31.289  1.00  0.00     0.074 A 
ATOM     33  C   UNL A   1      38.884  29.462  29.253  1.00  0.00     0.049 A 
ATOM     34  N   UNL A   1      39.272  30.473  32.099  1.00  0.00    -0.248 NA
ATOM     35  C   UNL A   1      37.303  31.701  31.836  1.00  0.00     0.031 C 
ATOM     36  C   UNL A   1      38.749  28.957  27.886  1.00  0.00     0.029 A 
ATOM     37  N   UNL A   1      40.057  28.891  29.695  1.00  0.00    -0.354 N 
ATOM     38  C   UNL A   1      39.010  31.208  33.249  1.00  0.00     0.074 A 
ATOM     39  C   UNL A   1      37.848  32.021  32.991  1.00  0.00     0.031 C 
ATOM     40  C   UNL A   1      39.792  28.145  27.609  1.00  0.00     0.029 A 
ATOM     41  C   UNL A   1      40.679  28.076  28.769  1.00  0.00     0.049 A 
ATOM     42  H   UNL A   1      40.422  29.050  30.595  1.00  0.00     0.167 HD
ATOM     43  C   UNL A   1      39.655  31.182  34.438  1.00  0.00     0.034 A 
ATOM     44  C   UNL A   1      41.825  27.362  28.869  1.00  0.00     0.034 A 
ATOM     45  C   UNL A   1      40.839  30.403  34.660  1.00  0.00     0.049 A 
ATOM     46  C   UNL A   1      42.589  27.413  30.183  1.00  0.00     0.074 A 
ATOM     47  C   UNL A   1      41.606  30.306  35.802  1.00  0.00     0.029 A 
ATOM     48  N   UNL A   1      41.439  29.601  33.696  1.00  0.00    -0.354 N 
ATOM     49  N   UNL A   1      42.301  28.065  31.288  1.00  0.00    -0.248 NA
ATOM     50  C   UNL A   1      43.821  26.615  30.267  1.00  0.00     0.031 C 
ATOM     51  C   UNL A   1      42.713  29.502  35.508  1.00  0.00     0.029 A 
ATOM     52  C   UNL A   1      42.584  29.021  34.212  1.00  0.00     0.049 A 
ATOM     53  H   UNL A   1      41.100  29.466  32.782  1.00  0.00     0.167 HD
ATOM     54  C   UNL A   1      43.280  27.704  32.215  1.00  0.00     0.074 A 
ATOM     55  C   UNL A   1      44.165  26.779  31.536  1.00  0.00     0.031 C 
ATOM     56  C   UNL A   1      43.432  28.085  33.510  1.00  0.00     0.034 A 
BRANCH  43  57
ATOM     57  C   UNL A   1      39.094  32.075  35.515  1.00  0.00     0.023 A 
ATOM     58  C   UNL A   1      39.457  33.435  35.599  1.00  0.00     0.031 A 
ATOM     59  C   UNL A   1      38.330  31.532  36.560  1.00  0.00     0.131 A 
ATOM     60  C   UNL A   1      39.170  34.163  36.761  1.00  0.00     0.055 A 
ATOM     61  C   UNL A   1      37.953  32.297  37.665  1.00  0.00     0.041 A 
ATOM     62  F   UNL A   1      37.987  30.234  36.553  1.00  0.00    -0.206 F 
ATOM     63  C   UNL A   1      38.396  33.611  37.783  1.00  0.00     0.022 A 
BRANCH  60  64
ATOM     64  S   UNL A   1      40.018  35.748  37.018  1.00  0.00     0.124 S 
ATOM     65  O   UNL A   1      41.415  35.326  37.089  1.00  0.00    -0.237 OA
ATOM     66  O   UNL A   1      39.639  36.507  35.832  1.00  0.00    -0.237 OA
ATOM     67  O   UNL A   1      39.458  36.236  38.277  1.00  0.00    -0.744 OA
ENDBRANCH  60  64
ENDBRANCH  43  57
BRANCH  44  68
ATOM     68  C   UNL A   1      42.347  26.524  27.738  1.00  0.00     0.023 A 
ATOM     69  C   UNL A   1      41.889  25.207  27.531  1.00  0.00     0.031 A 
ATOM     70  C   UNL A   1      43.390  26.979  26.911  1.00  0.00     0.131 A 
ATOM     71  C   UNL A   1      42.506  24.380  26.574  1.00  0.00     0.055 A 
ATOM     72  C   UNL A   1      43.965  26.171  25.923  1.00  0.00     0.041 A 
ATOM     73  F   UNL A   1      43.884  28.219  27.063  1.00  0.00    -0.206 F 
ATOM     74  C   UNL A   1      43.533  24.857  25.760  1.00  0.00     0.022 A 
BRANCH  71  75
ATOM     75  S   UNL A   1      42.018  22.631  26.475  1.00  0.00     0.124 S 
ATOM     76  O   UNL A   1      40.565  22.723  26.552  1.00  0.00    -0.237 OA
ATOM     77  O   UNL A   1      42.570  22.233  25.185  1.00  0.00    -0.237 OA
ATOM     78  O   UNL A   1      42.667  22.028  27.639  1.00  0.00    -0.744 OA
ENDBRANCH  71  75
ENDBRANCH  44  68
BRANCH  56  79
ATOM     79  C   UNL A   1      44.538  27.432  34.305  1.00  0.00     0.023 A 
ATOM     80  C   UNL A   1      44.353  26.225  35.000  1.00  0.00     0.031 A 
ATOM     81  C   UNL A   1      45.811  28.030  34.344  1.00  0.00     0.131 A 
ATOM     82  C   UNL A   1      45.407  25.688  35.753  1.00  0.00     0.055 A 
ATOM     83  C   UNL A   1      46.877  27.451  35.033  1.00  0.00     0.041 A 
ATOM     84  F   UNL A   1      46.045  29.184  33.699  1.00  0.00    -0.206 F 
ATOM     85  C   UNL A   1      46.673  26.281  35.756  1.00  0.00     0.022 A 
BRANCH  82  86
ATOM     86  S   UNL A   1      45.071  24.265  36.825  1.00  0.00     0.124 S 
ATOM     87  O   UNL A   1      44.230  24.856  37.860  1.00  0.00    -0.237 OA
ATOM     88  O   UNL A   1      44.404  23.340  35.914  1.00  0.00    -0.237 OA
ATOM     89  O   UNL A   1      46.399  23.848  37.268  1.00  0.00    -0.744 OA
ENDBRANCH  82  86
ENDBRANCH  56  79
ENDBRANCH  30  31
ENDBRANCH  23  25
ENDBRANCH  22  23
ENDBRANCH   1  22
TORSDOF 15
ENDMDL
