MODEL 1
REMARK VINA RESULT:     -12.8      0.000      0.000
REMARK SMILES Cn1ccc(-c2n[nH]c(=O)n2-c2ccc(C(=O)OCCOC(=O)c3ccc(-c4c5nc(c(-c6cc(S(=O)(=O)[O-])ccc6F)c6ccc([nH]6)c(-c6cc(S(=O)(=O)[O-])ccc6F)c6nc(c(-c7cc(S(=O)(=O)[O-])ccc7F)c7ccc4[nH]7)C=C6)C=C5)cc3)cc2)n1
REMARK SMILES IDX 20 1 19 2 18 3 16 4 17 5 15 6 12 7 13 8 88 9 14 10 87 11
REMARK SMILES IDX 11 12 6 13 7 14 8 15 9 16 10 18 5 19 1 20 2 21 3 22 89 23
REMARK SMILES IDX 4 24 21 25 22 26 23 27 24 28 25 29 86 30 26 31 85 32 27 33
REMARK SMILES IDX 28 34 29 35 79 36 30 37 84 38 78 39 80 40 31 41 83 42 77 43
REMARK SMILES IDX 76 44 32 46 64 47 44 48 63 49 45 50 48 51 62 52 81 53 46 54
REMARK SMILES IDX 47 55 61 57 82 58 49 59 33 60 34 61 42 62 35 63 41 64 43 65
REMARK SMILES IDX 40 66 36 67 37 68 38 69 39 70 65 71 66 72 74 73 67 74 73 75
REMARK SMILES IDX 75 76 72 77 68 78 69 79 70 80 71 81 50 82 51 83 59 84 52 85
REMARK SMILES IDX 58 86 60 87 57 88 53 89 54 90 55 91 56 92
REMARK H PARENT 8 17 80 45 48 56
REMARK Flexibility Score: inf
ROOT
ATOM      1  C   UNL A   1      38.996  21.747  25.953  1.00  0.00     0.275 C 
ENDROOT
BRANCH   1   2
ATOM      2  C   UNL A   1      37.730  21.733  25.109  1.00  0.00     0.275 C 
BRANCH   2   3
ATOM      3  O   UNL A   1      37.397  23.052  24.651  1.00  0.00    -0.458 OA
BRANCH   3   4
ATOM      4  C   UNL A   1      36.438  23.110  23.682  1.00  0.00     0.338 C 
ATOM      5  O   UNL A   1      36.607  22.986  22.494  1.00  0.00    -0.246 OA
BRANCH   4   6
ATOM      6  C   UNL A   1      35.099  23.277  24.310  1.00  0.00     0.060 A 
ATOM      7  C   UNL A   1      32.540  23.737  25.359  1.00  0.00     0.052 A 
ATOM      8  C   UNL A   1      32.678  23.170  24.091  1.00  0.00     0.028 A 
ATOM      9  C   UNL A   1      33.687  23.959  26.138  1.00  0.00     0.028 A 
ATOM     10  C   UNL A   1      33.957  22.970  23.555  1.00  0.00     0.018 A 
ATOM     11  C   UNL A   1      34.961  23.724  25.623  1.00  0.00     0.018 A 
BRANCH   7  12
ATOM     12  N   UNL A   1      31.282  24.132  25.845  1.00  0.00    -0.242 N 
ATOM     13  C   UNL A   1      30.810  25.400  26.025  1.00  0.00     0.189 A 
ATOM     14  N   UNL A   1      29.657  25.485  26.632  1.00  0.00    -0.150 NA
ATOM     15  N   UNL A   1      29.302  24.173  26.811  1.00  0.00    -0.226 N 
ATOM     16  C   UNL A   1      30.273  23.312  26.287  1.00  0.00     0.348 A 
ATOM     17  H   UNL A   1      28.472  23.876  27.250  1.00  0.00     0.195 HD
ATOM     18  O   UNL A   1      30.190  22.096  26.284  1.00  0.00    -0.246 OA
BRANCH  13  19
ATOM     19  C   UNL A   1      31.471  26.573  25.476  1.00  0.00     0.130 A 
ATOM     20  C   UNL A   1      32.021  28.712  22.761  1.00  0.00     0.173 C 
ATOM     21  N   UNL A   1      32.030  28.034  24.035  1.00  0.00    -0.275 N 
ATOM     22  C   UNL A   1      32.732  28.373  25.152  1.00  0.00     0.109 A 
ATOM     23  N   UNL A   1      31.261  26.950  24.200  1.00  0.00    -0.170 NA
ATOM     24  C   UNL A   1      32.368  27.463  26.118  1.00  0.00     0.054 A 
ENDBRANCH  13  19
ENDBRANCH   7  12
ENDBRANCH   4   6
ENDBRANCH   3   4
ENDBRANCH   2   3
ENDBRANCH   1   2
BRANCH   1  25
ATOM     25  O   UNL A   1      39.265  23.045  26.476  1.00  0.00    -0.458 OA
BRANCH  25  26
ATOM     26  C   UNL A   1      40.335  23.109  27.302  1.00  0.00     0.338 C 
ATOM     27  O   UNL A   1      40.821  22.196  27.950  1.00  0.00    -0.246 OA
BRANCH  26  28
ATOM     28  C   UNL A   1      40.710  24.511  27.491  1.00  0.00     0.060 A 
ATOM     29  C   UNL A   1      41.864  24.792  28.232  1.00  0.00     0.016 A 
ATOM     30  C   UNL A   1      39.768  25.499  27.178  1.00  0.00     0.016 A 
ATOM     31  C   UNL A   1      42.011  26.054  28.774  1.00  0.00     0.010 A 
ATOM     32  C   UNL A   1      39.903  26.742  27.742  1.00  0.00     0.010 A 
ATOM     33  C   UNL A   1      40.994  26.989  28.578  1.00  0.00    -0.014 A 
BRANCH  33  34
ATOM     34  C   UNL A   1      41.113  28.309  29.170  1.00  0.00     0.031 A 
ATOM     35  C   UNL A   1      42.206  29.126  28.589  1.00  0.00     0.074 A 
ATOM     36  C   UNL A   1      40.147  28.795  29.972  1.00  0.00     0.049 A 
ATOM     37  N   UNL A   1      43.182  29.714  29.196  1.00  0.00    -0.248 NA
ATOM     38  C   UNL A   1      42.306  29.179  27.118  1.00  0.00     0.031 C 
ATOM     39  C   UNL A   1      38.879  28.142  30.315  1.00  0.00     0.029 A 
ATOM     40  N   UNL A   1      40.010  30.039  30.509  1.00  0.00    -0.354 N 
ATOM     41  C   UNL A   1      43.880  30.400  28.206  1.00  0.00     0.074 A 
ATOM     42  C   UNL A   1      43.439  29.855  26.955  1.00  0.00     0.031 C 
ATOM     43  C   UNL A   1      38.016  29.071  30.780  1.00  0.00     0.029 A 
ATOM     44  C   UNL A   1      38.700  30.353  30.861  1.00  0.00     0.049 A 
ATOM     45  H   UNL A   1      40.766  30.657  30.637  1.00  0.00     0.167 HD
ATOM     46  C   UNL A   1      44.552  31.549  28.484  1.00  0.00     0.034 A 
ATOM     47  C   UNL A   1      38.187  31.590  31.093  1.00  0.00     0.034 A 
ATOM     48  C   UNL A   1      44.846  31.643  29.897  1.00  0.00     0.049 A 
ATOM     49  C   UNL A   1      39.332  32.497  31.365  1.00  0.00     0.074 A 
ATOM     50  C   UNL A   1      45.508  30.825  30.794  1.00  0.00     0.029 A 
ATOM     51  N   UNL A   1      44.114  32.518  30.670  1.00  0.00    -0.354 N 
ATOM     52  N   UNL A   1      40.108  32.389  32.409  1.00  0.00    -0.248 NA
ATOM     53  C   UNL A   1      39.905  33.235  30.249  1.00  0.00     0.031 C 
ATOM     54  C   UNL A   1      44.762  30.921  32.005  1.00  0.00     0.029 A 
ATOM     55  C   UNL A   1      43.736  31.846  31.806  1.00  0.00     0.049 A 
ATOM     56  H   UNL A   1      43.901  33.453  30.448  1.00  0.00     0.167 HD
ATOM     57  C   UNL A   1      41.386  32.649  31.936  1.00  0.00     0.074 A 
ATOM     58  C   UNL A   1      41.185  33.275  30.632  1.00  0.00     0.031 C 
ATOM     59  C   UNL A   1      42.485  32.071  32.508  1.00  0.00     0.034 A 
BRANCH  46  60
ATOM     60  C   UNL A   1      44.578  32.755  27.560  1.00  0.00     0.023 A 
ATOM     61  C   UNL A   1      43.907  33.903  28.014  1.00  0.00     0.031 A 
ATOM     62  C   UNL A   1      44.930  32.762  26.189  1.00  0.00     0.131 A 
ATOM     63  C   UNL A   1      43.471  34.890  27.116  1.00  0.00     0.055 A 
ATOM     64  C   UNL A   1      44.560  33.785  25.311  1.00  0.00     0.041 A 
ATOM     65  F   UNL A   1      45.575  31.757  25.587  1.00  0.00    -0.206 F 
ATOM     66  C   UNL A   1      43.785  34.837  25.762  1.00  0.00     0.022 A 
BRANCH  63  67
ATOM     67  S   UNL A   1      42.293  36.121  27.723  1.00  0.00     0.124 S 
ATOM     68  O   UNL A   1      41.047  35.360  27.705  1.00  0.00    -0.237 OA
ATOM     69  O   UNL A   1      42.841  36.431  29.039  1.00  0.00    -0.237 OA
ATOM     70  O   UNL A   1      42.388  37.194  26.737  1.00  0.00    -0.744 OA
ENDBRANCH  63  67
ENDBRANCH  46  60
BRANCH  47  71
ATOM     71  C   UNL A   1      36.811  32.060  30.769  1.00  0.00     0.023 A 
ATOM     72  C   UNL A   1      36.005  32.760  31.691  1.00  0.00     0.031 A 
ATOM     73  C   UNL A   1      36.336  32.000  29.437  1.00  0.00     0.131 A 
ATOM     74  C   UNL A   1      34.784  33.343  31.273  1.00  0.00     0.055 A 
ATOM     75  C   UNL A   1      35.121  32.560  29.034  1.00  0.00     0.041 A 
ATOM     76  F   UNL A   1      37.077  31.463  28.455  1.00  0.00    -0.206 F 
ATOM     77  C   UNL A   1      34.342  33.241  29.952  1.00  0.00     0.022 A 
BRANCH  74  78
ATOM     78  S   UNL A   1      33.791  34.336  32.433  1.00  0.00     0.124 S 
ATOM     79  O   UNL A   1      34.805  35.153  33.090  1.00  0.00    -0.237 OA
ATOM     80  O   UNL A   1      32.871  35.033  31.541  1.00  0.00    -0.237 OA
ATOM     81  O   UNL A   1      33.163  33.330  33.292  1.00  0.00    -0.744 OA
ENDBRANCH  74  78
ENDBRANCH  47  71
BRANCH  59  82
ATOM     82  C   UNL A   1      42.338  31.410  33.864  1.00  0.00     0.023 A 
ATOM     83  C   UNL A   1      42.136  30.027  34.069  1.00  0.00     0.031 A 
ATOM     84  C   UNL A   1      42.547  32.214  34.998  1.00  0.00     0.131 A 
ATOM     85  C   UNL A   1      42.139  29.501  35.376  1.00  0.00     0.055 A 
ATOM     86  C   UNL A   1      42.571  31.687  36.288  1.00  0.00     0.041 A 
ATOM     87  F   UNL A   1      42.776  33.531  34.867  1.00  0.00    -0.206 F 
ATOM     88  C   UNL A   1      42.361  30.328  36.482  1.00  0.00     0.022 A 
BRANCH  85  89
ATOM     89  S   UNL A   1      41.842  27.727  35.666  1.00  0.00     0.124 S 
ATOM     90  O   UNL A   1      41.083  27.309  34.493  1.00  0.00    -0.237 OA
ATOM     91  O   UNL A   1      43.198  27.193  35.777  1.00  0.00    -0.237 OA
ATOM     92  O   UNL A   1      41.082  27.710  36.918  1.00  0.00    -0.744 OA
ENDBRANCH  85  89
ENDBRANCH  59  82
ENDBRANCH  33  34
ENDBRANCH  26  28
ENDBRANCH  25  26
ENDBRANCH   1  25
TORSDOF 16
ENDMDL
MODEL 2
REMARK VINA RESULT:     -12.8      5.261     11.192
REMARK SMILES Cn1ccc(-c2n[nH]c(=O)n2-c2ccc(C(=O)OCCOC(=O)c3ccc(-c4c5nc(c(-c6cc(S(=O)(=O)[O-])ccc6F)c6ccc([nH]6)c(-c6cc(S(=O)(=O)[O-])ccc6F)c6nc(c(-c7cc(S(=O)(=O)[O-])ccc7F)c7ccc4[nH]7)C=C6)C=C5)cc3)cc2)n1
REMARK SMILES IDX 20 1 19 2 18 3 16 4 17 5 15 6 12 7 13 8 88 9 14 10 87 11
REMARK SMILES IDX 11 12 6 13 7 14 8 15 9 16 10 18 5 19 1 20 2 21 3 22 89 23
REMARK SMILES IDX 4 24 21 25 22 26 23 27 24 28 25 29 86 30 26 31 85 32 27 33
REMARK SMILES IDX 28 34 29 35 79 36 30 37 84 38 78 39 80 40 31 41 83 42 77 43
REMARK SMILES IDX 76 44 32 46 64 47 44 48 63 49 45 50 48 51 62 52 81 53 46 54
REMARK SMILES IDX 47 55 61 57 82 58 49 59 33 60 34 61 42 62 35 63 41 64 43 65
REMARK SMILES IDX 40 66 36 67 37 68 38 69 39 70 65 71 66 72 74 73 67 74 73 75
REMARK SMILES IDX 75 76 72 77 68 78 69 79 70 80 71 81 50 82 51 83 59 84 52 85
REMARK SMILES IDX 58 86 60 87 57 88 53 89 54 90 55 91 56 92
REMARK H PARENT 8 17 80 45 48 56
REMARK Flexibility Score: inf
ROOT
ATOM      1  C   UNL A   1      34.592  33.408  28.708  1.00  0.00     0.275 C 
ENDROOT
BRANCH   1   2
ATOM      2  C   UNL A   1      34.504  33.790  30.178  1.00  0.00     0.275 C 
BRANCH   2   3
ATOM      3  O   UNL A   1      34.336  32.629  31.006  1.00  0.00    -0.458 OA
BRANCH   3   4
ATOM      4  C   UNL A   1      34.312  32.869  32.350  1.00  0.00     0.338 C 
ATOM      5  O   UNL A   1      33.352  33.190  33.007  1.00  0.00    -0.246 OA
BRANCH   4   6
ATOM      6  C   UNL A   1      35.655  32.599  32.932  1.00  0.00     0.060 A 
ATOM      7  C   UNL A   1      38.104  31.934  34.123  1.00  0.00     0.052 A 
ATOM      8  C   UNL A   1      37.560  31.101  33.143  1.00  0.00     0.028 A 
ATOM      9  C   UNL A   1      37.472  33.155  34.411  1.00  0.00     0.028 A 
ATOM     10  C   UNL A   1      36.322  31.418  32.571  1.00  0.00     0.018 A 
ATOM     11  C   UNL A   1      36.259  33.493  33.815  1.00  0.00     0.018 A 
BRANCH   7  12
ATOM     12  N   UNL A   1      39.241  31.550  34.854  1.00  0.00    -0.242 N 
ATOM     13  C   UNL A   1      40.548  31.847  34.594  1.00  0.00     0.189 A 
ATOM     14  N   UNL A   1      41.419  31.239  35.353  1.00  0.00    -0.150 NA
ATOM     15  N   UNL A   1      40.633  30.535  36.227  1.00  0.00    -0.226 N 
ATOM     16  C   UNL A   1      39.275  30.750  35.969  1.00  0.00     0.348 A 
ATOM     17  H   UNL A   1      40.980  29.955  36.944  1.00  0.00     0.195 HD
ATOM     18  O   UNL A   1      38.362  30.271  36.621  1.00  0.00    -0.246 OA
BRANCH  13  19
ATOM     19  C   UNL A   1      40.950  32.857  33.629  1.00  0.00     0.130 A 
ATOM     20  C   UNL A   1      41.902  33.676  30.362  1.00  0.00     0.173 C 
ATOM     21  N   UNL A   1      41.568  33.676  31.766  1.00  0.00    -0.275 N 
ATOM     22  C   UNL A   1      41.538  34.743  32.612  1.00  0.00     0.109 A 
ATOM     23  N   UNL A   1      41.219  32.524  32.352  1.00  0.00    -0.170 NA
ATOM     24  C   UNL A   1      41.109  34.252  33.825  1.00  0.00     0.054 A 
ENDBRANCH  13  19
ENDBRANCH   7  12
ENDBRANCH   4   6
ENDBRANCH   3   4
ENDBRANCH   2   3
ENDBRANCH   1   2
BRANCH   1  25
ATOM     25  O   UNL A   1      35.818  32.743  28.410  1.00  0.00    -0.458 OA
BRANCH  25  26
ATOM     26  C   UNL A   1      35.705  31.405  28.238  1.00  0.00     0.338 C 
ATOM     27  O   UNL A   1      34.759  30.802  27.757  1.00  0.00    -0.246 OA
BRANCH  26  28
ATOM     28  C   UNL A   1      36.809  30.739  28.930  1.00  0.00     0.060 A 
ATOM     29  C   UNL A   1      37.865  31.528  29.400  1.00  0.00     0.016 A 
ATOM     30  C   UNL A   1      36.903  29.344  28.844  1.00  0.00     0.016 A 
ATOM     31  C   UNL A   1      39.077  30.920  29.667  1.00  0.00     0.010 A 
ATOM     32  C   UNL A   1      38.115  28.748  29.081  1.00  0.00     0.010 A 
ATOM     33  C   UNL A   1      39.203  29.549  29.437  1.00  0.00    -0.014 A 
BRANCH  33  34
ATOM     34  C   UNL A   1      40.478  28.899  29.677  1.00  0.00     0.031 A 
ATOM     35  C   UNL A   1      40.798  28.727  31.115  1.00  0.00     0.074 A 
ATOM     36  C   UNL A   1      41.144  28.295  28.674  1.00  0.00     0.049 A 
ATOM     37  N   UNL A   1      41.853  29.106  31.755  1.00  0.00    -0.248 NA
ATOM     38  C   UNL A   1      39.739  28.184  31.986  1.00  0.00     0.031 C 
ATOM     39  C   UNL A   1      40.699  28.156  27.283  1.00  0.00     0.029 A 
ATOM     40  N   UNL A   1      42.269  27.529  28.717  1.00  0.00    -0.354 N 
ATOM     41  C   UNL A   1      41.687  28.641  33.057  1.00  0.00     0.074 A 
ATOM     42  C   UNL A   1      40.301  28.297  33.186  1.00  0.00     0.031 C 
ATOM     43  C   UNL A   1      41.401  27.165  26.693  1.00  0.00     0.029 A 
ATOM     44  C   UNL A   1      42.404  26.676  27.625  1.00  0.00     0.049 A 
ATOM     45  H   UNL A   1      42.924  27.575  29.451  1.00  0.00     0.167 HD
ATOM     46  C   UNL A   1      42.756  28.316  33.832  1.00  0.00     0.034 A 
ATOM     47  C   UNL A   1      43.202  25.578  27.536  1.00  0.00     0.034 A 
ATOM     48  C   UNL A   1      43.957  28.961  33.347  1.00  0.00     0.049 A 
ATOM     49  C   UNL A   1      44.236  25.699  28.596  1.00  0.00     0.074 A 
ATOM     50  C   UNL A   1      44.305  30.277  33.102  1.00  0.00     0.029 A 
ATOM     51  N   UNL A   1      44.892  28.203  32.676  1.00  0.00    -0.354 N 
ATOM     52  N   UNL A   1      45.153  26.629  28.609  1.00  0.00    -0.248 NA
ATOM     53  C   UNL A   1      43.976  25.076  29.886  1.00  0.00     0.031 C 
ATOM     54  C   UNL A   1      45.099  30.236  31.919  1.00  0.00     0.029 A 
ATOM     55  C   UNL A   1      45.256  28.899  31.551  1.00  0.00     0.049 A 
ATOM     56  H   UNL A   1      45.236  27.323  32.954  1.00  0.00     0.167 HD
ATOM     57  C   UNL A   1      45.263  27.005  29.940  1.00  0.00     0.074 A 
ATOM     58  C   UNL A   1      44.604  25.940  30.689  1.00  0.00     0.031 C 
ATOM     59  C   UNL A   1      45.618  28.279  30.289  1.00  0.00     0.034 A 
BRANCH  46  60
ATOM     60  C   UNL A   1      42.789  27.113  34.759  1.00  0.00     0.023 A 
ATOM     61  C   UNL A   1      43.585  26.030  34.346  1.00  0.00     0.031 A 
ATOM     62  C   UNL A   1      41.891  26.835  35.817  1.00  0.00     0.131 A 
ATOM     63  C   UNL A   1      43.360  24.736  34.841  1.00  0.00     0.055 A 
ATOM     64  C   UNL A   1      41.724  25.558  36.361  1.00  0.00     0.041 A 
ATOM     65  F   UNL A   1      41.062  27.745  36.339  1.00  0.00    -0.206 F 
ATOM     66  C   UNL A   1      42.427  24.488  35.842  1.00  0.00     0.022 A 
BRANCH  63  67
ATOM     67  S   UNL A   1      44.155  23.355  33.984  1.00  0.00     0.124 S 
ATOM     68  O   UNL A   1      44.022  22.289  34.972  1.00  0.00    -0.237 OA
ATOM     69  O   UNL A   1      43.328  23.235  32.788  1.00  0.00    -0.237 OA
ATOM     70  O   UNL A   1      45.515  23.837  33.759  1.00  0.00    -0.744 OA
ENDBRANCH  63  67
ENDBRANCH  46  60
BRANCH  47  71
ATOM     71  C   UNL A   1      42.903  24.316  26.804  1.00  0.00     0.023 A 
ATOM     72  C   UNL A   1      43.830  23.695  25.941  1.00  0.00     0.031 A 
ATOM     73  C   UNL A   1      41.738  23.575  27.114  1.00  0.00     0.131 A 
ATOM     74  C   UNL A   1      43.565  22.406  25.418  1.00  0.00     0.055 A 
ATOM     75  C   UNL A   1      41.472  22.312  26.580  1.00  0.00     0.041 A 
ATOM     76  F   UNL A   1      40.847  24.018  28.016  1.00  0.00    -0.206 F 
ATOM     77  C   UNL A   1      42.391  21.719  25.732  1.00  0.00     0.022 A 
BRANCH  74  78
ATOM     78  S   UNL A   1      44.803  21.556  24.388  1.00  0.00     0.124 S 
ATOM     79  O   UNL A   1      44.676  22.250  23.111  1.00  0.00    -0.237 OA
ATOM     80  O   UNL A   1      46.038  21.782  25.131  1.00  0.00    -0.237 OA
ATOM     81  O   UNL A   1      44.343  20.166  24.378  1.00  0.00    -0.744 OA
ENDBRANCH  74  78
ENDBRANCH  47  71
BRANCH  59  82
ATOM     82  C   UNL A   1      46.211  29.186  29.231  1.00  0.00     0.023 A 
ATOM     83  C   UNL A   1      45.490  30.168  28.514  1.00  0.00     0.031 A 
ATOM     84  C   UNL A   1      47.603  29.133  29.044  1.00  0.00     0.131 A 
ATOM     85  C   UNL A   1      46.169  31.043  27.642  1.00  0.00     0.055 A 
ATOM     86  C   UNL A   1      48.274  30.014  28.197  1.00  0.00     0.041 A 
ATOM     87  F   UNL A   1      48.349  28.243  29.720  1.00  0.00    -0.206 F 
ATOM     88  C   UNL A   1      47.557  30.969  27.488  1.00  0.00     0.022 A 
BRANCH  85  89
ATOM     89  S   UNL A   1      45.255  32.290  26.679  1.00  0.00     0.124 S 
ATOM     90  O   UNL A   1      46.269  32.852  25.794  1.00  0.00    -0.237 OA
ATOM     91  O   UNL A   1      44.213  31.493  26.036  1.00  0.00    -0.237 OA
ATOM     92  O   UNL A   1      44.763  33.215  27.702  1.00  0.00    -0.744 OA
ENDBRANCH  85  89
ENDBRANCH  59  82
ENDBRANCH  33  34
ENDBRANCH  26  28
ENDBRANCH  25  26
ENDBRANCH   1  25
TORSDOF 16
ENDMDL
MODEL 3
REMARK VINA RESULT:     -12.7      4.027      8.605
REMARK SMILES Cn1ccc(-c2n[nH]c(=O)n2-c2ccc(C(=O)OCCOC(=O)c3ccc(-c4c5nc(c(-c6cc(S(=O)(=O)[O-])ccc6F)c6ccc([nH]6)c(-c6cc(S(=O)(=O)[O-])ccc6F)c6nc(c(-c7cc(S(=O)(=O)[O-])ccc7F)c7ccc4[nH]7)C=C6)C=C5)cc3)cc2)n1
REMARK SMILES IDX 20 1 19 2 18 3 16 4 17 5 15 6 12 7 13 8 88 9 14 10 87 11
REMARK SMILES IDX 11 12 6 13 7 14 8 15 9 16 10 18 5 19 1 20 2 21 3 22 89 23
REMARK SMILES IDX 4 24 21 25 22 26 23 27 24 28 25 29 86 30 26 31 85 32 27 33
REMARK SMILES IDX 28 34 29 35 79 36 30 37 84 38 78 39 80 40 31 41 83 42 77 43
REMARK SMILES IDX 76 44 32 46 64 47 44 48 63 49 45 50 48 51 62 52 81 53 46 54
REMARK SMILES IDX 47 55 61 57 82 58 49 59 33 60 34 61 42 62 35 63 41 64 43 65
REMARK SMILES IDX 40 66 36 67 37 68 38 69 39 70 65 71 66 72 74 73 67 74 73 75
REMARK SMILES IDX 75 76 72 77 68 78 69 79 70 80 71 81 50 82 51 83 59 84 52 85
REMARK SMILES IDX 58 86 60 87 57 88 53 89 54 90 55 91 56 92
REMARK H PARENT 8 17 80 45 48 56
REMARK Flexibility Score: inf
ROOT
ATOM      1  C   UNL A   1      34.364  31.070  28.022  1.00  0.00     0.275 C 
ENDROOT
BRANCH   1   2
ATOM      2  C   UNL A   1      33.215  30.288  27.401  1.00  0.00     0.275 C 
BRANCH   2   3
ATOM      3  O   UNL A   1      33.446  28.874  27.482  1.00  0.00    -0.458 OA
BRANCH   3   4
ATOM      4  C   UNL A   1      32.332  28.093  27.373  1.00  0.00     0.338 C 
ATOM      5  O   UNL A   1      31.358  28.125  28.085  1.00  0.00    -0.246 OA
BRANCH   4   6
ATOM      6  C   UNL A   1      32.449  27.217  26.175  1.00  0.00     0.060 A 
ATOM      7  C   UNL A   1      32.692  25.734  23.809  1.00  0.00     0.052 A 
ATOM      8  C   UNL A   1      33.802  26.406  24.324  1.00  0.00     0.028 A 
ATOM      9  C   UNL A   1      31.499  25.716  24.550  1.00  0.00     0.028 A 
ATOM     10  C   UNL A   1      33.672  27.172  25.489  1.00  0.00     0.018 A 
ATOM     11  C   UNL A   1      31.376  26.445  25.731  1.00  0.00     0.018 A 
BRANCH   7  12
ATOM     12  N   UNL A   1      32.736  25.120  22.546  1.00  0.00    -0.242 N 
ATOM     13  C   UNL A   1      33.346  23.949  22.201  1.00  0.00     0.189 A 
ATOM     14  N   UNL A   1      33.358  23.681  20.923  1.00  0.00    -0.150 NA
ATOM     15  N   UNL A   1      32.644  24.718  20.381  1.00  0.00    -0.226 N 
ATOM     16  C   UNL A   1      32.204  25.600  21.374  1.00  0.00     0.348 A 
ATOM     17  H   UNL A   1      32.462  24.826  19.419  1.00  0.00     0.195 HD
ATOM     18  O   UNL A   1      31.519  26.588  21.169  1.00  0.00    -0.246 OA
BRANCH  13  19
ATOM     19  C   UNL A   1      33.843  22.999  23.183  1.00  0.00     0.130 A 
ATOM     20  C   UNL A   1      33.224  20.309  25.334  1.00  0.00     0.173 C 
ATOM     21  N   UNL A   1      33.797  21.401  24.587  1.00  0.00    -0.275 N 
ATOM     22  C   UNL A   1      35.083  21.848  24.623  1.00  0.00     0.109 A 
ATOM     23  N   UNL A   1      33.024  22.078  23.728  1.00  0.00    -0.170 NA
ATOM     24  C   UNL A   1      35.156  22.866  23.699  1.00  0.00     0.054 A 
ENDBRANCH  13  19
ENDBRANCH   7  12
ENDBRANCH   4   6
ENDBRANCH   3   4
ENDBRANCH   2   3
ENDBRANCH   1   2
BRANCH   1  25
ATOM     25  O   UNL A   1      35.598  30.365  27.915  1.00  0.00    -0.458 OA
BRANCH  25  26
ATOM     26  C   UNL A   1      36.261  30.208  29.084  1.00  0.00     0.338 C 
ATOM     27  O   UNL A   1      36.072  30.817  30.125  1.00  0.00    -0.246 OA
BRANCH  26  28
ATOM     28  C   UNL A   1      37.418  29.339  28.865  1.00  0.00     0.060 A 
ATOM     29  C   UNL A   1      37.834  28.516  29.918  1.00  0.00     0.016 A 
ATOM     30  C   UNL A   1      38.219  29.569  27.740  1.00  0.00     0.016 A 
ATOM     31  C   UNL A   1      39.123  28.019  29.899  1.00  0.00     0.010 A 
ATOM     32  C   UNL A   1      39.507  29.099  27.738  1.00  0.00     0.010 A 
ATOM     33  C   UNL A   1      39.963  28.376  28.843  1.00  0.00    -0.014 A 
BRANCH  33  34
ATOM     34  C   UNL A   1      41.331  27.893  28.824  1.00  0.00     0.031 A 
ATOM     35  C   UNL A   1      41.498  26.599  28.119  1.00  0.00     0.074 A 
ATOM     36  C   UNL A   1      42.351  28.694  29.189  1.00  0.00     0.049 A 
ATOM     37  N   UNL A   1      42.033  25.508  28.554  1.00  0.00    -0.248 NA
ATOM     38  C   UNL A   1      40.853  26.457  26.799  1.00  0.00     0.031 C 
ATOM     39  C   UNL A   1      42.260  30.104  29.586  1.00  0.00     0.029 A 
ATOM     40  N   UNL A   1      43.693  28.478  29.116  1.00  0.00    -0.354 N 
ATOM     41  C   UNL A   1      42.000  24.621  27.480  1.00  0.00     0.074 A 
ATOM     42  C   UNL A   1      41.077  25.174  26.533  1.00  0.00     0.031 C 
ATOM     43  C   UNL A   1      43.481  30.671  29.475  1.00  0.00     0.029 A 
ATOM     44  C   UNL A   1      44.446  29.649  29.101  1.00  0.00     0.049 A 
ATOM     45  H   UNL A   1      44.092  27.579  29.077  1.00  0.00     0.167 HD
ATOM     46  C   UNL A   1      42.944  23.652  27.337  1.00  0.00     0.034 A 
ATOM     47  C   UNL A   1      45.738  29.789  28.703  1.00  0.00     0.034 A 
ATOM     48  C   UNL A   1      43.590  23.373  28.601  1.00  0.00     0.049 A 
ATOM     49  C   UNL A   1      46.354  28.437  28.728  1.00  0.00     0.074 A 
ATOM     50  C   UNL A   1      43.130  22.995  29.849  1.00  0.00     0.029 A 
ATOM     51  N   UNL A   1      44.870  23.838  28.808  1.00  0.00    -0.354 N 
ATOM     52  N   UNL A   1      46.540  27.747  29.820  1.00  0.00    -0.248 NA
ATOM     53  C   UNL A   1      46.340  27.652  27.501  1.00  0.00     0.031 C 
ATOM     54  C   UNL A   1      43.945  23.706  30.776  1.00  0.00     0.029 A 
ATOM     55  C   UNL A   1      44.903  24.418  30.052  1.00  0.00     0.049 A 
ATOM     56  H   UNL A   1      45.624  23.768  28.178  1.00  0.00     0.167 HD
ATOM     57  C   UNL A   1      46.232  26.439  29.476  1.00  0.00     0.074 A 
ATOM     58  C   UNL A   1      46.229  26.423  28.016  1.00  0.00     0.031 C 
ATOM     59  C   UNL A   1      45.723  25.565  30.397  1.00  0.00     0.034 A 
BRANCH  46  60
ATOM     60  C   UNL A   1      43.552  23.260  26.001  1.00  0.00     0.023 A 
ATOM     61  C   UNL A   1      43.549  21.889  25.694  1.00  0.00     0.031 A 
ATOM     62  C   UNL A   1      44.382  24.063  25.182  1.00  0.00     0.131 A 
ATOM     63  C   UNL A   1      44.447  21.356  24.756  1.00  0.00     0.055 A 
ATOM     64  C   UNL A   1      45.219  23.535  24.195  1.00  0.00     0.041 A 
ATOM     65  F   UNL A   1      44.504  25.386  25.327  1.00  0.00    -0.206 F 
ATOM     66  C   UNL A   1      45.291  22.168  24.007  1.00  0.00     0.022 A 
BRANCH  63  67
ATOM     67  S   UNL A   1      44.643  19.557  24.704  1.00  0.00     0.124 S 
ATOM     68  O   UNL A   1      44.570  19.302  23.269  1.00  0.00    -0.237 OA
ATOM     69  O   UNL A   1      45.951  19.385  25.326  1.00  0.00    -0.237 OA
ATOM     70  O   UNL A   1      43.509  19.073  25.486  1.00  0.00    -0.744 OA
ENDBRANCH  63  67
ENDBRANCH  46  60
BRANCH  47  71
ATOM     71  C   UNL A   1      46.336  30.964  28.009  1.00  0.00     0.023 A 
ATOM     72  C   UNL A   1      45.621  31.746  27.078  1.00  0.00     0.031 A 
ATOM     73  C   UNL A   1      47.594  31.467  28.421  1.00  0.00     0.131 A 
ATOM     74  C   UNL A   1      46.174  32.955  26.590  1.00  0.00     0.055 A 
ATOM     75  C   UNL A   1      48.142  32.649  27.920  1.00  0.00     0.041 A 
ATOM     76  F   UNL A   1      48.303  30.866  29.388  1.00  0.00    -0.206 F 
ATOM     77  C   UNL A   1      47.430  33.403  27.005  1.00  0.00     0.022 A 
BRANCH  74  78
ATOM     78  S   UNL A   1      45.214  34.021  25.468  1.00  0.00     0.124 S 
ATOM     79  O   UNL A   1      44.462  33.050  24.682  1.00  0.00    -0.237 OA
ATOM     80  O   UNL A   1      44.445  34.842  26.397  1.00  0.00    -0.237 OA
ATOM     81  O   UNL A   1      46.244  34.747  24.722  1.00  0.00    -0.744 OA
ENDBRANCH  74  78
ENDBRANCH  47  71
BRANCH  59  82
ATOM     82  C   UNL A   1      45.806  25.925  31.866  1.00  0.00     0.023 A 
ATOM     83  C   UNL A   1      44.715  26.356  32.653  1.00  0.00     0.031 A 
ATOM     84  C   UNL A   1      47.028  25.687  32.519  1.00  0.00     0.131 A 
ATOM     85  C   UNL A   1      44.878  26.543  34.041  1.00  0.00     0.055 A 
ATOM     86  C   UNL A   1      47.180  25.852  33.895  1.00  0.00     0.041 A 
ATOM     87  F   UNL A   1      48.094  25.246  31.831  1.00  0.00    -0.206 F 
ATOM     88  C   UNL A   1      46.105  26.287  34.660  1.00  0.00     0.022 A 
BRANCH  85  89
ATOM     89  S   UNL A   1      43.496  27.135  35.069  1.00  0.00     0.124 S 
ATOM     90  O   UNL A   1      42.397  27.277  34.119  1.00  0.00    -0.237 OA
ATOM     91  O   UNL A   1      43.356  26.068  36.056  1.00  0.00    -0.237 OA
ATOM     92  O   UNL A   1      43.995  28.400  35.612  1.00  0.00    -0.744 OA
ENDBRANCH  85  89
ENDBRANCH  59  82
ENDBRANCH  33  34
ENDBRANCH  26  28
ENDBRANCH  25  26
ENDBRANCH   1  25
TORSDOF 16
ENDMDL
