MODEL 1
REMARK VINA RESULT:     -10.6      0.000      0.000
REMARK SMILES CSCC[C@H](C(=O)OCCOC(=O)c1ccc(-c2c3nc(c(-c4cc(S(=O)(=O)[O-])ccc4F)c4ccc([nH]4)c(-c4cc(S(=O)(=O)[O-])ccc4F)c4nc(c(-c5cc(S(=O)(=O)[O-])ccc5F)c5ccc2[nH]5)C=C4)C=C3)cc1)N1C(=O)/C(=C/c2cn(C)c3ccccc23)SC1=S
REMARK SMILES IDX 9 1 8 2 6 3 7 4 5 5 4 6 3 7 2 8 1 9 77 10 78 11 93 12 79 13
REMARK SMILES IDX 80 14 92 15 94 16 81 17 82 18 83 19 91 20 84 21 86 22 90 23
REMARK SMILES IDX 85 24 87 25 89 26 88 27 10 28 11 29 12 30 13 31 14 32 15 33
REMARK SMILES IDX 76 34 16 35 75 36 17 37 18 38 19 39 69 40 20 41 74 42 68 43
REMARK SMILES IDX 70 44 21 45 73 46 67 47 66 48 22 50 54 51 34 52 53 53 35 54
REMARK SMILES IDX 38 55 52 56 71 57 36 58 37 59 51 61 72 62 39 63 23 64 24 65
REMARK SMILES IDX 32 66 25 67 31 68 33 69 30 70 26 71 27 72 28 73 29 74 55 75
REMARK SMILES IDX 56 76 64 77 57 78 63 79 65 80 62 81 58 82 59 83 60 84 61 85
REMARK SMILES IDX 40 86 41 87 49 88 42 89 48 90 50 91 47 92 43 93 44 94 45 95
REMARK SMILES IDX 46 96
REMARK H PARENT 70 49 38 60
REMARK Flexibility Score: inf
ROOT
ATOM      1  C   UNL A   1      31.350  29.862  25.604  1.00  0.00     0.274 C 
ENDROOT
BRANCH   1   2
ATOM      2  O   UNL A   1      31.984  28.680  26.147  1.00  0.00    -0.461 OA
BRANCH   2   3
ATOM      3  C   UNL A   1      31.247  27.744  26.807  1.00  0.00     0.329 C 
ATOM      4  O   UNL A   1      30.773  27.949  27.917  1.00  0.00    -0.250 OA
BRANCH   3   5
ATOM      5  C   UNL A   1      31.153  26.371  26.016  1.00  0.00     0.202 C 
BRANCH   5   6
ATOM      6  C   UNL A   1      29.680  25.989  25.547  1.00  0.00     0.048 C 
BRANCH   6   7
ATOM      7  C   UNL A   1      28.964  26.563  24.264  1.00  0.00     0.072 C 
BRANCH   7   8
ATOM      8  S   UNL A   1      29.553  27.806  22.996  1.00  0.00    -0.165 SA
ATOM      9  C   UNL A   1      28.379  29.215  23.014  1.00  0.00     0.085 C 
ENDBRANCH   7   8
ENDBRANCH   6   7
ENDBRANCH   5   6
BRANCH   5  10
ATOM     10  N   UNL A   1      32.565  25.856  24.976  1.00  0.00    -0.278 N 
ATOM     11  C   UNL A   1      33.034  24.894  25.717  1.00  0.00     0.266 C 
ATOM     12  C   UNL A   1      33.373  26.870  23.437  1.00  0.00     0.149 C 
ATOM     13  O   UNL A   1      32.781  24.241  26.688  1.00  0.00    -0.268 OA
ATOM     14  C   UNL A   1      33.923  24.891  24.688  1.00  0.00     0.081 C 
ATOM     15  S   UNL A   1      34.782  26.591  23.071  1.00  0.00    -0.054 SA
ATOM     16  S   UNL A   1      32.944  28.290  22.142  1.00  0.00    -0.052 S 
ATOM     17  C   UNL A   1      34.669  23.677  24.903  1.00  0.00     0.031 C 
BRANCH  17  18
ATOM     18  C   UNL A   1      35.801  23.666  24.072  1.00  0.00     0.001 A 
ATOM     19  C   UNL A   1      37.036  23.003  24.290  1.00  0.00     0.094 A 
ATOM     20  C   UNL A   1      35.101  22.669  23.397  1.00  0.00     0.007 A 
ATOM     21  N   UNL A   1      36.892  21.701  24.825  1.00  0.00    -0.350 N 
ATOM     22  C   UNL A   1      35.527  21.470  24.912  1.00  0.00     0.048 A 
ATOM     23  C   UNL A   1      33.203  22.283  22.873  1.00  0.00     0.011 A 
ATOM     24  C   UNL A   1      37.754  20.566  24.514  1.00  0.00     0.149 C 
ATOM     25  C   UNL A   1      34.274  20.236  25.726  1.00  0.00     0.027 A 
ATOM     26  C   UNL A   1      32.030  20.829  23.482  1.00  0.00     0.001 A 
ATOM     27  C   UNL A   1      32.495  19.688  25.068  1.00  0.00     0.002 A 
ENDBRANCH  17  18
ENDBRANCH   5  10
ENDBRANCH   3   5
ENDBRANCH   2   3
ENDBRANCH   1   2
BRANCH   1  28
ATOM     28  C   UNL A   1      31.708  31.167  26.304  1.00  0.00     0.275 C 
BRANCH  28  29
ATOM     29  O   UNL A   1      32.719  30.946  27.278  1.00  0.00    -0.458 OA
BRANCH  29  30
ATOM     30  C   UNL A   1      33.463  32.049  27.526  1.00  0.00     0.338 C 
ATOM     31  O   UNL A   1      33.073  33.205  27.571  1.00  0.00    -0.246 OA
BRANCH  30  32
ATOM     32  C   UNL A   1      34.785  31.610  27.976  1.00  0.00     0.060 A 
ATOM     33  C   UNL A   1      34.931  30.254  28.282  1.00  0.00     0.016 A 
ATOM     34  C   UNL A   1      35.853  32.503  28.084  1.00  0.00     0.016 A 
ATOM     35  C   UNL A   1      36.149  29.781  28.723  1.00  0.00     0.010 A 
ATOM     36  C   UNL A   1      37.071  32.032  28.558  1.00  0.00     0.010 A 
ATOM     37  C   UNL A   1      37.204  30.678  28.908  1.00  0.00    -0.014 A 
BRANCH  37  38
ATOM     38  C   UNL A   1      38.377  30.204  29.654  1.00  0.00     0.031 A 
ATOM     39  C   UNL A   1      38.569  30.701  31.054  1.00  0.00     0.074 A 
ATOM     40  C   UNL A   1      39.170  29.265  29.115  1.00  0.00     0.049 A 
ATOM     41  N   UNL A   1      39.522  30.432  31.902  1.00  0.00    -0.248 NA
ATOM     42  C   UNL A   1      37.547  31.631  31.566  1.00  0.00     0.031 C 
ATOM     43  C   UNL A   1      38.994  28.678  27.785  1.00  0.00     0.029 A 
ATOM     44  N   UNL A   1      40.268  28.631  29.624  1.00  0.00    -0.354 N 
ATOM     45  C   UNL A   1      39.216  31.156  33.049  1.00  0.00     0.074 A 
ATOM     46  C   UNL A   1      38.020  31.917  32.768  1.00  0.00     0.031 C 
ATOM     47  C   UNL A   1      39.958  27.766  27.583  1.00  0.00     0.029 A 
ATOM     48  C   UNL A   1      40.842  27.745  28.744  1.00  0.00     0.049 A 
ATOM     49  H   UNL A   1      40.613  28.793  30.531  1.00  0.00     0.167 HD
ATOM     50  C   UNL A   1      39.873  31.162  34.232  1.00  0.00     0.034 A 
ATOM     51  C   UNL A   1      41.976  27.032  28.863  1.00  0.00     0.034 A 
ATOM     52  C   UNL A   1      41.072  30.398  34.468  1.00  0.00     0.049 A 
ATOM     53  C   UNL A   1      42.747  27.139  30.155  1.00  0.00     0.074 A 
ATOM     54  C   UNL A   1      41.848  30.340  35.610  1.00  0.00     0.029 A 
ATOM     55  N   UNL A   1      41.671  29.556  33.536  1.00  0.00    -0.354 N 
ATOM     56  N   UNL A   1      42.470  27.847  31.230  1.00  0.00    -0.248 NA
ATOM     57  C   UNL A   1      43.973  26.344  30.257  1.00  0.00     0.031 C 
ATOM     58  C   UNL A   1      42.957  29.530  35.341  1.00  0.00     0.029 A 
ATOM     59  C   UNL A   1      42.824  29.000  34.068  1.00  0.00     0.049 A 
ATOM     60  H   UNL A   1      41.325  29.380  32.631  1.00  0.00     0.167 HD
ATOM     61  C   UNL A   1      43.477  27.556  32.145  1.00  0.00     0.074 A 
ATOM     62  C   UNL A   1      44.341  26.584  31.505  1.00  0.00     0.031 C 
ATOM     63  C   UNL A   1      43.679  28.047  33.397  1.00  0.00     0.034 A 
BRANCH  50  64
ATOM     64  C   UNL A   1      39.338  32.060  35.320  1.00  0.00     0.023 A 
ATOM     65  C   UNL A   1      39.756  33.396  35.452  1.00  0.00     0.031 A 
ATOM     66  C   UNL A   1      38.419  31.563  36.261  1.00  0.00     0.131 A 
ATOM     67  C   UNL A   1      39.305  34.168  36.533  1.00  0.00     0.055 A 
ATOM     68  C   UNL A   1      37.908  32.362  37.284  1.00  0.00     0.041 A 
ATOM     69  F   UNL A   1      38.012  30.285  36.209  1.00  0.00    -0.206 F 
ATOM     70  C   UNL A   1      38.360  33.669  37.433  1.00  0.00     0.022 A 
BRANCH  67  71
ATOM     71  S   UNL A   1      40.079  35.781  36.832  1.00  0.00     0.124 S 
ATOM     72  O   UNL A   1      39.661  36.531  35.651  1.00  0.00    -0.237 OA
ATOM     73  O   UNL A   1      39.480  36.191  38.096  1.00  0.00    -0.237 OA
ATOM     74  O   UNL A   1      41.506  35.471  36.889  1.00  0.00    -0.744 OA
ENDBRANCH  67  71
ENDBRANCH  50  64
BRANCH  51  75
ATOM     75  C   UNL A   1      42.477  26.214  27.723  1.00  0.00     0.023 A 
ATOM     76  C   UNL A   1      42.002  24.915  27.488  1.00  0.00     0.031 A 
ATOM     77  C   UNL A   1      43.498  26.702  26.884  1.00  0.00     0.131 A 
ATOM     78  C   UNL A   1      42.588  24.127  26.485  1.00  0.00     0.055 A 
ATOM     79  C   UNL A   1      44.025  25.942  25.841  1.00  0.00     0.041 A 
ATOM     80  F   UNL A   1      43.997  27.935  27.067  1.00  0.00    -0.206 F 
ATOM     81  C   UNL A   1      43.584  24.638  25.648  1.00  0.00     0.022 A 
BRANCH  78  82
ATOM     82  S   UNL A   1      42.122  22.378  26.374  1.00  0.00     0.124 S 
ATOM     83  O   UNL A   1      42.797  21.970  25.147  1.00  0.00    -0.237 OA
ATOM     84  O   UNL A   1      42.665  21.840  27.616  1.00  0.00    -0.237 OA
ATOM     85  O   UNL A   1      40.663  22.420  26.300  1.00  0.00    -0.744 OA
ENDBRANCH  78  82
ENDBRANCH  51  75
BRANCH  63  86
ATOM     86  C   UNL A   1      44.866  27.499  34.153  1.00  0.00     0.023 A 
ATOM     87  C   UNL A   1      44.765  26.338  34.939  1.00  0.00     0.031 A 
ATOM     88  C   UNL A   1      46.099  28.174  34.128  1.00  0.00     0.131 A 
ATOM     89  C   UNL A   1      45.841  25.951  35.750  1.00  0.00     0.055 A 
ATOM     90  C   UNL A   1      47.196  27.726  34.864  1.00  0.00     0.041 A 
ATOM     91  F   UNL A   1      46.256  29.289  33.397  1.00  0.00    -0.206 F 
ATOM     92  C   UNL A   1      47.064  26.622  35.700  1.00  0.00     0.022 A 
BRANCH  89  93
ATOM     93  S   UNL A   1      45.560  24.660  36.993  1.00  0.00     0.124 S 
ATOM     94  O   UNL A   1      44.532  23.846  36.352  1.00  0.00    -0.237 OA
ATOM     95  O   UNL A   1      46.878  24.046  37.108  1.00  0.00    -0.237 OA
ATOM     96  O   UNL A   1      45.118  25.408  38.168  1.00  0.00    -0.744 OA
ENDBRANCH  89  93
ENDBRANCH  63  86
ENDBRANCH  37  38
ENDBRANCH  30  32
ENDBRANCH  29  30
ENDBRANCH  28  29
ENDBRANCH   1  28
TORSDOF 19
ENDMDL
MODEL 2
REMARK VINA RESULT:     -10.4      1.848      7.606
REMARK SMILES CSCC[C@H](C(=O)OCCOC(=O)c1ccc(-c2c3nc(c(-c4cc(S(=O)(=O)[O-])ccc4F)c4ccc([nH]4)c(-c4cc(S(=O)(=O)[O-])ccc4F)c4nc(c(-c5cc(S(=O)(=O)[O-])ccc5F)c5ccc2[nH]5)C=C4)C=C3)cc1)N1C(=O)/C(=C/c2cn(C)c3ccccc23)SC1=S
REMARK SMILES IDX 9 1 8 2 6 3 7 4 5 5 4 6 3 7 2 8 1 9 77 10 78 11 93 12 79 13
REMARK SMILES IDX 80 14 92 15 94 16 81 17 82 18 83 19 91 20 84 21 86 22 90 23
REMARK SMILES IDX 85 24 87 25 89 26 88 27 10 28 11 29 12 30 13 31 14 32 15 33
REMARK SMILES IDX 76 34 16 35 75 36 17 37 18 38 19 39 69 40 20 41 74 42 68 43
REMARK SMILES IDX 70 44 21 45 73 46 67 47 66 48 22 50 54 51 34 52 53 53 35 54
REMARK SMILES IDX 38 55 52 56 71 57 36 58 37 59 51 61 72 62 39 63 23 64 24 65
REMARK SMILES IDX 32 66 25 67 31 68 33 69 30 70 26 71 27 72 28 73 29 74 55 75
REMARK SMILES IDX 56 76 64 77 57 78 63 79 65 80 62 81 58 82 59 83 60 84 61 85
REMARK SMILES IDX 40 86 41 87 49 88 42 89 48 90 50 91 47 92 43 93 44 94 45 95
REMARK SMILES IDX 46 96
REMARK H PARENT 70 49 38 60
REMARK Flexibility Score: inf
ROOT
ATOM      1  C   UNL A   1      31.414  29.838  25.697  1.00  0.00     0.274 C 
ENDROOT
BRANCH   1   2
ATOM      2  O   UNL A   1      32.023  28.627  26.207  1.00  0.00    -0.461 OA
BRANCH   2   3
ATOM      3  C   UNL A   1      31.269  27.700  26.861  1.00  0.00     0.329 C 
ATOM      4  O   UNL A   1      30.791  27.910  27.968  1.00  0.00    -0.250 OA
BRANCH   3   5
ATOM      5  C   UNL A   1      31.162  26.330  26.068  1.00  0.00     0.202 C 
BRANCH   5   6
ATOM      6  C   UNL A   1      29.680  25.947  25.626  1.00  0.00     0.048 C 
BRANCH   6   7
ATOM      7  C   UNL A   1      28.921  26.562  24.388  1.00  0.00     0.072 C 
BRANCH   7   8
ATOM      8  S   UNL A   1      29.458  27.861  23.155  1.00  0.00    -0.165 SA
ATOM      9  C   UNL A   1      28.027  28.971  22.860  1.00  0.00     0.085 C 
ENDBRANCH   7   8
ENDBRANCH   6   7
ENDBRANCH   5   6
BRANCH   5  10
ATOM     10  N   UNL A   1      32.555  25.819  25.000  1.00  0.00    -0.278 N 
ATOM     11  C   UNL A   1      33.035  24.852  25.726  1.00  0.00     0.266 C 
ATOM     12  C   UNL A   1      33.336  26.842  23.453  1.00  0.00     0.149 C 
ATOM     13  O   UNL A   1      32.799  24.193  26.697  1.00  0.00    -0.268 OA
ATOM     14  C   UNL A   1      33.906  24.855  24.681  1.00  0.00     0.081 C 
ATOM     15  S   UNL A   1      34.738  26.565  23.060  1.00  0.00    -0.054 SA
ATOM     16  S   UNL A   1      32.885  28.272  22.175  1.00  0.00    -0.052 S 
ATOM     17  C   UNL A   1      34.655  23.639  24.875  1.00  0.00     0.031 C 
BRANCH  17  18
ATOM     18  C   UNL A   1      35.771  23.632  24.023  1.00  0.00     0.001 A 
ATOM     19  C   UNL A   1      37.017  22.984  24.225  1.00  0.00     0.094 A 
ATOM     20  C   UNL A   1      35.070  22.622  23.370  1.00  0.00     0.007 A 
ATOM     21  N   UNL A   1      36.897  21.686  24.774  1.00  0.00    -0.350 N 
ATOM     22  C   UNL A   1      35.536  21.442  24.888  1.00  0.00     0.048 A 
ATOM     23  C   UNL A   1      33.167  22.211  22.884  1.00  0.00     0.011 A 
ATOM     24  C   UNL A   1      37.765  20.557  24.458  1.00  0.00     0.149 C 
ATOM     25  C   UNL A   1      34.311  20.201  25.735  1.00  0.00     0.027 A 
ATOM     26  C   UNL A   1      32.021  20.751  23.527  1.00  0.00     0.001 A 
ATOM     27  C   UNL A   1      32.527  19.629  25.115  1.00  0.00     0.002 A 
ENDBRANCH  17  18
ENDBRANCH   5  10
ENDBRANCH   3   5
ENDBRANCH   2   3
ENDBRANCH   1   2
BRANCH   1  28
ATOM     28  C   UNL A   1      31.776  31.110  26.453  1.00  0.00     0.275 C 
BRANCH  28  29
ATOM     29  O   UNL A   1      32.859  30.869  27.342  1.00  0.00    -0.458 OA
BRANCH  29  30
ATOM     30  C   UNL A   1      33.605  31.973  27.576  1.00  0.00     0.338 C 
ATOM     31  O   UNL A   1      33.222  33.132  27.584  1.00  0.00    -0.246 OA
BRANCH  30  32
ATOM     32  C   UNL A   1      34.915  31.537  28.063  1.00  0.00     0.060 A 
ATOM     33  C   UNL A   1      35.037  30.196  28.436  1.00  0.00     0.016 A 
ATOM     34  C   UNL A   1      35.995  32.419  28.140  1.00  0.00     0.016 A 
ATOM     35  C   UNL A   1      36.243  29.727  28.915  1.00  0.00     0.010 A 
ATOM     36  C   UNL A   1      37.201  31.955  28.652  1.00  0.00     0.010 A 
ATOM     37  C   UNL A   1      37.309  30.618  29.069  1.00  0.00    -0.014 A 
BRANCH  37  38
ATOM     38  C   UNL A   1      38.466  30.163  29.852  1.00  0.00     0.031 A 
ATOM     39  C   UNL A   1      39.389  29.162  29.228  1.00  0.00     0.074 A 
ATOM     40  C   UNL A   1      38.726  30.730  31.041  1.00  0.00     0.049 A 
ATOM     41  N   UNL A   1      40.464  28.611  29.719  1.00  0.00    -0.248 NA
ATOM     42  C   UNL A   1      39.053  28.722  27.862  1.00  0.00     0.031 C 
ATOM     43  C   UNL A   1      37.910  31.768  31.673  1.00  0.00     0.029 A 
ATOM     44  N   UNL A   1      39.754  30.525  31.916  1.00  0.00    -0.354 N 
ATOM     45  C   UNL A   1      40.935  27.761  28.725  1.00  0.00     0.074 A 
ATOM     46  C   UNL A   1      40.000  27.828  27.626  1.00  0.00     0.031 C 
ATOM     47  C   UNL A   1      38.474  32.110  32.842  1.00  0.00     0.029 A 
ATOM     48  C   UNL A   1      39.654  31.278  33.060  1.00  0.00     0.049 A 
ATOM     49  H   UNL A   1      40.494  29.899  31.744  1.00  0.00     0.167 HD
ATOM     50  C   UNL A   1      42.060  27.009  28.734  1.00  0.00     0.034 A 
ATOM     51  C   UNL A   1      40.417  31.262  34.168  1.00  0.00     0.034 A 
ATOM     52  C   UNL A   1      42.962  26.960  29.858  1.00  0.00     0.049 A 
ATOM     53  C   UNL A   1      41.607  30.335  34.193  1.00  0.00     0.074 A 
ATOM     54  C   UNL A   1      44.118  26.217  30.005  1.00  0.00     0.029 A 
ATOM     55  N   UNL A   1      42.802  27.686  31.034  1.00  0.00    -0.354 N 
ATOM     56  N   UNL A   1      42.035  29.511  33.261  1.00  0.00    -0.248 NA
ATOM     57  C   UNL A   1      42.423  30.347  35.409  1.00  0.00     0.031 C 
ATOM     58  C   UNL A   1      44.611  26.431  31.297  1.00  0.00     0.029 A 
ATOM     59  C   UNL A   1      43.822  27.383  31.923  1.00  0.00     0.049 A 
ATOM     60  H   UNL A   1      42.072  28.322  31.209  1.00  0.00     0.167 HD
ATOM     61  C   UNL A   1      43.190  28.927  33.774  1.00  0.00     0.074 A 
ATOM     62  C   UNL A   1      43.403  29.523  35.078  1.00  0.00     0.031 C 
ATOM     63  C   UNL A   1      43.998  27.980  33.227  1.00  0.00     0.034 A 
BRANCH  50  64
ATOM     64  C   UNL A   1      42.334  26.151  27.524  1.00  0.00     0.023 A 
ATOM     65  C   UNL A   1      41.876  24.824  27.438  1.00  0.00     0.031 A 
ATOM     66  C   UNL A   1      43.091  26.657  26.453  1.00  0.00     0.131 A 
ATOM     67  C   UNL A   1      42.232  24.031  26.336  1.00  0.00     0.055 A 
ATOM     68  C   UNL A   1      43.369  25.890  25.321  1.00  0.00     0.041 A 
ATOM     69  F   UNL A   1      43.586  27.903  26.496  1.00  0.00    -0.206 F 
ATOM     70  C   UNL A   1      42.950  24.565  25.263  1.00  0.00     0.022 A 
BRANCH  67  71
ATOM     71  S   UNL A   1      41.869  22.254  26.391  1.00  0.00     0.124 S 
ATOM     72  O   UNL A   1      40.422  22.243  26.196  1.00  0.00    -0.237 OA
ATOM     73  O   UNL A   1      42.667  21.734  25.288  1.00  0.00    -0.237 OA
ATOM     74  O   UNL A   1      42.312  21.855  27.725  1.00  0.00    -0.744 OA
ENDBRANCH  67  71
ENDBRANCH  50  64
BRANCH  51  75
ATOM     75  C   UNL A   1      40.051  32.092  35.350  1.00  0.00     0.023 A 
ATOM     76  C   UNL A   1      39.197  31.606  36.351  1.00  0.00     0.031 A 
ATOM     77  C   UNL A   1      40.502  33.422  35.460  1.00  0.00     0.131 A 
ATOM     78  C   UNL A   1      38.771  32.458  37.381  1.00  0.00     0.055 A 
ATOM     79  C   UNL A   1      40.136  34.242  36.527  1.00  0.00     0.041 A 
ATOM     80  F   UNL A   1      41.315  33.944  34.527  1.00  0.00    -0.206 F 
ATOM     81  C   UNL A   1      39.250  33.767  37.486  1.00  0.00     0.022 A 
BRANCH  78  82
ATOM     82  S   UNL A   1      37.479  31.873  38.512  1.00  0.00     0.124 S 
ATOM     83  O   UNL A   1      38.157  31.951  39.801  1.00  0.00    -0.237 OA
ATOM     84  O   UNL A   1      36.416  32.845  38.286  1.00  0.00    -0.237 OA
ATOM     85  O   UNL A   1      37.198  30.521  38.034  1.00  0.00    -0.744 OA
ENDBRANCH  78  82
ENDBRANCH  51  75
BRANCH  63  86
ATOM     86  C   UNL A   1      45.205  27.574  34.040  1.00  0.00     0.023 A 
ATOM     87  C   UNL A   1      46.441  28.229  33.900  1.00  0.00     0.031 A 
ATOM     88  C   UNL A   1      45.132  26.485  34.926  1.00  0.00     0.131 A 
ATOM     89  C   UNL A   1      47.575  27.724  34.551  1.00  0.00     0.055 A 
ATOM     90  C   UNL A   1      46.245  26.047  35.645  1.00  0.00     0.041 A 
ATOM     91  F   UNL A   1      43.980  25.818  35.100  1.00  0.00    -0.206 F 
ATOM     92  C   UNL A   1      47.481  26.652  35.441  1.00  0.00     0.022 A 
BRANCH  89  93
ATOM     93  S   UNL A   1      49.199  28.383  34.085  1.00  0.00     0.124 S 
ATOM     94  O   UNL A   1      49.045  28.569  32.646  1.00  0.00    -0.237 OA
ATOM     95  O   UNL A   1      49.281  29.603  34.880  1.00  0.00    -0.237 OA
ATOM     96  O   UNL A   1      50.124  27.321  34.479  1.00  0.00    -0.744 OA
ENDBRANCH  89  93
ENDBRANCH  63  86
ENDBRANCH  37  38
ENDBRANCH  30  32
ENDBRANCH  29  30
ENDBRANCH  28  29
ENDBRANCH   1  28
TORSDOF 19
ENDMDL
MODEL 3
REMARK VINA RESULT:     -10.3      2.012      2.339
REMARK SMILES CSCC[C@H](C(=O)OCCOC(=O)c1ccc(-c2c3nc(c(-c4cc(S(=O)(=O)[O-])ccc4F)c4ccc([nH]4)c(-c4cc(S(=O)(=O)[O-])ccc4F)c4nc(c(-c5cc(S(=O)(=O)[O-])ccc5F)c5ccc2[nH]5)C=C4)C=C3)cc1)N1C(=O)/C(=C/c2cn(C)c3ccccc23)SC1=S
REMARK SMILES IDX 9 1 8 2 6 3 7 4 5 5 4 6 3 7 2 8 1 9 77 10 78 11 93 12 79 13
REMARK SMILES IDX 80 14 92 15 94 16 81 17 82 18 83 19 91 20 84 21 86 22 90 23
REMARK SMILES IDX 85 24 87 25 89 26 88 27 10 28 11 29 12 30 13 31 14 32 15 33
REMARK SMILES IDX 76 34 16 35 75 36 17 37 18 38 19 39 69 40 20 41 74 42 68 43
REMARK SMILES IDX 70 44 21 45 73 46 67 47 66 48 22 50 54 51 34 52 53 53 35 54
REMARK SMILES IDX 38 55 52 56 71 57 36 58 37 59 51 61 72 62 39 63 23 64 24 65
REMARK SMILES IDX 32 66 25 67 31 68 33 69 30 70 26 71 27 72 28 73 29 74 55 75
REMARK SMILES IDX 56 76 64 77 57 78 63 79 65 80 62 81 58 82 59 83 60 84 61 85
REMARK SMILES IDX 40 86 41 87 49 88 42 89 48 90 50 91 47 92 43 93 44 94 45 95
REMARK SMILES IDX 46 96
REMARK H PARENT 70 49 38 60
REMARK Flexibility Score: inf
ROOT
ATOM      1  C   UNL A   1      31.449  30.205  26.437  1.00  0.00     0.274 C 
ENDROOT
BRANCH   1   2
ATOM      2  O   UNL A   1      31.401  28.846  25.939  1.00  0.00    -0.461 OA
BRANCH   2   3
ATOM      3  C   UNL A   1      31.190  27.806  26.793  1.00  0.00     0.329 C 
ATOM      4  O   UNL A   1      31.098  27.963  28.003  1.00  0.00    -0.250 OA
BRANCH   3   5
ATOM      5  C   UNL A   1      31.161  26.403  26.051  1.00  0.00     0.202 C 
BRANCH   5   6
ATOM      6  C   UNL A   1      29.711  25.952  25.567  1.00  0.00     0.048 C 
BRANCH   6   7
ATOM      7  C   UNL A   1      29.021  26.422  24.229  1.00  0.00     0.072 C 
BRANCH   7   8
ATOM      8  S   UNL A   1      29.318  27.938  23.174  1.00  0.00    -0.165 SA
ATOM      9  C   UNL A   1      27.715  28.813  22.997  1.00  0.00     0.085 C 
ENDBRANCH   7   8
ENDBRANCH   6   7
ENDBRANCH   5   6
BRANCH   5  10
ATOM     10  N   UNL A   1      32.611  25.901  25.060  1.00  0.00    -0.278 N 
ATOM     11  C   UNL A   1      33.028  24.904  25.785  1.00  0.00     0.266 C 
ATOM     12  C   UNL A   1      33.507  26.955  23.599  1.00  0.00     0.149 C 
ATOM     13  O   UNL A   1      32.720  24.220  26.718  1.00  0.00    -0.268 OA
ATOM     14  C   UNL A   1      33.965  24.922  24.799  1.00  0.00     0.081 C 
ATOM     15  S   UNL A   1      34.927  26.665  23.289  1.00  0.00    -0.054 SA
ATOM     16  S   UNL A   1      33.163  28.430  22.339  1.00  0.00    -0.052 S 
ATOM     17  C   UNL A   1      34.680  23.688  25.004  1.00  0.00     0.031 C 
BRANCH  17  18
ATOM     18  C   UNL A   1      35.850  23.687  24.226  1.00  0.00     0.001 A 
ATOM     19  C   UNL A   1      37.038  22.941  24.439  1.00  0.00     0.094 A 
ATOM     20  C   UNL A   1      35.135  22.792  23.435  1.00  0.00     0.007 A 
ATOM     21  N   UNL A   1      36.802  21.608  24.850  1.00  0.00    -0.350 N 
ATOM     22  C   UNL A   1      35.425  21.445  24.855  1.00  0.00     0.048 A 
ATOM     23  C   UNL A   1      33.248  22.557  22.795  1.00  0.00     0.011 A 
ATOM     24  C   UNL A   1      37.620  20.459  24.479  1.00  0.00     0.149 C 
ATOM     25  C   UNL A   1      34.072  20.216  25.499  1.00  0.00     0.027 A 
ATOM     26  C   UNL A   1      31.974  21.123  23.219  1.00  0.00     0.001 A 
ATOM     27  C   UNL A   1      32.302  19.825  24.717  1.00  0.00     0.002 A 
ENDBRANCH  17  18
ENDBRANCH   5  10
ENDBRANCH   3   5
ENDBRANCH   2   3
ENDBRANCH   1   2
BRANCH   1  28
ATOM     28  C   UNL A   1      32.831  30.847  26.430  1.00  0.00     0.275 C 
BRANCH  28  29
ATOM     29  O   UNL A   1      33.392  30.829  27.736  1.00  0.00    -0.458 OA
BRANCH  29  30
ATOM     30  C   UNL A   1      34.228  31.869  27.965  1.00  0.00     0.338 C 
ATOM     31  O   UNL A   1      33.923  33.044  28.089  1.00  0.00    -0.246 OA
BRANCH  30  32
ATOM     32  C   UNL A   1      35.549  31.325  28.285  1.00  0.00     0.060 A 
ATOM     33  C   UNL A   1      35.623  29.953  28.539  1.00  0.00     0.016 A 
ATOM     34  C   UNL A   1      36.683  32.138  28.323  1.00  0.00     0.016 A 
ATOM     35  C   UNL A   1      36.837  29.382  28.858  1.00  0.00     0.010 A 
ATOM     36  C   UNL A   1      37.901  31.569  28.674  1.00  0.00     0.010 A 
ATOM     37  C   UNL A   1      37.966  30.198  28.974  1.00  0.00    -0.014 A 
BRANCH  37  38
ATOM     38  C   UNL A   1      39.161  29.618  29.601  1.00  0.00     0.031 A 
ATOM     39  C   UNL A   1      39.551  30.109  30.961  1.00  0.00     0.074 A 
ATOM     40  C   UNL A   1      39.799  28.601  28.999  1.00  0.00     0.049 A 
ATOM     41  N   UNL A   1      40.559  29.757  31.709  1.00  0.00    -0.248 NA
ATOM     42  C   UNL A   1      38.683  31.139  31.560  1.00  0.00     0.031 C 
ATOM     43  C   UNL A   1      39.424  28.022  27.708  1.00  0.00     0.029 A 
ATOM     44  N   UNL A   1      40.879  27.868  29.401  1.00  0.00    -0.354 N 
ATOM     45  C   UNL A   1      40.449  30.519  32.867  1.00  0.00     0.074 A 
ATOM     46  C   UNL A   1      39.309  31.390  32.699  1.00  0.00     0.031 C 
ATOM     47  C   UNL A   1      40.268  27.017  27.424  1.00  0.00     0.029 A 
ATOM     48  C   UNL A   1      41.267  26.922  28.485  1.00  0.00     0.049 A 
ATOM     49  H   UNL A   1      41.334  28.005  30.263  1.00  0.00     0.167 HD
ATOM     50  C   UNL A   1      41.228  30.473  33.973  1.00  0.00     0.034 A 
ATOM     51  C   UNL A   1      42.333  26.103  28.497  1.00  0.00     0.034 A 
ATOM     52  C   UNL A   1      42.366  29.597  34.095  1.00  0.00     0.049 A 
ATOM     53  C   UNL A   1      43.246  26.148  29.697  1.00  0.00     0.074 A 
ATOM     54  C   UNL A   1      43.253  29.476  35.149  1.00  0.00     0.029 A 
ATOM     55  N   UNL A   1      42.778  28.692  33.123  1.00  0.00    -0.354 N 
ATOM     56  N   UNL A   1      43.155  26.889  30.780  1.00  0.00    -0.248 NA
ATOM     57  C   UNL A   1      44.393  25.237  29.684  1.00  0.00     0.031 C 
ATOM     58  C   UNL A   1      44.243  28.559  34.781  1.00  0.00     0.029 A 
ATOM     59  C   UNL A   1      43.923  28.032  33.540  1.00  0.00     0.049 A 
ATOM     60  H   UNL A   1      42.321  28.541  32.263  1.00  0.00     0.167 HD
ATOM     61  C   UNL A   1      44.223  26.511  31.588  1.00  0.00     0.074 A 
ATOM     62  C   UNL A   1      44.916  25.453  30.880  1.00  0.00     0.031 C 
ATOM     63  C   UNL A   1      44.605  26.993  32.801  1.00  0.00     0.034 A 
BRANCH  50  64
ATOM     64  C   UNL A   1      40.902  31.429  35.093  1.00  0.00     0.023 A 
ATOM     65  C   UNL A   1      39.791  31.236  35.933  1.00  0.00     0.031 A 
ATOM     66  C   UNL A   1      41.695  32.570  35.305  1.00  0.00     0.131 A 
ATOM     67  C   UNL A   1      39.469  32.199  36.902  1.00  0.00     0.055 A 
ATOM     68  C   UNL A   1      41.420  33.480  36.326  1.00  0.00     0.041 A 
ATOM     69  F   UNL A   1      42.747  32.828  34.511  1.00  0.00    -0.206 F 
ATOM     70  C   UNL A   1      40.294  33.304  37.124  1.00  0.00     0.022 A 
BRANCH  67  71
ATOM     71  S   UNL A   1      37.882  32.063  37.769  1.00  0.00     0.124 S 
ATOM     72  O   UNL A   1      37.529  30.667  37.520  1.00  0.00    -0.237 OA
ATOM     73  O   UNL A   1      38.240  32.397  39.141  1.00  0.00    -0.237 OA
ATOM     74  O   UNL A   1      37.035  33.041  37.089  1.00  0.00    -0.744 OA
ENDBRANCH  67  71
ENDBRANCH  50  64
BRANCH  51  75
ATOM     75  C   UNL A   1      42.628  25.228  27.327  1.00  0.00     0.023 A 
ATOM     76  C   UNL A   1      42.126  23.921  27.244  1.00  0.00     0.031 A 
ATOM     77  C   UNL A   1      43.479  25.671  26.296  1.00  0.00     0.131 A 
ATOM     78  C   UNL A   1      42.528  23.083  26.192  1.00  0.00     0.055 A 
ATOM     79  C   UNL A   1      43.816  24.859  25.214  1.00  0.00     0.041 A 
ATOM     80  F   UNL A   1      43.996  26.911  26.326  1.00  0.00    -0.206 F 
ATOM     81  C   UNL A   1      43.355  23.550  25.167  1.00  0.00     0.022 A 
BRANCH  78  82
ATOM     82  S   UNL A   1      42.060  21.332  26.253  1.00  0.00     0.124 S 
ATOM     83  O   UNL A   1      40.631  21.398  25.969  1.00  0.00    -0.237 OA
ATOM     84  O   UNL A   1      42.897  20.758  25.205  1.00  0.00    -0.237 OA
ATOM     85  O   UNL A   1      42.410  20.934  27.615  1.00  0.00    -0.744 OA
ENDBRANCH  78  82
ENDBRANCH  51  75
BRANCH  63  86
ATOM     86  C   UNL A   1      45.809  26.339  33.438  1.00  0.00     0.023 A 
ATOM     87  C   UNL A   1      47.113  26.797  33.187  1.00  0.00     0.031 A 
ATOM     88  C   UNL A   1      45.652  25.211  34.262  1.00  0.00     0.131 A 
ATOM     89  C   UNL A   1      48.211  26.069  33.666  1.00  0.00     0.055 A 
ATOM     90  C   UNL A   1      46.748  24.548  34.815  1.00  0.00     0.041 A 
ATOM     91  F   UNL A   1      44.431  24.725  34.536  1.00  0.00    -0.206 F 
ATOM     92  C   UNL A   1      48.038  24.961  34.498  1.00  0.00     0.022 A 
BRANCH  89  93
ATOM     93  S   UNL A   1      49.862  26.494  33.046  1.00  0.00     0.124 S 
ATOM     94  O   UNL A   1      49.987  25.605  31.895  1.00  0.00    -0.237 OA
ATOM     95  O   UNL A   1      49.726  27.914  32.742  1.00  0.00    -0.237 OA
ATOM     96  O   UNL A   1      50.741  26.181  34.171  1.00  0.00    -0.744 OA
ENDBRANCH  89  93
ENDBRANCH  63  86
ENDBRANCH  37  38
ENDBRANCH  30  32
ENDBRANCH  29  30
ENDBRANCH  28  29
ENDBRANCH   1  28
TORSDOF 19
ENDMDL
