MODEL 1
REMARK VINA RESULT:     -12.7      0.000      0.000
REMARK SMILES O=C(Nc1ccccc1C(=O)OCCOC(=O)c1ccc(-c2c3nc(c(-c4cc(S(=O)(=O)[O-])ccc4F)c4ccc([nH]4)c(-c4cc(S(=O)(=O)[O-])ccc4F)c4nc(c(-c5cc(S(=O)(=O)[O-])ccc5F)c5ccc2[nH]5)C=C4)C=C3)cc1)c1ccc2c(c1)C(=O)N(Cc1ccccc1)C2=O
REMARK SMILES IDX 13 1 12 2 10 3 11 4 9 5 4 6 5 7 6 8 8 9 7 10 3 11 1 12 2 13
REMARK SMILES IDX 81 15 82 16 86 17 83 18 85 19 84 20 87 21 97 22 88 23 89 24
REMARK SMILES IDX 98 25 90 26 91 27 92 28 96 29 93 30 95 31 94 32 14 33 15 34
REMARK SMILES IDX 16 35 17 36 18 37 19 38 80 39 20 40 79 41 21 42 22 43 23 44
REMARK SMILES IDX 73 45 24 46 78 47 72 48 74 49 25 50 77 51 71 52 70 53 26 55
REMARK SMILES IDX 58 56 38 57 57 58 39 59 42 60 56 61 75 62 40 63 41 64 55 66
REMARK SMILES IDX 76 67 43 68 27 69 28 70 36 71 29 72 35 73 37 74 34 75 30 76
REMARK SMILES IDX 31 77 32 78 33 79 59 80 60 81 68 82 61 83 67 84 69 85 66 86
REMARK SMILES IDX 62 87 63 88 64 89 65 90 44 91 45 92 53 93 46 94 52 95 54 96
REMARK SMILES IDX 51 97 47 98 48 99 49 100 50 101
REMARK H PARENT 3 14 74 54 42 65
REMARK Flexibility Score: inf
ROOT
ATOM      1  C   UNL A   1      37.322  23.244  24.479  1.00  0.00     0.275 C 
ENDROOT
BRANCH   1   2
ATOM      2  O   UNL A   1      36.160  23.273  23.618  1.00  0.00    -0.458 OA
BRANCH   2   3
ATOM      3  C   UNL A   1      34.957  23.411  24.230  1.00  0.00     0.340 C 
ATOM      4  O   UNL A   1      34.632  24.291  25.011  1.00  0.00    -0.246 OA
BRANCH   3   5
ATOM      5  C   UNL A   1      34.018  22.354  23.810  1.00  0.00     0.083 A 
ATOM      6  C   UNL A   1      33.076  22.480  22.779  1.00  0.00     0.056 A 
ATOM      7  C   UNL A   1      32.126  21.445  22.630  1.00  0.00     0.027 A 
ATOM      8  C   UNL A   1      32.178  20.273  23.386  1.00  0.00     0.002 A 
ATOM      9  C   UNL A   1      34.055  21.169  24.573  1.00  0.00     0.018 A 
ATOM     10  C   UNL A   1      33.164  20.123  24.345  1.00  0.00     0.001 A 
BRANCH   6  11
ATOM     11  N   UNL A   1      32.899  23.531  21.856  1.00  0.00    -0.321 N 
ATOM     12  O   UNL A   1      32.260  25.432  20.848  1.00  0.00    -0.269 OA
ATOM     13  C   UNL A   1      32.392  24.802  21.898  1.00  0.00     0.255 C 
ATOM     14  H   UNL A   1      33.220  23.292  20.957  1.00  0.00     0.170 HD
BRANCH  13  15
ATOM     15  C   UNL A   1      32.057  25.508  23.139  1.00  0.00     0.041 A 
ATOM     16  C   UNL A   1      31.287  24.923  24.169  1.00  0.00     0.015 A 
ATOM     17  C   UNL A   1      32.670  26.746  23.322  1.00  0.00     0.028 A 
ATOM     18  C   UNL A   1      31.076  25.616  25.378  1.00  0.00     0.015 A 
ATOM     19  C   UNL A   1      32.353  27.444  24.468  1.00  0.00     0.054 A 
ATOM     20  C   UNL A   1      31.597  26.897  25.484  1.00  0.00     0.053 A 
ATOM     21  C   UNL A   1      32.706  28.810  24.836  1.00  0.00     0.261 C 
ATOM     22  C   UNL A   1      31.572  27.889  26.565  1.00  0.00     0.261 C 
ATOM     23  O   UNL A   1      33.381  29.538  24.144  1.00  0.00    -0.269 OA
ATOM     24  N   UNL A   1      32.170  29.022  26.077  1.00  0.00    -0.270 N 
ATOM     25  O   UNL A   1      31.188  27.649  27.696  1.00  0.00    -0.269 OA
BRANCH  24  26
ATOM     26  C   UNL A   1      32.470  30.200  26.862  1.00  0.00     0.164 C 
BRANCH  26  27
ATOM     27  C   UNL A   1      33.881  30.345  27.397  1.00  0.00    -0.028 A 
ATOM     28  C   UNL A   1      34.828  29.312  27.421  1.00  0.00     0.005 A 
ATOM     29  C   UNL A   1      34.272  31.616  27.863  1.00  0.00     0.005 A 
ATOM     30  C   UNL A   1      36.121  29.545  27.907  1.00  0.00     0.000 A 
ATOM     31  C   UNL A   1      35.562  31.847  28.346  1.00  0.00     0.000 A 
ATOM     32  C   UNL A   1      36.488  30.810  28.368  1.00  0.00     0.000 A 
ENDBRANCH  26  27
ENDBRANCH  24  26
ENDBRANCH  13  15
ENDBRANCH   6  11
ENDBRANCH   3   5
ENDBRANCH   2   3
ENDBRANCH   1   2
BRANCH   1  33
ATOM     33  C   UNL A   1      37.782  21.876  24.974  1.00  0.00     0.275 C 
BRANCH  33  34
ATOM     34  O   UNL A   1      38.173  21.917  26.353  1.00  0.00    -0.458 OA
BRANCH  34  35
ATOM     35  C   UNL A   1      39.506  22.020  26.513  1.00  0.00     0.338 C 
ATOM     36  O   UNL A   1      40.365  21.284  26.056  1.00  0.00    -0.246 OA
BRANCH  35  37
ATOM     37  C   UNL A   1      39.851  23.231  27.258  1.00  0.00     0.060 A 
ATOM     38  C   UNL A   1      39.128  24.379  26.957  1.00  0.00     0.016 A 
ATOM     39  C   UNL A   1      41.047  23.304  27.965  1.00  0.00     0.016 A 
ATOM     40  C   UNL A   1      39.688  25.623  27.176  1.00  0.00     0.010 A 
ATOM     41  C   UNL A   1      41.555  24.561  28.295  1.00  0.00     0.010 A 
ATOM     42  C   UNL A   1      40.919  25.728  27.831  1.00  0.00    -0.014 A 
BRANCH  42  43
ATOM     43  C   UNL A   1      41.594  27.047  27.914  1.00  0.00     0.031 A 
ATOM     44  C   UNL A   1      42.905  27.245  27.202  1.00  0.00     0.074 A 
ATOM     45  C   UNL A   1      41.014  28.066  28.575  1.00  0.00     0.049 A 
ATOM     46  N   UNL A   1      43.778  28.209  27.324  1.00  0.00    -0.248 NA
ATOM     47  C   UNL A   1      43.291  26.203  26.237  1.00  0.00     0.031 C 
ATOM     48  C   UNL A   1      39.695  28.023  29.213  1.00  0.00     0.029 A 
ATOM     49  N   UNL A   1      41.455  29.341  28.814  1.00  0.00    -0.354 N 
ATOM     50  C   UNL A   1      44.850  27.855  26.508  1.00  0.00     0.074 A 
ATOM     51  C   UNL A   1      44.514  26.585  25.899  1.00  0.00     0.031 C 
ATOM     52  C   UNL A   1      39.426  29.221  29.748  1.00  0.00     0.029 A 
ATOM     53  C   UNL A   1      40.594  30.077  29.593  1.00  0.00     0.049 A 
ATOM     54  H   UNL A   1      42.304  29.695  28.464  1.00  0.00     0.167 HD
ATOM     55  C   UNL A   1      46.007  28.531  26.302  1.00  0.00     0.034 A 
ATOM     56  C   UNL A   1      40.758  31.278  30.180  1.00  0.00     0.034 A 
ATOM     57  C   UNL A   1      46.281  29.819  26.896  1.00  0.00     0.049 A 
ATOM     58  C   UNL A   1      42.073  31.984  29.993  1.00  0.00     0.074 A 
ATOM     59  C   UNL A   1      47.411  30.607  26.776  1.00  0.00     0.029 A 
ATOM     60  N   UNL A   1      45.400  30.515  27.718  1.00  0.00    -0.354 N 
ATOM     61  N   UNL A   1      43.125  31.601  29.305  1.00  0.00    -0.248 NA
ATOM     62  C   UNL A   1      42.230  33.274  30.671  1.00  0.00     0.031 C 
ATOM     63  C   UNL A   1      47.239  31.746  27.570  1.00  0.00     0.029 A 
ATOM     64  C   UNL A   1      45.970  31.710  28.128  1.00  0.00     0.049 A 
ATOM     65  H   UNL A   1      44.501  30.203  27.972  1.00  0.00     0.167 HD
ATOM     66  C   UNL A   1      44.066  32.614  29.456  1.00  0.00     0.074 A 
ATOM     67  C   UNL A   1      43.445  33.631  30.283  1.00  0.00     0.031 C 
ATOM     68  C   UNL A   1      45.329  32.698  28.964  1.00  0.00     0.034 A 
BRANCH  55  69
ATOM     69  C   UNL A   1      47.077  27.854  25.476  1.00  0.00     0.023 A 
ATOM     70  C   UNL A   1      47.332  28.204  24.139  1.00  0.00     0.031 A 
ATOM     71  C   UNL A   1      47.825  26.798  26.030  1.00  0.00     0.131 A 
ATOM     72  C   UNL A   1      48.251  27.458  23.381  1.00  0.00     0.055 A 
ATOM     73  C   UNL A   1      48.796  26.113  25.296  1.00  0.00     0.041 A 
ATOM     74  F   UNL A   1      47.612  26.399  27.294  1.00  0.00    -0.206 F 
ATOM     75  C   UNL A   1      49.002  26.431  23.959  1.00  0.00     0.022 A 
BRANCH  72  76
ATOM     76  S   UNL A   1      48.341  27.747  21.592  1.00  0.00     0.124 S 
ATOM     77  O   UNL A   1      46.998  28.246  21.306  1.00  0.00    -0.237 OA
ATOM     78  O   UNL A   1      49.421  28.723  21.485  1.00  0.00    -0.237 OA
ATOM     79  O   UNL A   1      48.637  26.425  21.044  1.00  0.00    -0.744 OA
ENDBRANCH  72  76
ENDBRANCH  55  69
BRANCH  56  80
ATOM     80  C   UNL A   1      39.691  31.837  31.058  1.00  0.00     0.023 A 
ATOM     81  C   UNL A   1      39.646  31.531  32.426  1.00  0.00     0.031 A 
ATOM     82  C   UNL A   1      38.690  32.678  30.536  1.00  0.00     0.131 A 
ATOM     83  C   UNL A   1      38.605  32.038  33.220  1.00  0.00     0.055 A 
ATOM     84  C   UNL A   1      37.691  33.227  31.342  1.00  0.00     0.041 A 
ATOM     85  F   UNL A   1      38.685  33.001  29.233  1.00  0.00    -0.206 F 
ATOM     86  C   UNL A   1      37.639  32.898  32.692  1.00  0.00     0.022 A 
BRANCH  83  87
ATOM     87  S   UNL A   1      38.491  31.498  34.948  1.00  0.00     0.124 S 
ATOM     88  O   UNL A   1      39.670  32.128  35.533  1.00  0.00    -0.237 OA
ATOM     89  O   UNL A   1      37.202  32.049  35.353  1.00  0.00    -0.237 OA
ATOM     90  O   UNL A   1      38.544  30.041  34.853  1.00  0.00    -0.744 OA
ENDBRANCH  83  87
ENDBRANCH  56  80
BRANCH  68  91
ATOM     91  C   UNL A   1      46.088  33.961  29.278  1.00  0.00     0.023 A 
ATOM     92  C   UNL A   1      45.989  35.103  28.464  1.00  0.00     0.031 A 
ATOM     93  C   UNL A   1      46.941  34.010  30.394  1.00  0.00     0.131 A 
ATOM     94  C   UNL A   1      46.780  36.226  28.745  1.00  0.00     0.055 A 
ATOM     95  C   UNL A   1      47.679  35.152  30.703  1.00  0.00     0.041 A 
ATOM     96  F   UNL A   1      47.074  32.945  31.202  1.00  0.00    -0.206 F 
ATOM     97  C   UNL A   1      47.611  36.265  29.867  1.00  0.00     0.022 A 
BRANCH  94  98
ATOM     98  S   UNL A   1      46.784  37.601  27.563  1.00  0.00     0.124 S 
ATOM     99  O   UNL A   1      46.923  36.904  26.288  1.00  0.00    -0.237 OA
ATOM    100  O   UNL A   1      45.490  38.229  27.809  1.00  0.00    -0.237 OA
ATOM    101  O   UNL A   1      47.944  38.395  27.965  1.00  0.00    -0.744 OA
ENDBRANCH  94  98
ENDBRANCH  68  91
ENDBRANCH  42  43
ENDBRANCH  35  37
ENDBRANCH  34  35
ENDBRANCH  33  34
ENDBRANCH   1  33
TORSDOF 18
ENDMDL
MODEL 2
REMARK VINA RESULT:     -12.5      4.781     10.503
REMARK SMILES O=C(Nc1ccccc1C(=O)OCCOC(=O)c1ccc(-c2c3nc(c(-c4cc(S(=O)(=O)[O-])ccc4F)c4ccc([nH]4)c(-c4cc(S(=O)(=O)[O-])ccc4F)c4nc(c(-c5cc(S(=O)(=O)[O-])ccc5F)c5ccc2[nH]5)C=C4)C=C3)cc1)c1ccc2c(c1)C(=O)N(Cc1ccccc1)C2=O
REMARK SMILES IDX 13 1 12 2 10 3 11 4 9 5 4 6 5 7 6 8 8 9 7 10 3 11 1 12 2 13
REMARK SMILES IDX 81 15 82 16 86 17 83 18 85 19 84 20 87 21 97 22 88 23 89 24
REMARK SMILES IDX 98 25 90 26 91 27 92 28 96 29 93 30 95 31 94 32 14 33 15 34
REMARK SMILES IDX 16 35 17 36 18 37 19 38 80 39 20 40 79 41 21 42 22 43 23 44
REMARK SMILES IDX 73 45 24 46 78 47 72 48 74 49 25 50 77 51 71 52 70 53 26 55
REMARK SMILES IDX 58 56 38 57 57 58 39 59 42 60 56 61 75 62 40 63 41 64 55 66
REMARK SMILES IDX 76 67 43 68 27 69 28 70 36 71 29 72 35 73 37 74 34 75 30 76
REMARK SMILES IDX 31 77 32 78 33 79 59 80 60 81 68 82 61 83 67 84 69 85 66 86
REMARK SMILES IDX 62 87 63 88 64 89 65 90 44 91 45 92 53 93 46 94 52 95 54 96
REMARK SMILES IDX 51 97 47 98 48 99 49 100 50 101
REMARK H PARENT 3 14 74 54 42 65
REMARK Flexibility Score: inf
ROOT
ATOM      1  C   UNL A   1      31.677  30.853  26.154  1.00  0.00     0.275 C 
ENDROOT
BRANCH   1   2
ATOM      2  O   UNL A   1      32.883  30.183  25.723  1.00  0.00    -0.458 OA
BRANCH   2   3
ATOM      3  C   UNL A   1      32.831  28.829  25.651  1.00  0.00     0.340 C 
ATOM      4  O   UNL A   1      32.718  28.052  26.585  1.00  0.00    -0.246 OA
BRANCH   3   5
ATOM      5  C   UNL A   1      32.894  28.365  24.252  1.00  0.00     0.083 A 
ATOM      6  C   UNL A   1      31.954  27.522  23.641  1.00  0.00     0.056 A 
ATOM      7  C   UNL A   1      32.261  27.019  22.358  1.00  0.00     0.027 A 
ATOM      8  C   UNL A   1      33.394  27.429  21.650  1.00  0.00     0.002 A 
ATOM      9  C   UNL A   1      34.039  28.764  23.530  1.00  0.00     0.018 A 
ATOM     10  C   UNL A   1      34.273  28.326  22.229  1.00  0.00     0.001 A 
BRANCH   6  11
ATOM     11  N   UNL A   1      30.721  27.053  24.140  1.00  0.00    -0.321 N 
ATOM     12  O   UNL A   1      29.077  25.768  24.965  1.00  0.00    -0.269 OA
ATOM     13  C   UNL A   1      30.285  25.924  24.777  1.00  0.00     0.255 C 
ATOM     14  H   UNL A   1      29.993  27.699  23.991  1.00  0.00     0.170 HD
BRANCH  13  15
ATOM     15  C   UNL A   1      31.176  24.900  25.333  1.00  0.00     0.041 A 
ATOM     16  C   UNL A   1      31.342  24.701  26.721  1.00  0.00     0.015 A 
ATOM     17  C   UNL A   1      31.744  24.020  24.413  1.00  0.00     0.028 A 
ATOM     18  C   UNL A   1      32.140  23.641  27.195  1.00  0.00     0.015 A 
ATOM     19  C   UNL A   1      32.606  23.065  24.904  1.00  0.00     0.054 A 
ATOM     20  C   UNL A   1      32.790  22.856  26.256  1.00  0.00     0.053 A 
ATOM     21  C   UNL A   1      33.460  22.136  24.171  1.00  0.00     0.261 C 
ATOM     22  C   UNL A   1      33.682  21.698  26.381  1.00  0.00     0.261 C 
ATOM     23  O   UNL A   1      33.502  22.075  22.964  1.00  0.00    -0.269 OA
ATOM     24  N   UNL A   1      34.104  21.383  25.115  1.00  0.00    -0.270 N 
ATOM     25  O   UNL A   1      33.874  21.100  27.425  1.00  0.00    -0.269 OA
BRANCH  24  26
ATOM     26  C   UNL A   1      34.896  20.221  24.773  1.00  0.00     0.164 C 
BRANCH  26  27
ATOM     27  C   UNL A   1      34.194  18.878  24.749  1.00  0.00    -0.028 A 
ATOM     28  C   UNL A   1      32.837  18.688  25.048  1.00  0.00     0.005 A 
ATOM     29  C   UNL A   1      34.952  17.756  24.359  1.00  0.00     0.005 A 
ATOM     30  C   UNL A   1      32.265  17.412  24.970  1.00  0.00     0.000 A 
ATOM     31  C   UNL A   1      34.379  16.485  24.280  1.00  0.00     0.000 A 
ATOM     32  C   UNL A   1      33.033  16.313  24.586  1.00  0.00     0.000 A 
ENDBRANCH  26  27
ENDBRANCH  24  26
ENDBRANCH  13  15
ENDBRANCH   6  11
ENDBRANCH   3   5
ENDBRANCH   2   3
ENDBRANCH   1   2
BRANCH   1  33
ATOM     33  C   UNL A   1      31.839  32.232  26.786  1.00  0.00     0.275 C 
BRANCH  33  34
ATOM     34  O   UNL A   1      32.691  32.189  27.939  1.00  0.00    -0.458 OA
BRANCH  34  35
ATOM     35  C   UNL A   1      33.708  33.069  27.866  1.00  0.00     0.338 C 
ATOM     36  O   UNL A   1      33.630  34.284  27.787  1.00  0.00    -0.246 OA
BRANCH  35  37
ATOM     37  C   UNL A   1      34.997  32.391  27.994  1.00  0.00     0.060 A 
ATOM     38  C   UNL A   1      34.964  31.011  28.167  1.00  0.00     0.016 A 
ATOM     39  C   UNL A   1      36.151  33.119  28.269  1.00  0.00     0.016 A 
ATOM     40  C   UNL A   1      36.010  30.372  28.807  1.00  0.00     0.010 A 
ATOM     41  C   UNL A   1      37.253  32.450  28.805  1.00  0.00     0.010 A 
ATOM     42  C   UNL A   1      37.159  31.089  29.151  1.00  0.00    -0.014 A 
BRANCH  42  43
ATOM     43  C   UNL A   1      38.203  30.443  29.984  1.00  0.00     0.031 A 
ATOM     44  C   UNL A   1      38.355  30.859  31.423  1.00  0.00     0.074 A 
ATOM     45  C   UNL A   1      38.969  29.462  29.472  1.00  0.00     0.049 A 
ATOM     46  N   UNL A   1      39.327  30.614  32.259  1.00  0.00    -0.248 NA
ATOM     47  C   UNL A   1      37.270  31.679  31.986  1.00  0.00     0.031 C 
ATOM     48  C   UNL A   1      38.841  28.901  28.124  1.00  0.00     0.029 A 
ATOM     49  N   UNL A   1      40.003  28.754  30.027  1.00  0.00    -0.354 N 
ATOM     50  C   UNL A   1      39.010  31.309  33.424  1.00  0.00     0.074 A 
ATOM     51  C   UNL A   1      37.753  31.985  33.180  1.00  0.00     0.031 C 
ATOM     52  C   UNL A   1      39.743  27.923  27.966  1.00  0.00     0.029 A 
ATOM     53  C   UNL A   1      40.585  27.866  29.153  1.00  0.00     0.049 A 
ATOM     54  H   UNL A   1      40.300  28.870  30.958  1.00  0.00     0.167 HD
ATOM     55  C   UNL A   1      39.715  31.376  34.579  1.00  0.00     0.034 A 
ATOM     56  C   UNL A   1      41.714  27.142  29.269  1.00  0.00     0.034 A 
ATOM     57  C   UNL A   1      40.943  30.647  34.794  1.00  0.00     0.049 A 
ATOM     58  C   UNL A   1      42.518  27.279  30.533  1.00  0.00     0.074 A 
ATOM     59  C   UNL A   1      41.759  30.631  35.912  1.00  0.00     0.029 A 
ATOM     60  N   UNL A   1      41.527  29.790  33.867  1.00  0.00    -0.354 N 
ATOM     61  N   UNL A   1      42.270  28.016  31.593  1.00  0.00    -0.248 NA
ATOM     62  C   UNL A   1      43.758  26.502  30.612  1.00  0.00     0.031 C 
ATOM     63  C   UNL A   1      42.862  29.814  35.638  1.00  0.00     0.029 A 
ATOM     64  C   UNL A   1      42.700  29.258  34.378  1.00  0.00     0.049 A 
ATOM     65  H   UNL A   1      41.160  29.590  32.975  1.00  0.00     0.167 HD
ATOM     66  C   UNL A   1      43.320  27.778  32.473  1.00  0.00     0.074 A 
ATOM     67  C   UNL A   1      44.188  26.813  31.826  1.00  0.00     0.031 C 
ATOM     68  C   UNL A   1      43.551  28.307  33.702  1.00  0.00     0.034 A 
BRANCH  55  69
ATOM     69  C   UNL A   1      39.221  32.324  35.648  1.00  0.00     0.023 A 
ATOM     70  C   UNL A   1      39.652  33.659  35.732  1.00  0.00     0.031 A 
ATOM     71  C   UNL A   1      38.331  31.862  36.636  1.00  0.00     0.131 A 
ATOM     72  C   UNL A   1      39.257  34.458  36.819  1.00  0.00     0.055 A 
ATOM     73  C   UNL A   1      37.876  32.685  37.668  1.00  0.00     0.041 A 
ATOM     74  F   UNL A   1      37.900  30.590  36.627  1.00  0.00    -0.206 F 
ATOM     75  C   UNL A   1      38.351  33.987  37.773  1.00  0.00     0.022 A 
BRANCH  72  76
ATOM     76  S   UNL A   1      40.058  36.069  37.051  1.00  0.00     0.124 S 
ATOM     77  O   UNL A   1      41.420  35.673  37.401  1.00  0.00    -0.237 OA
ATOM     78  O   UNL A   1      39.891  36.696  35.744  1.00  0.00    -0.237 OA
ATOM     79  O   UNL A   1      39.295  36.679  38.138  1.00  0.00    -0.744 OA
ENDBRANCH  72  76
ENDBRANCH  55  69
BRANCH  56  80
ATOM     80  C   UNL A   1      42.187  26.302  28.132  1.00  0.00     0.023 A 
ATOM     81  C   UNL A   1      41.768  24.971  27.991  1.00  0.00     0.031 A 
ATOM     82  C   UNL A   1      43.079  26.818  27.172  1.00  0.00     0.131 A 
ATOM     83  C   UNL A   1      42.263  24.192  26.933  1.00  0.00     0.055 A 
ATOM     84  C   UNL A   1      43.523  26.057  26.090  1.00  0.00     0.041 A 
ATOM     85  F   UNL A   1      43.514  28.086  27.260  1.00  0.00    -0.206 F 
ATOM     86  C   UNL A   1      43.122  24.731  25.973  1.00  0.00     0.022 A 
BRANCH  83  87
ATOM     87  S   UNL A   1      41.821  22.435  26.871  1.00  0.00     0.124 S 
ATOM     88  O   UNL A   1      41.909  22.157  25.442  1.00  0.00    -0.237 OA
ATOM     89  O   UNL A   1      42.854  21.832  27.707  1.00  0.00    -0.237 OA
ATOM     90  O   UNL A   1      40.471  22.403  27.430  1.00  0.00    -0.744 OA
ENDBRANCH  83  87
ENDBRANCH  56  80
BRANCH  68  91
ATOM     91  C   UNL A   1      44.773  27.806  34.429  1.00  0.00     0.023 A 
ATOM     92  C   UNL A   1      44.722  26.678  35.265  1.00  0.00     0.031 A 
ATOM     93  C   UNL A   1      45.997  28.486  34.300  1.00  0.00     0.131 A 
ATOM     94  C   UNL A   1      45.860  26.299  35.990  1.00  0.00     0.055 A 
ATOM     95  C   UNL A   1      47.142  28.066  34.976  1.00  0.00     0.041 A 
ATOM     96  F   UNL A   1      46.097  29.572  33.516  1.00  0.00    -0.206 F 
ATOM     97  C   UNL A   1      47.074  26.975  35.839  1.00  0.00     0.022 A 
BRANCH  94  98
ATOM     98  S   UNL A   1      45.707  24.969  37.213  1.00  0.00     0.124 S 
ATOM     99  O   UNL A   1      45.929  23.779  36.396  1.00  0.00    -0.237 OA
ATOM    100  O   UNL A   1      46.764  25.295  38.164  1.00  0.00    -0.237 OA
ATOM    101  O   UNL A   1      44.346  25.127  37.722  1.00  0.00    -0.744 OA
ENDBRANCH  94  98
ENDBRANCH  68  91
ENDBRANCH  42  43
ENDBRANCH  35  37
ENDBRANCH  34  35
ENDBRANCH  33  34
ENDBRANCH   1  33
TORSDOF 18
ENDMDL
MODEL 3
REMARK VINA RESULT:     -12.0      4.614      8.718
REMARK SMILES O=C(Nc1ccccc1C(=O)OCCOC(=O)c1ccc(-c2c3nc(c(-c4cc(S(=O)(=O)[O-])ccc4F)c4ccc([nH]4)c(-c4cc(S(=O)(=O)[O-])ccc4F)c4nc(c(-c5cc(S(=O)(=O)[O-])ccc5F)c5ccc2[nH]5)C=C4)C=C3)cc1)c1ccc2c(c1)C(=O)N(Cc1ccccc1)C2=O
REMARK SMILES IDX 13 1 12 2 10 3 11 4 9 5 4 6 5 7 6 8 8 9 7 10 3 11 1 12 2 13
REMARK SMILES IDX 81 15 82 16 86 17 83 18 85 19 84 20 87 21 97 22 88 23 89 24
REMARK SMILES IDX 98 25 90 26 91 27 92 28 96 29 93 30 95 31 94 32 14 33 15 34
REMARK SMILES IDX 16 35 17 36 18 37 19 38 80 39 20 40 79 41 21 42 22 43 23 44
REMARK SMILES IDX 73 45 24 46 78 47 72 48 74 49 25 50 77 51 71 52 70 53 26 55
REMARK SMILES IDX 58 56 38 57 57 58 39 59 42 60 56 61 75 62 40 63 41 64 55 66
REMARK SMILES IDX 76 67 43 68 27 69 28 70 36 71 29 72 35 73 37 74 34 75 30 76
REMARK SMILES IDX 31 77 32 78 33 79 59 80 60 81 68 82 61 83 67 84 69 85 66 86
REMARK SMILES IDX 62 87 63 88 64 89 65 90 44 91 45 92 53 93 46 94 52 95 54 96
REMARK SMILES IDX 51 97 47 98 48 99 49 100 50 101
REMARK H PARENT 3 14 74 54 42 65
REMARK Flexibility Score: inf
ROOT
ATOM      1  C   UNL A   1      32.899  30.839  26.210  1.00  0.00     0.275 C 
ENDROOT
BRANCH   1   2
ATOM      2  O   UNL A   1      32.843  29.405  26.032  1.00  0.00    -0.458 OA
BRANCH   2   3
ATOM      3  C   UNL A   1      32.996  28.946  24.764  1.00  0.00     0.340 C 
ATOM      4  O   UNL A   1      34.008  28.466  24.279  1.00  0.00    -0.246 OA
BRANCH   3   5
ATOM      5  C   UNL A   1      31.741  29.061  23.997  1.00  0.00     0.083 A 
ATOM      6  C   UNL A   1      31.549  28.583  22.693  1.00  0.00     0.056 A 
ATOM      7  C   UNL A   1      30.353  28.941  22.033  1.00  0.00     0.027 A 
ATOM      8  C   UNL A   1      29.329  29.641  22.677  1.00  0.00     0.002 A 
ATOM      9  C   UNL A   1      30.704  29.774  24.633  1.00  0.00     0.018 A 
ATOM     10  C   UNL A   1      29.495  30.036  23.992  1.00  0.00     0.001 A 
BRANCH   6  11
ATOM     11  N   UNL A   1      32.409  27.800  21.895  1.00  0.00    -0.321 N 
ATOM     12  O   UNL A   1      33.779  26.194  21.135  1.00  0.00    -0.269 OA
ATOM     13  C   UNL A   1      32.925  26.534  21.955  1.00  0.00     0.255 C 
ATOM     14  H   UNL A   1      32.714  28.286  21.095  1.00  0.00     0.170 HD
BRANCH  13  15
ATOM     15  C   UNL A   1      32.468  25.508  22.898  1.00  0.00     0.041 A 
ATOM     16  C   UNL A   1      31.205  25.555  23.529  1.00  0.00     0.015 A 
ATOM     17  C   UNL A   1      33.289  24.389  23.028  1.00  0.00     0.028 A 
ATOM     18  C   UNL A   1      30.784  24.493  24.353  1.00  0.00     0.015 A 
ATOM     19  C   UNL A   1      32.897  23.421  23.927  1.00  0.00     0.054 A 
ATOM     20  C   UNL A   1      31.672  23.449  24.560  1.00  0.00     0.053 A 
ATOM     21  C   UNL A   1      33.629  22.245  24.385  1.00  0.00     0.261 C 
ATOM     22  C   UNL A   1      31.578  22.210  25.340  1.00  0.00     0.261 C 
ATOM     23  O   UNL A   1      34.733  21.947  23.991  1.00  0.00    -0.269 OA
ATOM     24  N   UNL A   1      32.800  21.595  25.258  1.00  0.00    -0.270 N 
ATOM     25  O   UNL A   1      30.544  21.801  25.841  1.00  0.00    -0.269 OA
BRANCH  24  26
ATOM     26  C   UNL A   1      33.099  20.278  25.778  1.00  0.00     0.164 C 
BRANCH  26  27
ATOM     27  C   UNL A   1      33.258  19.150  24.779  1.00  0.00    -0.028 A 
ATOM     28  C   UNL A   1      32.335  18.854  23.766  1.00  0.00     0.005 A 
ATOM     29  C   UNL A   1      34.434  18.377  24.853  1.00  0.00     0.005 A 
ATOM     30  C   UNL A   1      32.580  17.808  22.866  1.00  0.00     0.000 A 
ATOM     31  C   UNL A   1      34.677  17.336  23.954  1.00  0.00     0.000 A 
ATOM     32  C   UNL A   1      33.748  17.051  22.959  1.00  0.00     0.000 A 
ENDBRANCH  26  27
ENDBRANCH  24  26
ENDBRANCH  13  15
ENDBRANCH   6  11
ENDBRANCH   3   5
ENDBRANCH   2   3
ENDBRANCH   1   2
BRANCH   1  33
ATOM     33  C   UNL A   1      33.421  31.350  27.549  1.00  0.00     0.275 C 
BRANCH  33  34
ATOM     34  O   UNL A   1      34.090  32.610  27.411  1.00  0.00    -0.458 OA
BRANCH  34  35
ATOM     35  C   UNL A   1      33.705  33.508  28.337  1.00  0.00     0.338 C 
ATOM     36  O   UNL A   1      32.674  34.161  28.350  1.00  0.00    -0.246 OA
BRANCH  35  37
ATOM     37  C   UNL A   1      34.659  33.561  29.444  1.00  0.00     0.060 A 
ATOM     38  C   UNL A   1      35.864  34.213  29.201  1.00  0.00     0.016 A 
ATOM     39  C   UNL A   1      34.509  32.721  30.543  1.00  0.00     0.016 A 
ATOM     40  C   UNL A   1      36.988  33.875  29.931  1.00  0.00     0.010 A 
ATOM     41  C   UNL A   1      35.618  32.475  31.354  1.00  0.00     0.010 A 
ATOM     42  C   UNL A   1      36.882  32.987  31.005  1.00  0.00    -0.014 A 
BRANCH  42  43
ATOM     43  C   UNL A   1      38.112  32.499  31.676  1.00  0.00     0.031 A 
ATOM     44  C   UNL A   1      38.949  31.447  30.999  1.00  0.00     0.074 A 
ATOM     45  C   UNL A   1      38.500  33.029  32.850  1.00  0.00     0.049 A 
ATOM     46  N   UNL A   1      39.911  30.711  31.486  1.00  0.00    -0.248 NA
ATOM     47  C   UNL A   1      38.642  31.175  29.585  1.00  0.00     0.031 C 
ATOM     48  C   UNL A   1      37.827  34.128  33.549  1.00  0.00     0.029 A 
ATOM     49  N   UNL A   1      39.559  32.721  33.663  1.00  0.00    -0.354 N 
ATOM     50  C   UNL A   1      40.277  29.839  30.464  1.00  0.00     0.074 A 
ATOM     51  C   UNL A   1      39.428  30.140  29.331  1.00  0.00     0.031 C 
ATOM     52  C   UNL A   1      38.503  34.417  34.670  1.00  0.00     0.029 A 
ATOM     53  C   UNL A   1      39.583  33.453  34.827  1.00  0.00     0.049 A 
ATOM     54  H   UNL A   1      40.236  32.043  33.437  1.00  0.00     0.167 HD
ATOM     55  C   UNL A   1      41.229  28.874  30.486  1.00  0.00     0.034 A 
ATOM     56  C   UNL A   1      40.343  33.313  35.930  1.00  0.00     0.034 A 
ATOM     57  C   UNL A   1      42.085  28.639  31.625  1.00  0.00     0.049 A 
ATOM     58  C   UNL A   1      41.350  32.196  35.960  1.00  0.00     0.074 A 
ATOM     59  C   UNL A   1      43.082  27.693  31.781  1.00  0.00     0.029 A 
ATOM     60  N   UNL A   1      42.050  29.374  32.806  1.00  0.00    -0.354 N 
ATOM     61  N   UNL A   1      41.624  31.307  35.032  1.00  0.00    -0.248 NA
ATOM     62  C   UNL A   1      42.137  32.052  37.188  1.00  0.00     0.031 C 
ATOM     63  C   UNL A   1      43.606  27.816  33.072  1.00  0.00     0.029 A 
ATOM     64  C   UNL A   1      42.991  28.888  33.700  1.00  0.00     0.049 A 
ATOM     65  H   UNL A   1      41.443  30.129  32.982  1.00  0.00     0.167 HD
ATOM     66  C   UNL A   1      42.630  30.505  35.561  1.00  0.00     0.074 A 
ATOM     67  C   UNL A   1      42.925  31.034  36.879  1.00  0.00     0.031 C 
ATOM     68  C   UNL A   1      43.252  29.429  35.014  1.00  0.00     0.034 A 
BRANCH  55  69
ATOM     69  C   UNL A   1      41.329  27.962  29.285  1.00  0.00     0.023 A 
ATOM     70  C   UNL A   1      42.301  28.135  28.284  1.00  0.00     0.031 A 
ATOM     71  C   UNL A   1      40.394  26.923  29.114  1.00  0.00     0.131 A 
ATOM     72  C   UNL A   1      42.269  27.336  27.128  1.00  0.00     0.055 A 
ATOM     73  C   UNL A   1      40.418  26.079  28.002  1.00  0.00     0.041 A 
ATOM     74  F   UNL A   1      39.425  26.721  30.021  1.00  0.00    -0.206 F 
ATOM     75  C   UNL A   1      41.349  26.293  26.992  1.00  0.00     0.022 A 
BRANCH  72  76
ATOM     76  S   UNL A   1      43.349  27.776  25.737  1.00  0.00     0.124 S 
ATOM     77  O   UNL A   1      44.162  26.570  25.604  1.00  0.00    -0.237 OA
ATOM     78  O   UNL A   1      42.394  28.024  24.663  1.00  0.00    -0.237 OA
ATOM     79  O   UNL A   1      44.068  28.954  26.219  1.00  0.00    -0.744 OA
ENDBRANCH  72  76
ENDBRANCH  55  69
BRANCH  56  80
ATOM     80  C   UNL A   1      40.119  34.193  37.112  1.00  0.00     0.023 A 
ATOM     81  C   UNL A   1      39.428  33.728  38.240  1.00  0.00     0.031 A 
ATOM     82  C   UNL A   1      40.585  35.522  37.124  1.00  0.00     0.131 A 
ATOM     83  C   UNL A   1      39.196  34.592  39.322  1.00  0.00     0.055 A 
ATOM     84  C   UNL A   1      40.403  36.359  38.226  1.00  0.00     0.041 A 
ATOM     85  F   UNL A   1      41.251  36.018  36.070  1.00  0.00    -0.206 F 
ATOM     86  C   UNL A   1      39.694  35.897  39.330  1.00  0.00     0.022 A 
BRANCH  83  87
ATOM     87  S   UNL A   1      38.167  34.006  40.695  1.00  0.00     0.124 S 
ATOM     88  O   UNL A   1      37.201  33.160  40.002  1.00  0.00    -0.237 OA
ATOM     89  O   UNL A   1      39.143  33.313  41.530  1.00  0.00    -0.237 OA
ATOM     90  O   UNL A   1      37.623  35.237  41.263  1.00  0.00    -0.744 OA
ENDBRANCH  83  87
ENDBRANCH  56  80
BRANCH  68  91
ATOM     91  C   UNL A   1      44.344  28.796  35.837  1.00  0.00     0.023 A 
ATOM     92  C   UNL A   1      44.103  27.665  36.636  1.00  0.00     0.031 A 
ATOM     93  C   UNL A   1      45.635  29.352  35.840  1.00  0.00     0.131 A 
ATOM     94  C   UNL A   1      45.125  27.161  37.453  1.00  0.00     0.055 A 
ATOM     95  C   UNL A   1      46.664  28.808  36.608  1.00  0.00     0.041 A 
ATOM     96  F   UNL A   1      45.916  30.434  35.097  1.00  0.00    -0.206 F 
ATOM     97  C   UNL A   1      46.408  27.715  37.433  1.00  0.00     0.022 A 
BRANCH  94  98
ATOM     98  S   UNL A   1      44.727  25.834  38.622  1.00  0.00     0.124 S 
ATOM     99  O   UNL A   1      44.120  26.573  39.725  1.00  0.00    -0.237 OA
ATOM    100  O   UNL A   1      43.822  24.993  37.844  1.00  0.00    -0.237 OA
ATOM    101  O   UNL A   1      46.028  25.236  38.917  1.00  0.00    -0.744 OA
ENDBRANCH  94  98
ENDBRANCH  68  91
ENDBRANCH  42  43
ENDBRANCH  35  37
ENDBRANCH  34  35
ENDBRANCH  33  34
ENDBRANCH   1  33
TORSDOF 18
ENDMDL
