MODEL 1
REMARK VINA RESULT:     -11.0      0.000      0.000
REMARK SMILES CC1(C)CCC(CCCO)(C(=O)OCCOC(=O)c2ccc(-c3c4nc(c(-c5cc(S(=O)(=O)[O-])ccc5F)c5ccc([nH]5)c(-c5cc(S(=O)(=O)[O-])ccc5F)c5nc(c(-c6cc(S(=O)(=O)[O-])ccc6F)c6ccc3[nH]6)C=C5)C=C4)cc2)CC1
REMARK SMILES IDX 14 1 13 2 11 3 12 4 6 5 1 6 2 7 3 8 4 9 83 10 5 11 82 12
REMARK SMILES IDX 7 13 8 14 9 15 10 16 15 18 16 19 17 20 18 21 19 22 20 23
REMARK SMILES IDX 81 24 21 25 80 26 22 27 23 28 24 29 74 30 25 31 79 32 73 33
REMARK SMILES IDX 75 34 26 35 78 36 72 37 71 38 27 40 59 41 39 42 58 43 40 44
REMARK SMILES IDX 43 45 57 46 76 47 41 48 42 49 56 51 77 52 44 53 28 54 29 55
REMARK SMILES IDX 37 56 30 57 36 58 38 59 35 60 31 61 32 62 33 63 34 64 60 65
REMARK SMILES IDX 61 66 69 67 62 68 68 69 70 70 67 71 63 72 64 73 65 74 66 75
REMARK SMILES IDX 45 76 46 77 54 78 47 79 53 80 55 81 52 82 48 83 49 84 50 85
REMARK SMILES IDX 51 86
REMARK H PARENT 10 17 75 39 43 50
REMARK Flexibility Score: inf
ROOT
ATOM      1  C   UNL A   1      33.640  28.672  23.638  1.00  0.00     0.274 C 
ENDROOT
BRANCH   1   2
ATOM      2  O   UNL A   1      33.952  27.339  24.101  1.00  0.00    -0.462 OA
BRANCH   2   3
ATOM      3  C   UNL A   1      33.319  26.322  23.458  1.00  0.00     0.312 C 
ATOM      4  O   UNL A   1      32.837  26.423  22.333  1.00  0.00    -0.252 OA
BRANCH   3   5
ATOM      5  C   UNL A   1      33.084  25.083  24.340  1.00  0.00     0.068 C 
ATOM      6  C   UNL A   1      34.897  21.787  24.793  1.00  0.00     0.011 C 
ATOM      7  C   UNL A   1      35.314  23.012  23.962  1.00  0.00    -0.035 C 
ATOM      8  C   UNL A   1      36.653  22.686  23.271  1.00  0.00     0.011 C 
ATOM      9  C   UNL A   1      34.270  23.317  22.881  1.00  0.00     0.007 C 
ATOM     10  C   UNL A   1      35.490  24.263  24.846  1.00  0.00     0.007 C 
ATOM     11  C   UNL A   1      32.942  23.843  23.418  1.00  0.00     0.019 C 
ATOM     12  C   UNL A   1      34.174  24.823  25.404  1.00  0.00     0.019 C 
BRANCH   5  13
ATOM     13  C   UNL A   1      31.694  25.298  25.026  1.00  0.00     0.021 C 
BRANCH  13  14
ATOM     14  C   UNL A   1      31.514  24.843  26.484  1.00  0.00     0.029 C 
BRANCH  14  15
ATOM     15  C   UNL A   1      30.823  23.505  26.726  1.00  0.00     0.156 C 
BRANCH  15  16
ATOM     16  O   UNL A   1      29.497  23.660  27.202  1.00  0.00    -0.396 OA
ATOM     17  H   UNL A   1      29.015  24.271  26.622  1.00  0.00     0.210 HD
ENDBRANCH  15  16
ENDBRANCH  14  15
ENDBRANCH  13  14
ENDBRANCH   5  13
ENDBRANCH   3   5
ENDBRANCH   2   3
ENDBRANCH   1   2
BRANCH   1  18
ATOM     18  C   UNL A   1      32.728  29.400  24.611  1.00  0.00     0.275 C 
BRANCH  18  19
ATOM     19  O   UNL A   1      33.278  29.301  25.930  1.00  0.00    -0.458 OA
BRANCH  19  20
ATOM     20  C   UNL A   1      33.305  30.453  26.634  1.00  0.00     0.338 C 
ATOM     21  O   UNL A   1      32.474  31.351  26.589  1.00  0.00    -0.246 OA
BRANCH  20  22
ATOM     22  C   UNL A   1      34.494  30.496  27.508  1.00  0.00     0.060 A 
ATOM     23  C   UNL A   1      35.231  31.670  27.688  1.00  0.00     0.016 A 
ATOM     24  C   UNL A   1      34.951  29.298  28.058  1.00  0.00     0.016 A 
ATOM     25  C   UNL A   1      36.483  31.619  28.305  1.00  0.00     0.010 A 
ATOM     26  C   UNL A   1      36.147  29.277  28.773  1.00  0.00     0.010 A 
ATOM     27  C   UNL A   1      36.952  30.426  28.871  1.00  0.00    -0.014 A 
BRANCH  27  28
ATOM     28  C   UNL A   1      38.278  30.317  29.543  1.00  0.00     0.031 A 
ATOM     29  C   UNL A   1      39.338  29.435  28.935  1.00  0.00     0.074 A 
ATOM     30  C   UNL A   1      38.523  30.925  30.719  1.00  0.00     0.049 A 
ATOM     31  N   UNL A   1      40.351  28.836  29.503  1.00  0.00    -0.248 NA
ATOM     32  C   UNL A   1      39.211  29.172  27.493  1.00  0.00     0.031 C 
ATOM     33  C   UNL A   1      37.643  31.884  31.388  1.00  0.00     0.029 A 
ATOM     34  N   UNL A   1      39.584  30.793  31.582  1.00  0.00    -0.354 N 
ATOM     35  C   UNL A   1      40.937  28.058  28.509  1.00  0.00     0.074 A 
ATOM     36  C   UNL A   1      40.170  28.277  27.299  1.00  0.00     0.031 C 
ATOM     37  C   UNL A   1      38.198  32.254  32.551  1.00  0.00     0.029 A 
ATOM     38  C   UNL A   1      39.405  31.467  32.768  1.00  0.00     0.049 A 
ATOM     39  H   UNL A   1      40.392  30.269  31.373  1.00  0.00     0.167 HD
ATOM     40  C   UNL A   1      42.003  27.225  28.614  1.00  0.00     0.034 A 
ATOM     41  C   UNL A   1      40.074  31.393  33.935  1.00  0.00     0.034 A 
ATOM     42  C   UNL A   1      42.775  27.068  29.825  1.00  0.00     0.049 A 
ATOM     43  C   UNL A   1      41.213  30.419  34.061  1.00  0.00     0.074 A 
ATOM     44  C   UNL A   1      43.868  26.252  30.060  1.00  0.00     0.029 A 
ATOM     45  N   UNL A   1      42.541  27.761  31.007  1.00  0.00    -0.354 N 
ATOM     46  N   UNL A   1      41.679  29.576  33.169  1.00  0.00    -0.248 NA
ATOM     47  C   UNL A   1      41.897  30.369  35.359  1.00  0.00     0.031 C 
ATOM     48  C   UNL A   1      44.267  26.420  31.392  1.00  0.00     0.029 A 
ATOM     49  C   UNL A   1      43.460  27.386  31.972  1.00  0.00     0.049 A 
ATOM     50  H   UNL A   1      41.824  28.424  31.138  1.00  0.00     0.167 HD
ATOM     51  C   UNL A   1      42.723  28.904  33.796  1.00  0.00     0.074 A 
ATOM     52  C   UNL A   1      42.820  29.444  35.138  1.00  0.00     0.031 C 
ATOM     53  C   UNL A   1      43.532  27.931  33.306  1.00  0.00     0.034 A 
BRANCH  40  54
ATOM     54  C   UNL A   1      42.341  26.367  27.417  1.00  0.00     0.023 A 
ATOM     55  C   UNL A   1      41.950  25.021  27.320  1.00  0.00     0.031 A 
ATOM     56  C   UNL A   1      43.099  26.908  26.362  1.00  0.00     0.131 A 
ATOM     57  C   UNL A   1      42.377  24.245  26.230  1.00  0.00     0.055 A 
ATOM     58  C   UNL A   1      43.457  26.152  25.244  1.00  0.00     0.041 A 
ATOM     59  F   UNL A   1      43.522  28.182  26.406  1.00  0.00    -0.206 F 
ATOM     60  C   UNL A   1      43.107  24.807  25.180  1.00  0.00     0.022 A 
BRANCH  57  61
ATOM     61  S   UNL A   1      42.082  22.456  26.269  1.00  0.00     0.124 S 
ATOM     62  O   UNL A   1      42.793  22.013  25.071  1.00  0.00    -0.237 OA
ATOM     63  O   UNL A   1      42.676  22.066  27.542  1.00  0.00    -0.237 OA
ATOM     64  O   UNL A   1      40.628  22.344  26.197  1.00  0.00    -0.744 OA
ENDBRANCH  57  61
ENDBRANCH  40  54
BRANCH  41  65
ATOM     65  C   UNL A   1      39.610  32.188  35.104  1.00  0.00     0.023 A 
ATOM     66  C   UNL A   1      40.101  33.480  35.339  1.00  0.00     0.031 A 
ATOM     67  C   UNL A   1      38.656  31.667  35.998  1.00  0.00     0.131 A 
ATOM     68  C   UNL A   1      39.646  34.205  36.452  1.00  0.00     0.055 A 
ATOM     69  C   UNL A   1      38.173  32.409  37.075  1.00  0.00     0.041 A 
ATOM     70  F   UNL A   1      38.154  30.436  35.813  1.00  0.00    -0.206 F 
ATOM     71  C   UNL A   1      38.674  33.685  37.312  1.00  0.00     0.022 A 
BRANCH  68  72
ATOM     72  S   UNL A   1      40.377  35.830  36.787  1.00  0.00     0.124 S 
ATOM     73  O   UNL A   1      40.057  36.016  38.197  1.00  0.00    -0.237 OA
ATOM     74  O   UNL A   1      41.783  35.601  36.472  1.00  0.00    -0.237 OA
ATOM     75  O   UNL A   1      39.671  36.717  35.864  1.00  0.00    -0.744 OA
ENDBRANCH  68  72
ENDBRANCH  41  65
BRANCH  53  76
ATOM     76  C   UNL A   1      44.629  27.445  34.215  1.00  0.00     0.023 A 
ATOM     77  C   UNL A   1      44.449  26.342  35.066  1.00  0.00     0.031 A 
ATOM     78  C   UNL A   1      45.865  28.113  34.236  1.00  0.00     0.131 A 
ATOM     79  C   UNL A   1      45.481  25.964  35.938  1.00  0.00     0.055 A 
ATOM     80  C   UNL A   1      46.902  27.706  35.075  1.00  0.00     0.041 A 
ATOM     81  F   UNL A   1      46.081  29.173  33.441  1.00  0.00    -0.206 F 
ATOM     82  C   UNL A   1      46.709  26.632  35.939  1.00  0.00     0.022 A 
BRANCH  79  83
ATOM     83  S   UNL A   1      45.179  24.622  37.119  1.00  0.00     0.124 S 
ATOM     84  O   UNL A   1      44.736  23.541  36.243  1.00  0.00    -0.237 OA
ATOM     85  O   UNL A   1      46.489  24.445  37.737  1.00  0.00    -0.237 OA
ATOM     86  O   UNL A   1      44.148  25.166  38.002  1.00  0.00    -0.744 OA
ENDBRANCH  79  83
ENDBRANCH  53  76
ENDBRANCH  27  28
ENDBRANCH  20  22
ENDBRANCH  19  20
ENDBRANCH  18  19
ENDBRANCH   1  18
TORSDOF 18
ENDMDL
MODEL 2
REMARK VINA RESULT:     -10.9      4.757      9.864
REMARK SMILES CC1(C)CCC(CCCO)(C(=O)OCCOC(=O)c2ccc(-c3c4nc(c(-c5cc(S(=O)(=O)[O-])ccc5F)c5ccc([nH]5)c(-c5cc(S(=O)(=O)[O-])ccc5F)c5nc(c(-c6cc(S(=O)(=O)[O-])ccc6F)c6ccc3[nH]6)C=C5)C=C4)cc2)CC1
REMARK SMILES IDX 14 1 13 2 11 3 12 4 6 5 1 6 2 7 3 8 4 9 83 10 5 11 82 12
REMARK SMILES IDX 7 13 8 14 9 15 10 16 15 18 16 19 17 20 18 21 19 22 20 23
REMARK SMILES IDX 81 24 21 25 80 26 22 27 23 28 24 29 74 30 25 31 79 32 73 33
REMARK SMILES IDX 75 34 26 35 78 36 72 37 71 38 27 40 59 41 39 42 58 43 40 44
REMARK SMILES IDX 43 45 57 46 76 47 41 48 42 49 56 51 77 52 44 53 28 54 29 55
REMARK SMILES IDX 37 56 30 57 36 58 38 59 35 60 31 61 32 62 33 63 34 64 60 65
REMARK SMILES IDX 61 66 69 67 62 68 68 69 70 70 67 71 63 72 64 73 65 74 66 75
REMARK SMILES IDX 45 76 46 77 54 78 47 79 53 80 55 81 52 82 48 83 49 84 50 85
REMARK SMILES IDX 51 86
REMARK H PARENT 10 17 75 39 43 50
REMARK Flexibility Score: inf
ROOT
ATOM      1  C   UNL A   1      35.332  22.610  26.365  1.00  0.00     0.274 C 
ENDROOT
BRANCH   1   2
ATOM      2  O   UNL A   1      34.844  23.719  25.579  1.00  0.00    -0.462 OA
BRANCH   2   3
ATOM      3  C   UNL A   1      33.510  23.969  25.665  1.00  0.00     0.312 C 
ATOM      4  O   UNL A   1      32.728  23.276  26.311  1.00  0.00    -0.252 OA
BRANCH   3   5
ATOM      5  C   UNL A   1      33.027  25.086  24.724  1.00  0.00     0.068 C 
ATOM      6  C   UNL A   1      31.484  28.505  25.263  1.00  0.00     0.011 C 
ATOM      7  C   UNL A   1      32.049  27.524  26.306  1.00  0.00    -0.035 C 
ATOM      8  C   UNL A   1      31.869  28.157  27.701  1.00  0.00     0.011 C 
ATOM      9  C   UNL A   1      31.286  26.195  26.272  1.00  0.00     0.007 C 
ATOM     10  C   UNL A   1      33.545  27.243  26.065  1.00  0.00     0.007 C 
ATOM     11  C   UNL A   1      31.528  25.362  25.017  1.00  0.00     0.019 C 
ATOM     12  C   UNL A   1      33.829  26.405  24.811  1.00  0.00     0.019 C 
BRANCH   5  13
ATOM     13  C   UNL A   1      33.105  24.496  23.277  1.00  0.00     0.021 C 
BRANCH  13  14
ATOM     14  C   UNL A   1      31.949  24.782  22.303  1.00  0.00     0.029 C 
BRANCH  14  15
ATOM     15  C   UNL A   1      32.000  26.083  21.509  1.00  0.00     0.156 C 
BRANCH  15  16
ATOM     16  O   UNL A   1      31.647  25.900  20.148  1.00  0.00    -0.396 OA
ATOM     17  H   UNL A   1      31.361  24.984  20.009  1.00  0.00     0.210 HD
ENDBRANCH  15  16
ENDBRANCH  14  15
ENDBRANCH  13  14
ENDBRANCH   5  13
ENDBRANCH   3   5
ENDBRANCH   2   3
ENDBRANCH   1   2
BRANCH   1  18
ATOM     18  C   UNL A   1      35.885  21.503  25.483  1.00  0.00     0.275 C 
BRANCH  18  19
ATOM     19  O   UNL A   1      37.123  21.939  24.908  1.00  0.00    -0.458 OA
BRANCH  19  20
ATOM     20  C   UNL A   1      38.237  21.520  25.546  1.00  0.00     0.338 C 
ATOM     21  O   UNL A   1      38.697  20.385  25.534  1.00  0.00    -0.246 OA
BRANCH  20  22
ATOM     22  C   UNL A   1      38.866  22.638  26.276  1.00  0.00     0.060 A 
ATOM     23  C   UNL A   1      38.483  23.965  26.059  1.00  0.00     0.016 A 
ATOM     24  C   UNL A   1      39.952  22.355  27.104  1.00  0.00     0.016 A 
ATOM     25  C   UNL A   1      39.264  25.006  26.565  1.00  0.00     0.010 A 
ATOM     26  C   UNL A   1      40.658  23.399  27.701  1.00  0.00     0.010 A 
ATOM     27  C   UNL A   1      40.352  24.740  27.407  1.00  0.00    -0.014 A 
BRANCH  27  28
ATOM     28  C   UNL A   1      41.215  25.813  27.976  1.00  0.00     0.031 A 
ATOM     29  C   UNL A   1      40.587  26.890  28.821  1.00  0.00     0.074 A 
ATOM     30  C   UNL A   1      42.529  25.885  27.688  1.00  0.00     0.049 A 
ATOM     31  N   UNL A   1      40.990  28.112  29.051  1.00  0.00    -0.248 NA
ATOM     32  C   UNL A   1      39.310  26.544  29.465  1.00  0.00     0.031 C 
ATOM     33  C   UNL A   1      43.305  24.875  26.968  1.00  0.00     0.029 A 
ATOM     34  N   UNL A   1      43.440  26.883  27.942  1.00  0.00    -0.354 N 
ATOM     35  C   UNL A   1      39.980  28.710  29.798  1.00  0.00     0.074 A 
ATOM     36  C   UNL A   1      38.952  27.707  29.992  1.00  0.00     0.031 C 
ATOM     37  C   UNL A   1      44.570  25.301  26.840  1.00  0.00     0.029 A 
ATOM     38  C   UNL A   1      44.663  26.662  27.353  1.00  0.00     0.049 A 
ATOM     39  H   UNL A   1      43.237  27.676  28.490  1.00  0.00     0.167 HD
ATOM     40  C   UNL A   1      39.917  29.987  30.255  1.00  0.00     0.034 A 
ATOM     41  C   UNL A   1      45.710  27.486  27.159  1.00  0.00     0.034 A 
ATOM     42  C   UNL A   1      40.982  30.947  30.084  1.00  0.00     0.049 A 
ATOM     43  C   UNL A   1      45.605  28.917  27.611  1.00  0.00     0.074 A 
ATOM     44  C   UNL A   1      41.036  32.268  30.492  1.00  0.00     0.029 A 
ATOM     45  N   UNL A   1      42.197  30.678  29.464  1.00  0.00    -0.354 N 
ATOM     46  N   UNL A   1      44.596  29.526  28.188  1.00  0.00    -0.248 NA
ATOM     47  C   UNL A   1      46.770  29.775  27.360  1.00  0.00     0.031 C 
ATOM     48  C   UNL A   1      42.261  32.809  30.083  1.00  0.00     0.029 A 
ATOM     49  C   UNL A   1      42.998  31.808  29.471  1.00  0.00     0.049 A 
ATOM     50  H   UNL A   1      42.450  29.809  29.075  1.00  0.00     0.167 HD
ATOM     51  C   UNL A   1      45.012  30.839  28.383  1.00  0.00     0.074 A 
ATOM     52  C   UNL A   1      46.363  30.930  27.866  1.00  0.00     0.031 C 
ATOM     53  C   UNL A   1      44.339  31.876  28.942  1.00  0.00     0.034 A 
BRANCH  40  54
ATOM     54  C   UNL A   1      38.629  30.433  30.907  1.00  0.00     0.023 A 
ATOM     55  C   UNL A   1      37.582  31.023  30.179  1.00  0.00     0.031 A 
ATOM     56  C   UNL A   1      38.463  30.290  32.297  1.00  0.00     0.131 A 
ATOM     57  C   UNL A   1      36.449  31.509  30.852  1.00  0.00     0.055 A 
ATOM     58  C   UNL A   1      37.302  30.707  32.951  1.00  0.00     0.041 A 
ATOM     59  F   UNL A   1      39.438  29.755  33.050  1.00  0.00    -0.206 F 
ATOM     60  C   UNL A   1      36.291  31.334  32.229  1.00  0.00     0.022 A 
BRANCH  57  61
ATOM     61  S   UNL A   1      35.243  32.497  29.924  1.00  0.00     0.124 S 
ATOM     62  O   UNL A   1      34.287  32.854  30.969  1.00  0.00    -0.237 OA
ATOM     63  O   UNL A   1      36.061  33.589  29.409  1.00  0.00    -0.237 OA
ATOM     64  O   UNL A   1      34.737  31.567  28.918  1.00  0.00    -0.744 OA
ENDBRANCH  57  61
ENDBRANCH  40  54
BRANCH  41  65
ATOM     65  C   UNL A   1      46.901  27.003  26.408  1.00  0.00     0.023 A 
ATOM     66  C   UNL A   1      47.986  26.415  27.074  1.00  0.00     0.031 A 
ATOM     67  C   UNL A   1      46.964  27.114  25.006  1.00  0.00     0.131 A 
ATOM     68  C   UNL A   1      49.096  25.972  26.339  1.00  0.00     0.055 A 
ATOM     69  C   UNL A   1      48.048  26.629  24.277  1.00  0.00     0.041 A 
ATOM     70  F   UNL A   1      45.949  27.666  24.323  1.00  0.00    -0.206 F 
ATOM     71  C   UNL A   1      49.128  26.059  24.945  1.00  0.00     0.022 A 
BRANCH  68  72
ATOM     72  S   UNL A   1      50.525  25.312  27.239  1.00  0.00     0.124 S 
ATOM     73  O   UNL A   1      50.933  26.463  28.035  1.00  0.00    -0.237 OA
ATOM     74  O   UNL A   1      49.934  24.199  27.974  1.00  0.00    -0.237 OA
ATOM     75  O   UNL A   1      51.450  24.929  26.174  1.00  0.00    -0.744 OA
ENDBRANCH  68  72
ENDBRANCH  41  65
BRANCH  53  76
ATOM     76  C   UNL A   1      45.091  33.173  29.077  1.00  0.00     0.023 A 
ATOM     77  C   UNL A   1      45.131  34.116  28.037  1.00  0.00     0.031 A 
ATOM     78  C   UNL A   1      45.790  33.455  30.263  1.00  0.00     0.131 A 
ATOM     79  C   UNL A   1      45.895  35.283  28.188  1.00  0.00     0.055 A 
ATOM     80  C   UNL A   1      46.513  34.636  30.424  1.00  0.00     0.041 A 
ATOM     81  F   UNL A   1      45.781  32.582  31.284  1.00  0.00    -0.206 F 
ATOM     82  C   UNL A   1      46.575  35.554  29.379  1.00  0.00     0.022 A 
BRANCH  79  83
ATOM     83  S   UNL A   1      46.038  36.422  26.783  1.00  0.00     0.124 S 
ATOM     84  O   UNL A   1      46.063  35.503  25.650  1.00  0.00    -0.237 OA
ATOM     85  O   UNL A   1      44.836  37.238  26.917  1.00  0.00    -0.237 OA
ATOM     86  O   UNL A   1      47.294  37.126  27.039  1.00  0.00    -0.744 OA
ENDBRANCH  79  83
ENDBRANCH  53  76
ENDBRANCH  27  28
ENDBRANCH  20  22
ENDBRANCH  19  20
ENDBRANCH  18  19
ENDBRANCH   1  18
TORSDOF 18
ENDMDL
MODEL 3
REMARK VINA RESULT:     -10.8      1.045      1.941
REMARK SMILES CC1(C)CCC(CCCO)(C(=O)OCCOC(=O)c2ccc(-c3c4nc(c(-c5cc(S(=O)(=O)[O-])ccc5F)c5ccc([nH]5)c(-c5cc(S(=O)(=O)[O-])ccc5F)c5nc(c(-c6cc(S(=O)(=O)[O-])ccc6F)c6ccc3[nH]6)C=C5)C=C4)cc2)CC1
REMARK SMILES IDX 14 1 13 2 11 3 12 4 6 5 1 6 2 7 3 8 4 9 83 10 5 11 82 12
REMARK SMILES IDX 7 13 8 14 9 15 10 16 15 18 16 19 17 20 18 21 19 22 20 23
REMARK SMILES IDX 81 24 21 25 80 26 22 27 23 28 24 29 74 30 25 31 79 32 73 33
REMARK SMILES IDX 75 34 26 35 78 36 72 37 71 38 27 40 59 41 39 42 58 43 40 44
REMARK SMILES IDX 43 45 57 46 76 47 41 48 42 49 56 51 77 52 44 53 28 54 29 55
REMARK SMILES IDX 37 56 30 57 36 58 38 59 35 60 31 61 32 62 33 63 34 64 60 65
REMARK SMILES IDX 61 66 69 67 62 68 68 69 70 70 67 71 63 72 64 73 65 74 66 75
REMARK SMILES IDX 45 76 46 77 54 78 47 79 53 80 55 81 52 82 48 83 49 84 50 85
REMARK SMILES IDX 51 86
REMARK H PARENT 10 17 75 39 43 50
REMARK Flexibility Score: inf
ROOT
ATOM      1  C   UNL A   1      32.633  28.724  24.930  1.00  0.00     0.274 C 
ENDROOT
BRANCH   1   2
ATOM      2  O   UNL A   1      32.850  27.601  25.813  1.00  0.00    -0.462 OA
BRANCH   2   3
ATOM      3  C   UNL A   1      31.792  26.764  25.983  1.00  0.00     0.312 C 
ATOM      4  O   UNL A   1      30.968  26.882  26.886  1.00  0.00    -0.252 OA
BRANCH   3   5
ATOM      5  C   UNL A   1      31.820  25.534  25.058  1.00  0.00     0.068 C 
ATOM      6  C   UNL A   1      33.281  22.050  25.348  1.00  0.00     0.011 C 
ATOM      7  C   UNL A   1      33.209  23.159  26.412  1.00  0.00    -0.035 C 
ATOM      8  C   UNL A   1      33.879  22.631  27.697  1.00  0.00     0.011 C 
ATOM      9  C   UNL A   1      33.965  24.409  25.948  1.00  0.00     0.007 C 
ATOM     10  C   UNL A   1      31.750  23.550  26.723  1.00  0.00     0.007 C 
ATOM     11  C   UNL A   1      33.302  25.153  24.793  1.00  0.00     0.019 C 
ATOM     12  C   UNL A   1      31.049  24.303  25.585  1.00  0.00     0.019 C 
BRANCH   5  13
ATOM     13  C   UNL A   1      31.223  26.007  23.691  1.00  0.00     0.021 C 
BRANCH  13  14
ATOM     14  C   UNL A   1      29.837  26.674  23.685  1.00  0.00     0.029 C 
BRANCH  14  15
ATOM     15  C   UNL A   1      29.690  27.991  22.931  1.00  0.00     0.156 C 
BRANCH  15  16
ATOM     16  O   UNL A   1      30.482  28.032  21.755  1.00  0.00    -0.396 OA
ATOM     17  H   UNL A   1      31.381  28.317  21.981  1.00  0.00     0.210 HD
ENDBRANCH  15  16
ENDBRANCH  14  15
ENDBRANCH  13  14
ENDBRANCH   5  13
ENDBRANCH   3   5
ENDBRANCH   2   3
ENDBRANCH   1   2
BRANCH   1  18
ATOM     18  C   UNL A   1      31.876  29.841  25.628  1.00  0.00     0.275 C 
BRANCH  18  19
ATOM     19  O   UNL A   1      32.392  29.997  26.955  1.00  0.00    -0.458 OA
BRANCH  19  20
ATOM     20  C   UNL A   1      33.003  31.175  27.205  1.00  0.00     0.338 C 
ATOM     21  O   UNL A   1      32.504  32.289  27.099  1.00  0.00    -0.246 OA
BRANCH  20  22
ATOM     22  C   UNL A   1      34.392  30.952  27.650  1.00  0.00     0.060 A 
ATOM     23  C   UNL A   1      34.874  29.673  27.942  1.00  0.00     0.016 A 
ATOM     24  C   UNL A   1      35.190  32.068  27.901  1.00  0.00     0.016 A 
ATOM     25  C   UNL A   1      36.096  29.522  28.601  1.00  0.00     0.010 A 
ATOM     26  C   UNL A   1      36.459  31.902  28.454  1.00  0.00     0.010 A 
ATOM     27  C   UNL A   1      36.914  30.632  28.852  1.00  0.00    -0.014 A 
BRANCH  27  28
ATOM     28  C   UNL A   1      38.227  30.527  29.549  1.00  0.00     0.031 A 
ATOM     29  C   UNL A   1      39.305  29.657  28.956  1.00  0.00     0.074 A 
ATOM     30  C   UNL A   1      38.444  31.129  30.734  1.00  0.00     0.049 A 
ATOM     31  N   UNL A   1      40.311  29.061  29.541  1.00  0.00    -0.248 NA
ATOM     32  C   UNL A   1      39.210  29.403  27.510  1.00  0.00     0.031 C 
ATOM     33  C   UNL A   1      37.544  32.077  31.391  1.00  0.00     0.029 A 
ATOM     34  N   UNL A   1      39.489  30.998  31.617  1.00  0.00    -0.354 N 
ATOM     35  C   UNL A   1      40.922  28.294  28.553  1.00  0.00     0.074 A 
ATOM     36  C   UNL A   1      40.178  28.516  27.330  1.00  0.00     0.031 C 
ATOM     37  C   UNL A   1      38.073  32.443  32.568  1.00  0.00     0.029 A 
ATOM     38  C   UNL A   1      39.281  31.662  32.804  1.00  0.00     0.049 A 
ATOM     39  H   UNL A   1      40.304  30.482  31.420  1.00  0.00     0.167 HD
ATOM     40  C   UNL A   1      41.992  27.468  28.674  1.00  0.00     0.034 A 
ATOM     41  C   UNL A   1      39.927  31.585  33.983  1.00  0.00     0.034 A 
ATOM     42  C   UNL A   1      42.740  27.308  29.899  1.00  0.00     0.049 A 
ATOM     43  C   UNL A   1      41.070  30.618  34.125  1.00  0.00     0.074 A 
ATOM     44  C   UNL A   1      43.834  26.498  30.150  1.00  0.00     0.029 A 
ATOM     45  N   UNL A   1      42.478  27.991  31.080  1.00  0.00    -0.354 N 
ATOM     46  N   UNL A   1      41.560  29.784  33.237  1.00  0.00    -0.248 NA
ATOM     47  C   UNL A   1      41.728  30.564  35.437  1.00  0.00     0.031 C 
ATOM     48  C   UNL A   1      44.205  26.659  31.491  1.00  0.00     0.029 A 
ATOM     49  C   UNL A   1      43.380  27.615  32.062  1.00  0.00     0.049 A 
ATOM     50  H   UNL A   1      41.754  28.648  31.202  1.00  0.00     0.167 HD
ATOM     51  C   UNL A   1      42.596  29.115  33.881  1.00  0.00     0.074 A 
ATOM     52  C   UNL A   1      42.662  29.647  35.228  1.00  0.00     0.031 C 
ATOM     53  C   UNL A   1      43.421  28.152  33.400  1.00  0.00     0.034 A 
BRANCH  40  54
ATOM     54  C   UNL A   1      42.359  26.621  27.478  1.00  0.00     0.023 A 
ATOM     55  C   UNL A   1      41.954  25.282  27.350  1.00  0.00     0.031 A 
ATOM     56  C   UNL A   1      43.163  27.164  26.458  1.00  0.00     0.131 A 
ATOM     57  C   UNL A   1      42.408  24.514  26.265  1.00  0.00     0.055 A 
ATOM     58  C   UNL A   1      43.549  26.417  25.343  1.00  0.00     0.041 A 
ATOM     59  F   UNL A   1      43.601  28.431  26.534  1.00  0.00    -0.206 F 
ATOM     60  C   UNL A   1      43.182  25.078  25.248  1.00  0.00     0.022 A 
BRANCH  57  61
ATOM     61  S   UNL A   1      42.087  22.729  26.269  1.00  0.00     0.124 S 
ATOM     62  O   UNL A   1      40.629  22.690  26.355  1.00  0.00    -0.237 OA
ATOM     63  O   UNL A   1      42.661  22.303  24.998  1.00  0.00    -0.237 OA
ATOM     64  O   UNL A   1      42.786  22.255  27.461  1.00  0.00    -0.744 OA
ENDBRANCH  57  61
ENDBRANCH  40  54
BRANCH  41  65
ATOM     65  C   UNL A   1      39.434  32.369  35.148  1.00  0.00     0.023 A 
ATOM     66  C   UNL A   1      39.891  33.673  35.387  1.00  0.00     0.031 A 
ATOM     67  C   UNL A   1      38.487  31.824  36.036  1.00  0.00     0.131 A 
ATOM     68  C   UNL A   1      39.409  34.387  36.495  1.00  0.00     0.055 A 
ATOM     69  C   UNL A   1      37.977  32.554  37.108  1.00  0.00     0.041 A 
ATOM     70  F   UNL A   1      38.017  30.581  35.847  1.00  0.00    -0.206 F 
ATOM     71  C   UNL A   1      38.444  33.843  37.348  1.00  0.00     0.022 A 
BRANCH  68  72
ATOM     72  S   UNL A   1      40.097  36.030  36.835  1.00  0.00     0.124 S 
ATOM     73  O   UNL A   1      39.850  36.722  35.575  1.00  0.00    -0.237 OA
ATOM     74  O   UNL A   1      39.296  36.464  37.974  1.00  0.00    -0.237 OA
ATOM     75  O   UNL A   1      41.501  35.756  37.132  1.00  0.00    -0.744 OA
ENDBRANCH  68  72
ENDBRANCH  41  65
BRANCH  53  76
ATOM     76  C   UNL A   1      44.503  27.667  34.327  1.00  0.00     0.023 A 
ATOM     77  C   UNL A   1      44.283  26.620  35.238  1.00  0.00     0.031 A 
ATOM     78  C   UNL A   1      45.768  28.280  34.306  1.00  0.00     0.131 A 
ATOM     79  C   UNL A   1      45.304  26.244  36.123  1.00  0.00     0.055 A 
ATOM     80  C   UNL A   1      46.793  27.873  35.159  1.00  0.00     0.041 A 
ATOM     81  F   UNL A   1      46.024  29.286  33.454  1.00  0.00    -0.206 F 
ATOM     82  C   UNL A   1      46.560  26.856  36.081  1.00  0.00     0.022 A 
BRANCH  79  83
ATOM     83  S   UNL A   1      44.952  24.981  37.376  1.00  0.00     0.124 S 
ATOM     84  O   UNL A   1      43.494  24.924  37.348  1.00  0.00    -0.237 OA
ATOM     85  O   UNL A   1      45.648  23.812  36.848  1.00  0.00    -0.237 OA
ATOM     86  O   UNL A   1      45.527  25.541  38.599  1.00  0.00    -0.744 OA
ENDBRANCH  79  83
ENDBRANCH  53  76
ENDBRANCH  27  28
ENDBRANCH  20  22
ENDBRANCH  19  20
ENDBRANCH  18  19
ENDBRANCH   1  18
TORSDOF 18
ENDMDL
