MODEL 1
REMARK VINA RESULT:     -11.1      0.000      0.000
REMARK SMILES Cc1nc(Nc2ccc(F)cc2)nc(OCC(=O)OCCOC(=O)c2ccc(-c3c4nc(c(-c5cc(S(=O)(=O)[O-])ccc5F)c5ccc([nH]5)c(-c5cc(S(=O)(=O)[O-])ccc5F)c5nc(c(-c6cc(S(=O)(=O)[O-])ccc6F)c6ccc3[nH]6)C=C5)C=C4)cc2)c1CCO
REMARK SMILES IDX 20 1 19 2 17 3 18 4 16 5 15 6 14 7 1 8 2 9 3 10 88 11 4 12
REMARK SMILES IDX 13 13 89 14 90 15 91 16 5 18 6 20 7 21 12 22 8 23 11 24 9 25
REMARK SMILES IDX 10 26 21 27 22 28 23 29 24 30 25 31 26 32 87 33 27 34 86 35
REMARK SMILES IDX 28 36 29 37 30 38 80 39 31 40 85 41 79 42 81 43 32 44 84 45
REMARK SMILES IDX 78 46 77 47 33 49 65 50 45 51 64 52 46 53 49 54 63 55 82 56
REMARK SMILES IDX 47 57 48 58 62 60 83 61 50 62 34 63 35 64 43 65 36 66 42 67
REMARK SMILES IDX 44 68 41 69 37 70 38 71 39 72 40 73 66 74 67 75 75 76 68 77
REMARK SMILES IDX 74 78 76 79 73 80 69 81 70 82 71 83 72 84 51 85 52 86 60 87
REMARK SMILES IDX 53 88 59 89 61 90 58 91 54 92 55 93 56 94 57 95
REMARK H PARENT 91 17 5 19 81 48 49 59
REMARK Flexibility Score: inf
ROOT
ATOM      1  C   UNL A   1      32.532  29.166  23.550  1.00  0.00     0.274 C 
ENDROOT
BRANCH   1   2
ATOM      2  O   UNL A   1      32.248  27.774  23.286  1.00  0.00    -0.460 OA
BRANCH   2   3
ATOM      3  C   UNL A   1      33.086  27.180  22.395  1.00  0.00     0.344 C 
ATOM      4  O   UNL A   1      34.005  27.754  21.819  1.00  0.00    -0.248 OA
BRANCH   3   5
ATOM      5  C   UNL A   1      32.676  25.746  22.042  1.00  0.00     0.353 C 
BRANCH   5   6
ATOM      6  O   UNL A   1      31.503  25.065  22.415  1.00  0.00    -0.465 OA
BRANCH   6   7
ATOM      7  C   UNL A   1      31.435  24.294  23.528  1.00  0.00     0.222 A 
ATOM      8  C   UNL A   1      29.946  23.431  26.874  1.00  0.00     0.067 C 
ATOM      9  C   UNL A   1      30.711  23.475  25.587  1.00  0.00     0.050 A 
ATOM     10  N   UNL A   1      31.524  22.417  25.443  1.00  0.00    -0.218 NA
ATOM     11  C   UNL A   1      30.700  24.532  24.680  1.00  0.00     0.038 A 
ATOM     12  C   UNL A   1      32.391  22.412  24.436  1.00  0.00     0.230 A 
ATOM     13  N   UNL A   1      32.333  23.289  23.437  1.00  0.00    -0.177 NA
BRANCH  11  14
ATOM     14  C   UNL A   1      30.063  25.849  25.033  1.00  0.00     0.071 C 
BRANCH  14  15
ATOM     15  C   UNL A   1      28.984  26.319  24.056  1.00  0.00     0.161 C 
BRANCH  15  16
ATOM     16  O   UNL A   1      29.503  27.225  23.092  1.00  0.00    -0.396 OA
ATOM     17  H   UNL A   1      30.069  26.743  22.469  1.00  0.00     0.210 HD
ENDBRANCH  15  16
ENDBRANCH  14  15
ENDBRANCH  11  14
BRANCH  12  18
ATOM     18  N   UNL A   1      33.499  21.564  24.512  1.00  0.00    -0.324 N 
ATOM     19  H   UNL A   1      34.363  21.964  24.766  1.00  0.00     0.170 HD
BRANCH  18  20
ATOM     20  C   UNL A   1      33.474  20.184  24.254  1.00  0.00     0.041 A 
ATOM     21  C   UNL A   1      34.554  19.376  24.643  1.00  0.00     0.029 A 
ATOM     22  C   UNL A   1      32.467  19.623  23.457  1.00  0.00     0.029 A 
ATOM     23  C   UNL A   1      34.614  18.033  24.277  1.00  0.00     0.041 A 
ATOM     24  C   UNL A   1      32.535  18.279  23.071  1.00  0.00     0.041 A 
ATOM     25  C   UNL A   1      33.605  17.496  23.490  1.00  0.00     0.123 A 
ATOM     26  F   UNL A   1      33.671  16.210  23.122  1.00  0.00    -0.207 F 
ENDBRANCH  18  20
ENDBRANCH  12  18
ENDBRANCH   6   7
ENDBRANCH   5   6
ENDBRANCH   3   5
ENDBRANCH   2   3
ENDBRANCH   1   2
BRANCH   1  27
ATOM     27  C   UNL A   1      32.183  29.564  24.982  1.00  0.00     0.275 C 
BRANCH  27  28
ATOM     28  O   UNL A   1      33.383  29.783  25.742  1.00  0.00    -0.458 OA
BRANCH  28  29
ATOM     29  C   UNL A   1      33.285  30.718  26.716  1.00  0.00     0.338 C 
ATOM     30  O   UNL A   1      32.355  31.491  26.876  1.00  0.00    -0.246 OA
BRANCH  29  31
ATOM     31  C   UNL A   1      34.458  30.678  27.628  1.00  0.00     0.060 A 
ATOM     32  C   UNL A   1      35.365  31.735  27.724  1.00  0.00     0.016 A 
ATOM     33  C   UNL A   1      34.729  29.482  28.304  1.00  0.00     0.016 A 
ATOM     34  C   UNL A   1      36.585  31.550  28.388  1.00  0.00     0.010 A 
ATOM     35  C   UNL A   1      35.914  29.330  29.033  1.00  0.00     0.010 A 
ATOM     36  C   UNL A   1      36.881  30.346  29.053  1.00  0.00    -0.014 A 
BRANCH  36  37
ATOM     37  C   UNL A   1      38.174  30.137  29.771  1.00  0.00     0.031 A 
ATOM     38  C   UNL A   1      39.261  29.261  29.188  1.00  0.00     0.074 A 
ATOM     39  C   UNL A   1      38.385  30.713  30.972  1.00  0.00     0.049 A 
ATOM     40  N   UNL A   1      40.323  28.760  29.768  1.00  0.00    -0.248 NA
ATOM     41  C   UNL A   1      39.138  28.904  27.767  1.00  0.00     0.031 C 
ATOM     42  C   UNL A   1      37.468  31.635  31.645  1.00  0.00     0.029 A 
ATOM     43  N   UNL A   1      39.439  30.602  31.845  1.00  0.00    -0.354 N 
ATOM     44  C   UNL A   1      40.969  27.995  28.800  1.00  0.00     0.074 A 
ATOM     45  C   UNL A   1      40.184  28.106  27.588  1.00  0.00     0.031 C 
ATOM     46  C   UNL A   1      38.013  32.033  32.802  1.00  0.00     0.029 A 
ATOM     47  C   UNL A   1      39.260  31.306  33.011  1.00  0.00     0.049 A 
ATOM     48  H   UNL A   1      40.245  30.070  31.653  1.00  0.00     0.167 HD
ATOM     49  C   UNL A   1      42.103  27.259  28.916  1.00  0.00     0.034 A 
ATOM     50  C   UNL A   1      39.966  31.319  34.158  1.00  0.00     0.034 A 
ATOM     51  C   UNL A   1      42.899  27.176  30.117  1.00  0.00     0.049 A 
ATOM     52  C   UNL A   1      41.158  30.422  34.304  1.00  0.00     0.074 A 
ATOM     53  C   UNL A   1      44.067  26.461  30.328  1.00  0.00     0.029 A 
ATOM     54  N   UNL A   1      42.617  27.832  31.306  1.00  0.00    -0.354 N 
ATOM     55  N   UNL A   1      41.678  29.598  33.427  1.00  0.00    -0.248 NA
ATOM     56  C   UNL A   1      41.834  30.428  35.608  1.00  0.00     0.031 C 
ATOM     57  C   UNL A   1      44.462  26.644  31.658  1.00  0.00     0.029 A 
ATOM     58  C   UNL A   1      43.574  27.519  32.259  1.00  0.00     0.049 A 
ATOM     59  H   UNL A   1      41.851  28.431  31.451  1.00  0.00     0.167 HD
ATOM     60  C   UNL A   1      42.741  28.981  34.076  1.00  0.00     0.074 A 
ATOM     61  C   UNL A   1      42.796  29.537  35.412  1.00  0.00     0.031 C 
ATOM     62  C   UNL A   1      43.595  28.040  33.603  1.00  0.00     0.034 A 
BRANCH  49  63
ATOM     63  C   UNL A   1      42.534  26.426  27.737  1.00  0.00     0.023 A 
ATOM     64  C   UNL A   1      42.116  25.096  27.568  1.00  0.00     0.031 A 
ATOM     65  C   UNL A   1      43.325  27.006  26.728  1.00  0.00     0.131 A 
ATOM     66  C   UNL A   1      42.507  24.384  26.422  1.00  0.00     0.055 A 
ATOM     67  C   UNL A   1      43.671  26.309  25.570  1.00  0.00     0.041 A 
ATOM     68  F   UNL A   1      43.760  28.271  26.849  1.00  0.00    -0.206 F 
ATOM     69  C   UNL A   1      43.264  24.989  25.413  1.00  0.00     0.022 A 
BRANCH  66  70
ATOM     70  S   UNL A   1      42.049  22.634  26.278  1.00  0.00     0.124 S 
ATOM     71  O   UNL A   1      42.657  22.274  25.000  1.00  0.00    -0.237 OA
ATOM     72  O   UNL A   1      42.663  22.048  27.464  1.00  0.00    -0.237 OA
ATOM     73  O   UNL A   1      40.588  22.659  26.283  1.00  0.00    -0.744 OA
ENDBRANCH  66  70
ENDBRANCH  49  63
BRANCH  50  74
ATOM     74  C   UNL A   1      39.480  32.142  35.296  1.00  0.00     0.023 A 
ATOM     75  C   UNL A   1      39.930  33.456  35.481  1.00  0.00     0.031 A 
ATOM     76  C   UNL A   1      38.512  31.634  36.182  1.00  0.00     0.131 A 
ATOM     77  C   UNL A   1      39.405  34.225  36.531  1.00  0.00     0.055 A 
ATOM     78  C   UNL A   1      37.967  32.413  37.201  1.00  0.00     0.041 A 
ATOM     79  F   UNL A   1      38.046  30.383  36.032  1.00  0.00    -0.206 F 
ATOM     80  C   UNL A   1      38.416  33.718  37.380  1.00  0.00     0.022 A 
BRANCH  77  81
ATOM     81  S   UNL A   1      40.027  35.911  36.772  1.00  0.00     0.124 S 
ATOM     82  O   UNL A   1      41.451  35.674  36.984  1.00  0.00    -0.237 OA
ATOM     83  O   UNL A   1      39.665  36.555  35.514  1.00  0.00    -0.237 OA
ATOM     84  O   UNL A   1      39.288  36.379  37.942  1.00  0.00    -0.744 OA
ENDBRANCH  77  81
ENDBRANCH  50  74
BRANCH  62  85
ATOM     85  C   UNL A   1      44.669  27.563  34.540  1.00  0.00     0.023 A 
ATOM     86  C   UNL A   1      44.468  26.451  35.374  1.00  0.00     0.031 A 
ATOM     87  C   UNL A   1      45.902  28.233  34.605  1.00  0.00     0.131 A 
ATOM     88  C   UNL A   1      45.476  26.062  36.269  1.00  0.00     0.055 A 
ATOM     89  C   UNL A   1      46.916  27.817  35.467  1.00  0.00     0.041 A 
ATOM     90  F   UNL A   1      46.139  29.303  33.828  1.00  0.00    -0.206 F 
ATOM     91  C   UNL A   1      46.703  26.730  36.311  1.00  0.00     0.022 A 
BRANCH  88  92
ATOM     92  S   UNL A   1      45.149  24.693  37.413  1.00  0.00     0.124 S 
ATOM     93  O   UNL A   1      44.947  23.576  36.495  1.00  0.00    -0.237 OA
ATOM     94  O   UNL A   1      46.370  24.649  38.212  1.00  0.00    -0.237 OA
ATOM     95  O   UNL A   1      43.955  25.127  38.135  1.00  0.00    -0.744 OA
ENDBRANCH  88  92
ENDBRANCH  62  85
ENDBRANCH  36  37
ENDBRANCH  29  31
ENDBRANCH  28  29
ENDBRANCH  27  28
ENDBRANCH   1  27
TORSDOF 21
ENDMDL
MODEL 2
REMARK VINA RESULT:     -10.9      1.778      2.169
REMARK SMILES Cc1nc(Nc2ccc(F)cc2)nc(OCC(=O)OCCOC(=O)c2ccc(-c3c4nc(c(-c5cc(S(=O)(=O)[O-])ccc5F)c5ccc([nH]5)c(-c5cc(S(=O)(=O)[O-])ccc5F)c5nc(c(-c6cc(S(=O)(=O)[O-])ccc6F)c6ccc3[nH]6)C=C5)C=C4)cc2)c1CCO
REMARK SMILES IDX 20 1 19 2 17 3 18 4 16 5 15 6 14 7 1 8 2 9 3 10 88 11 4 12
REMARK SMILES IDX 13 13 89 14 90 15 91 16 5 18 6 20 7 21 12 22 8 23 11 24 9 25
REMARK SMILES IDX 10 26 21 27 22 28 23 29 24 30 25 31 26 32 87 33 27 34 86 35
REMARK SMILES IDX 28 36 29 37 30 38 80 39 31 40 85 41 79 42 81 43 32 44 84 45
REMARK SMILES IDX 78 46 77 47 33 49 65 50 45 51 64 52 46 53 49 54 63 55 82 56
REMARK SMILES IDX 47 57 48 58 62 60 83 61 50 62 34 63 35 64 43 65 36 66 42 67
REMARK SMILES IDX 44 68 41 69 37 70 38 71 39 72 40 73 66 74 67 75 75 76 68 77
REMARK SMILES IDX 74 78 76 79 73 80 69 81 70 82 71 83 72 84 51 85 52 86 60 87
REMARK SMILES IDX 53 88 59 89 61 90 58 91 54 92 55 93 56 94 57 95
REMARK H PARENT 91 17 5 19 81 48 49 59
REMARK Flexibility Score: inf
ROOT
ATOM      1  C   UNL A   1      32.200  29.042  23.279  1.00  0.00     0.274 C 
ENDROOT
BRANCH   1   2
ATOM      2  O   UNL A   1      31.860  27.746  22.737  1.00  0.00    -0.460 OA
BRANCH   2   3
ATOM      3  C   UNL A   1      32.912  27.035  22.254  1.00  0.00     0.344 C 
ATOM      4  O   UNL A   1      34.001  27.520  21.961  1.00  0.00    -0.248 OA
BRANCH   3   5
ATOM      5  C   UNL A   1      32.566  25.573  21.947  1.00  0.00     0.353 C 
BRANCH   5   6
ATOM      6  O   UNL A   1      31.404  24.866  22.305  1.00  0.00    -0.465 OA
BRANCH   6   7
ATOM      7  C   UNL A   1      31.337  24.097  23.420  1.00  0.00     0.222 A 
ATOM      8  C   UNL A   1      30.036  23.380  26.876  1.00  0.00     0.067 C 
ATOM      9  C   UNL A   1      30.693  23.348  25.531  1.00  0.00     0.050 A 
ATOM     10  N   UNL A   1      31.363  22.204  25.321  1.00  0.00    -0.218 NA
ATOM     11  C   UNL A   1      30.731  24.408  24.628  1.00  0.00     0.038 A 
ATOM     12  C   UNL A   1      32.138  22.108  24.246  1.00  0.00     0.230 A 
ATOM     13  N   UNL A   1      32.101  22.996  23.255  1.00  0.00    -0.177 NA
BRANCH  11  14
ATOM     14  C   UNL A   1      30.282  25.786  25.033  1.00  0.00     0.071 C 
BRANCH  14  15
ATOM     15  C   UNL A   1      29.011  26.274  24.336  1.00  0.00     0.161 C 
BRANCH  15  16
ATOM     16  O   UNL A   1      29.191  27.556  23.749  1.00  0.00    -0.396 OA
ATOM     17  H   UNL A   1      28.324  27.956  23.576  1.00  0.00     0.210 HD
ENDBRANCH  15  16
ENDBRANCH  14  15
ENDBRANCH  11  14
BRANCH  12  18
ATOM     18  N   UNL A   1      33.143  21.136  24.231  1.00  0.00    -0.324 N 
ATOM     19  H   UNL A   1      32.887  20.219  23.980  1.00  0.00     0.170 HD
BRANCH  18  20
ATOM     20  C   UNL A   1      34.490  21.370  24.546  1.00  0.00     0.041 A 
ATOM     21  C   UNL A   1      35.078  22.609  24.246  1.00  0.00     0.029 A 
ATOM     22  C   UNL A   1      35.312  20.329  25.000  1.00  0.00     0.029 A 
ATOM     23  C   UNL A   1      36.445  22.818  24.423  1.00  0.00     0.041 A 
ATOM     24  C   UNL A   1      36.688  20.530  25.160  1.00  0.00     0.041 A 
ATOM     25  C   UNL A   1      37.239  21.774  24.876  1.00  0.00     0.123 A 
ATOM     26  F   UNL A   1      38.556  21.968  25.029  1.00  0.00    -0.207 F 
ENDBRANCH  18  20
ENDBRANCH  12  18
ENDBRANCH   6   7
ENDBRANCH   5   6
ENDBRANCH   3   5
ENDBRANCH   2   3
ENDBRANCH   1   2
BRANCH   1  27
ATOM     27  C   UNL A   1      32.163  29.057  24.804  1.00  0.00     0.275 C 
BRANCH  27  28
ATOM     28  O   UNL A   1      33.304  29.760  25.321  1.00  0.00    -0.458 OA
BRANCH  28  29
ATOM     29  C   UNL A   1      33.058  30.548  26.394  1.00  0.00     0.338 C 
ATOM     30  O   UNL A   1      32.036  31.183  26.597  1.00  0.00    -0.246 OA
BRANCH  29  31
ATOM     31  C   UNL A   1      34.194  30.532  27.353  1.00  0.00     0.060 A 
ATOM     32  C   UNL A   1      34.957  31.669  27.626  1.00  0.00     0.016 A 
ATOM     33  C   UNL A   1      34.588  29.299  27.889  1.00  0.00     0.016 A 
ATOM     34  C   UNL A   1      36.167  31.547  28.323  1.00  0.00     0.010 A 
ATOM     35  C   UNL A   1      35.756  29.198  28.653  1.00  0.00     0.010 A 
ATOM     36  C   UNL A   1      36.587  30.311  28.848  1.00  0.00    -0.014 A 
BRANCH  36  37
ATOM     37  C   UNL A   1      37.870  30.167  29.601  1.00  0.00     0.031 A 
ATOM     38  C   UNL A   1      39.024  29.370  29.035  1.00  0.00     0.074 A 
ATOM     39  C   UNL A   1      38.010  30.732  30.817  1.00  0.00     0.049 A 
ATOM     40  N   UNL A   1      40.097  28.923  29.637  1.00  0.00    -0.248 NA
ATOM     41  C   UNL A   1      38.964  29.032  27.606  1.00  0.00     0.031 C 
ATOM     42  C   UNL A   1      37.020  31.584  31.478  1.00  0.00     0.029 A 
ATOM     43  N   UNL A   1      39.044  30.669  31.719  1.00  0.00    -0.354 N 
ATOM     44  C   UNL A   1      40.817  28.217  28.676  1.00  0.00     0.074 A 
ATOM     45  C   UNL A   1      40.061  28.303  27.444  1.00  0.00     0.031 C 
ATOM     46  C   UNL A   1      37.507  31.993  32.657  1.00  0.00     0.029 A 
ATOM     47  C   UNL A   1      38.789  31.338  32.891  1.00  0.00     0.049 A 
ATOM     48  H   UNL A   1      39.887  30.190  31.542  1.00  0.00     0.167 HD
ATOM     49  C   UNL A   1      41.989  27.549  28.813  1.00  0.00     0.034 A 
ATOM     50  C   UNL A   1      39.460  31.373  34.058  1.00  0.00     0.034 A 
ATOM     51  C   UNL A   1      42.754  27.492  30.035  1.00  0.00     0.049 A 
ATOM     52  C   UNL A   1      40.701  30.547  34.223  1.00  0.00     0.074 A 
ATOM     53  C   UNL A   1      43.958  26.845  30.268  1.00  0.00     0.029 A 
ATOM     54  N   UNL A   1      42.400  28.107  31.226  1.00  0.00    -0.354 N 
ATOM     55  N   UNL A   1      41.295  29.773  33.348  1.00  0.00    -0.248 NA
ATOM     56  C   UNL A   1      41.338  30.570  35.547  1.00  0.00     0.031 C 
ATOM     57  C   UNL A   1      44.303  27.026  31.612  1.00  0.00     0.029 A 
ATOM     58  C   UNL A   1      43.347  27.835  32.202  1.00  0.00     0.049 A 
ATOM     59  H   UNL A   1      41.595  28.656  31.359  1.00  0.00     0.167 HD
ATOM     60  C   UNL A   1      42.375  29.209  34.018  1.00  0.00     0.074 A 
ATOM     61  C   UNL A   1      42.357  29.742  35.365  1.00  0.00     0.031 C 
ATOM     62  C   UNL A   1      43.297  28.331  33.554  1.00  0.00     0.034 A 
BRANCH  49  63
ATOM     63  C   UNL A   1      42.503  26.766  27.633  1.00  0.00     0.023 A 
ATOM     64  C   UNL A   1      42.256  25.392  27.481  1.00  0.00     0.031 A 
ATOM     65  C   UNL A   1      43.198  27.432  26.606  1.00  0.00     0.131 A 
ATOM     66  C   UNL A   1      42.715  24.724  26.334  1.00  0.00     0.055 A 
ATOM     67  C   UNL A   1      43.611  26.773  25.448  1.00  0.00     0.041 A 
ATOM     68  F   UNL A   1      43.470  28.743  26.710  1.00  0.00    -0.206 F 
ATOM     69  C   UNL A   1      43.373  25.410  25.308  1.00  0.00     0.022 A 
BRANCH  66  70
ATOM     70  S   UNL A   1      42.482  22.929  26.213  1.00  0.00     0.124 S 
ATOM     71  O   UNL A   1      43.410  22.442  27.230  1.00  0.00    -0.237 OA
ATOM     72  O   UNL A   1      41.064  22.772  26.515  1.00  0.00    -0.237 OA
ATOM     73  O   UNL A   1      42.861  22.625  24.834  1.00  0.00    -0.744 OA
ENDBRANCH  66  70
ENDBRANCH  49  63
BRANCH  50  74
ATOM     74  C   UNL A   1      38.893  32.144  35.195  1.00  0.00     0.023 A 
ATOM     75  C   UNL A   1      38.298  31.493  36.283  1.00  0.00     0.031 A 
ATOM     76  C   UNL A   1      38.994  33.547  35.226  1.00  0.00     0.131 A 
ATOM     77  C   UNL A   1      37.826  32.249  37.367  1.00  0.00     0.055 A 
ATOM     78  C   UNL A   1      38.558  34.291  36.321  1.00  0.00     0.041 A 
ATOM     79  F   UNL A   1      39.569  34.208  34.208  1.00  0.00    -0.206 F 
ATOM     80  C   UNL A   1      37.968  33.640  37.401  1.00  0.00     0.022 A 
BRANCH  77  81
ATOM     81  S   UNL A   1      37.029  31.388  38.749  1.00  0.00     0.124 S 
ATOM     82  O   UNL A   1      37.997  31.591  39.822  1.00  0.00    -0.237 OA
ATOM     83  O   UNL A   1      35.769  32.112  38.877  1.00  0.00    -0.237 OA
ATOM     84  O   UNL A   1      36.907  30.015  38.266  1.00  0.00    -0.744 OA
ENDBRANCH  77  81
ENDBRANCH  50  74
BRANCH  62  85
ATOM     85  C   UNL A   1      44.372  27.902  34.514  1.00  0.00     0.023 A 
ATOM     86  C   UNL A   1      44.226  26.751  35.305  1.00  0.00     0.031 A 
ATOM     87  C   UNL A   1      45.548  28.658  34.645  1.00  0.00     0.131 A 
ATOM     88  C   UNL A   1      45.229  26.407  36.223  1.00  0.00     0.055 A 
ATOM     89  C   UNL A   1      46.561  28.289  35.529  1.00  0.00     0.041 A 
ATOM     90  F   UNL A   1      45.731  29.768  33.911  1.00  0.00    -0.206 F 
ATOM     91  C   UNL A   1      46.401  27.161  36.331  1.00  0.00     0.022 A 
BRANCH  88  92
ATOM     92  S   UNL A   1      44.966  24.980  37.312  1.00  0.00     0.124 S 
ATOM     93  O   UNL A   1      43.953  25.487  38.233  1.00  0.00    -0.237 OA
ATOM     94  O   UNL A   1      44.523  23.947  36.381  1.00  0.00    -0.237 OA
ATOM     95  O   UNL A   1      46.283  24.752  37.903  1.00  0.00    -0.744 OA
ENDBRANCH  88  92
ENDBRANCH  62  85
ENDBRANCH  36  37
ENDBRANCH  29  31
ENDBRANCH  28  29
ENDBRANCH  27  28
ENDBRANCH   1  27
TORSDOF 21
ENDMDL
MODEL 3
REMARK VINA RESULT:     -10.7      4.860     10.172
REMARK SMILES Cc1nc(Nc2ccc(F)cc2)nc(OCC(=O)OCCOC(=O)c2ccc(-c3c4nc(c(-c5cc(S(=O)(=O)[O-])ccc5F)c5ccc([nH]5)c(-c5cc(S(=O)(=O)[O-])ccc5F)c5nc(c(-c6cc(S(=O)(=O)[O-])ccc6F)c6ccc3[nH]6)C=C5)C=C4)cc2)c1CCO
REMARK SMILES IDX 20 1 19 2 17 3 18 4 16 5 15 6 14 7 1 8 2 9 3 10 88 11 4 12
REMARK SMILES IDX 13 13 89 14 90 15 91 16 5 18 6 20 7 21 12 22 8 23 11 24 9 25
REMARK SMILES IDX 10 26 21 27 22 28 23 29 24 30 25 31 26 32 87 33 27 34 86 35
REMARK SMILES IDX 28 36 29 37 30 38 80 39 31 40 85 41 79 42 81 43 32 44 84 45
REMARK SMILES IDX 78 46 77 47 33 49 65 50 45 51 64 52 46 53 49 54 63 55 82 56
REMARK SMILES IDX 47 57 48 58 62 60 83 61 50 62 34 63 35 64 43 65 36 66 42 67
REMARK SMILES IDX 44 68 41 69 37 70 38 71 39 72 40 73 66 74 67 75 75 76 68 77
REMARK SMILES IDX 74 78 76 79 73 80 69 81 70 82 71 83 72 84 51 85 52 86 60 87
REMARK SMILES IDX 53 88 59 89 61 90 58 91 54 92 55 93 56 94 57 95
REMARK H PARENT 91 17 5 19 81 48 49 59
REMARK Flexibility Score: inf
ROOT
ATOM      1  C   UNL A   1      35.046  21.164  25.192  1.00  0.00     0.274 C 
ENDROOT
BRANCH   1   2
ATOM      2  O   UNL A   1      33.980  20.781  26.089  1.00  0.00    -0.460 OA
BRANCH   2   3
ATOM      3  C   UNL A   1      32.732  21.118  25.669  1.00  0.00     0.344 C 
ATOM      4  O   UNL A   1      31.988  20.375  25.037  1.00  0.00    -0.248 OA
BRANCH   3   5
ATOM      5  C   UNL A   1      32.388  22.592  25.917  1.00  0.00     0.353 C 
BRANCH   5   6
ATOM      6  O   UNL A   1      31.159  23.241  25.702  1.00  0.00    -0.465 OA
BRANCH   6   7
ATOM      7  C   UNL A   1      31.081  24.533  25.298  1.00  0.00     0.222 A 
ATOM      8  C   UNL A   1      30.750  27.150  22.616  1.00  0.00     0.067 C 
ATOM      9  C   UNL A   1      30.853  26.382  23.898  1.00  0.00     0.050 A 
ATOM     10  N   UNL A   1      30.783  27.179  24.974  1.00  0.00    -0.218 NA
ATOM     11  C   UNL A   1      31.113  25.018  23.999  1.00  0.00     0.038 A 
ATOM     12  C   UNL A   1      31.035  26.659  26.170  1.00  0.00     0.230 A 
ATOM     13  N   UNL A   1      31.124  25.346  26.375  1.00  0.00    -0.177 NA
BRANCH  11  14
ATOM     14  C   UNL A   1      31.538  24.218  22.796  1.00  0.00     0.071 C 
BRANCH  14  15
ATOM     15  C   UNL A   1      33.000  24.407  22.388  1.00  0.00     0.161 C 
BRANCH  15  16
ATOM     16  O   UNL A   1      33.835  23.398  22.937  1.00  0.00    -0.396 OA
ATOM     17  H   UNL A   1      33.298  22.623  23.166  1.00  0.00     0.210 HD
ENDBRANCH  15  16
ENDBRANCH  14  15
ENDBRANCH  11  14
BRANCH  12  18
ATOM     18  N   UNL A   1      31.384  27.520  27.215  1.00  0.00    -0.324 N 
ATOM     19  H   UNL A   1      30.928  27.396  28.079  1.00  0.00     0.170 HD
BRANCH  18  20
ATOM     20  C   UNL A   1      32.335  28.548  27.124  1.00  0.00     0.041 A 
ATOM     21  C   UNL A   1      33.704  28.248  27.197  1.00  0.00     0.029 A 
ATOM     22  C   UNL A   1      31.939  29.893  27.135  1.00  0.00     0.029 A 
ATOM     23  C   UNL A   1      34.660  29.262  27.248  1.00  0.00     0.041 A 
ATOM     24  C   UNL A   1      32.896  30.913  27.205  1.00  0.00     0.041 A 
ATOM     25  C   UNL A   1      34.246  30.587  27.255  1.00  0.00     0.123 A 
ATOM     26  F   UNL A   1      35.163  31.561  27.321  1.00  0.00    -0.207 F 
ENDBRANCH  18  20
ENDBRANCH  12  18
ENDBRANCH   6   7
ENDBRANCH   5   6
ENDBRANCH   3   5
ENDBRANCH   2   3
ENDBRANCH   1   2
BRANCH   1  27
ATOM     27  C   UNL A   1      36.143  21.951  25.903  1.00  0.00     0.275 C 
BRANCH  27  28
ATOM     28  O   UNL A   1      37.337  21.972  25.103  1.00  0.00    -0.458 OA
BRANCH  28  29
ATOM     29  C   UNL A   1      38.474  21.632  25.755  1.00  0.00     0.338 C 
ATOM     30  O   UNL A   1      38.981  20.523  25.779  1.00  0.00    -0.246 OA
BRANCH  29  31
ATOM     31  C   UNL A   1      39.082  22.805  26.435  1.00  0.00     0.060 A 
ATOM     32  C   UNL A   1      38.620  24.108  26.235  1.00  0.00     0.016 A 
ATOM     33  C   UNL A   1      40.242  22.601  27.193  1.00  0.00     0.016 A 
ATOM     34  C   UNL A   1      39.382  25.195  26.683  1.00  0.00     0.010 A 
ATOM     35  C   UNL A   1      40.957  23.689  27.707  1.00  0.00     0.010 A 
ATOM     36  C   UNL A   1      40.562  25.005  27.425  1.00  0.00    -0.014 A 
BRANCH  36  37
ATOM     37  C   UNL A   1      41.380  26.155  27.917  1.00  0.00     0.031 A 
ATOM     38  C   UNL A   1      40.769  27.242  28.773  1.00  0.00     0.074 A 
ATOM     39  C   UNL A   1      42.682  26.254  27.581  1.00  0.00     0.049 A 
ATOM     40  N   UNL A   1      41.240  28.426  29.073  1.00  0.00    -0.248 NA
ATOM     41  C   UNL A   1      39.457  26.958  29.373  1.00  0.00     0.031 C 
ATOM     42  C   UNL A   1      43.441  25.263  26.816  1.00  0.00     0.029 A 
ATOM     43  N   UNL A   1      43.599  27.244  27.838  1.00  0.00    -0.354 N 
ATOM     44  C   UNL A   1      40.268  29.045  29.855  1.00  0.00     0.074 A 
ATOM     45  C   UNL A   1      39.181  28.098  29.995  1.00  0.00     0.031 C 
ATOM     46  C   UNL A   1      44.710  25.674  26.697  1.00  0.00     0.029 A 
ATOM     47  C   UNL A   1      44.829  27.010  27.272  1.00  0.00     0.049 A 
ATOM     48  H   UNL A   1      43.395  28.044  28.375  1.00  0.00     0.167 HD
ATOM     49  C   UNL A   1      40.277  30.289  30.395  1.00  0.00     0.034 A 
ATOM     50  C   UNL A   1      45.916  27.796  27.152  1.00  0.00     0.034 A 
ATOM     51  C   UNL A   1      41.376  31.217  30.280  1.00  0.00     0.049 A 
ATOM     52  C   UNL A   1      45.871  29.204  27.665  1.00  0.00     0.074 A 
ATOM     53  C   UNL A   1      41.479  32.498  30.799  1.00  0.00     0.029 A 
ATOM     54  N   UNL A   1      42.563  30.966  29.609  1.00  0.00    -0.354 N 
ATOM     55  N   UNL A   1      44.894  29.823  28.281  1.00  0.00    -0.248 NA
ATOM     56  C   UNL A   1      47.063  30.031  27.431  1.00  0.00     0.031 C 
ATOM     57  C   UNL A   1      42.706  33.040  30.397  1.00  0.00     0.029 A 
ATOM     58  C   UNL A   1      43.393  32.075  29.679  1.00  0.00     0.049 A 
ATOM     59  H   UNL A   1      42.784  30.124  29.150  1.00  0.00     0.167 HD
ATOM     60  C   UNL A   1      45.350  31.117  28.503  1.00  0.00     0.074 A 
ATOM     61  C   UNL A   1      46.694  31.186  27.967  1.00  0.00     0.031 C 
ATOM     62  C   UNL A   1      44.711  32.152  29.101  1.00  0.00     0.034 A 
BRANCH  49  63
ATOM     63  C   UNL A   1      39.040  30.761  31.114  1.00  0.00     0.023 A 
ATOM     64  C   UNL A   1      38.120  31.640  30.521  1.00  0.00     0.031 A 
ATOM     65  C   UNL A   1      38.748  30.260  32.397  1.00  0.00     0.131 A 
ATOM     66  C   UNL A   1      36.957  32.007  31.220  1.00  0.00     0.055 A 
ATOM     67  C   UNL A   1      37.569  30.591  33.066  1.00  0.00     0.041 A 
ATOM     68  F   UNL A   1      39.602  29.426  33.011  1.00  0.00    -0.206 F 
ATOM     69  C   UNL A   1      36.666  31.471  32.479  1.00  0.00     0.022 A 
BRANCH  66  70
ATOM     70  S   UNL A   1      35.840  33.230  30.481  1.00  0.00     0.124 S 
ATOM     71  O   UNL A   1      35.809  34.262  31.513  1.00  0.00    -0.237 OA
ATOM     72  O   UNL A   1      36.528  33.583  29.245  1.00  0.00    -0.237 OA
ATOM     73  O   UNL A   1      34.589  32.493  30.307  1.00  0.00    -0.744 OA
ENDBRANCH  66  70
ENDBRANCH  49  63
BRANCH  50  74
ATOM     74  C   UNL A   1      47.099  27.285  26.412  1.00  0.00     0.023 A 
ATOM     75  C   UNL A   1      48.148  26.644  27.083  1.00  0.00     0.031 A 
ATOM     76  C   UNL A   1      47.162  27.387  25.010  1.00  0.00     0.131 A 
ATOM     77  C   UNL A   1      49.222  26.121  26.346  1.00  0.00     0.055 A 
ATOM     78  C   UNL A   1      48.212  26.834  24.280  1.00  0.00     0.041 A 
ATOM     79  F   UNL A   1      46.171  27.984  24.328  1.00  0.00    -0.206 F 
ATOM     80  C   UNL A   1      49.252  26.196  24.950  1.00  0.00     0.022 A 
BRANCH  77  81
ATOM     81  S   UNL A   1      50.586  25.325  27.238  1.00  0.00     0.124 S 
ATOM     82  O   UNL A   1      49.900  24.224  27.906  1.00  0.00    -0.237 OA
ATOM     83  O   UNL A   1      51.489  24.954  26.153  1.00  0.00    -0.237 OA
ATOM     84  O   UNL A   1      51.077  26.383  28.117  1.00  0.00    -0.744 OA
ENDBRANCH  77  81
ENDBRANCH  50  74
BRANCH  62  85
ATOM     85  C   UNL A   1      45.468  33.446  29.214  1.00  0.00     0.023 A 
ATOM     86  C   UNL A   1      45.325  34.461  28.254  1.00  0.00     0.031 A 
ATOM     87  C   UNL A   1      46.348  33.661  30.288  1.00  0.00     0.131 A 
ATOM     88  C   UNL A   1      46.082  35.636  28.367  1.00  0.00     0.055 A 
ATOM     89  C   UNL A   1      47.067  34.848  30.418  1.00  0.00     0.041 A 
ATOM     90  F   UNL A   1      46.519  32.718  31.229  1.00  0.00    -0.206 F 
ATOM     91  C   UNL A   1      46.942  35.841  29.449  1.00  0.00     0.022 A 
BRANCH  88  92
ATOM     92  S   UNL A   1      45.963  36.883  27.055  1.00  0.00     0.124 S 
ATOM     93  O   UNL A   1      46.775  36.286  25.999  1.00  0.00    -0.237 OA
ATOM     94  O   UNL A   1      44.527  36.941  26.800  1.00  0.00    -0.237 OA
ATOM     95  O   UNL A   1      46.529  38.082  27.669  1.00  0.00    -0.744 OA
ENDBRANCH  88  92
ENDBRANCH  62  85
ENDBRANCH  36  37
ENDBRANCH  29  31
ENDBRANCH  28  29
ENDBRANCH  27  28
ENDBRANCH   1  27
TORSDOF 21
ENDMDL
