MODEL 1
REMARK VINA RESULT:     -12.6      0.000      0.000
REMARK SMILES Cc1cc(Br)cc2c1O[C@H](C(F)(F)F)C(C(=O)OCCOC(=O)c1ccc(-c3c4nc(c(-c5cc(S(=O)(=O)[O-])ccc5F)c5ccc([nH]5)c(-c5cc(S(=O)(=O)[O-])ccc5F)c5nc(c(-c6cc(S(=O)(=O)[O-])ccc6F)c6ccc3[nH]6)C=C5)C=C4)cc1)=C2
REMARK SMILES IDX 20 1 19 2 18 3 16 4 17 5 15 6 1 7 2 8 3 9 8 10 4 11 7 12
REMARK SMILES IDX 9 13 5 14 6 15 87 16 10 17 11 18 12 19 13 20 14 21 21 22
REMARK SMILES IDX 22 23 23 24 24 25 25 26 86 27 26 28 85 29 27 30 28 31 29 32
REMARK SMILES IDX 79 33 30 34 84 35 78 36 80 37 31 38 83 39 77 40 76 41 32 43
REMARK SMILES IDX 64 44 44 45 63 46 45 47 48 48 62 49 81 50 46 51 47 52 61 54
REMARK SMILES IDX 82 55 49 56 33 57 34 58 42 59 35 60 41 61 43 62 40 63 36 64
REMARK SMILES IDX 37 65 38 66 39 67 65 68 66 69 74 70 67 71 73 72 75 73 72 74
REMARK SMILES IDX 68 75 69 76 70 77 71 78 50 79 51 80 59 81 52 82 58 83 60 84
REMARK SMILES IDX 57 85 53 86 54 87 55 88 56 89
REMARK H PARENT 80 42 48 53
REMARK Flexibility Score: inf
ROOT
ATOM      1  C   UNL A   1      36.039  20.830  25.094  1.00  0.00     0.275 C 
ENDROOT
BRANCH   1   2
ATOM      2  C   UNL A   1      34.698  21.511  24.823  1.00  0.00     0.275 C 
BRANCH   2   3
ATOM      3  O   UNL A   1      34.843  22.946  24.745  1.00  0.00    -0.459 OA
BRANCH   3   4
ATOM      4  C   UNL A   1      34.669  23.479  23.513  1.00  0.00     0.338 C 
ATOM      5  O   UNL A   1      35.173  23.084  22.474  1.00  0.00    -0.246 OA
BRANCH   4   6
ATOM      6  C   UNL A   1      33.767  24.643  23.570  1.00  0.00     0.087 C 
ATOM      7  C   UNL A   1      29.619  27.709  23.505  1.00  0.00     0.048 C 
ATOM      8  C   UNL A   1      30.953  27.678  24.193  1.00  0.00    -0.007 A 
ATOM      9  C   UNL A   1      31.247  28.686  25.129  1.00  0.00     0.023 A 
ATOM     10  C   UNL A   1      31.914  26.692  23.923  1.00  0.00     0.130 A 
ATOM     11  C   UNL A   1      32.475  28.705  25.787  1.00  0.00     0.019 A 
ATOM     12  C   UNL A   1      33.136  26.712  24.602  1.00  0.00     0.019 A 
ATOM     13  O   UNL A   1      31.610  25.747  22.980  1.00  0.00    -0.475 OA
ATOM     14  Br  UNL A   1      32.844  30.055  27.055  1.00  0.00    -0.051 Br
ATOM     15  C   UNL A   1      33.422  27.723  25.526  1.00  0.00     0.027 A 
ATOM     16  C   UNL A   1      34.096  25.648  24.387  1.00  0.00     0.027 C 
ATOM     17  C   UNL A   1      32.461  24.576  22.841  1.00  0.00     0.316 C 
BRANCH  17  18
ATOM     18  C   UNL A   1      31.654  23.330  23.238  1.00  0.00     0.430 C 
ATOM     19  F   UNL A   1      31.739  23.093  24.570  1.00  0.00    -0.167 F 
ATOM     20  F   UNL A   1      30.334  23.484  22.965  1.00  0.00    -0.167 F 
ATOM     21  F   UNL A   1      32.072  22.215  22.600  1.00  0.00    -0.167 F 
ENDBRANCH  17  18
ENDBRANCH   4   6
ENDBRANCH   3   4
ENDBRANCH   2   3
ENDBRANCH   1   2
BRANCH   1  22
ATOM     22  O   UNL A   1      37.109  21.788  25.015  1.00  0.00    -0.458 OA
BRANCH  22  23
ATOM     23  C   UNL A   1      38.275  21.394  25.576  1.00  0.00     0.338 C 
ATOM     24  O   UNL A   1      38.823  20.311  25.453  1.00  0.00    -0.246 OA
BRANCH  23  25
ATOM     25  C   UNL A   1      38.877  22.503  26.332  1.00  0.00     0.060 A 
ATOM     26  C   UNL A   1      38.351  23.779  26.176  1.00  0.00     0.016 A 
ATOM     27  C   UNL A   1      40.076  22.325  27.019  1.00  0.00     0.016 A 
ATOM     28  C   UNL A   1      39.107  24.890  26.534  1.00  0.00     0.010 A 
ATOM     29  C   UNL A   1      40.752  23.442  27.528  1.00  0.00     0.010 A 
ATOM     30  C   UNL A   1      40.309  24.746  27.239  1.00  0.00    -0.014 A 
BRANCH  30  31
ATOM     31  C   UNL A   1      41.108  25.949  27.627  1.00  0.00     0.031 A 
ATOM     32  C   UNL A   1      40.520  26.994  28.548  1.00  0.00     0.074 A 
ATOM     33  C   UNL A   1      42.380  26.097  27.193  1.00  0.00     0.049 A 
ATOM     34  N   UNL A   1      40.973  28.185  28.844  1.00  0.00    -0.248 NA
ATOM     35  C   UNL A   1      39.248  26.661  29.212  1.00  0.00     0.031 C 
ATOM     36  C   UNL A   1      43.109  25.141  26.355  1.00  0.00     0.029 A 
ATOM     37  N   UNL A   1      43.299  27.094  27.415  1.00  0.00    -0.354 N 
ATOM     38  C   UNL A   1      40.020  28.763  29.679  1.00  0.00     0.074 A 
ATOM     39  C   UNL A   1      38.954  27.797  29.829  1.00  0.00     0.031 C 
ATOM     40  C   UNL A   1      44.374  25.555  26.204  1.00  0.00     0.029 A 
ATOM     41  C   UNL A   1      44.518  26.868  26.815  1.00  0.00     0.049 A 
ATOM     42  H   UNL A   1      43.105  27.895  27.953  1.00  0.00     0.167 HD
ATOM     43  C   UNL A   1      40.038  29.984  30.269  1.00  0.00     0.034 A 
ATOM     44  C   UNL A   1      45.615  27.645  26.713  1.00  0.00     0.034 A 
ATOM     45  C   UNL A   1      41.136  30.913  30.161  1.00  0.00     0.049 A 
ATOM     46  C   UNL A   1      45.578  29.027  27.301  1.00  0.00     0.074 A 
ATOM     47  C   UNL A   1      41.255  32.173  30.722  1.00  0.00     0.029 A 
ATOM     48  N   UNL A   1      42.311  30.676  29.461  1.00  0.00    -0.354 N 
ATOM     49  N   UNL A   1      44.623  29.599  27.996  1.00  0.00    -0.248 NA
ATOM     50  C   UNL A   1      46.748  29.882  27.062  1.00  0.00     0.031 C 
ATOM     51  C   UNL A   1      42.476  32.720  30.314  1.00  0.00     0.029 A 
ATOM     52  C   UNL A   1      43.148  31.778  29.552  1.00  0.00     0.049 A 
ATOM     53  H   UNL A   1      42.520  29.848  28.973  1.00  0.00     0.167 HD
ATOM     54  C   UNL A   1      45.078  30.881  28.278  1.00  0.00     0.074 A 
ATOM     55  C   UNL A   1      46.401  30.993  27.697  1.00  0.00     0.031 C 
ATOM     56  C   UNL A   1      44.454  31.879  28.952  1.00  0.00     0.034 A 
BRANCH  43  57
ATOM     57  C   UNL A   1      38.820  30.410  31.051  1.00  0.00     0.023 A 
ATOM     58  C   UNL A   1      37.756  31.105  30.455  1.00  0.00     0.031 A 
ATOM     59  C   UNL A   1      38.716  30.087  32.417  1.00  0.00     0.131 A 
ATOM     60  C   UNL A   1      36.653  31.493  31.232  1.00  0.00     0.055 A 
ATOM     61  C   UNL A   1      37.587  30.419  33.169  1.00  0.00     0.041 A 
ATOM     62  F   UNL A   1      39.711  29.438  33.043  1.00  0.00    -0.206 F 
ATOM     63  C   UNL A   1      36.551  31.134  32.578  1.00  0.00     0.022 A 
BRANCH  60  64
ATOM     64  S   UNL A   1      35.386  32.551  30.480  1.00  0.00     0.124 S 
ATOM     65  O   UNL A   1      36.136  33.782  30.241  1.00  0.00    -0.237 OA
ATOM     66  O   UNL A   1      35.003  31.795  29.294  1.00  0.00    -0.237 OA
ATOM     67  O   UNL A   1      34.359  32.646  31.516  1.00  0.00    -0.744 OA
ENDBRANCH  60  64
ENDBRANCH  43  57
BRANCH  44  68
ATOM     68  C   UNL A   1      46.805  27.161  25.957  1.00  0.00     0.023 A 
ATOM     69  C   UNL A   1      47.033  27.567  24.634  1.00  0.00     0.031 A 
ATOM     70  C   UNL A   1      47.738  26.289  26.551  1.00  0.00     0.131 A 
ATOM     71  C   UNL A   1      48.162  27.096  23.944  1.00  0.00     0.055 A 
ATOM     72  C   UNL A   1      48.883  25.863  25.878  1.00  0.00     0.041 A 
ATOM     73  F   UNL A   1      47.564  25.867  27.814  1.00  0.00    -0.206 F 
ATOM     74  C   UNL A   1      49.097  26.262  24.564  1.00  0.00     0.022 A 
BRANCH  71  75
ATOM     75  S   UNL A   1      48.378  27.562  22.205  1.00  0.00     0.124 S 
ATOM     76  O   UNL A   1      48.569  26.261  21.573  1.00  0.00    -0.237 OA
ATOM     77  O   UNL A   1      47.121  28.242  21.912  1.00  0.00    -0.237 OA
ATOM     78  O   UNL A   1      49.559  28.423  22.227  1.00  0.00    -0.744 OA
ENDBRANCH  71  75
ENDBRANCH  44  68
BRANCH  56  79
ATOM     79  C   UNL A   1      45.198  33.176  29.104  1.00  0.00     0.023 A 
ATOM     80  C   UNL A   1      45.097  34.190  28.138  1.00  0.00     0.031 A 
ATOM     81  C   UNL A   1      45.980  33.419  30.248  1.00  0.00     0.131 A 
ATOM     82  C   UNL A   1      45.791  35.395  28.318  1.00  0.00     0.055 A 
ATOM     83  C   UNL A   1      46.629  34.638  30.445  1.00  0.00     0.041 A 
ATOM     84  F   UNL A   1      46.105  32.481  31.201  1.00  0.00    -0.206 F 
ATOM     85  C   UNL A   1      46.539  35.632  29.474  1.00  0.00     0.022 A 
BRANCH  82  86
ATOM     86  S   UNL A   1      45.726  36.642  27.004  1.00  0.00     0.124 S 
ATOM     87  O   UNL A   1      46.217  35.892  25.853  1.00  0.00    -0.237 OA
ATOM     88  O   UNL A   1      44.311  36.999  26.976  1.00  0.00    -0.237 OA
ATOM     89  O   UNL A   1      46.619  37.695  27.486  1.00  0.00    -0.744 OA
ENDBRANCH  82  86
ENDBRANCH  56  79
ENDBRANCH  30  31
ENDBRANCH  23  25
ENDBRANCH  22  23
ENDBRANCH   1  22
TORSDOF 15
ENDMDL
MODEL 2
REMARK VINA RESULT:     -12.4      1.262      1.647
REMARK SMILES Cc1cc(Br)cc2c1O[C@H](C(F)(F)F)C(C(=O)OCCOC(=O)c1ccc(-c3c4nc(c(-c5cc(S(=O)(=O)[O-])ccc5F)c5ccc([nH]5)c(-c5cc(S(=O)(=O)[O-])ccc5F)c5nc(c(-c6cc(S(=O)(=O)[O-])ccc6F)c6ccc3[nH]6)C=C5)C=C4)cc1)=C2
REMARK SMILES IDX 20 1 19 2 18 3 16 4 17 5 15 6 1 7 2 8 3 9 8 10 4 11 7 12
REMARK SMILES IDX 9 13 5 14 6 15 87 16 10 17 11 18 12 19 13 20 14 21 21 22
REMARK SMILES IDX 22 23 23 24 24 25 25 26 86 27 26 28 85 29 27 30 28 31 29 32
REMARK SMILES IDX 79 33 30 34 84 35 78 36 80 37 31 38 83 39 77 40 76 41 32 43
REMARK SMILES IDX 64 44 44 45 63 46 45 47 48 48 62 49 81 50 46 51 47 52 61 54
REMARK SMILES IDX 82 55 49 56 33 57 34 58 42 59 35 60 41 61 43 62 40 63 36 64
REMARK SMILES IDX 37 65 38 66 39 67 65 68 66 69 74 70 67 71 73 72 75 73 72 74
REMARK SMILES IDX 68 75 69 76 70 77 71 78 50 79 51 80 59 81 52 82 58 83 60 84
REMARK SMILES IDX 57 85 53 86 54 87 55 88 56 89
REMARK H PARENT 80 42 48 53
REMARK Flexibility Score: inf
ROOT
ATOM      1  C   UNL A   1      36.245  20.718  25.259  1.00  0.00     0.275 C 
ENDROOT
BRANCH   1   2
ATOM      2  C   UNL A   1      34.947  21.497  25.050  1.00  0.00     0.275 C 
BRANCH   2   3
ATOM      3  O   UNL A   1      35.200  22.909  24.892  1.00  0.00    -0.459 OA
BRANCH   3   4
ATOM      4  C   UNL A   1      34.990  23.399  23.648  1.00  0.00     0.338 C 
ATOM      5  O   UNL A   1      35.509  23.005  22.615  1.00  0.00    -0.246 OA
BRANCH   4   6
ATOM      6  C   UNL A   1      34.026  24.513  23.681  1.00  0.00     0.087 C 
ATOM      7  C   UNL A   1      29.723  27.353  23.507  1.00  0.00     0.048 C 
ATOM      8  C   UNL A   1      31.037  27.392  24.229  1.00  0.00    -0.007 A 
ATOM      9  C   UNL A   1      31.252  28.413  25.174  1.00  0.00     0.023 A 
ATOM     10  C   UNL A   1      32.057  26.460  23.986  1.00  0.00     0.130 A 
ATOM     11  C   UNL A   1      32.459  28.496  25.864  1.00  0.00     0.019 A 
ATOM     12  C   UNL A   1      33.258  26.543  24.696  1.00  0.00     0.019 A 
ATOM     13  O   UNL A   1      31.830  25.502  23.034  1.00  0.00    -0.475 OA
ATOM     14  Br  UNL A   1      32.722  29.863  27.142  1.00  0.00    -0.051 Br
ATOM     15  C   UNL A   1      33.465  27.567  25.628  1.00  0.00     0.027 A 
ATOM     16  C   UNL A   1      34.279  25.533  24.507  1.00  0.00     0.027 C 
ATOM     17  C   UNL A   1      32.745  24.377  22.917  1.00  0.00     0.316 C 
BRANCH  17  18
ATOM     18  C   UNL A   1      31.996  23.090  23.292  1.00  0.00     0.430 C 
ATOM     19  F   UNL A   1      30.682  23.171  22.965  1.00  0.00    -0.167 F 
ATOM     20  F   UNL A   1      32.486  22.016  22.624  1.00  0.00    -0.167 F 
ATOM     21  F   UNL A   1      32.067  22.813  24.612  1.00  0.00    -0.167 F 
ENDBRANCH  17  18
ENDBRANCH   4   6
ENDBRANCH   3   4
ENDBRANCH   2   3
ENDBRANCH   1   2
BRANCH   1  22
ATOM     22  O   UNL A   1      37.380  21.564  25.005  1.00  0.00    -0.458 OA
BRANCH  22  23
ATOM     23  C   UNL A   1      38.515  21.213  25.653  1.00  0.00     0.338 C 
ATOM     24  O   UNL A   1      39.072  20.129  25.626  1.00  0.00    -0.246 OA
BRANCH  23  25
ATOM     25  C   UNL A   1      39.071  22.370  26.371  1.00  0.00     0.060 A 
ATOM     26  C   UNL A   1      38.531  23.627  26.128  1.00  0.00     0.016 A 
ATOM     27  C   UNL A   1      40.245  22.249  27.110  1.00  0.00     0.016 A 
ATOM     28  C   UNL A   1      39.256  24.768  26.455  1.00  0.00     0.010 A 
ATOM     29  C   UNL A   1      40.884  23.402  27.585  1.00  0.00     0.010 A 
ATOM     30  C   UNL A   1      40.432  24.681  27.211  1.00  0.00    -0.014 A 
BRANCH  30  31
ATOM     31  C   UNL A   1      41.197  25.917  27.565  1.00  0.00     0.031 A 
ATOM     32  C   UNL A   1      40.592  26.956  28.481  1.00  0.00     0.074 A 
ATOM     33  C   UNL A   1      42.455  26.100  27.104  1.00  0.00     0.049 A 
ATOM     34  N   UNL A   1      41.010  28.167  28.749  1.00  0.00    -0.248 NA
ATOM     35  C   UNL A   1      39.345  26.591  29.175  1.00  0.00     0.031 C 
ATOM     36  C   UNL A   1      43.200  25.156  26.266  1.00  0.00     0.029 A 
ATOM     37  N   UNL A   1      43.344  27.131  27.292  1.00  0.00    -0.354 N 
ATOM     38  C   UNL A   1      40.054  28.726  29.594  1.00  0.00     0.074 A 
ATOM     39  C   UNL A   1      39.025  27.727  29.780  1.00  0.00     0.031 C 
ATOM     40  C   UNL A   1      44.447  25.609  26.085  1.00  0.00     0.029 A 
ATOM     41  C   UNL A   1      44.558  26.936  26.672  1.00  0.00     0.049 A 
ATOM     42  H   UNL A   1      43.133  27.934  27.822  1.00  0.00     0.167 HD
ATOM     43  C   UNL A   1      40.042  29.956  30.164  1.00  0.00     0.034 A 
ATOM     44  C   UNL A   1      45.626  27.748  26.537  1.00  0.00     0.034 A 
ATOM     45  C   UNL A   1      41.105  30.919  30.021  1.00  0.00     0.049 A 
ATOM     46  C   UNL A   1      45.553  29.137  27.104  1.00  0.00     0.074 A 
ATOM     47  C   UNL A   1      41.193  32.191  30.560  1.00  0.00     0.029 A 
ATOM     48  N   UNL A   1      42.275  30.711  29.302  1.00  0.00    -0.354 N 
ATOM     49  N   UNL A   1      44.593  29.688  27.808  1.00  0.00    -0.248 NA
ATOM     50  C   UNL A   1      46.689  30.026  26.829  1.00  0.00     0.031 C 
ATOM     51  C   UNL A   1      42.386  32.772  30.119  1.00  0.00     0.029 A 
ATOM     52  C   UNL A   1      43.075  31.841  29.360  1.00  0.00     0.049 A 
ATOM     53  H   UNL A   1      42.502  29.882  28.822  1.00  0.00     0.167 HD
ATOM     54  C   UNL A   1      45.010  30.989  28.061  1.00  0.00     0.074 A 
ATOM     55  C   UNL A   1      46.317  31.136  27.453  1.00  0.00     0.031 C 
ATOM     56  C   UNL A   1      44.366  31.977  28.732  1.00  0.00     0.034 A 
BRANCH  43  57
ATOM     57  C   UNL A   1      38.825  30.353  30.963  1.00  0.00     0.023 A 
ATOM     58  C   UNL A   1      37.749  31.048  30.389  1.00  0.00     0.031 A 
ATOM     59  C   UNL A   1      38.736  30.004  32.324  1.00  0.00     0.131 A 
ATOM     60  C   UNL A   1      36.648  31.409  31.181  1.00  0.00     0.055 A 
ATOM     61  C   UNL A   1      37.609  30.308  33.090  1.00  0.00     0.041 A 
ATOM     62  F   UNL A   1      39.742  29.354  32.930  1.00  0.00    -0.206 F 
ATOM     63  C   UNL A   1      36.560  31.023  32.521  1.00  0.00     0.022 A 
BRANCH  60  64
ATOM     64  S   UNL A   1      35.364  32.467  30.460  1.00  0.00     0.124 S 
ATOM     65  O   UNL A   1      34.360  32.475  31.520  1.00  0.00    -0.237 OA
ATOM     66  O   UNL A   1      36.073  33.723  30.241  1.00  0.00    -0.237 OA
ATOM     67  O   UNL A   1      34.973  31.754  29.245  1.00  0.00    -0.744 OA
ENDBRANCH  60  64
ENDBRANCH  43  57
BRANCH  44  68
ATOM     68  C   UNL A   1      46.817  27.292  25.765  1.00  0.00     0.023 A 
ATOM     69  C   UNL A   1      47.004  27.680  24.431  1.00  0.00     0.031 A 
ATOM     70  C   UNL A   1      47.792  26.465  26.355  1.00  0.00     0.131 A 
ATOM     71  C   UNL A   1      48.134  27.236  23.726  1.00  0.00     0.055 A 
ATOM     72  C   UNL A   1      48.938  26.067  25.667  1.00  0.00     0.041 A 
ATOM     73  F   UNL A   1      47.660  26.062  27.630  1.00  0.00    -0.206 F 
ATOM     74  C   UNL A   1      49.111  26.448  24.341  1.00  0.00     0.022 A 
BRANCH  71  75
ATOM     75  S   UNL A   1      48.298  27.675  21.974  1.00  0.00     0.124 S 
ATOM     76  O   UNL A   1      47.038  28.366  21.724  1.00  0.00    -0.237 OA
ATOM     77  O   UNL A   1      49.498  28.504  21.977  1.00  0.00    -0.237 OA
ATOM     78  O   UNL A   1      48.441  26.380  21.311  1.00  0.00    -0.744 OA
ENDBRANCH  71  75
ENDBRANCH  44  68
BRANCH  56  79
ATOM     79  C   UNL A   1      45.068  33.300  28.850  1.00  0.00     0.023 A 
ATOM     80  C   UNL A   1      45.970  33.554  29.896  1.00  0.00     0.031 A 
ATOM     81  C   UNL A   1      44.867  34.302  27.883  1.00  0.00     0.131 A 
ATOM     82  C   UNL A   1      46.621  34.794  29.968  1.00  0.00     0.055 A 
ATOM     83  C   UNL A   1      45.554  35.514  27.934  1.00  0.00     0.041 A 
ATOM     84  F   UNL A   1      44.015  34.105  26.863  1.00  0.00    -0.206 F 
ATOM     85  C   UNL A   1      46.433  35.767  28.983  1.00  0.00     0.022 A 
BRANCH  82  86
ATOM     86  S   UNL A   1      47.698  35.130  31.386  1.00  0.00     0.124 S 
ATOM     87  O   UNL A   1      48.458  33.889  31.490  1.00  0.00    -0.237 OA
ATOM     88  O   UNL A   1      48.449  36.301  30.943  1.00  0.00    -0.237 OA
ATOM     89  O   UNL A   1      46.759  35.377  32.479  1.00  0.00    -0.744 OA
ENDBRANCH  82  86
ENDBRANCH  56  79
ENDBRANCH  30  31
ENDBRANCH  23  25
ENDBRANCH  22  23
ENDBRANCH   1  22
TORSDOF 15
ENDMDL
MODEL 3
REMARK VINA RESULT:     -12.4      1.653      1.962
REMARK SMILES Cc1cc(Br)cc2c1O[C@H](C(F)(F)F)C(C(=O)OCCOC(=O)c1ccc(-c3c4nc(c(-c5cc(S(=O)(=O)[O-])ccc5F)c5ccc([nH]5)c(-c5cc(S(=O)(=O)[O-])ccc5F)c5nc(c(-c6cc(S(=O)(=O)[O-])ccc6F)c6ccc3[nH]6)C=C5)C=C4)cc1)=C2
REMARK SMILES IDX 20 1 19 2 18 3 16 4 17 5 15 6 1 7 2 8 3 9 8 10 4 11 7 12
REMARK SMILES IDX 9 13 5 14 6 15 87 16 10 17 11 18 12 19 13 20 14 21 21 22
REMARK SMILES IDX 22 23 23 24 24 25 25 26 86 27 26 28 85 29 27 30 28 31 29 32
REMARK SMILES IDX 79 33 30 34 84 35 78 36 80 37 31 38 83 39 77 40 76 41 32 43
REMARK SMILES IDX 64 44 44 45 63 46 45 47 48 48 62 49 81 50 46 51 47 52 61 54
REMARK SMILES IDX 82 55 49 56 33 57 34 58 42 59 35 60 41 61 43 62 40 63 36 64
REMARK SMILES IDX 37 65 38 66 39 67 65 68 66 69 74 70 67 71 73 72 75 73 72 74
REMARK SMILES IDX 68 75 69 76 70 77 71 78 50 79 51 80 59 81 52 82 58 83 60 84
REMARK SMILES IDX 57 85 53 86 54 87 55 88 56 89
REMARK H PARENT 80 42 48 53
REMARK Flexibility Score: inf
ROOT
ATOM      1  C   UNL A   1      36.748  20.395  24.920  1.00  0.00     0.275 C 
ENDROOT
BRANCH   1   2
ATOM      2  C   UNL A   1      35.306  20.770  25.263  1.00  0.00     0.275 C 
BRANCH   2   3
ATOM      3  O   UNL A   1      35.217  22.126  25.750  1.00  0.00    -0.459 OA
BRANCH   3   4
ATOM      4  C   UNL A   1      33.982  22.678  25.701  1.00  0.00     0.338 C 
ATOM      5  O   UNL A   1      32.934  22.143  26.028  1.00  0.00    -0.246 OA
BRANCH   4   6
ATOM      6  C   UNL A   1      34.046  24.055  25.181  1.00  0.00     0.087 C 
ATOM      7  C   UNL A   1      33.785  28.235  22.168  1.00  0.00     0.048 C 
ATOM      8  C   UNL A   1      33.644  27.922  23.629  1.00  0.00    -0.007 A 
ATOM      9  C   UNL A   1      33.307  28.968  24.509  1.00  0.00     0.023 A 
ATOM     10  C   UNL A   1      33.849  26.634  24.145  1.00  0.00     0.130 A 
ATOM     11  C   UNL A   1      33.173  28.729  25.874  1.00  0.00     0.019 A 
ATOM     12  C   UNL A   1      33.695  26.402  25.515  1.00  0.00     0.019 A 
ATOM     13  O   UNL A   1      34.212  25.647  23.267  1.00  0.00    -0.475 OA
ATOM     14  Br  UNL A   1      32.702  30.141  27.037  1.00  0.00    -0.051 Br
ATOM     15  C   UNL A   1      33.367  27.451  26.383  1.00  0.00     0.027 A 
ATOM     16  C   UNL A   1      33.824  25.057  26.037  1.00  0.00     0.027 C 
ATOM     17  C   UNL A   1      34.198  24.260  23.705  1.00  0.00     0.316 C 
BRANCH  17  18
ATOM     18  C   UNL A   1      33.118  23.504  22.915  1.00  0.00     0.430 C 
ATOM     19  F   UNL A   1      31.881  23.750  23.413  1.00  0.00    -0.167 F 
ATOM     20  F   UNL A   1      33.087  23.894  21.616  1.00  0.00    -0.167 F 
ATOM     21  F   UNL A   1      33.303  22.166  22.932  1.00  0.00    -0.167 F 
ENDBRANCH  17  18
ENDBRANCH   4   6
ENDBRANCH   3   4
ENDBRANCH   2   3
ENDBRANCH   1   2
BRANCH   1  22
ATOM     22  O   UNL A   1      37.623  21.511  25.161  1.00  0.00    -0.458 OA
BRANCH  22  23
ATOM     23  C   UNL A   1      38.778  21.208  25.797  1.00  0.00     0.338 C 
ATOM     24  O   UNL A   1      39.382  20.150  25.762  1.00  0.00    -0.246 OA
BRANCH  23  25
ATOM     25  C   UNL A   1      39.290  22.387  26.514  1.00  0.00     0.060 A 
ATOM     26  C   UNL A   1      38.820  23.643  26.151  1.00  0.00     0.016 A 
ATOM     27  C   UNL A   1      40.373  22.274  27.382  1.00  0.00     0.016 A 
ATOM     28  C   UNL A   1      39.541  24.781  26.498  1.00  0.00     0.010 A 
ATOM     29  C   UNL A   1      40.993  23.434  27.866  1.00  0.00     0.010 A 
ATOM     30  C   UNL A   1      40.625  24.703  27.382  1.00  0.00    -0.014 A 
BRANCH  30  31
ATOM     31  C   UNL A   1      41.386  25.936  27.755  1.00  0.00     0.031 A 
ATOM     32  C   UNL A   1      40.746  26.998  28.619  1.00  0.00     0.074 A 
ATOM     33  C   UNL A   1      42.669  26.095  27.360  1.00  0.00     0.049 A 
ATOM     34  N   UNL A   1      41.165  28.209  28.888  1.00  0.00    -0.248 NA
ATOM     35  C   UNL A   1      39.458  26.662  29.250  1.00  0.00     0.031 C 
ATOM     36  C   UNL A   1      43.446  25.126  26.581  1.00  0.00     0.029 A 
ATOM     37  N   UNL A   1      43.561  27.118  27.579  1.00  0.00    -0.354 N 
ATOM     38  C   UNL A   1      40.172  28.794  29.670  1.00  0.00     0.074 A 
ATOM     39  C   UNL A   1      39.121  27.812  29.816  1.00  0.00     0.031 C 
ATOM     40  C   UNL A   1      44.707  25.561  26.460  1.00  0.00     0.029 A 
ATOM     41  C   UNL A   1      44.804  26.897  27.030  1.00  0.00     0.049 A 
ATOM     42  H   UNL A   1      43.332  27.933  28.082  1.00  0.00     0.167 HD
ATOM     43  C   UNL A   1      40.145  30.035  30.217  1.00  0.00     0.034 A 
ATOM     44  C   UNL A   1      45.888  27.693  26.939  1.00  0.00     0.034 A 
ATOM     45  C   UNL A   1      41.228  30.982  30.115  1.00  0.00     0.049 A 
ATOM     46  C   UNL A   1      45.804  29.093  27.477  1.00  0.00     0.074 A 
ATOM     47  C   UNL A   1      41.303  32.263  30.636  1.00  0.00     0.029 A 
ATOM     48  N   UNL A   1      42.432  30.746  29.465  1.00  0.00    -0.354 N 
ATOM     49  N   UNL A   1      44.814  29.668  28.118  1.00  0.00    -0.248 NA
ATOM     50  C   UNL A   1      46.965  29.963  27.249  1.00  0.00     0.031 C 
ATOM     51  C   UNL A   1      42.526  32.821  30.251  1.00  0.00     0.029 A 
ATOM     52  C   UNL A   1      43.242  31.867  29.546  1.00  0.00     0.049 A 
ATOM     53  H   UNL A   1      42.674  29.906  29.013  1.00  0.00     0.167 HD
ATOM     54  C   UNL A   1      45.234  30.968  28.371  1.00  0.00     0.074 A 
ATOM     55  C   UNL A   1      46.574  31.088  27.832  1.00  0.00     0.031 C 
ATOM     56  C   UNL A   1      44.567  31.976  28.988  1.00  0.00     0.034 A 
BRANCH  43  57
ATOM     57  C   UNL A   1      38.892  30.462  30.941  1.00  0.00     0.023 A 
ATOM     58  C   UNL A   1      37.872  31.185  30.304  1.00  0.00     0.031 A 
ATOM     59  C   UNL A   1      38.710  30.111  32.292  1.00  0.00     0.131 A 
ATOM     60  C   UNL A   1      36.733  31.573  31.029  1.00  0.00     0.055 A 
ATOM     61  C   UNL A   1      37.547  30.443  32.989  1.00  0.00     0.041 A 
ATOM     62  F   UNL A   1      39.660  29.434  32.956  1.00  0.00    -0.206 F 
ATOM     63  C   UNL A   1      36.553  31.186  32.360  1.00  0.00     0.022 A 
BRANCH  60  64
ATOM     64  S   UNL A   1      35.524  32.665  30.234  1.00  0.00     0.124 S 
ATOM     65  O   UNL A   1      36.179  33.965  30.355  1.00  0.00    -0.237 OA
ATOM     66  O   UNL A   1      35.437  32.116  28.886  1.00  0.00    -0.237 OA
ATOM     67  O   UNL A   1      34.324  32.501  31.052  1.00  0.00    -0.744 OA
ENDBRANCH  60  64
ENDBRANCH  43  57
BRANCH  44  68
ATOM     68  C   UNL A   1      47.113  27.208  26.242  1.00  0.00     0.023 A 
ATOM     69  C   UNL A   1      48.129  26.545  26.946  1.00  0.00     0.031 A 
ATOM     70  C   UNL A   1      47.283  27.394  24.856  1.00  0.00     0.131 A 
ATOM     71  C   UNL A   1      49.274  26.098  26.265  1.00  0.00     0.055 A 
ATOM     72  C   UNL A   1      48.399  26.906  24.176  1.00  0.00     0.041 A 
ATOM     73  F   UNL A   1      46.342  28.026  24.136  1.00  0.00    -0.206 F 
ATOM     74  C   UNL A   1      49.406  26.258  24.883  1.00  0.00     0.022 A 
BRANCH  71  75
ATOM     75  S   UNL A   1      50.612  25.332  27.219  1.00  0.00     0.124 S 
ATOM     76  O   UNL A   1      49.911  24.240  27.887  1.00  0.00    -0.237 OA
ATOM     77  O   UNL A   1      51.553  24.948  26.172  1.00  0.00    -0.237 OA
ATOM     78  O   UNL A   1      51.066  26.410  28.096  1.00  0.00    -0.744 OA
ENDBRANCH  71  75
ENDBRANCH  44  68
BRANCH  56  79
ATOM     79  C   UNL A   1      45.279  33.292  29.121  1.00  0.00     0.023 A 
ATOM     80  C   UNL A   1      45.200  34.267  28.113  1.00  0.00     0.031 A 
ATOM     81  C   UNL A   1      46.009  33.593  30.285  1.00  0.00     0.131 A 
ATOM     82  C   UNL A   1      45.862  35.492  28.276  1.00  0.00     0.055 A 
ATOM     83  C   UNL A   1      46.626  34.831  30.461  1.00  0.00     0.041 A 
ATOM     84  F   UNL A   1      46.112  32.694  31.277  1.00  0.00    -0.206 F 
ATOM     85  C   UNL A   1      46.558  35.787  29.451  1.00  0.00     0.022 A 
BRANCH  82  86
ATOM     86  S   UNL A   1      45.829  36.687  26.914  1.00  0.00     0.124 S 
ATOM     87  O   UNL A   1      46.830  37.659  27.341  1.00  0.00    -0.237 OA
ATOM     88  O   UNL A   1      46.190  35.866  25.762  1.00  0.00    -0.237 OA
ATOM     89  O   UNL A   1      44.450  37.173  26.918  1.00  0.00    -0.744 OA
ENDBRANCH  82  86
ENDBRANCH  56  79
ENDBRANCH  30  31
ENDBRANCH  23  25
ENDBRANCH  22  23
ENDBRANCH   1  22
TORSDOF 15
ENDMDL
