MODEL 1
REMARK VINA RESULT:     -11.7      0.000      0.000
REMARK SMILES CNS(=O)(=O)c1ccc(Oc2csc(C(=O)OCCOC(=O)c3ccc(-c4c5nc(c(-c6cc(S(=O)(=O)[O-])ccc6F)c6ccc([nH]6)c(-c6cc(S(=O)(=O)[O-])ccc6F)c6nc(c(-c7cc(S(=O)(=O)[O-])ccc7F)c7ccc4[nH]7)C=C6)C=C5)cc3)c2)cc1
REMARK SMILES IDX 18 1 17 2 15 3 16 4 14 5 11 6 12 7 86 8 13 9 10 10 9 11 6 12
REMARK SMILES IDX 7 13 88 14 8 15 87 16 3 17 4 18 5 19 2 20 1 21 19 23 20 24
REMARK SMILES IDX 21 25 22 26 23 27 24 28 85 29 25 30 84 31 26 32 27 33 28 34
REMARK SMILES IDX 78 35 29 36 83 37 77 38 79 39 30 40 82 41 76 42 75 43 31 45
REMARK SMILES IDX 63 46 43 47 62 48 44 49 47 50 61 51 80 52 45 53 46 54 60 56
REMARK SMILES IDX 81 57 48 58 32 59 33 60 41 61 34 62 40 63 42 64 39 65 35 66
REMARK SMILES IDX 36 67 37 68 38 69 64 70 65 71 73 72 66 73 72 74 74 75 71 76
REMARK SMILES IDX 67 77 68 78 69 79 70 80 49 81 50 82 58 83 51 84 57 85 59 86
REMARK SMILES IDX 56 87 52 88 53 89 54 90 55 91
REMARK H PARENT 2 22 79 44 47 55
REMARK Flexibility Score: inf
ROOT
ATOM      1  C   UNL A   1      31.390  28.908  24.942  1.00  0.00     0.275 C 
ENDROOT
BRANCH   1   2
ATOM      2  O   UNL A   1      32.217  27.955  25.638  1.00  0.00    -0.458 OA
BRANCH   2   3
ATOM      3  C   UNL A   1      31.573  27.104  26.494  1.00  0.00     0.348 C 
ATOM      4  O   UNL A   1      31.108  27.448  27.573  1.00  0.00    -0.245 OA
BRANCH   3   5
ATOM      5  C   UNL A   1      31.508  25.770  25.921  1.00  0.00     0.116 A 
ATOM      6  C   UNL A   1      31.889  23.865  24.628  1.00  0.00     0.138 A 
ATOM      7  C   UNL A   1      30.755  23.485  25.305  1.00  0.00     0.112 A 
ATOM      8  C   UNL A   1      32.323  25.174  24.978  1.00  0.00     0.074 A 
ATOM      9  S   UNL A   1      30.281  24.678  26.435  1.00  0.00    -0.133 S 
BRANCH   6  10
ATOM     10  O   UNL A   1      32.606  23.068  23.807  1.00  0.00    -0.456 OA
BRANCH  10  11
ATOM     11  C   UNL A   1      32.737  21.711  23.965  1.00  0.00     0.127 A 
ATOM     12  C   UNL A   1      33.442  19.036  24.264  1.00  0.00     0.082 A 
ATOM     13  C   UNL A   1      33.955  19.982  25.152  1.00  0.00     0.025 A 
ATOM     14  C   UNL A   1      32.531  19.407  23.268  1.00  0.00     0.025 A 
ATOM     15  C   UNL A   1      33.601  21.321  24.994  1.00  0.00     0.048 A 
ATOM     16  C   UNL A   1      32.189  20.754  23.108  1.00  0.00     0.048 A 
BRANCH  12  17
ATOM     17  S   UNL A   1      33.982  17.351  24.382  1.00  0.00     0.240 S 
ATOM     18  O   UNL A   1      35.404  17.320  24.637  1.00  0.00    -0.207 OA
ATOM     19  O   UNL A   1      33.394  16.610  23.288  1.00  0.00    -0.207 OA
BRANCH  17  20
ATOM     20  N   UNL A   1      33.186  16.822  25.772  1.00  0.00    -0.214 NA
ATOM     21  C   UNL A   1      32.579  15.493  25.756  1.00  0.00     0.120 C 
ATOM     22  H   UNL A   1      33.865  16.836  26.533  1.00  0.00     0.141 HD
ENDBRANCH  17  20
ENDBRANCH  12  17
ENDBRANCH  10  11
ENDBRANCH   6  10
ENDBRANCH   3   5
ENDBRANCH   2   3
ENDBRANCH   1   2
BRANCH   1  23
ATOM     23  C   UNL A   1      31.623  30.346  25.422  1.00  0.00     0.275 C 
BRANCH  23  24
ATOM     24  O   UNL A   1      32.192  30.392  26.743  1.00  0.00    -0.458 OA
BRANCH  24  25
ATOM     25  C   UNL A   1      32.811  31.558  27.046  1.00  0.00     0.338 C 
ATOM     26  O   UNL A   1      32.313  32.671  27.028  1.00  0.00    -0.246 OA
BRANCH  25  27
ATOM     27  C   UNL A   1      34.163  31.302  27.565  1.00  0.00     0.060 A 
ATOM     28  C   UNL A   1      34.507  29.973  27.798  1.00  0.00     0.016 A 
ATOM     29  C   UNL A   1      35.021  32.328  27.953  1.00  0.00     0.016 A 
ATOM     30  C   UNL A   1      35.682  29.651  28.464  1.00  0.00     0.010 A 
ATOM     31  C   UNL A   1      36.227  32.003  28.595  1.00  0.00     0.010 A 
ATOM     32  C   UNL A   1      36.552  30.663  28.882  1.00  0.00    -0.014 A 
BRANCH  32  33
ATOM     33  C   UNL A   1      37.747  30.304  29.697  1.00  0.00     0.031 A 
ATOM     34  C   UNL A   1      38.835  29.457  29.094  1.00  0.00     0.074 A 
ATOM     35  C   UNL A   1      37.888  30.787  30.947  1.00  0.00     0.049 A 
ATOM     36  N   UNL A   1      39.905  28.954  29.655  1.00  0.00    -0.248 NA
ATOM     37  C   UNL A   1      38.691  29.127  27.669  1.00  0.00     0.031 C 
ATOM     38  C   UNL A   1      36.942  31.682  31.618  1.00  0.00     0.029 A 
ATOM     39  N   UNL A   1      38.886  30.607  31.873  1.00  0.00    -0.354 N 
ATOM     40  C   UNL A   1      40.546  28.221  28.660  1.00  0.00     0.074 A 
ATOM     41  C   UNL A   1      39.721  28.318  27.474  1.00  0.00     0.031 C 
ATOM     42  C   UNL A   1      37.418  31.992  32.834  1.00  0.00     0.029 A 
ATOM     43  C   UNL A   1      38.658  31.258  33.064  1.00  0.00     0.049 A 
ATOM     44  H   UNL A   1      39.688  30.063  31.701  1.00  0.00     0.167 HD
ATOM     45  C   UNL A   1      41.718  27.537  28.730  1.00  0.00     0.034 A 
ATOM     46  C   UNL A   1      39.348  31.236  34.222  1.00  0.00     0.034 A 
ATOM     47  C   UNL A   1      42.532  27.465  29.921  1.00  0.00     0.049 A 
ATOM     48  C   UNL A   1      40.597  30.395  34.306  1.00  0.00     0.074 A 
ATOM     49  C   UNL A   1      43.728  26.794  30.112  1.00  0.00     0.029 A 
ATOM     50  N   UNL A   1      42.236  28.087  31.130  1.00  0.00    -0.354 N 
ATOM     51  N   UNL A   1      41.164  29.659  33.378  1.00  0.00    -0.248 NA
ATOM     52  C   UNL A   1      41.299  30.386  35.596  1.00  0.00     0.031 C 
ATOM     53  C   UNL A   1      44.113  26.946  31.448  1.00  0.00     0.029 A 
ATOM     54  C   UNL A   1      43.210  27.792  32.072  1.00  0.00     0.049 A 
ATOM     55  H   UNL A   1      41.447  28.655  31.292  1.00  0.00     0.167 HD
ATOM     56  C   UNL A   1      42.311  29.130  33.963  1.00  0.00     0.074 A 
ATOM     57  C   UNL A   1      42.358  29.640  35.317  1.00  0.00     0.031 C 
ATOM     58  C   UNL A   1      43.246  28.303  33.425  1.00  0.00     0.034 A 
BRANCH  45  59
ATOM     59  C   UNL A   1      42.143  26.762  27.502  1.00  0.00     0.023 A 
ATOM     60  C   UNL A   1      41.879  25.388  27.355  1.00  0.00     0.031 A 
ATOM     61  C   UNL A   1      42.875  27.398  26.483  1.00  0.00     0.131 A 
ATOM     62  C   UNL A   1      42.419  24.682  26.270  1.00  0.00     0.055 A 
ATOM     63  C   UNL A   1      43.327  26.709  25.356  1.00  0.00     0.041 A 
ATOM     64  F   UNL A   1      43.181  28.703  26.572  1.00  0.00    -0.206 F 
ATOM     65  C   UNL A   1      43.117  25.338  25.254  1.00  0.00     0.022 A 
BRANCH  62  66
ATOM     66  S   UNL A   1      42.350  22.868  26.295  1.00  0.00     0.124 S 
ATOM     67  O   UNL A   1      40.967  22.631  26.707  1.00  0.00    -0.237 OA
ATOM     68  O   UNL A   1      42.675  22.521  24.917  1.00  0.00    -0.237 OA
ATOM     69  O   UNL A   1      43.357  22.499  27.288  1.00  0.00    -0.744 OA
ENDBRANCH  62  66
ENDBRANCH  45  59
BRANCH  46  70
ATOM     70  C   UNL A   1      38.853  31.992  35.411  1.00  0.00     0.023 A 
ATOM     71  C   UNL A   1      38.292  31.327  36.513  1.00  0.00     0.031 A 
ATOM     72  C   UNL A   1      38.894  33.398  35.442  1.00  0.00     0.131 A 
ATOM     73  C   UNL A   1      37.755  32.068  37.577  1.00  0.00     0.055 A 
ATOM     74  C   UNL A   1      38.416  34.128  36.531  1.00  0.00     0.041 A 
ATOM     75  F   UNL A   1      39.414  34.086  34.413  1.00  0.00    -0.206 F 
ATOM     76  C   UNL A   1      37.830  33.462  37.603  1.00  0.00     0.022 A 
BRANCH  73  77
ATOM     77  S   UNL A   1      36.872  31.185  38.893  1.00  0.00     0.124 S 
ATOM     78  O   UNL A   1      35.651  31.972  39.010  1.00  0.00    -0.237 OA
ATOM     79  O   UNL A   1      36.725  29.852  38.319  1.00  0.00    -0.237 OA
ATOM     80  O   UNL A   1      37.784  31.273  40.032  1.00  0.00    -0.744 OA
ENDBRANCH  73  77
ENDBRANCH  46  70
BRANCH  58  81
ATOM     81  C   UNL A   1      44.437  27.960  34.288  1.00  0.00     0.023 A 
ATOM     82  C   UNL A   1      44.447  26.843  35.141  1.00  0.00     0.031 A 
ATOM     83  C   UNL A   1      45.577  28.786  34.272  1.00  0.00     0.131 A 
ATOM     84  C   UNL A   1      45.543  26.620  35.990  1.00  0.00     0.055 A 
ATOM     85  C   UNL A   1      46.692  28.519  35.066  1.00  0.00     0.041 A 
ATOM     86  F   UNL A   1      45.624  29.870  33.481  1.00  0.00    -0.206 F 
ATOM     87  C   UNL A   1      46.673  27.440  35.943  1.00  0.00     0.022 A 
BRANCH  84  88
ATOM     88  S   UNL A   1      45.425  25.312  37.241  1.00  0.00     0.124 S 
ATOM     89  O   UNL A   1      45.310  24.112  36.417  1.00  0.00    -0.237 OA
ATOM     90  O   UNL A   1      46.678  25.465  37.973  1.00  0.00    -0.237 OA
ATOM     91  O   UNL A   1      44.222  25.664  37.994  1.00  0.00    -0.744 OA
ENDBRANCH  84  88
ENDBRANCH  58  81
ENDBRANCH  32  33
ENDBRANCH  25  27
ENDBRANCH  24  25
ENDBRANCH  23  24
ENDBRANCH   1  23
TORSDOF 18
ENDMDL
MODEL 2
REMARK VINA RESULT:     -11.6      5.388     10.865
REMARK SMILES CNS(=O)(=O)c1ccc(Oc2csc(C(=O)OCCOC(=O)c3ccc(-c4c5nc(c(-c6cc(S(=O)(=O)[O-])ccc6F)c6ccc([nH]6)c(-c6cc(S(=O)(=O)[O-])ccc6F)c6nc(c(-c7cc(S(=O)(=O)[O-])ccc7F)c7ccc4[nH]7)C=C6)C=C5)cc3)c2)cc1
REMARK SMILES IDX 18 1 17 2 15 3 16 4 14 5 11 6 12 7 86 8 13 9 10 10 9 11 6 12
REMARK SMILES IDX 7 13 88 14 8 15 87 16 3 17 4 18 5 19 2 20 1 21 19 23 20 24
REMARK SMILES IDX 21 25 22 26 23 27 24 28 85 29 25 30 84 31 26 32 27 33 28 34
REMARK SMILES IDX 78 35 29 36 83 37 77 38 79 39 30 40 82 41 76 42 75 43 31 45
REMARK SMILES IDX 63 46 43 47 62 48 44 49 47 50 61 51 80 52 45 53 46 54 60 56
REMARK SMILES IDX 81 57 48 58 32 59 33 60 41 61 34 62 40 63 42 64 39 65 35 66
REMARK SMILES IDX 36 67 37 68 38 69 64 70 65 71 73 72 66 73 72 74 74 75 71 76
REMARK SMILES IDX 67 77 68 78 69 79 70 80 49 81 50 82 58 83 51 84 57 85 59 86
REMARK SMILES IDX 56 87 52 88 53 89 54 90 55 91
REMARK H PARENT 2 22 79 44 47 55
REMARK Flexibility Score: inf
ROOT
ATOM      1  C   UNL A   1      35.475  20.562  24.958  1.00  0.00     0.275 C 
ENDROOT
BRANCH   1   2
ATOM      2  O   UNL A   1      34.290  21.248  24.510  1.00  0.00    -0.458 OA
BRANCH   2   3
ATOM      3  C   UNL A   1      33.183  21.132  25.307  1.00  0.00     0.348 C 
ATOM      4  O   UNL A   1      32.784  20.071  25.767  1.00  0.00    -0.245 OA
BRANCH   3   5
ATOM      5  C   UNL A   1      32.591  22.440  25.535  1.00  0.00     0.116 A 
ATOM      6  C   UNL A   1      32.251  24.737  25.770  1.00  0.00     0.138 A 
ATOM      7  C   UNL A   1      31.041  24.259  26.211  1.00  0.00     0.112 A 
ATOM      8  C   UNL A   1      33.142  23.697  25.383  1.00  0.00     0.074 A 
ATOM      9  S   UNL A   1      30.955  22.557  26.057  1.00  0.00    -0.133 S 
BRANCH   6  10
ATOM     10  O   UNL A   1      32.553  26.041  25.597  1.00  0.00    -0.456 OA
BRANCH  10  11
ATOM     11  C   UNL A   1      31.885  26.884  24.745  1.00  0.00     0.127 A 
ATOM     12  C   UNL A   1      30.284  28.700  23.373  1.00  0.00     0.082 A 
ATOM     13  C   UNL A   1      30.977  29.120  24.508  1.00  0.00     0.025 A 
ATOM     14  C   UNL A   1      30.434  27.397  22.882  1.00  0.00     0.025 A 
ATOM     15  C   UNL A   1      31.775  28.205  25.193  1.00  0.00     0.048 A 
ATOM     16  C   UNL A   1      31.226  26.480  23.581  1.00  0.00     0.048 A 
BRANCH  12  17
ATOM     17  S   UNL A   1      29.173  29.823  22.567  1.00  0.00     0.240 S 
ATOM     18  O   UNL A   1      27.810  29.448  22.869  1.00  0.00    -0.207 OA
ATOM     19  O   UNL A   1      29.623  30.005  21.204  1.00  0.00    -0.207 OA
BRANCH  17  20
ATOM     20  N   UNL A   1      29.506  31.276  23.357  1.00  0.00    -0.214 NA
ATOM     21  C   UNL A   1      28.631  32.417  23.099  1.00  0.00     0.120 C 
ATOM     22  H   UNL A   1      29.474  31.090  24.359  1.00  0.00     0.141 HD
ENDBRANCH  17  20
ENDBRANCH  12  17
ENDBRANCH  10  11
ENDBRANCH   6  10
ENDBRANCH   3   5
ENDBRANCH   2   3
ENDBRANCH   1   2
BRANCH   1  23
ATOM     23  C   UNL A   1      36.414  21.474  25.755  1.00  0.00     0.275 C 
BRANCH  23  24
ATOM     24  O   UNL A   1      37.693  21.632  25.113  1.00  0.00    -0.458 OA
BRANCH  24  25
ATOM     25  C   UNL A   1      38.753  21.292  25.884  1.00  0.00     0.338 C 
ATOM     26  O   UNL A   1      39.251  20.183  25.989  1.00  0.00    -0.246 OA
BRANCH  25  27
ATOM     27  C   UNL A   1      39.353  22.491  26.489  1.00  0.00     0.060 A 
ATOM     28  C   UNL A   1      38.885  23.724  26.040  1.00  0.00     0.016 A 
ATOM     29  C   UNL A   1      40.439  22.426  27.359  1.00  0.00     0.016 A 
ATOM     30  C   UNL A   1      39.522  24.902  26.410  1.00  0.00     0.010 A 
ATOM     31  C   UNL A   1      41.062  23.618  27.762  1.00  0.00     0.010 A 
ATOM     32  C   UNL A   1      40.627  24.863  27.267  1.00  0.00    -0.014 A 
BRANCH  32  33
ATOM     33  C   UNL A   1      41.368  26.123  27.556  1.00  0.00     0.031 A 
ATOM     34  C   UNL A   1      40.742  27.171  28.436  1.00  0.00     0.074 A 
ATOM     35  C   UNL A   1      42.619  26.300  27.088  1.00  0.00     0.049 A 
ATOM     36  N   UNL A   1      41.169  28.372  28.735  1.00  0.00    -0.248 NA
ATOM     37  C   UNL A   1      39.454  26.821  29.054  1.00  0.00     0.031 C 
ATOM     38  C   UNL A   1      43.367  25.327  26.290  1.00  0.00     0.029 A 
ATOM     39  N   UNL A   1      43.489  27.353  27.226  1.00  0.00    -0.354 N 
ATOM     40  C   UNL A   1      40.190  28.932  29.550  1.00  0.00     0.074 A 
ATOM     41  C   UNL A   1      39.131  27.950  29.664  1.00  0.00     0.031 C 
ATOM     42  C   UNL A   1      44.590  25.817  26.033  1.00  0.00     0.029 A 
ATOM     43  C   UNL A   1      44.687  27.169  26.574  1.00  0.00     0.049 A 
ATOM     44  H   UNL A   1      43.276  28.165  27.741  1.00  0.00     0.167 HD
ATOM     45  C   UNL A   1      40.180  30.150  30.151  1.00  0.00     0.034 A 
ATOM     46  C   UNL A   1      45.730  28.005  26.401  1.00  0.00     0.034 A 
ATOM     47  C   UNL A   1      41.254  31.109  30.033  1.00  0.00     0.049 A 
ATOM     48  C   UNL A   1      45.658  29.387  26.999  1.00  0.00     0.074 A 
ATOM     49  C   UNL A   1      41.348  32.375  30.587  1.00  0.00     0.029 A 
ATOM     50  N   UNL A   1      42.427  30.910  29.312  1.00  0.00    -0.354 N 
ATOM     51  N   UNL A   1      44.703  29.929  27.720  1.00  0.00    -0.248 NA
ATOM     52  C   UNL A   1      46.808  30.269  26.761  1.00  0.00     0.031 C 
ATOM     53  C   UNL A   1      42.534  32.966  30.139  1.00  0.00     0.029 A 
ATOM     54  C   UNL A   1      43.232  32.037  29.385  1.00  0.00     0.049 A 
ATOM     55  H   UNL A   1      42.652  30.087  28.820  1.00  0.00     0.167 HD
ATOM     56  C   UNL A   1      45.156  31.203  28.053  1.00  0.00     0.074 A 
ATOM     57  C   UNL A   1      46.472  31.342  27.463  1.00  0.00     0.031 C 
ATOM     58  C   UNL A   1      44.543  32.168  28.788  1.00  0.00     0.034 A 
BRANCH  45  59
ATOM     59  C   UNL A   1      38.940  30.529  30.929  1.00  0.00     0.023 A 
ATOM     60  C   UNL A   1      37.903  31.291  30.360  1.00  0.00     0.031 A 
ATOM     61  C   UNL A   1      38.816  30.168  32.283  1.00  0.00     0.131 A 
ATOM     62  C   UNL A   1      36.843  31.742  31.161  1.00  0.00     0.055 A 
ATOM     63  C   UNL A   1      37.710  30.539  33.050  1.00  0.00     0.041 A 
ATOM     64  F   UNL A   1      39.781  29.462  32.894  1.00  0.00    -0.206 F 
ATOM     65  C   UNL A   1      36.724  31.348  32.495  1.00  0.00     0.022 A 
BRANCH  62  66
ATOM     66  S   UNL A   1      35.717  32.995  30.484  1.00  0.00     0.124 S 
ATOM     67  O   UNL A   1      34.412  32.386  30.736  1.00  0.00    -0.237 OA
ATOM     68  O   UNL A   1      36.039  34.173  31.282  1.00  0.00    -0.237 OA
ATOM     69  O   UNL A   1      36.095  33.072  29.074  1.00  0.00    -0.744 OA
ENDBRANCH  62  66
ENDBRANCH  45  59
BRANCH  46  70
ATOM     70  C   UNL A   1      46.909  27.584  25.587  1.00  0.00     0.023 A 
ATOM     71  C   UNL A   1      47.029  27.949  24.237  1.00  0.00     0.031 A 
ATOM     72  C   UNL A   1      47.914  26.770  26.140  1.00  0.00     0.131 A 
ATOM     73  C   UNL A   1      48.103  27.466  23.475  1.00  0.00     0.055 A 
ATOM     74  C   UNL A   1      49.014  26.343  25.394  1.00  0.00     0.041 A 
ATOM     75  F   UNL A   1      47.848  26.384  27.424  1.00  0.00    -0.206 F 
ATOM     76  C   UNL A   1      49.106  26.681  24.048  1.00  0.00     0.022 A 
BRANCH  73  77
ATOM     77  S   UNL A   1      48.126  27.803  21.692  1.00  0.00     0.124 S 
ATOM     78  O   UNL A   1      46.779  28.317  21.472  1.00  0.00    -0.237 OA
ATOM     79  O   UNL A   1      49.210  28.773  21.580  1.00  0.00    -0.237 OA
ATOM     80  O   UNL A   1      48.399  26.494  21.102  1.00  0.00    -0.744 OA
ENDBRANCH  73  77
ENDBRANCH  46  70
BRANCH  58  81
ATOM     81  C   UNL A   1      45.327  33.432  29.051  1.00  0.00     0.023 A 
ATOM     82  C   UNL A   1      45.262  34.545  28.196  1.00  0.00     0.031 A 
ATOM     83  C   UNL A   1      46.175  33.510  30.172  1.00  0.00     0.131 A 
ATOM     84  C   UNL A   1      46.080  35.662  28.436  1.00  0.00     0.055 A 
ATOM     85  C   UNL A   1      46.932  34.650  30.445  1.00  0.00     0.041 A 
ATOM     86  F   UNL A   1      46.281  32.477  31.022  1.00  0.00    -0.206 F 
ATOM     87  C   UNL A   1      46.900  35.728  29.567  1.00  0.00     0.022 A 
BRANCH  84  88
ATOM     88  S   UNL A   1      46.148  36.978  27.191  1.00  0.00     0.124 S 
ATOM     89  O   UNL A   1      44.733  37.246  26.954  1.00  0.00    -0.237 OA
ATOM     90  O   UNL A   1      46.889  38.027  27.884  1.00  0.00    -0.237 OA
ATOM     91  O   UNL A   1      46.857  36.356  26.073  1.00  0.00    -0.744 OA
ENDBRANCH  84  88
ENDBRANCH  58  81
ENDBRANCH  32  33
ENDBRANCH  25  27
ENDBRANCH  24  25
ENDBRANCH  23  24
ENDBRANCH   1  23
TORSDOF 18
ENDMDL
MODEL 3
REMARK VINA RESULT:     -11.5      4.993     10.534
REMARK SMILES CNS(=O)(=O)c1ccc(Oc2csc(C(=O)OCCOC(=O)c3ccc(-c4c5nc(c(-c6cc(S(=O)(=O)[O-])ccc6F)c6ccc([nH]6)c(-c6cc(S(=O)(=O)[O-])ccc6F)c6nc(c(-c7cc(S(=O)(=O)[O-])ccc7F)c7ccc4[nH]7)C=C6)C=C5)cc3)c2)cc1
REMARK SMILES IDX 18 1 17 2 15 3 16 4 14 5 11 6 12 7 86 8 13 9 10 10 9 11 6 12
REMARK SMILES IDX 7 13 88 14 8 15 87 16 3 17 4 18 5 19 2 20 1 21 19 23 20 24
REMARK SMILES IDX 21 25 22 26 23 27 24 28 85 29 25 30 84 31 26 32 27 33 28 34
REMARK SMILES IDX 78 35 29 36 83 37 77 38 79 39 30 40 82 41 76 42 75 43 31 45
REMARK SMILES IDX 63 46 43 47 62 48 44 49 47 50 61 51 80 52 45 53 46 54 60 56
REMARK SMILES IDX 81 57 48 58 32 59 33 60 41 61 34 62 40 63 42 64 39 65 35 66
REMARK SMILES IDX 36 67 37 68 38 69 64 70 65 71 73 72 66 73 72 74 74 75 71 76
REMARK SMILES IDX 67 77 68 78 69 79 70 80 49 81 50 82 58 83 51 84 57 85 59 86
REMARK SMILES IDX 56 87 52 88 53 89 54 90 55 91
REMARK H PARENT 2 22 79 44 47 55
REMARK Flexibility Score: inf
ROOT
ATOM      1  C   UNL A   1      36.373  19.432  24.996  1.00  0.00     0.275 C 
ENDROOT
BRANCH   1   2
ATOM      2  O   UNL A   1      35.327  20.374  24.688  1.00  0.00    -0.458 OA
BRANCH   2   3
ATOM      3  C   UNL A   1      34.048  19.974  24.968  1.00  0.00     0.348 C 
ATOM      4  O   UNL A   1      33.613  18.859  24.712  1.00  0.00    -0.245 OA
BRANCH   3   5
ATOM      5  C   UNL A   1      33.319  21.048  25.623  1.00  0.00     0.116 A 
ATOM      6  C   UNL A   1      31.882  22.830  26.079  1.00  0.00     0.138 A 
ATOM      7  C   UNL A   1      32.601  22.781  27.250  1.00  0.00     0.112 A 
ATOM      8  C   UNL A   1      32.292  21.838  25.144  1.00  0.00     0.074 A 
ATOM      9  S   UNL A   1      33.698  21.469  27.248  1.00  0.00    -0.133 S 
BRANCH   6  10
ATOM     10  O   UNL A   1      30.822  23.633  25.853  1.00  0.00    -0.456 OA
BRANCH  10  11
ATOM     11  C   UNL A   1      30.888  24.837  25.196  1.00  0.00     0.127 A 
ATOM     12  C   UNL A   1      30.725  27.416  24.166  1.00  0.00     0.082 A 
ATOM     13  C   UNL A   1      31.063  27.235  25.507  1.00  0.00     0.025 A 
ATOM     14  C   UNL A   1      30.530  26.317  23.321  1.00  0.00     0.025 A 
ATOM     15  C   UNL A   1      31.140  25.940  26.018  1.00  0.00     0.048 A 
ATOM     16  C   UNL A   1      30.596  25.021  23.843  1.00  0.00     0.048 A 
BRANCH  12  17
ATOM     17  S   UNL A   1      30.506  29.060  23.539  1.00  0.00     0.240 S 
ATOM     18  O   UNL A   1      30.784  30.014  24.588  1.00  0.00    -0.207 OA
ATOM     19  O   UNL A   1      29.269  29.098  22.790  1.00  0.00    -0.207 OA
BRANCH  17  20
ATOM     20  N   UNL A   1      31.739  29.166  22.391  1.00  0.00    -0.214 NA
ATOM     21  C   UNL A   1      33.118  28.997  22.843  1.00  0.00     0.120 C 
ATOM     22  H   UNL A   1      31.560  28.448  21.689  1.00  0.00     0.141 HD
ENDBRANCH  17  20
ENDBRANCH  12  17
ENDBRANCH  10  11
ENDBRANCH   6  10
ENDBRANCH   3   5
ENDBRANCH   2   3
ENDBRANCH   1   2
BRANCH   1  23
ATOM     23  C   UNL A   1      37.766  19.971  24.651  1.00  0.00     0.275 C 
BRANCH  23  24
ATOM     24  O   UNL A   1      38.166  21.043  25.524  1.00  0.00    -0.458 OA
BRANCH  24  25
ATOM     25  C   UNL A   1      39.340  20.834  26.166  1.00  0.00     0.338 C 
ATOM     26  O   UNL A   1      39.988  19.801  26.180  1.00  0.00    -0.246 OA
BRANCH  25  27
ATOM     27  C   UNL A   1      39.840  22.091  26.743  1.00  0.00     0.060 A 
ATOM     28  C   UNL A   1      39.337  23.275  26.207  1.00  0.00     0.016 A 
ATOM     29  C   UNL A   1      40.874  22.127  27.676  1.00  0.00     0.016 A 
ATOM     30  C   UNL A   1      39.889  24.501  26.553  1.00  0.00     0.010 A 
ATOM     31  C   UNL A   1      41.409  23.368  28.054  1.00  0.00     0.010 A 
ATOM     32  C   UNL A   1      40.941  24.563  27.473  1.00  0.00    -0.014 A 
BRANCH  32  33
ATOM     33  C   UNL A   1      41.597  25.874  27.740  1.00  0.00     0.031 A 
ATOM     34  C   UNL A   1      40.882  26.911  28.563  1.00  0.00     0.074 A 
ATOM     35  C   UNL A   1      42.850  26.109  27.306  1.00  0.00     0.049 A 
ATOM     36  N   UNL A   1      41.229  28.144  28.833  1.00  0.00    -0.248 NA
ATOM     37  C   UNL A   1      39.598  26.506  29.154  1.00  0.00     0.031 C 
ATOM     38  C   UNL A   1      43.680  25.156  26.566  1.00  0.00     0.029 A 
ATOM     39  N   UNL A   1      43.652  27.217  27.433  1.00  0.00    -0.354 N 
ATOM     40  C   UNL A   1      40.193  28.673  29.597  1.00  0.00     0.074 A 
ATOM     41  C   UNL A   1      39.190  27.634  29.714  1.00  0.00     0.031 C 
ATOM     42  C   UNL A   1      44.880  25.710  26.329  1.00  0.00     0.029 A 
ATOM     43  C   UNL A   1      44.880  27.082  26.825  1.00  0.00     0.049 A 
ATOM     44  H   UNL A   1      43.375  28.030  27.913  1.00  0.00     0.167 HD
ATOM     45  C   UNL A   1      40.092  29.907  30.155  1.00  0.00     0.034 A 
ATOM     46  C   UNL A   1      45.877  27.972  26.655  1.00  0.00     0.034 A 
ATOM     47  C   UNL A   1      41.112  30.924  30.037  1.00  0.00     0.049 A 
ATOM     48  C   UNL A   1      45.706  29.367  27.202  1.00  0.00     0.074 A 
ATOM     49  C   UNL A   1      41.113  32.211  30.548  1.00  0.00     0.029 A 
ATOM     50  N   UNL A   1      42.317  30.771  29.360  1.00  0.00    -0.354 N 
ATOM     51  N   UNL A   1      44.697  29.875  27.873  1.00  0.00    -0.248 NA
ATOM     52  C   UNL A   1      46.809  30.308  26.969  1.00  0.00     0.031 C 
ATOM     53  C   UNL A   1      42.277  32.856  30.117  1.00  0.00     0.029 A 
ATOM     54  C   UNL A   1      43.052  31.946  29.417  1.00  0.00     0.049 A 
ATOM     55  H   UNL A   1      42.606  29.947  28.904  1.00  0.00     0.167 HD
ATOM     56  C   UNL A   1      45.064  31.184  28.176  1.00  0.00     0.074 A 
ATOM     57  C   UNL A   1      46.388  31.381  27.622  1.00  0.00     0.031 C 
ATOM     58  C   UNL A   1      44.372  32.134  28.857  1.00  0.00     0.034 A 
BRANCH  45  59
ATOM     59  C   UNL A   1      38.807  30.237  30.881  1.00  0.00     0.023 A 
ATOM     60  C   UNL A   1      37.742  30.908  30.251  1.00  0.00     0.031 A 
ATOM     61  C   UNL A   1      38.664  29.924  32.245  1.00  0.00     0.131 A 
ATOM     62  C   UNL A   1      36.632  31.322  31.002  1.00  0.00     0.055 A 
ATOM     63  C   UNL A   1      37.514  30.254  32.964  1.00  0.00     0.041 A 
ATOM     64  F   UNL A   1      39.652  29.306  32.912  1.00  0.00    -0.206 F 
ATOM     65  C   UNL A   1      36.497  30.975  32.347  1.00  0.00     0.022 A 
BRANCH  62  66
ATOM     66  S   UNL A   1      35.451  32.472  30.241  1.00  0.00     0.124 S 
ATOM     67  O   UNL A   1      36.244  33.698  30.161  1.00  0.00    -0.237 OA
ATOM     68  O   UNL A   1      35.149  31.822  28.972  1.00  0.00    -0.237 OA
ATOM     69  O   UNL A   1      34.349  32.518  31.200  1.00  0.00    -0.744 OA
ENDBRANCH  62  66
ENDBRANCH  45  59
BRANCH  46  70
ATOM     70  C   UNL A   1      47.105  27.596  25.893  1.00  0.00     0.023 A 
ATOM     71  C   UNL A   1      47.231  27.887  24.525  1.00  0.00     0.031 A 
ATOM     72  C   UNL A   1      48.155  26.897  26.516  1.00  0.00     0.131 A 
ATOM     73  C   UNL A   1      48.358  27.443  23.817  1.00  0.00     0.055 A 
ATOM     74  C   UNL A   1      49.303  26.512  25.820  1.00  0.00     0.041 A 
ATOM     75  F   UNL A   1      48.086  26.585  27.820  1.00  0.00    -0.206 F 
ATOM     76  C   UNL A   1      49.402  26.774  24.458  1.00  0.00     0.022 A 
BRANCH  73  77
ATOM     77  S   UNL A   1      48.399  27.674  22.018  1.00  0.00     0.124 S 
ATOM     78  O   UNL A   1      48.630  26.312  21.550  1.00  0.00    -0.237 OA
ATOM     79  O   UNL A   1      47.076  28.229  21.752  1.00  0.00    -0.237 OA
ATOM     80  O   UNL A   1      49.513  28.599  21.819  1.00  0.00    -0.744 OA
ENDBRANCH  73  77
ENDBRANCH  46  70
BRANCH  58  81
ATOM     81  C   UNL A   1      45.072  33.451  29.100  1.00  0.00     0.023 A 
ATOM     82  C   UNL A   1      45.929  33.652  30.196  1.00  0.00     0.031 A 
ATOM     83  C   UNL A   1      44.853  34.533  28.227  1.00  0.00     0.131 A 
ATOM     84  C   UNL A   1      46.483  34.922  30.427  1.00  0.00     0.055 A 
ATOM     85  C   UNL A   1      45.463  35.772  28.422  1.00  0.00     0.041 A 
ATOM     86  F   UNL A   1      44.041  34.402  27.166  1.00  0.00    -0.206 F 
ATOM     87  C   UNL A   1      46.271  35.977  29.536  1.00  0.00     0.022 A 
BRANCH  84  88
ATOM     88  S   UNL A   1      47.390  35.209  31.971  1.00  0.00     0.124 S 
ATOM     89  O   UNL A   1      47.830  36.592  31.813  1.00  0.00    -0.237 OA
ATOM     90  O   UNL A   1      46.365  34.978  32.984  1.00  0.00    -0.237 OA
ATOM     91  O   UNL A   1      48.458  34.211  31.932  1.00  0.00    -0.744 OA
ENDBRANCH  84  88
ENDBRANCH  58  81
ENDBRANCH  32  33
ENDBRANCH  25  27
ENDBRANCH  24  25
ENDBRANCH  23  24
ENDBRANCH   1  23
TORSDOF 18
ENDMDL
