MODEL 1
REMARK VINA RESULT:     -11.8      0.000      0.000
REMARK SMILES CC(C)(C)OC(=O)N1[C@@H](C(=O)OCCOC(=O)c2ccc(-c3c4nc(c(-c5cc(S(=O)(=O)[O-])ccc5F)c5ccc([nH]5)c(-c5cc(S(=O)(=O)[O-])ccc5F)c5nc(c(-c6cc(S(=O)(=O)[O-])ccc6F)c6ccc3[nH]6)C=C5)C=C4)cc2)C[C@H]2CCCC[C@@H]21
REMARK SMILES IDX 13 1 12 2 10 3 11 4 9 5 8 6 87 7 81 8 82 9 86 10 83 11 85 12
REMARK SMILES IDX 84 13 6 14 7 15 5 16 2 17 1 18 3 19 4 20 14 21 15 22 16 23
REMARK SMILES IDX 17 24 18 25 19 26 80 27 20 28 79 29 21 30 22 31 23 32 73 33
REMARK SMILES IDX 24 34 78 35 72 36 74 37 25 38 77 39 71 40 70 41 26 43 58 44
REMARK SMILES IDX 38 45 57 46 39 47 42 48 56 49 75 50 40 51 41 52 55 54 76 55
REMARK SMILES IDX 43 56 27 57 28 58 36 59 29 60 35 61 37 62 34 63 30 64 31 65
REMARK SMILES IDX 32 66 33 67 59 68 60 69 68 70 61 71 67 72 69 73 66 74 62 75
REMARK SMILES IDX 63 76 64 77 65 78 44 79 45 80 53 81 46 82 52 83 54 84 51 85
REMARK SMILES IDX 47 86 48 87 49 88 50 89
REMARK H PARENT 74 42 42 53
REMARK Flexibility Score: inf
ROOT
ATOM      1  C   UNL A   1      35.262  22.581  23.991  1.00  0.00     0.274 C 
ENDROOT
BRANCH   1   2
ATOM      2  O   UNL A   1      35.265  23.728  23.107  1.00  0.00    -0.461 OA
BRANCH   2   3
ATOM      3  C   UNL A   1      34.096  24.428  23.064  1.00  0.00     0.329 C 
ATOM      4  O   UNL A   1      33.607  24.856  22.022  1.00  0.00    -0.250 OA
BRANCH   3   5
ATOM      5  C   UNL A   1      33.512  24.732  24.466  1.00  0.00     0.199 C 
ATOM      6  N   UNL A   1      32.127  25.244  24.435  1.00  0.00    -0.291 N 
ATOM      7  C   UNL A   1      32.136  26.687  24.296  1.00  0.00     0.092 C 
ATOM      8  C   UNL A   1      34.350  25.943  24.965  1.00  0.00     0.043 C 
ATOM      9  C   UNL A   1      33.343  27.081  25.147  1.00  0.00     0.014 C 
ATOM     10  C   UNL A   1      30.950  27.536  24.760  1.00  0.00     0.025 C 
ATOM     11  C   UNL A   1      33.770  28.490  24.759  1.00  0.00     0.006 C 
ATOM     12  C   UNL A   1      31.263  29.019  24.518  1.00  0.00     0.002 C 
ATOM     13  C   UNL A   1      32.624  29.466  25.071  1.00  0.00     0.000 C 
BRANCH   6  14
ATOM     14  C   UNL A   1      30.958  24.509  24.395  1.00  0.00     0.411 C 
ATOM     15  O   UNL A   1      30.458  24.135  23.349  1.00  0.00    -0.224 OA
BRANCH  14  16
ATOM     16  O   UNL A   1      30.383  24.322  25.614  1.00  0.00    -0.444 OA
BRANCH  16  17
ATOM     17  C   UNL A   1      30.733  23.136  26.406  1.00  0.00     0.106 C 
ATOM     18  C   UNL A   1      31.074  22.050  25.374  1.00  0.00     0.056 C 
ATOM     19  C   UNL A   1      29.521  22.683  27.222  1.00  0.00     0.056 C 
ATOM     20  C   UNL A   1      31.956  23.283  27.333  1.00  0.00     0.056 C 
ENDBRANCH  16  17
ENDBRANCH  14  16
ENDBRANCH   6  14
ENDBRANCH   3   5
ENDBRANCH   2   3
ENDBRANCH   1   2
BRANCH   1  21
ATOM     21  C   UNL A   1      36.642  21.934  24.119  1.00  0.00     0.275 C 
BRANCH  21  22
ATOM     22  O   UNL A   1      36.989  21.711  25.499  1.00  0.00    -0.458 OA
BRANCH  22  23
ATOM     23  C   UNL A   1      38.311  21.501  25.702  1.00  0.00     0.338 C 
ATOM     24  O   UNL A   1      38.970  20.593  25.225  1.00  0.00    -0.246 OA
BRANCH  23  25
ATOM     25  C   UNL A   1      38.912  22.574  26.510  1.00  0.00     0.060 A 
ATOM     26  C   UNL A   1      38.408  23.856  26.358  1.00  0.00     0.016 A 
ATOM     27  C   UNL A   1      40.105  22.383  27.201  1.00  0.00     0.016 A 
ATOM     28  C   UNL A   1      39.147  24.959  26.767  1.00  0.00     0.010 A 
ATOM     29  C   UNL A   1      40.787  23.494  27.725  1.00  0.00     0.010 A 
ATOM     30  C   UNL A   1      40.342  24.806  27.471  1.00  0.00    -0.014 A 
BRANCH  30  31
ATOM     31  C   UNL A   1      41.133  26.019  27.847  1.00  0.00     0.031 A 
ATOM     32  C   UNL A   1      40.517  27.088  28.716  1.00  0.00     0.074 A 
ATOM     33  C   UNL A   1      42.426  26.146  27.477  1.00  0.00     0.049 A 
ATOM     34  N   UNL A   1      40.941  28.302  28.967  1.00  0.00    -0.248 NA
ATOM     35  C   UNL A   1      39.246  26.751  29.372  1.00  0.00     0.031 C 
ATOM     36  C   UNL A   1      43.201  25.148  26.733  1.00  0.00     0.029 A 
ATOM     37  N   UNL A   1      43.330  27.160  27.692  1.00  0.00    -0.354 N 
ATOM     38  C   UNL A   1      39.960  28.894  29.757  1.00  0.00     0.074 A 
ATOM     39  C   UNL A   1      38.910  27.909  29.923  1.00  0.00     0.031 C 
ATOM     40  C   UNL A   1      44.467  25.572  26.607  1.00  0.00     0.029 A 
ATOM     41  C   UNL A   1      44.565  26.927  27.129  1.00  0.00     0.049 A 
ATOM     42  H   UNL A   1      43.114  27.975  28.201  1.00  0.00     0.167 HD
ATOM     43  C   UNL A   1      39.941  30.143  30.290  1.00  0.00     0.034 A 
ATOM     44  C   UNL A   1      45.638  27.729  26.980  1.00  0.00     0.034 A 
ATOM     45  C   UNL A   1      41.028  31.089  30.160  1.00  0.00     0.049 A 
ATOM     46  C   UNL A   1      45.557  29.145  27.488  1.00  0.00     0.074 A 
ATOM     47  C   UNL A   1      41.112  32.381  30.651  1.00  0.00     0.029 A 
ATOM     48  N   UNL A   1      42.229  30.841  29.504  1.00  0.00    -0.354 N 
ATOM     49  N   UNL A   1      44.577  29.739  28.128  1.00  0.00    -0.248 NA
ATOM     50  C   UNL A   1      46.721  30.002  27.237  1.00  0.00     0.031 C 
ATOM     51  C   UNL A   1      42.325  32.938  30.228  1.00  0.00     0.029 A 
ATOM     52  C   UNL A   1      43.043  31.965  29.554  1.00  0.00     0.049 A 
ATOM     53  H   UNL A   1      42.468  29.992  29.068  1.00  0.00     0.167 HD
ATOM     54  C   UNL A   1      45.021  31.034  28.381  1.00  0.00     0.074 A 
ATOM     55  C   UNL A   1      46.362  31.124  27.842  1.00  0.00     0.031 C 
ATOM     56  C   UNL A   1      44.378  32.053  29.004  1.00  0.00     0.034 A 
BRANCH  43  57
ATOM     57  C   UNL A   1      38.677  30.585  30.996  1.00  0.00     0.023 A 
ATOM     58  C   UNL A   1      37.595  31.169  30.315  1.00  0.00     0.031 A 
ATOM     59  C   UNL A   1      38.571  30.445  32.393  1.00  0.00     0.131 A 
ATOM     60  C   UNL A   1      36.496  31.661  31.038  1.00  0.00     0.055 A 
ATOM     61  C   UNL A   1      37.436  30.852  33.095  1.00  0.00     0.041 A 
ATOM     62  F   UNL A   1      39.578  29.917  33.106  1.00  0.00    -0.206 F 
ATOM     63  C   UNL A   1      36.396  31.482  32.419  1.00  0.00     0.022 A 
BRANCH  60  64
ATOM     64  S   UNL A   1      35.271  32.683  30.172  1.00  0.00     0.124 S 
ATOM     65  O   UNL A   1      34.868  31.802  29.078  1.00  0.00    -0.237 OA
ATOM     66  O   UNL A   1      34.270  32.922  31.205  1.00  0.00    -0.237 OA
ATOM     67  O   UNL A   1      36.035  33.861  29.761  1.00  0.00    -0.744 OA
ENDBRANCH  60  64
ENDBRANCH  43  57
BRANCH  44  68
ATOM     68  C   UNL A   1      46.845  27.251  26.242  1.00  0.00     0.023 A 
ATOM     69  C   UNL A   1      47.118  27.684  24.936  1.00  0.00     0.031 A 
ATOM     70  C   UNL A   1      47.719  26.308  26.817  1.00  0.00     0.131 A 
ATOM     71  C   UNL A   1      48.209  27.148  24.233  1.00  0.00     0.055 A 
ATOM     72  C   UNL A   1      48.844  25.832  26.141  1.00  0.00     0.041 A 
ATOM     73  F   UNL A   1      47.503  25.845  28.059  1.00  0.00    -0.206 F 
ATOM     74  C   UNL A   1      49.085  26.242  24.834  1.00  0.00     0.022 A 
BRANCH  71  75
ATOM     75  S   UNL A   1      48.410  27.573  22.482  1.00  0.00     0.124 S 
ATOM     76  O   UNL A   1      49.635  28.365  22.508  1.00  0.00    -0.237 OA
ATOM     77  O   UNL A   1      48.508  26.258  21.859  1.00  0.00    -0.237 OA
ATOM     78  O   UNL A   1      47.191  28.318  22.171  1.00  0.00    -0.744 OA
ENDBRANCH  71  75
ENDBRANCH  44  68
BRANCH  56  79
ATOM     79  C   UNL A   1      45.152  33.337  29.189  1.00  0.00     0.023 A 
ATOM     80  C   UNL A   1      45.193  34.332  28.196  1.00  0.00     0.031 A 
ATOM     81  C   UNL A   1      45.891  33.552  30.367  1.00  0.00     0.131 A 
ATOM     82  C   UNL A   1      46.011  35.459  28.368  1.00  0.00     0.055 A 
ATOM     83  C   UNL A   1      46.644  34.709  30.564  1.00  0.00     0.041 A 
ATOM     84  F   UNL A   1      45.896  32.634  31.348  1.00  0.00    -0.206 F 
ATOM     85  C   UNL A   1      46.721  35.664  29.554  1.00  0.00     0.022 A 
BRANCH  82  86
ATOM     86  S   UNL A   1      46.231  36.598  26.974  1.00  0.00     0.124 S 
ATOM     87  O   UNL A   1      47.551  37.157  27.244  1.00  0.00    -0.237 OA
ATOM     88  O   UNL A   1      46.140  35.705  25.823  1.00  0.00    -0.237 OA
ATOM     89  O   UNL A   1      45.119  37.537  27.117  1.00  0.00    -0.744 OA
ENDBRANCH  82  86
ENDBRANCH  56  79
ENDBRANCH  30  31
ENDBRANCH  23  25
ENDBRANCH  22  23
ENDBRANCH  21  22
ENDBRANCH   1  21
TORSDOF 17
ENDMDL
MODEL 2
REMARK VINA RESULT:     -11.5      1.592      2.431
REMARK SMILES CC(C)(C)OC(=O)N1[C@@H](C(=O)OCCOC(=O)c2ccc(-c3c4nc(c(-c5cc(S(=O)(=O)[O-])ccc5F)c5ccc([nH]5)c(-c5cc(S(=O)(=O)[O-])ccc5F)c5nc(c(-c6cc(S(=O)(=O)[O-])ccc6F)c6ccc3[nH]6)C=C5)C=C4)cc2)C[C@H]2CCCC[C@@H]21
REMARK SMILES IDX 13 1 12 2 10 3 11 4 9 5 8 6 87 7 81 8 82 9 86 10 83 11 85 12
REMARK SMILES IDX 84 13 6 14 7 15 5 16 2 17 1 18 3 19 4 20 14 21 15 22 16 23
REMARK SMILES IDX 17 24 18 25 19 26 80 27 20 28 79 29 21 30 22 31 23 32 73 33
REMARK SMILES IDX 24 34 78 35 72 36 74 37 25 38 77 39 71 40 70 41 26 43 58 44
REMARK SMILES IDX 38 45 57 46 39 47 42 48 56 49 75 50 40 51 41 52 55 54 76 55
REMARK SMILES IDX 43 56 27 57 28 58 36 59 29 60 35 61 37 62 34 63 30 64 31 65
REMARK SMILES IDX 32 66 33 67 59 68 60 69 68 70 61 71 67 72 69 73 66 74 62 75
REMARK SMILES IDX 63 76 64 77 65 78 44 79 45 80 53 81 46 82 52 83 54 84 51 85
REMARK SMILES IDX 47 86 48 87 49 88 50 89
REMARK H PARENT 74 42 42 53
REMARK Flexibility Score: inf
ROOT
ATOM      1  C   UNL A   1      35.892  21.985  25.960  1.00  0.00     0.274 C 
ENDROOT
BRANCH   1   2
ATOM      2  O   UNL A   1      34.638  21.301  26.198  1.00  0.00    -0.461 OA
BRANCH   2   3
ATOM      3  C   UNL A   1      33.745  21.984  26.967  1.00  0.00     0.329 C 
ATOM      4  O   UNL A   1      34.069  22.632  27.960  1.00  0.00    -0.250 OA
BRANCH   3   5
ATOM      5  C   UNL A   1      32.273  21.766  26.539  1.00  0.00     0.199 C 
ATOM      6  N   UNL A   1      32.070  21.776  25.076  1.00  0.00    -0.291 N 
ATOM      7  C   UNL A   1      31.841  23.132  24.618  1.00  0.00     0.092 C 
ATOM      8  C   UNL A   1      31.547  23.052  27.028  1.00  0.00     0.043 C 
ATOM      9  C   UNL A   1      31.010  23.717  25.759  1.00  0.00     0.014 C 
ATOM     10  C   UNL A   1      31.091  23.412  23.313  1.00  0.00     0.025 C 
ATOM     11  C   UNL A   1      31.059  25.236  25.665  1.00  0.00     0.006 C 
ATOM     12  C   UNL A   1      30.973  24.928  23.111  1.00  0.00     0.002 C 
ATOM     13  C   UNL A   1      30.427  25.677  24.336  1.00  0.00     0.000 C 
BRANCH   6  14
ATOM     14  C   UNL A   1      32.208  20.717  24.199  1.00  0.00     0.411 C 
ATOM     15  O   UNL A   1      32.372  20.878  23.003  1.00  0.00    -0.224 OA
BRANCH  14  16
ATOM     16  O   UNL A   1      32.059  19.497  24.782  1.00  0.00    -0.444 OA
BRANCH  16  17
ATOM     17  C   UNL A   1      32.807  18.347  24.259  1.00  0.00     0.106 C 
ATOM     18  C   UNL A   1      32.377  17.157  25.130  1.00  0.00     0.056 C 
ATOM     19  C   UNL A   1      34.308  18.580  24.441  1.00  0.00     0.056 C 
ATOM     20  C   UNL A   1      32.516  17.966  22.793  1.00  0.00     0.056 C 
ENDBRANCH  16  17
ENDBRANCH  14  16
ENDBRANCH   6  14
ENDBRANCH   3   5
ENDBRANCH   2   3
ENDBRANCH   1   2
BRANCH   1  21
ATOM     21  C   UNL A   1      36.901  21.116  25.206  1.00  0.00     0.275 C 
BRANCH  21  22
ATOM     22  O   UNL A   1      38.142  21.816  25.000  1.00  0.00    -0.458 OA
BRANCH  22  23
ATOM     23  C   UNL A   1      39.110  21.483  25.886  1.00  0.00     0.338 C 
ATOM     24  O   UNL A   1      39.642  20.391  25.984  1.00  0.00    -0.246 OA
BRANCH  23  25
ATOM     25  C   UNL A   1      39.537  22.644  26.684  1.00  0.00     0.060 A 
ATOM     26  C   UNL A   1      39.058  23.891  26.316  1.00  0.00     0.016 A 
ATOM     27  C   UNL A   1      40.579  22.552  27.602  1.00  0.00     0.016 A 
ATOM     28  C   UNL A   1      39.695  25.048  26.747  1.00  0.00     0.010 A 
ATOM     29  C   UNL A   1      41.139  23.727  28.134  1.00  0.00     0.010 A 
ATOM     30  C   UNL A   1      40.736  24.996  27.674  1.00  0.00    -0.014 A 
BRANCH  30  31
ATOM     31  C   UNL A   1      41.430  26.261  28.071  1.00  0.00     0.031 A 
ATOM     32  C   UNL A   1      40.705  27.298  28.893  1.00  0.00     0.074 A 
ATOM     33  C   UNL A   1      42.729  26.465  27.765  1.00  0.00     0.049 A 
ATOM     34  N   UNL A   1      41.038  28.539  29.148  1.00  0.00    -0.248 NA
ATOM     35  C   UNL A   1      39.426  26.888  29.491  1.00  0.00     0.031 C 
ATOM     36  C   UNL A   1      43.602  25.511  27.074  1.00  0.00     0.029 A 
ATOM     37  N   UNL A   1      43.555  27.537  28.010  1.00  0.00    -0.354 N 
ATOM     38  C   UNL A   1      39.983  29.077  29.880  1.00  0.00     0.074 A 
ATOM     39  C   UNL A   1      38.990  28.029  30.007  1.00  0.00     0.031 C 
ATOM     40  C   UNL A   1      44.843  26.012  27.005  1.00  0.00     0.029 A 
ATOM     41  C   UNL A   1      44.830  27.377  27.513  1.00  0.00     0.049 A 
ATOM     42  H   UNL A   1      43.263  28.342  28.496  1.00  0.00     0.167 HD
ATOM     43  C   UNL A   1      39.859  30.328  30.393  1.00  0.00     0.034 A 
ATOM     44  C   UNL A   1      45.856  28.244  27.406  1.00  0.00     0.034 A 
ATOM     45  C   UNL A   1      40.889  31.339  30.304  1.00  0.00     0.049 A 
ATOM     46  C   UNL A   1      45.660  29.657  27.889  1.00  0.00     0.074 A 
ATOM     47  C   UNL A   1      40.867  32.639  30.780  1.00  0.00     0.029 A 
ATOM     48  N   UNL A   1      42.135  31.161  29.712  1.00  0.00    -0.354 N 
ATOM     49  N   UNL A   1      44.614  30.195  28.471  1.00  0.00    -0.248 NA
ATOM     50  C   UNL A   1      46.780  30.583  27.684  1.00  0.00     0.031 C 
ATOM     51  C   UNL A   1      42.062  33.267  30.411  1.00  0.00     0.029 A 
ATOM     52  C   UNL A   1      42.873  32.334  29.787  1.00  0.00     0.049 A 
ATOM     53  H   UNL A   1      42.448  30.324  29.301  1.00  0.00     0.167 HD
ATOM     54  C   UNL A   1      44.962  31.518  28.727  1.00  0.00     0.074 A 
ATOM     55  C   UNL A   1      46.321  31.687  28.254  1.00  0.00     0.031 C 
ATOM     56  C   UNL A   1      44.226  32.501  29.303  1.00  0.00     0.034 A 
BRANCH  43  57
ATOM     57  C   UNL A   1      38.535  30.696  31.029  1.00  0.00     0.023 A 
ATOM     58  C   UNL A   1      37.483  31.280  30.302  1.00  0.00     0.031 A 
ATOM     59  C   UNL A   1      38.338  30.485  32.408  1.00  0.00     0.131 A 
ATOM     60  C   UNL A   1      36.321  31.703  30.969  1.00  0.00     0.055 A 
ATOM     61  C   UNL A   1      37.145  30.823  33.047  1.00  0.00     0.041 A 
ATOM     62  F   UNL A   1      39.312  29.952  33.164  1.00  0.00    -0.206 F 
ATOM     63  C   UNL A   1      36.133  31.453  32.330  1.00  0.00     0.022 A 
BRANCH  60  64
ATOM     64  S   UNL A   1      35.125  32.729  30.068  1.00  0.00     0.124 S 
ATOM     65  O   UNL A   1      35.971  33.819  29.587  1.00  0.00    -0.237 OA
ATOM     66  O   UNL A   1      34.623  31.812  29.052  1.00  0.00    -0.237 OA
ATOM     67  O   UNL A   1      34.157  33.111  31.095  1.00  0.00    -0.744 OA
ENDBRANCH  60  64
ENDBRANCH  43  57
BRANCH  44  68
ATOM     68  C   UNL A   1      47.126  27.835  26.735  1.00  0.00     0.023 A 
ATOM     69  C   UNL A   1      47.284  27.945  25.345  1.00  0.00     0.031 A 
ATOM     70  C   UNL A   1      48.188  27.278  27.474  1.00  0.00     0.131 A 
ATOM     71  C   UNL A   1      48.454  27.468  24.733  1.00  0.00     0.055 A 
ATOM     72  C   UNL A   1      49.379  26.871  26.869  1.00  0.00     0.041 A 
ATOM     73  F   UNL A   1      48.092  27.134  28.806  1.00  0.00    -0.206 F 
ATOM     74  C   UNL A   1      49.510  26.952  25.487  1.00  0.00     0.022 A 
BRANCH  71  75
ATOM     75  S   UNL A   1      48.536  27.435  22.922  1.00  0.00     0.124 S 
ATOM     76  O   UNL A   1      48.421  26.008  22.645  1.00  0.00    -0.237 OA
ATOM     77  O   UNL A   1      47.388  28.256  22.551  1.00  0.00    -0.237 OA
ATOM     78  O   UNL A   1      49.840  28.026  22.630  1.00  0.00    -0.744 OA
ENDBRANCH  71  75
ENDBRANCH  44  68
BRANCH  56  79
ATOM     79  C   UNL A   1      44.907  33.834  29.508  1.00  0.00     0.023 A 
ATOM     80  C   UNL A   1      45.022  34.779  28.473  1.00  0.00     0.031 A 
ATOM     81  C   UNL A   1      45.483  34.148  30.753  1.00  0.00     0.131 A 
ATOM     82  C   UNL A   1      45.756  35.957  28.680  1.00  0.00     0.055 A 
ATOM     83  C   UNL A   1      46.149  35.353  30.974  1.00  0.00     0.041 A 
ATOM     84  F   UNL A   1      45.411  33.281  31.777  1.00  0.00    -0.206 F 
ATOM     85  C   UNL A   1      46.303  36.259  29.929  1.00  0.00     0.022 A 
BRANCH  82  86
ATOM     86  S   UNL A   1      46.091  37.036  27.260  1.00  0.00     0.124 S 
ATOM     87  O   UNL A   1      47.549  37.098  27.264  1.00  0.00    -0.237 OA
ATOM     88  O   UNL A   1      45.487  36.296  26.156  1.00  0.00    -0.237 OA
ATOM     89  O   UNL A   1      45.417  38.285  27.610  1.00  0.00    -0.744 OA
ENDBRANCH  82  86
ENDBRANCH  56  79
ENDBRANCH  30  31
ENDBRANCH  23  25
ENDBRANCH  22  23
ENDBRANCH  21  22
ENDBRANCH   1  21
TORSDOF 17
ENDMDL
MODEL 3
REMARK VINA RESULT:     -11.5      5.100      7.834
REMARK SMILES CC(C)(C)OC(=O)N1[C@@H](C(=O)OCCOC(=O)c2ccc(-c3c4nc(c(-c5cc(S(=O)(=O)[O-])ccc5F)c5ccc([nH]5)c(-c5cc(S(=O)(=O)[O-])ccc5F)c5nc(c(-c6cc(S(=O)(=O)[O-])ccc6F)c6ccc3[nH]6)C=C5)C=C4)cc2)C[C@H]2CCCC[C@@H]21
REMARK SMILES IDX 13 1 12 2 10 3 11 4 9 5 8 6 87 7 81 8 82 9 86 10 83 11 85 12
REMARK SMILES IDX 84 13 6 14 7 15 5 16 2 17 1 18 3 19 4 20 14 21 15 22 16 23
REMARK SMILES IDX 17 24 18 25 19 26 80 27 20 28 79 29 21 30 22 31 23 32 73 33
REMARK SMILES IDX 24 34 78 35 72 36 74 37 25 38 77 39 71 40 70 41 26 43 58 44
REMARK SMILES IDX 38 45 57 46 39 47 42 48 56 49 75 50 40 51 41 52 55 54 76 55
REMARK SMILES IDX 43 56 27 57 28 58 36 59 29 60 35 61 37 62 34 63 30 64 31 65
REMARK SMILES IDX 32 66 33 67 59 68 60 69 68 70 61 71 67 72 69 73 66 74 62 75
REMARK SMILES IDX 63 76 64 77 65 78 44 79 45 80 53 81 46 82 52 83 54 84 51 85
REMARK SMILES IDX 47 86 48 87 49 88 50 89
REMARK H PARENT 74 42 42 53
REMARK Flexibility Score: inf
ROOT
ATOM      1  C   UNL A   1      31.610  30.823  26.706  1.00  0.00     0.274 C 
ENDROOT
BRANCH   1   2
ATOM      2  O   UNL A   1      31.613  30.400  25.322  1.00  0.00    -0.461 OA
BRANCH   2   3
ATOM      3  C   UNL A   1      32.175  29.181  25.091  1.00  0.00     0.329 C 
ATOM      4  O   UNL A   1      32.753  28.531  25.959  1.00  0.00    -0.250 OA
BRANCH   3   5
ATOM      5  C   UNL A   1      32.120  28.751  23.604  1.00  0.00     0.199 C 
ATOM      6  N   UNL A   1      31.134  27.687  23.327  1.00  0.00    -0.291 N 
ATOM      7  C   UNL A   1      31.744  26.386  23.520  1.00  0.00     0.092 C 
ATOM      8  C   UNL A   1      33.494  28.064  23.362  1.00  0.00     0.043 C 
ATOM      9  C   UNL A   1      33.160  26.617  22.993  1.00  0.00     0.014 C 
ATOM     10  C   UNL A   1      31.192  25.140  22.823  1.00  0.00     0.025 C 
ATOM     11  C   UNL A   1      34.061  25.511  23.523  1.00  0.00     0.006 C 
ATOM     12  C   UNL A   1      32.059  23.928  23.188  1.00  0.00     0.002 C 
ATOM     13  C   UNL A   1      33.564  24.159  22.988  1.00  0.00     0.000 C 
BRANCH   6  14
ATOM     14  C   UNL A   1      29.786  27.835  23.064  1.00  0.00     0.411 C 
ATOM     15  O   UNL A   1      28.945  27.084  23.525  1.00  0.00    -0.224 OA
BRANCH  14  16
ATOM     16  O   UNL A   1      29.504  28.833  22.183  1.00  0.00    -0.444 OA
BRANCH  16  17
ATOM     17  C   UNL A   1      28.447  29.801  22.499  1.00  0.00     0.106 C 
ATOM     18  C   UNL A   1      28.097  30.466  21.159  1.00  0.00     0.056 C 
ATOM     19  C   UNL A   1      28.989  30.865  23.455  1.00  0.00     0.056 C 
ATOM     20  C   UNL A   1      27.141  29.210  23.068  1.00  0.00     0.056 C 
ENDBRANCH  16  17
ENDBRANCH  14  16
ENDBRANCH   6  14
ENDBRANCH   3   5
ENDBRANCH   2   3
ENDBRANCH   1   2
BRANCH   1  21
ATOM     21  C   UNL A   1      31.384  32.328  26.861  1.00  0.00     0.275 C 
BRANCH  21  22
ATOM     22  O   UNL A   1      32.599  33.065  26.626  1.00  0.00    -0.458 OA
BRANCH  22  23
ATOM     23  C   UNL A   1      33.183  33.529  27.756  1.00  0.00     0.338 C 
ATOM     24  O   UNL A   1      32.703  34.346  28.523  1.00  0.00    -0.246 OA
BRANCH  23  25
ATOM     25  C   UNL A   1      34.461  32.849  28.023  1.00  0.00     0.060 A 
ATOM     26  C   UNL A   1      34.422  31.498  28.327  1.00  0.00     0.016 A 
ATOM     27  C   UNL A   1      35.636  33.566  28.227  1.00  0.00     0.016 A 
ATOM     28  C   UNL A   1      35.496  30.885  28.959  1.00  0.00     0.010 A 
ATOM     29  C   UNL A   1      36.764  32.910  28.751  1.00  0.00     0.010 A 
ATOM     30  C   UNL A   1      36.694  31.569  29.172  1.00  0.00    -0.014 A 
BRANCH  30  31
ATOM     31  C   UNL A   1      37.808  30.888  29.904  1.00  0.00     0.031 A 
ATOM     32  C   UNL A   1      38.054  31.188  31.362  1.00  0.00     0.074 A 
ATOM     33  C   UNL A   1      38.563  29.947  29.297  1.00  0.00     0.049 A 
ATOM     34  N   UNL A   1      39.086  30.886  32.110  1.00  0.00    -0.248 NA
ATOM     35  C   UNL A   1      37.008  31.946  32.064  1.00  0.00     0.031 C 
ATOM     36  C   UNL A   1      38.379  29.461  27.925  1.00  0.00     0.029 A 
ATOM     37  N   UNL A   1      39.630  29.212  29.758  1.00  0.00    -0.354 N 
ATOM     38  C   UNL A   1      38.843  31.470  33.350  1.00  0.00     0.074 A 
ATOM     39  C   UNL A   1      37.574  32.161  33.242  1.00  0.00     0.031 C 
ATOM     40  C   UNL A   1      39.256  28.477  27.681  1.00  0.00     0.029 A 
ATOM     41  C   UNL A   1      40.159  28.356  28.816  1.00  0.00     0.049 A 
ATOM     42  H   UNL A   1      39.982  29.290  30.674  1.00  0.00     0.167 HD
ATOM     43  C   UNL A   1      39.611  31.430  34.470  1.00  0.00     0.034 A 
ATOM     44  C   UNL A   1      41.281  27.609  28.827  1.00  0.00     0.034 A 
ATOM     45  C   UNL A   1      40.846  30.684  34.572  1.00  0.00     0.049 A 
ATOM     46  C   UNL A   1      42.171  27.661  30.041  1.00  0.00     0.074 A 
ATOM     47  C   UNL A   1      41.705  30.581  35.653  1.00  0.00     0.029 A 
ATOM     48  N   UNL A   1      41.391  29.899  33.563  1.00  0.00    -0.354 N 
ATOM     49  N   UNL A   1      41.997  28.313  31.167  1.00  0.00    -0.248 NA
ATOM     50  C   UNL A   1      43.417  26.889  29.976  1.00  0.00     0.031 C 
ATOM     51  C   UNL A   1      42.803  29.800  35.273  1.00  0.00     0.029 A 
ATOM     52  C   UNL A   1      42.587  29.335  33.986  1.00  0.00     0.049 A 
ATOM     53  H   UNL A   1      40.987  29.762  32.675  1.00  0.00     0.167 HD
ATOM     54  C   UNL A   1      43.101  28.005  31.956  1.00  0.00     0.074 A 
ATOM     55  C   UNL A   1      43.921  27.095  31.183  1.00  0.00     0.031 C 
ATOM     56  C   UNL A   1      43.407  28.435  33.207  1.00  0.00     0.034 A 
BRANCH  43  57
ATOM     57  C   UNL A   1      39.176  32.277  35.648  1.00  0.00     0.023 A 
ATOM     58  C   UNL A   1      39.583  33.613  35.809  1.00  0.00     0.031 A 
ATOM     59  C   UNL A   1      38.361  31.717  36.650  1.00  0.00     0.131 A 
ATOM     60  C   UNL A   1      39.240  34.313  36.978  1.00  0.00     0.055 A 
ATOM     61  C   UNL A   1      37.947  32.447  37.764  1.00  0.00     0.041 A 
ATOM     62  F   UNL A   1      37.957  30.439  36.568  1.00  0.00    -0.206 F 
ATOM     63  C   UNL A   1      38.402  33.750  37.943  1.00  0.00     0.022 A 
BRANCH  60  64
ATOM     64  S   UNL A   1      40.035  35.913  37.300  1.00  0.00     0.124 S 
ATOM     65  O   UNL A   1      39.727  36.650  36.076  1.00  0.00    -0.237 OA
ATOM     66  O   UNL A   1      39.357  36.366  38.508  1.00  0.00    -0.237 OA
ATOM     67  O   UNL A   1      41.446  35.568  37.469  1.00  0.00    -0.744 OA
ENDBRANCH  60  64
ENDBRANCH  43  57
BRANCH  44  68
ATOM     68  C   UNL A   1      41.678  26.822  27.622  1.00  0.00     0.023 A 
ATOM     69  C   UNL A   1      41.411  25.447  27.530  1.00  0.00     0.031 A 
ATOM     70  C   UNL A   1      42.381  27.426  26.561  1.00  0.00     0.131 A 
ATOM     71  C   UNL A   1      41.877  24.715  26.427  1.00  0.00     0.055 A 
ATOM     72  C   UNL A   1      42.779  26.709  25.433  1.00  0.00     0.041 A 
ATOM     73  F   UNL A   1      42.678  28.735  26.598  1.00  0.00    -0.206 F 
ATOM     74  C   UNL A   1      42.540  25.340  25.368  1.00  0.00     0.022 A 
BRANCH  71  75
ATOM     75  S   UNL A   1      41.695  22.911  26.441  1.00  0.00     0.124 S 
ATOM     76  O   UNL A   1      42.411  22.532  25.229  1.00  0.00    -0.237 OA
ATOM     77  O   UNL A   1      42.332  22.551  27.703  1.00  0.00    -0.237 OA
ATOM     78  O   UNL A   1      40.248  22.715  26.399  1.00  0.00    -0.744 OA
ENDBRANCH  71  75
ENDBRANCH  44  68
BRANCH  56  79
ATOM     79  C   UNL A   1      44.657  27.868  33.837  1.00  0.00     0.023 A 
ATOM     80  C   UNL A   1      44.638  26.689  34.602  1.00  0.00     0.031 A 
ATOM     81  C   UNL A   1      45.885  28.542  33.698  1.00  0.00     0.131 A 
ATOM     82  C   UNL A   1      45.803  26.259  35.256  1.00  0.00     0.055 A 
ATOM     83  C   UNL A   1      47.056  28.070  34.290  1.00  0.00     0.041 A 
ATOM     84  F   UNL A   1      45.964  29.678  32.985  1.00  0.00    -0.206 F 
ATOM     85  C   UNL A   1      47.016  26.931  35.089  1.00  0.00     0.022 A 
BRANCH  82  86
ATOM     86  S   UNL A   1      45.687  24.878  36.426  1.00  0.00     0.124 S 
ATOM     87  O   UNL A   1      47.049  24.354  36.413  1.00  0.00    -0.237 OA
ATOM     88  O   UNL A   1      45.272  25.545  37.657  1.00  0.00    -0.237 OA
ATOM     89  O   UNL A   1      44.680  24.003  35.828  1.00  0.00    -0.744 OA
ENDBRANCH  82  86
ENDBRANCH  56  79
ENDBRANCH  30  31
ENDBRANCH  23  25
ENDBRANCH  22  23
ENDBRANCH  21  22
ENDBRANCH   1  21
TORSDOF 17
ENDMDL
