MODEL 1
REMARK VINA RESULT:     -12.0      0.000      0.000
REMARK SMILES C[C@@H](NC(=O)N1CC[N@@H+]2CCCC[C@H]2C1)C(=O)OCCOC(=O)c1ccc(-c2c3nc(c(-c4cc(S(=O)(=O)[O-])ccc4F)c4ccc([nH]4)c(-c4cc(S(=O)(=O)[O-])ccc4F)c4nc(c(-c5cc(S(=O)(=O)[O-])ccc5F)c5ccc2[nH]5)C=C4)C=C3)cc1
REMARK SMILES IDX 20 1 19 2 18 3 16 4 17 5 2 6 1 7 3 8 4 9 5 11 6 12 7 13
REMARK SMILES IDX 15 14 8 15 14 16 9 17 13 18 10 19 12 21 11 22 21 23 22 24
REMARK SMILES IDX 23 25 24 26 25 27 86 28 26 29 85 30 27 31 28 32 29 33 79 34
REMARK SMILES IDX 30 35 84 36 78 37 80 38 31 39 83 40 77 41 76 42 32 44 64 45
REMARK SMILES IDX 44 46 63 47 45 48 48 49 62 50 81 51 46 52 47 53 61 55 82 56
REMARK SMILES IDX 49 57 33 58 34 59 42 60 35 61 41 62 43 63 40 64 36 65 37 66
REMARK SMILES IDX 38 67 39 68 65 69 66 70 74 71 67 72 73 73 75 74 72 75 68 76
REMARK SMILES IDX 69 77 70 78 71 79 50 80 51 81 59 82 52 83 58 84 60 85 57 86
REMARK SMILES IDX 53 87 54 88 55 89 56 90
REMARK H PARENT 3 10 9 20 80 43 48 54
REMARK Flexibility Score: inf
ROOT
ATOM      1  C   UNL A   1      37.484  20.422  24.796  1.00  0.00     0.275 C 
ENDROOT
BRANCH   1   2
ATOM      2  C   UNL A   1      36.001  20.117  25.018  1.00  0.00     0.274 C 
BRANCH   2   3
ATOM      3  O   UNL A   1      35.100  21.240  25.037  1.00  0.00    -0.461 OA
BRANCH   3   4
ATOM      4  C   UNL A   1      33.885  21.021  25.623  1.00  0.00     0.328 C 
ATOM      5  O   UNL A   1      33.037  20.256  25.177  1.00  0.00    -0.250 OA
BRANCH   4   6
ATOM      6  C   UNL A   1      33.655  21.862  26.883  1.00  0.00     0.190 C 
ATOM      7  C   UNL A   1      34.641  23.024  27.009  1.00  0.00     0.043 C 
BRANCH   6   8
ATOM      8  N   UNL A   1      32.290  22.279  27.243  1.00  0.00    -0.325 N 
ATOM      9  C   UNL A   1      31.414  23.180  26.740  1.00  0.00     0.318 C 
ATOM     10  H   UNL A   1      31.934  21.795  28.022  1.00  0.00     0.166 HD
ATOM     11  O   UNL A   1      30.393  23.430  27.380  1.00  0.00    -0.249 OA
BRANCH   9  12
ATOM     12  N   UNL A   1      31.740  23.849  25.598  1.00  0.00    -0.313 N 
ATOM     13  C   UNL A   1      31.255  23.348  24.307  1.00  0.00     0.183 C 
ATOM     14  C   UNL A   1      31.681  25.300  25.656  1.00  0.00     0.186 C 
ATOM     15  C   UNL A   1      31.973  24.013  23.100  1.00  0.00     0.284 C 
ATOM     16  C   UNL A   1      32.615  25.872  24.583  1.00  0.00     0.203 C 
ATOM     17  N   UNL A   1      32.223  25.479  23.209  1.00  0.00    -0.330 N 
ATOM     18  C   UNL A   1      32.697  27.396  24.665  1.00  0.00     0.067 C 
ATOM     19  C   UNL A   1      33.246  25.899  22.234  1.00  0.00     0.262 C 
ATOM     20  H   UNL A   1      31.348  25.957  22.996  1.00  0.00     0.348 HD
ATOM     21  C   UNL A   1      33.808  27.882  23.741  1.00  0.00     0.012 C 
ATOM     22  C   UNL A   1      33.575  27.395  22.314  1.00  0.00     0.062 C 
ENDBRANCH   9  12
ENDBRANCH   6   8
ENDBRANCH   4   6
ENDBRANCH   3   4
ENDBRANCH   2   3
ENDBRANCH   1   2
BRANCH   1  23
ATOM     23  O   UNL A   1      37.942  21.525  25.589  1.00  0.00    -0.458 OA
BRANCH  23  24
ATOM     24  C   UNL A   1      39.179  21.339  26.101  1.00  0.00     0.338 C 
ATOM     25  O   UNL A   1      39.910  20.375  25.887  1.00  0.00    -0.246 OA
BRANCH  24  26
ATOM     26  C   UNL A   1      39.638  22.528  26.836  1.00  0.00     0.060 A 
ATOM     27  C   UNL A   1      39.022  23.744  26.511  1.00  0.00     0.016 A 
ATOM     28  C   UNL A   1      40.698  22.484  27.744  1.00  0.00     0.016 A 
ATOM     29  C   UNL A   1      39.508  24.933  27.035  1.00  0.00     0.010 A 
ATOM     30  C   UNL A   1      41.198  23.682  28.259  1.00  0.00     0.010 A 
ATOM     31  C   UNL A   1      40.635  24.908  27.863  1.00  0.00    -0.014 A 
BRANCH  31  32
ATOM     32  C   UNL A   1      41.358  26.173  28.107  1.00  0.00     0.031 A 
ATOM     33  C   UNL A   1      40.632  27.267  28.839  1.00  0.00     0.074 A 
ATOM     34  C   UNL A   1      42.641  26.313  27.736  1.00  0.00     0.049 A 
ATOM     35  N   UNL A   1      41.017  28.484  29.116  1.00  0.00    -0.248 NA
ATOM     36  C   UNL A   1      39.280  26.939  29.323  1.00  0.00     0.031 C 
ATOM     37  C   UNL A   1      43.449  25.277  27.092  1.00  0.00     0.029 A 
ATOM     38  N   UNL A   1      43.488  27.383  27.844  1.00  0.00    -0.354 N 
ATOM     39  C   UNL A   1      39.954  29.070  29.796  1.00  0.00     0.074 A 
ATOM     40  C   UNL A   1      38.898  28.085  29.861  1.00  0.00     0.031 C 
ATOM     41  C   UNL A   1      44.674  25.771  26.847  1.00  0.00     0.029 A 
ATOM     42  C   UNL A   1      44.721  27.167  27.276  1.00  0.00     0.049 A 
ATOM     43  H   UNL A   1      43.239  28.226  28.287  1.00  0.00     0.167 HD
ATOM     44  C   UNL A   1      39.873  30.319  30.315  1.00  0.00     0.034 A 
ATOM     45  C   UNL A   1      45.751  28.017  27.096  1.00  0.00     0.034 A 
ATOM     46  C   UNL A   1      40.941  31.282  30.216  1.00  0.00     0.049 A 
ATOM     47  C   UNL A   1      45.605  29.432  27.602  1.00  0.00     0.074 A 
ATOM     48  C   UNL A   1      40.980  32.584  30.684  1.00  0.00     0.029 A 
ATOM     49  N   UNL A   1      42.161  31.045  29.593  1.00  0.00    -0.354 N 
ATOM     50  N   UNL A   1      44.588  29.989  28.220  1.00  0.00    -0.248 NA
ATOM     51  C   UNL A   1      46.746  30.331  27.388  1.00  0.00     0.031 C 
ATOM     52  C   UNL A   1      42.197  33.151  30.287  1.00  0.00     0.029 A 
ATOM     53  C   UNL A   1      42.948  32.184  29.637  1.00  0.00     0.049 A 
ATOM     54  H   UNL A   1      42.427  30.192  29.181  1.00  0.00     0.167 HD
ATOM     55  C   UNL A   1      44.975  31.298  28.490  1.00  0.00     0.074 A 
ATOM     56  C   UNL A   1      46.325  31.440  27.979  1.00  0.00     0.031 C 
ATOM     57  C   UNL A   1      44.287  32.294  29.106  1.00  0.00     0.034 A 
BRANCH  44  58
ATOM     58  C   UNL A   1      38.567  30.714  30.962  1.00  0.00     0.023 A 
ATOM     59  C   UNL A   1      37.519  31.300  30.228  1.00  0.00     0.031 A 
ATOM     60  C   UNL A   1      38.389  30.558  32.349  1.00  0.00     0.131 A 
ATOM     61  C   UNL A   1      36.377  31.775  30.893  1.00  0.00     0.055 A 
ATOM     62  C   UNL A   1      37.217  30.962  32.992  1.00  0.00     0.041 A 
ATOM     63  F   UNL A   1      39.364  30.033  33.107  1.00  0.00    -0.206 F 
ATOM     64  C   UNL A   1      36.209  31.588  32.266  1.00  0.00     0.022 A 
BRANCH  61  65
ATOM     65  S   UNL A   1      35.179  32.771  29.962  1.00  0.00     0.124 S 
ATOM     66  O   UNL A   1      34.727  31.819  28.949  1.00  0.00    -0.237 OA
ATOM     67  O   UNL A   1      34.203  33.129  30.984  1.00  0.00    -0.237 OA
ATOM     68  O   UNL A   1      35.981  33.880  29.448  1.00  0.00    -0.744 OA
ENDBRANCH  61  65
ENDBRANCH  44  58
BRANCH  45  69
ATOM     69  C   UNL A   1      46.974  27.578  26.367  1.00  0.00     0.023 A 
ATOM     70  C   UNL A   1      47.145  27.843  25.000  1.00  0.00     0.031 A 
ATOM     71  C   UNL A   1      47.982  26.850  27.028  1.00  0.00     0.131 A 
ATOM     72  C   UNL A   1      48.278  27.357  24.328  1.00  0.00     0.055 A 
ATOM     73  C   UNL A   1      49.131  26.410  26.367  1.00  0.00     0.041 A 
ATOM     74  F   UNL A   1      47.870  26.566  28.335  1.00  0.00    -0.206 F 
ATOM     75  C   UNL A   1      49.278  26.654  25.005  1.00  0.00     0.022 A 
BRANCH  72  76
ATOM     76  S   UNL A   1      48.393  27.590  22.533  1.00  0.00     0.124 S 
ATOM     77  O   UNL A   1      47.183  28.356  22.254  1.00  0.00    -0.237 OA
ATOM     78  O   UNL A   1      49.654  28.312  22.403  1.00  0.00    -0.237 OA
ATOM     79  O   UNL A   1      48.402  26.225  22.012  1.00  0.00    -0.744 OA
ENDBRANCH  72  76
ENDBRANCH  45  69
BRANCH  57  80
ATOM     80  C   UNL A   1      45.009  33.605  29.288  1.00  0.00     0.023 A 
ATOM     81  C   UNL A   1      44.859  34.662  28.375  1.00  0.00     0.031 A 
ATOM     82  C   UNL A   1      45.858  33.794  30.392  1.00  0.00     0.131 A 
ATOM     83  C   UNL A   1      45.592  35.844  28.552  1.00  0.00     0.055 A 
ATOM     84  C   UNL A   1      46.541  34.994  30.595  1.00  0.00     0.041 A 
ATOM     85  F   UNL A   1      46.035  32.815  31.294  1.00  0.00    -0.206 F 
ATOM     86  C   UNL A   1      46.418  36.023  29.666  1.00  0.00     0.022 A 
BRANCH  83  87
ATOM     87  S   UNL A   1      45.513  37.119  27.265  1.00  0.00     0.124 S 
ATOM     88  O   UNL A   1      44.113  37.053  26.860  1.00  0.00    -0.237 OA
ATOM     89  O   UNL A   1      45.912  38.320  27.990  1.00  0.00    -0.237 OA
ATOM     90  O   UNL A   1      46.471  36.654  26.263  1.00  0.00    -0.744 OA
ENDBRANCH  83  87
ENDBRANCH  57  80
ENDBRANCH  31  32
ENDBRANCH  24  26
ENDBRANCH  23  24
ENDBRANCH   1  23
TORSDOF 16
ENDMDL
MODEL 2
REMARK VINA RESULT:     -11.9      5.085     10.170
REMARK SMILES C[C@@H](NC(=O)N1CC[N@@H+]2CCCC[C@H]2C1)C(=O)OCCOC(=O)c1ccc(-c2c3nc(c(-c4cc(S(=O)(=O)[O-])ccc4F)c4ccc([nH]4)c(-c4cc(S(=O)(=O)[O-])ccc4F)c4nc(c(-c5cc(S(=O)(=O)[O-])ccc5F)c5ccc2[nH]5)C=C4)C=C3)cc1
REMARK SMILES IDX 20 1 19 2 18 3 16 4 17 5 2 6 1 7 3 8 4 9 5 11 6 12 7 13
REMARK SMILES IDX 15 14 8 15 14 16 9 17 13 18 10 19 12 21 11 22 21 23 22 24
REMARK SMILES IDX 23 25 24 26 25 27 86 28 26 29 85 30 27 31 28 32 29 33 79 34
REMARK SMILES IDX 30 35 84 36 78 37 80 38 31 39 83 40 77 41 76 42 32 44 64 45
REMARK SMILES IDX 44 46 63 47 45 48 48 49 62 50 81 51 46 52 47 53 61 55 82 56
REMARK SMILES IDX 49 57 33 58 34 59 42 60 35 61 41 62 43 63 40 64 36 65 37 66
REMARK SMILES IDX 38 67 39 68 65 69 66 70 74 71 67 72 73 73 75 74 72 75 68 76
REMARK SMILES IDX 69 77 70 78 71 79 50 80 51 81 59 82 52 83 58 84 60 85 57 86
REMARK SMILES IDX 53 87 54 88 55 89 56 90
REMARK H PARENT 3 10 9 20 80 43 48 54
REMARK Flexibility Score: inf
ROOT
ATOM      1  C   UNL A   1      31.629  30.846  26.015  1.00  0.00     0.275 C 
ENDROOT
BRANCH   1   2
ATOM      2  C   UNL A   1      31.586  29.723  24.977  1.00  0.00     0.274 C 
BRANCH   2   3
ATOM      3  O   UNL A   1      30.959  28.490  25.373  1.00  0.00    -0.461 OA
BRANCH   3   4
ATOM      4  C   UNL A   1      31.377  27.368  24.717  1.00  0.00     0.328 C 
ATOM      5  O   UNL A   1      31.191  27.163  23.523  1.00  0.00    -0.250 OA
BRANCH   4   6
ATOM      6  C   UNL A   1      32.074  26.351  25.628  1.00  0.00     0.190 C 
ATOM      7  C   UNL A   1      33.165  26.982  26.494  1.00  0.00     0.043 C 
BRANCH   6   8
ATOM      8  N   UNL A   1      31.268  25.391  26.401  1.00  0.00    -0.325 N 
ATOM      9  C   UNL A   1      31.444  24.107  26.789  1.00  0.00     0.318 C 
ATOM     10  H   UNL A   1      30.409  25.767  26.701  1.00  0.00     0.166 HD
ATOM     11  O   UNL A   1      30.492  23.507  27.287  1.00  0.00    -0.249 OA
BRANCH   9  12
ATOM     12  N   UNL A   1      32.634  23.497  26.527  1.00  0.00    -0.313 N 
ATOM     13  C   UNL A   1      33.123  22.453  27.435  1.00  0.00     0.183 C 
ATOM     14  C   UNL A   1      32.896  23.153  25.139  1.00  0.00     0.186 C 
ATOM     15  C   UNL A   1      34.616  22.099  27.189  1.00  0.00     0.284 C 
ATOM     16  C   UNL A   1      34.413  23.066  24.933  1.00  0.00     0.203 C 
ATOM     17  N   UNL A   1      35.048  22.016  25.765  1.00  0.00    -0.330 N 
ATOM     18  C   UNL A   1      34.766  22.827  23.465  1.00  0.00     0.067 C 
ATOM     19  C   UNL A   1      36.516  22.093  25.668  1.00  0.00     0.262 C 
ATOM     20  H   UNL A   1      34.739  21.116  25.402  1.00  0.00     0.348 HD
ATOM     21  C   UNL A   1      36.272  22.985  23.288  1.00  0.00     0.012 C 
ATOM     22  C   UNL A   1      37.027  22.045  24.223  1.00  0.00     0.062 C 
ENDBRANCH   9  12
ENDBRANCH   6   8
ENDBRANCH   4   6
ENDBRANCH   3   4
ENDBRANCH   2   3
ENDBRANCH   1   2
BRANCH   1  23
ATOM     23  O   UNL A   1      32.599  30.605  27.044  1.00  0.00    -0.458 OA
BRANCH  23  24
ATOM     24  C   UNL A   1      33.295  31.710  27.391  1.00  0.00     0.338 C 
ATOM     25  O   UNL A   1      32.831  32.837  27.544  1.00  0.00    -0.246 OA
BRANCH  24  26
ATOM     26  C   UNL A   1      34.687  31.378  27.736  1.00  0.00     0.060 A 
ATOM     27  C   UNL A   1      34.976  30.023  27.945  1.00  0.00     0.016 A 
ATOM     28  C   UNL A   1      35.661  32.357  27.944  1.00  0.00     0.016 A 
ATOM     29  C   UNL A   1      36.217  29.643  28.435  1.00  0.00     0.010 A 
ATOM     30  C   UNL A   1      36.905  31.977  28.452  1.00  0.00     0.010 A 
ATOM     31  C   UNL A   1      37.163  30.626  28.745  1.00  0.00    -0.014 A 
BRANCH  31  32
ATOM     32  C   UNL A   1      38.312  30.255  29.597  1.00  0.00     0.031 A 
ATOM     33  C   UNL A   1      39.310  29.276  29.043  1.00  0.00     0.074 A 
ATOM     34  C   UNL A   1      38.484  30.822  30.802  1.00  0.00     0.049 A 
ATOM     35  N   UNL A   1      40.358  28.742  29.610  1.00  0.00    -0.248 NA
ATOM     36  C   UNL A   1      39.088  28.839  27.653  1.00  0.00     0.031 C 
ATOM     37  C   UNL A   1      37.610  31.840  31.386  1.00  0.00     0.029 A 
ATOM     38  N   UNL A   1      39.449  30.620  31.751  1.00  0.00    -0.354 N 
ATOM     39  C   UNL A   1      40.914  27.898  28.654  1.00  0.00     0.074 A 
ATOM     40  C   UNL A   1      40.070  27.969  27.482  1.00  0.00     0.031 C 
ATOM     41  C   UNL A   1      38.073  32.162  32.605  1.00  0.00     0.029 A 
ATOM     42  C   UNL A   1      39.246  31.342  32.903  1.00  0.00     0.049 A 
ATOM     43  H   UNL A   1      40.215  30.016  31.621  1.00  0.00     0.167 HD
ATOM     44  C   UNL A   1      42.030  27.136  28.752  1.00  0.00     0.034 A 
ATOM     45  C   UNL A   1      39.917  31.312  34.071  1.00  0.00     0.034 A 
ATOM     46  C   UNL A   1      42.839  27.076  29.943  1.00  0.00     0.049 A 
ATOM     47  C   UNL A   1      41.103  30.387  34.190  1.00  0.00     0.074 A 
ATOM     48  C   UNL A   1      43.982  26.332  30.179  1.00  0.00     0.029 A 
ATOM     49  N   UNL A   1      42.579  27.787  31.109  1.00  0.00    -0.354 N 
ATOM     50  N   UNL A   1      41.610  29.572  33.292  1.00  0.00    -0.248 NA
ATOM     51  C   UNL A   1      41.809  30.379  35.477  1.00  0.00     0.031 C 
ATOM     52  C   UNL A   1      44.374  26.546  31.505  1.00  0.00     0.029 A 
ATOM     53  C   UNL A   1      43.521  27.477  32.077  1.00  0.00     0.049 A 
ATOM     54  H   UNL A   1      41.834  28.419  31.230  1.00  0.00     0.167 HD
ATOM     55  C   UNL A   1      42.709  28.971  33.899  1.00  0.00     0.074 A 
ATOM     56  C   UNL A   1      42.798  29.531  35.234  1.00  0.00     0.031 C 
ATOM     57  C   UNL A   1      43.571  28.046  33.404  1.00  0.00     0.034 A 
BRANCH  44  58
ATOM     58  C   UNL A   1      42.379  26.267  27.567  1.00  0.00     0.023 A 
ATOM     59  C   UNL A   1      41.887  24.955  27.434  1.00  0.00     0.031 A 
ATOM     60  C   UNL A   1      43.266  26.738  26.582  1.00  0.00     0.131 A 
ATOM     61  C   UNL A   1      42.344  24.137  26.388  1.00  0.00     0.055 A 
ATOM     62  C   UNL A   1      43.656  25.946  25.500  1.00  0.00     0.041 A 
ATOM     63  F   UNL A   1      43.791  27.970  26.669  1.00  0.00    -0.206 F 
ATOM     64  C   UNL A   1      43.206  24.632  25.407  1.00  0.00     0.022 A 
BRANCH  61  65
ATOM     65  S   UNL A   1      41.912  22.375  26.408  1.00  0.00     0.124 S 
ATOM     66  O   UNL A   1      42.421  21.962  27.715  1.00  0.00    -0.237 OA
ATOM     67  O   UNL A   1      40.461  22.404  26.268  1.00  0.00    -0.237 OA
ATOM     68  O   UNL A   1      42.640  21.829  25.265  1.00  0.00    -0.744 OA
ENDBRANCH  61  65
ENDBRANCH  44  58
BRANCH  45  69
ATOM     69  C   UNL A   1      39.457  32.134  35.227  1.00  0.00     0.023 A 
ATOM     70  C   UNL A   1      38.741  31.563  36.290  1.00  0.00     0.031 A 
ATOM     71  C   UNL A   1      39.700  33.519  35.266  1.00  0.00     0.131 A 
ATOM     72  C   UNL A   1      38.264  32.376  37.330  1.00  0.00     0.055 A 
ATOM     73  C   UNL A   1      39.266  34.317  36.327  1.00  0.00     0.041 A 
ATOM     74  F   UNL A   1      40.378  34.119  34.274  1.00  0.00    -0.206 F 
ATOM     75  C   UNL A   1      38.533  33.747  37.362  1.00  0.00     0.022 A 
BRANCH  72  76
ATOM     76  S   UNL A   1      37.217  31.629  38.610  1.00  0.00     0.124 S 
ATOM     77  O   UNL A   1      36.049  32.503  38.587  1.00  0.00    -0.237 OA
ATOM     78  O   UNL A   1      37.021  30.280  38.089  1.00  0.00    -0.237 OA
ATOM     79  O   UNL A   1      38.038  31.717  39.815  1.00  0.00    -0.744 OA
ENDBRANCH  72  76
ENDBRANCH  45  69
BRANCH  57  80
ATOM     80  C   UNL A   1      44.701  27.620  34.307  1.00  0.00     0.023 A 
ATOM     81  C   UNL A   1      44.588  26.506  35.155  1.00  0.00     0.031 A 
ATOM     82  C   UNL A   1      45.906  28.345  34.316  1.00  0.00     0.131 A 
ATOM     83  C   UNL A   1      45.642  26.179  36.019  1.00  0.00     0.055 A 
ATOM     84  C   UNL A   1      46.974  27.980  35.137  1.00  0.00     0.041 A 
ATOM     85  F   UNL A   1      46.066  29.417  33.523  1.00  0.00    -0.206 F 
ATOM     86  C   UNL A   1      46.841  26.898  36.002  1.00  0.00     0.022 A 
BRANCH  83  87
ATOM     87  S   UNL A   1      45.398  24.846  37.224  1.00  0.00     0.124 S 
ATOM     88  O   UNL A   1      44.276  25.349  38.008  1.00  0.00    -0.237 OA
ATOM     89  O   UNL A   1      45.114  23.698  36.368  1.00  0.00    -0.237 OA
ATOM     90  O   UNL A   1      46.675  24.787  37.933  1.00  0.00    -0.744 OA
ENDBRANCH  83  87
ENDBRANCH  57  80
ENDBRANCH  31  32
ENDBRANCH  24  26
ENDBRANCH  23  24
ENDBRANCH   1  23
TORSDOF 16
ENDMDL
MODEL 3
REMARK VINA RESULT:     -11.9      5.088     10.239
REMARK SMILES C[C@@H](NC(=O)N1CC[N@@H+]2CCCC[C@H]2C1)C(=O)OCCOC(=O)c1ccc(-c2c3nc(c(-c4cc(S(=O)(=O)[O-])ccc4F)c4ccc([nH]4)c(-c4cc(S(=O)(=O)[O-])ccc4F)c4nc(c(-c5cc(S(=O)(=O)[O-])ccc5F)c5ccc2[nH]5)C=C4)C=C3)cc1
REMARK SMILES IDX 20 1 19 2 18 3 16 4 17 5 2 6 1 7 3 8 4 9 5 11 6 12 7 13
REMARK SMILES IDX 15 14 8 15 14 16 9 17 13 18 10 19 12 21 11 22 21 23 22 24
REMARK SMILES IDX 23 25 24 26 25 27 86 28 26 29 85 30 27 31 28 32 29 33 79 34
REMARK SMILES IDX 30 35 84 36 78 37 80 38 31 39 83 40 77 41 76 42 32 44 64 45
REMARK SMILES IDX 44 46 63 47 45 48 48 49 62 50 81 51 46 52 47 53 61 55 82 56
REMARK SMILES IDX 49 57 33 58 34 59 42 60 35 61 41 62 43 63 40 64 36 65 37 66
REMARK SMILES IDX 38 67 39 68 65 69 66 70 74 71 67 72 73 73 75 74 72 75 68 76
REMARK SMILES IDX 69 77 70 78 71 79 50 80 51 81 59 82 52 83 58 84 60 85 57 86
REMARK SMILES IDX 53 87 54 88 55 89 56 90
REMARK H PARENT 3 10 9 20 80 43 48 54
REMARK Flexibility Score: inf
ROOT
ATOM      1  C   UNL A   1      31.347  31.384  26.429  1.00  0.00     0.275 C 
ENDROOT
BRANCH   1   2
ATOM      2  C   UNL A   1      30.981  30.611  25.161  1.00  0.00     0.274 C 
BRANCH   2   3
ATOM      3  O   UNL A   1      31.721  29.404  24.895  1.00  0.00    -0.461 OA
BRANCH   3   4
ATOM      4  C   UNL A   1      31.611  28.902  23.630  1.00  0.00     0.328 C 
ATOM      5  O   UNL A   1      30.543  28.690  23.067  1.00  0.00    -0.250 OA
BRANCH   4   6
ATOM      6  C   UNL A   1      32.962  28.582  22.981  1.00  0.00     0.190 C 
ATOM      7  C   UNL A   1      34.059  28.295  24.007  1.00  0.00     0.043 C 
BRANCH   6   8
ATOM      8  N   UNL A   1      33.024  27.636  21.854  1.00  0.00    -0.325 N 
ATOM      9  C   UNL A   1      32.922  26.291  21.743  1.00  0.00     0.318 C 
ATOM     10  H   UNL A   1      33.174  28.080  20.989  1.00  0.00     0.166 HD
ATOM     11  O   UNL A   1      33.198  25.767  20.665  1.00  0.00    -0.249 OA
BRANCH   9  12
ATOM     12  N   UNL A   1      32.613  25.560  22.851  1.00  0.00    -0.313 N 
ATOM     13  C   UNL A   1      31.227  25.131  23.067  1.00  0.00     0.183 C 
ATOM     14  C   UNL A   1      33.552  24.514  23.221  1.00  0.00     0.186 C 
ATOM     15  C   UNL A   1      30.982  24.606  24.509  1.00  0.00     0.284 C 
ATOM     16  C   UNL A   1      33.407  24.234  24.722  1.00  0.00     0.203 C 
ATOM     17  N   UNL A   1      32.055  23.750  25.089  1.00  0.00    -0.330 N 
ATOM     18  C   UNL A   1      34.450  23.228  25.207  1.00  0.00     0.067 C 
ATOM     19  C   UNL A   1      31.911  23.668  26.554  1.00  0.00     0.262 C 
ATOM     20  H   UNL A   1      31.951  22.816  24.695  1.00  0.00     0.348 HD
ATOM     21  C   UNL A   1      34.409  23.170  26.731  1.00  0.00     0.012 C 
ATOM     22  C   UNL A   1      33.005  22.826  27.220  1.00  0.00     0.062 C 
ENDBRANCH   9  12
ENDBRANCH   6   8
ENDBRANCH   4   6
ENDBRANCH   3   4
ENDBRANCH   2   3
ENDBRANCH   1   2
BRANCH   1  23
ATOM     23  O   UNL A   1      32.642  31.029  26.935  1.00  0.00    -0.458 OA
BRANCH  23  24
ATOM     24  C   UNL A   1      33.346  32.087  27.392  1.00  0.00     0.338 C 
ATOM     25  O   UNL A   1      32.896  33.207  27.625  1.00  0.00    -0.246 OA
BRANCH  24  26
ATOM     26  C   UNL A   1      34.720  31.701  27.750  1.00  0.00     0.060 A 
ATOM     27  C   UNL A   1      34.951  30.336  27.972  1.00  0.00     0.016 A 
ATOM     28  C   UNL A   1      35.733  32.640  27.956  1.00  0.00     0.016 A 
ATOM     29  C   UNL A   1      36.172  29.909  28.472  1.00  0.00     0.010 A 
ATOM     30  C   UNL A   1      36.957  32.212  28.474  1.00  0.00     0.010 A 
ATOM     31  C   UNL A   1      37.156  30.854  28.780  1.00  0.00    -0.014 A 
BRANCH  31  32
ATOM     32  C   UNL A   1      38.284  30.443  29.643  1.00  0.00     0.031 A 
ATOM     33  C   UNL A   1      39.280  29.468  29.079  1.00  0.00     0.074 A 
ATOM     34  C   UNL A   1      38.439  30.972  30.867  1.00  0.00     0.049 A 
ATOM     35  N   UNL A   1      40.309  28.903  29.649  1.00  0.00    -0.248 NA
ATOM     36  C   UNL A   1      39.080  29.075  27.673  1.00  0.00     0.031 C 
ATOM     37  C   UNL A   1      37.567  31.983  31.465  1.00  0.00     0.029 A 
ATOM     38  N   UNL A   1      39.383  30.729  31.828  1.00  0.00    -0.354 N 
ATOM     39  C   UNL A   1      40.874  28.081  28.679  1.00  0.00     0.074 A 
ATOM     40  C   UNL A   1      40.054  28.198  27.495  1.00  0.00     0.031 C 
ATOM     41  C   UNL A   1      38.010  32.262  32.702  1.00  0.00     0.029 A 
ATOM     42  C   UNL A   1      39.167  31.419  32.997  1.00  0.00     0.049 A 
ATOM     43  H   UNL A   1      40.144  30.119  31.695  1.00  0.00     0.167 HD
ATOM     44  C   UNL A   1      41.978  27.301  28.776  1.00  0.00     0.034 A 
ATOM     45  C   UNL A   1      39.814  31.345  34.177  1.00  0.00     0.034 A 
ATOM     46  C   UNL A   1      42.763  27.195  29.980  1.00  0.00     0.049 A 
ATOM     47  C   UNL A   1      40.986  30.401  34.291  1.00  0.00     0.074 A 
ATOM     48  C   UNL A   1      43.891  26.430  30.215  1.00  0.00     0.029 A 
ATOM     49  N   UNL A   1      42.489  27.875  31.162  1.00  0.00    -0.354 N 
ATOM     50  N   UNL A   1      41.500  29.607  33.378  1.00  0.00    -0.248 NA
ATOM     51  C   UNL A   1      41.667  30.346  35.590  1.00  0.00     0.031 C 
ATOM     52  C   UNL A   1      44.260  26.599  31.555  1.00  0.00     0.029 A 
ATOM     53  C   UNL A   1      43.407  27.524  32.137  1.00  0.00     0.049 A 
ATOM     54  H   UNL A   1      41.749  28.513  31.287  1.00  0.00     0.167 HD
ATOM     55  C   UNL A   1      42.579  28.974  33.988  1.00  0.00     0.074 A 
ATOM     56  C   UNL A   1      42.649  29.492  35.340  1.00  0.00     0.031 C 
ATOM     57  C   UNL A   1      43.439  28.052  33.481  1.00  0.00     0.034 A 
BRANCH  44  58
ATOM     58  C   UNL A   1      42.338  26.463  27.572  1.00  0.00     0.023 A 
ATOM     59  C   UNL A   1      41.895  25.136  27.428  1.00  0.00     0.031 A 
ATOM     60  C   UNL A   1      43.190  26.982  26.580  1.00  0.00     0.131 A 
ATOM     61  C   UNL A   1      42.365  24.352  26.362  1.00  0.00     0.055 A 
ATOM     62  C   UNL A   1      43.591  26.221  25.480  1.00  0.00     0.041 A 
ATOM     63  F   UNL A   1      43.669  28.233  26.676  1.00  0.00    -0.206 F 
ATOM     64  C   UNL A   1      43.190  24.893  25.374  1.00  0.00     0.022 A 
BRANCH  61  65
ATOM     65  S   UNL A   1      42.000  22.574  26.363  1.00  0.00     0.124 S 
ATOM     66  O   UNL A   1      42.657  22.137  25.133  1.00  0.00    -0.237 OA
ATOM     67  O   UNL A   1      42.613  22.126  27.609  1.00  0.00    -0.237 OA
ATOM     68  O   UNL A   1      40.540  22.523  26.331  1.00  0.00    -0.744 OA
ENDBRANCH  61  65
ENDBRANCH  44  58
BRANCH  45  69
ATOM     69  C   UNL A   1      39.342  32.138  35.347  1.00  0.00     0.023 A 
ATOM     70  C   UNL A   1      39.768  33.459  35.555  1.00  0.00     0.031 A 
ATOM     71  C   UNL A   1      38.477  31.568  36.300  1.00  0.00     0.131 A 
ATOM     72  C   UNL A   1      39.358  34.155  36.702  1.00  0.00     0.055 A 
ATOM     73  C   UNL A   1      38.033  32.281  37.416  1.00  0.00     0.041 A 
ATOM     74  F   UNL A   1      38.041  30.307  36.153  1.00  0.00    -0.206 F 
ATOM     75  C   UNL A   1      38.483  33.580  37.628  1.00  0.00     0.022 A 
BRANCH  72  76
ATOM     76  S   UNL A   1      40.045  35.805  37.013  1.00  0.00     0.124 S 
ATOM     77  O   UNL A   1      41.463  35.510  37.184  1.00  0.00    -0.237 OA
ATOM     78  O   UNL A   1      39.680  36.518  35.794  1.00  0.00    -0.237 OA
ATOM     79  O   UNL A   1      39.349  36.242  38.221  1.00  0.00    -0.744 OA
ENDBRANCH  72  76
ENDBRANCH  45  69
BRANCH  57  80
ATOM     80  C   UNL A   1      44.546  27.585  34.393  1.00  0.00     0.023 A 
ATOM     81  C   UNL A   1      44.422  26.418  35.165  1.00  0.00     0.031 A 
ATOM     82  C   UNL A   1      45.739  28.323  34.488  1.00  0.00     0.131 A 
ATOM     83  C   UNL A   1      45.453  26.050  36.041  1.00  0.00     0.055 A 
ATOM     84  C   UNL A   1      46.785  27.921  35.318  1.00  0.00     0.041 A 
ATOM     85  F   UNL A   1      45.908  29.446  33.770  1.00  0.00    -0.206 F 
ATOM     86  C   UNL A   1      46.641  26.785  36.109  1.00  0.00     0.022 A 
BRANCH  83  87
ATOM     87  S   UNL A   1      45.190  24.641  37.151  1.00  0.00     0.124 S 
ATOM     88  O   UNL A   1      44.346  25.225  38.187  1.00  0.00    -0.237 OA
ATOM     89  O   UNL A   1      44.544  23.669  36.275  1.00  0.00    -0.237 OA
ATOM     90  O   UNL A   1      46.542  24.285  37.579  1.00  0.00    -0.744 OA
ENDBRANCH  83  87
ENDBRANCH  57  80
ENDBRANCH  31  32
ENDBRANCH  24  26
ENDBRANCH  23  24
ENDBRANCH   1  23
TORSDOF 16
ENDMDL
