MODEL 1
REMARK VINA RESULT:     -12.0      0.000      0.000
REMARK SMILES O=C(/C=C/c1ccccc1Oc1cccc(Cl)c1)OCCOC(=O)c1ccc(-c2c3nc(c(-c4cc(S(=O)(=O)[O-])ccc4F)c4ccc([nH]4)c(-c4cc(S(=O)(=O)[O-])ccc4F)c4nc(c(-c5cc(S(=O)(=O)[O-])ccc5F)c5ccc2[nH]5)C=C4)C=C3)cc1
REMARK SMILES IDX 20 1 19 2 2 3 1 4 3 5 4 6 5 7 6 8 10 9 7 10 9 11 8 12 11 13
REMARK SMILES IDX 12 14 13 15 18 16 14 17 16 18 15 19 17 20 21 21 22 22 23 23
REMARK SMILES IDX 24 24 25 25 26 26 87 27 27 28 86 29 28 30 29 31 30 32 80 33
REMARK SMILES IDX 31 34 85 35 79 36 81 37 32 38 84 39 78 40 77 41 33 43 65 44
REMARK SMILES IDX 45 45 64 46 46 47 49 48 63 49 82 50 47 51 48 52 62 54 83 55
REMARK SMILES IDX 50 56 34 57 35 58 43 59 36 60 42 61 44 62 41 63 37 64 38 65
REMARK SMILES IDX 39 66 40 67 66 68 67 69 75 70 68 71 74 72 76 73 73 74 69 75
REMARK SMILES IDX 70 76 71 77 72 78 51 79 52 80 60 81 53 82 59 83 61 84 58 85
REMARK SMILES IDX 54 86 55 87 56 88 57 89
REMARK H PARENT 81 42 49 53
REMARK Flexibility Score: inf
ROOT
ATOM      1  C   UNL A   1      36.820  20.903  24.874  1.00  0.00     0.275 C 
ENDROOT
BRANCH   1   2
ATOM      2  O   UNL A   1      36.832  22.347  24.819  1.00  0.00    -0.459 OA
BRANCH   2   3
ATOM      3  C   UNL A   1      36.216  23.115  23.892  1.00  0.00     0.330 C 
ATOM      4  O   UNL A   1      36.670  23.226  22.759  1.00  0.00    -0.247 OA
BRANCH   3   5
ATOM      5  C   UNL A   1      35.029  23.889  24.284  1.00  0.00     0.094 C 
ATOM      6  C   UNL A   1      34.755  24.343  25.513  1.00  0.00     0.019 C 
BRANCH   6   7
ATOM      7  C   UNL A   1      33.613  25.239  25.743  1.00  0.00     0.017 A 
ATOM      8  C   UNL A   1      33.965  26.608  25.744  1.00  0.00     0.012 A 
ATOM      9  C   UNL A   1      32.263  24.890  25.934  1.00  0.00     0.134 A 
ATOM     10  C   UNL A   1      33.014  27.612  25.924  1.00  0.00     0.001 A 
ATOM     11  C   UNL A   1      31.317  25.918  26.109  1.00  0.00     0.048 A 
ATOM     12  C   UNL A   1      31.684  27.264  26.103  1.00  0.00     0.004 A 
BRANCH   9  13
ATOM     13  O   UNL A   1      31.669  23.645  26.027  1.00  0.00    -0.457 OA
BRANCH  13  14
ATOM     14  C   UNL A   1      31.876  22.692  25.071  1.00  0.00     0.128 A 
ATOM     15  C   UNL A   1      31.550  22.983  23.744  1.00  0.00     0.047 A 
ATOM     16  C   UNL A   1      32.313  21.419  25.431  1.00  0.00     0.067 A 
ATOM     17  C   UNL A   1      31.753  22.024  22.754  1.00  0.00     0.005 A 
ATOM     18  C   UNL A   1      32.537  20.473  24.433  1.00  0.00     0.044 A 
ATOM     19  C   UNL A   1      32.264  20.770  23.097  1.00  0.00     0.021 A 
ATOM     20  Cl  UNL A   1      33.199  18.940  24.852  1.00  0.00    -0.084 Cl
ENDBRANCH  13  14
ENDBRANCH   9  13
ENDBRANCH   6   7
ENDBRANCH   3   5
ENDBRANCH   2   3
ENDBRANCH   1   2
BRANCH   1  21
ATOM     21  C   UNL A   1      38.150  20.290  25.320  1.00  0.00     0.275 C 
BRANCH  21  22
ATOM     22  O   UNL A   1      39.177  21.292  25.451  1.00  0.00    -0.458 OA
BRANCH  22  23
ATOM     23  C   UNL A   1      40.048  21.105  26.476  1.00  0.00     0.338 C 
ATOM     24  O   UNL A   1      40.590  20.053  26.771  1.00  0.00    -0.246 OA
BRANCH  23  25
ATOM     25  C   UNL A   1      40.391  22.401  27.114  1.00  0.00     0.060 A 
ATOM     26  C   UNL A   1      39.598  23.511  26.792  1.00  0.00     0.016 A 
ATOM     27  C   UNL A   1      41.447  22.544  28.023  1.00  0.00     0.016 A 
ATOM     28  C   UNL A   1      39.886  24.764  27.334  1.00  0.00     0.010 A 
ATOM     29  C   UNL A   1      41.743  23.808  28.558  1.00  0.00     0.010 A 
ATOM     30  C   UNL A   1      40.986  24.932  28.188  1.00  0.00    -0.014 A 
BRANCH  30  31
ATOM     31  C   UNL A   1      41.438  26.313  28.506  1.00  0.00     0.031 A 
ATOM     32  C   UNL A   1      42.830  26.717  28.100  1.00  0.00     0.074 A 
ATOM     33  C   UNL A   1      40.623  27.218  29.077  1.00  0.00     0.049 A 
ATOM     34  N   UNL A   1      43.408  27.889  28.163  1.00  0.00    -0.248 NA
ATOM     35  C   UNL A   1      43.682  25.650  27.555  1.00  0.00     0.031 C 
ATOM     36  C   UNL A   1      39.263  26.955  29.536  1.00  0.00     0.029 A 
ATOM     37  N   UNL A   1      40.821  28.547  29.359  1.00  0.00    -0.354 N 
ATOM     38  C   UNL A   1      44.680  27.710  27.634  1.00  0.00     0.074 A 
ATOM     39  C   UNL A   1      44.806  26.303  27.310  1.00  0.00     0.031 C 
ATOM     40  C   UNL A   1      38.735  28.094  30.020  1.00  0.00     0.029 A 
ATOM     41  C   UNL A   1      39.732  29.163  29.934  1.00  0.00     0.049 A 
ATOM     42  H   UNL A   1      41.664  29.018  29.166  1.00  0.00     0.167 HD
ATOM     43  C   UNL A   1      45.653  28.629  27.421  1.00  0.00     0.034 A 
ATOM     44  C   UNL A   1      39.565  30.435  30.353  1.00  0.00     0.034 A 
ATOM     45  C   UNL A   1      45.554  30.017  27.799  1.00  0.00     0.049 A 
ATOM     46  C   UNL A   1      40.692  31.429  30.172  1.00  0.00     0.074 A 
ATOM     47  C   UNL A   1      46.497  31.020  27.657  1.00  0.00     0.029 A 
ATOM     48  N   UNL A   1      44.451  30.595  28.413  1.00  0.00    -0.354 N 
ATOM     49  N   UNL A   1      41.878  31.251  29.637  1.00  0.00    -0.248 NA
ATOM     50  C   UNL A   1      40.449  32.800  30.647  1.00  0.00     0.031 C 
ATOM     51  C   UNL A   1      45.988  32.188  28.238  1.00  0.00     0.029 A 
ATOM     52  C   UNL A   1      44.700  31.934  28.679  1.00  0.00     0.049 A 
ATOM     53  H   UNL A   1      43.614  30.124  28.628  1.00  0.00     0.167 HD
ATOM     54  C   UNL A   1      42.510  32.494  29.692  1.00  0.00     0.074 A 
ATOM     55  C   UNL A   1      41.566  33.414  30.288  1.00  0.00     0.031 C 
ATOM     56  C   UNL A   1      43.759  32.842  29.288  1.00  0.00     0.034 A 
BRANCH  43  57
ATOM     57  C   UNL A   1      46.926  28.132  26.785  1.00  0.00     0.023 A 
ATOM     58  C   UNL A   1      47.111  28.187  25.391  1.00  0.00     0.031 A 
ATOM     59  C   UNL A   1      47.937  27.550  27.565  1.00  0.00     0.131 A 
ATOM     60  C   UNL A   1      48.250  27.607  24.815  1.00  0.00     0.055 A 
ATOM     61  C   UNL A   1      49.104  27.040  26.992  1.00  0.00     0.041 A 
ATOM     62  F   UNL A   1      47.800  27.448  28.897  1.00  0.00    -0.206 F 
ATOM     63  C   UNL A   1      49.259  27.054  25.609  1.00  0.00     0.022 A 
BRANCH  60  64
ATOM     64  S   UNL A   1      48.331  27.463  23.010  1.00  0.00     0.124 S 
ATOM     65  O   UNL A   1      48.280  26.014  22.829  1.00  0.00    -0.237 OA
ATOM     66  O   UNL A   1      47.151  28.203  22.581  1.00  0.00    -0.237 OA
ATOM     67  O   UNL A   1      49.613  28.081  22.674  1.00  0.00    -0.744 OA
ENDBRANCH  60  64
ENDBRANCH  43  57
BRANCH  44  68
ATOM     68  C   UNL A   1      38.304  30.857  31.030  1.00  0.00     0.023 A 
ATOM     69  C   UNL A   1      37.264  31.478  30.320  1.00  0.00     0.031 A 
ATOM     70  C   UNL A   1      38.167  30.732  32.425  1.00  0.00     0.131 A 
ATOM     71  C   UNL A   1      36.163  32.007  31.012  1.00  0.00     0.055 A 
ATOM     72  C   UNL A   1      37.044  31.211  33.101  1.00  0.00     0.041 A 
ATOM     73  F   UNL A   1      39.133  30.149  33.152  1.00  0.00    -0.206 F 
ATOM     74  C   UNL A   1      36.041  31.868  32.396  1.00  0.00     0.022 A 
BRANCH  71  75
ATOM     75  S   UNL A   1      34.940  32.980  30.089  1.00  0.00     0.124 S 
ATOM     76  O   UNL A   1      34.418  31.990  29.153  1.00  0.00    -0.237 OA
ATOM     77  O   UNL A   1      34.031  33.407  31.146  1.00  0.00    -0.237 OA
ATOM     78  O   UNL A   1      35.738  34.047  29.487  1.00  0.00    -0.744 OA
ENDBRANCH  71  75
ENDBRANCH  44  68
BRANCH  56  79
ATOM     79  C   UNL A   1      44.155  34.292  29.446  1.00  0.00     0.023 A 
ATOM     80  C   UNL A   1      43.840  35.258  28.474  1.00  0.00     0.031 A 
ATOM     81  C   UNL A   1      44.876  34.708  30.580  1.00  0.00     0.131 A 
ATOM     82  C   UNL A   1      44.294  36.578  28.625  1.00  0.00     0.055 A 
ATOM     83  C   UNL A   1      45.276  36.034  30.752  1.00  0.00     0.041 A 
ATOM     84  F   UNL A   1      45.204  33.830  31.541  1.00  0.00    -0.206 F 
ATOM     85  C   UNL A   1      44.999  36.975  29.764  1.00  0.00     0.022 A 
BRANCH  82  86
ATOM     86  S   UNL A   1      44.034  37.753  27.267  1.00  0.00     0.124 S 
ATOM     87  O   UNL A   1      43.724  38.986  27.984  1.00  0.00    -0.237 OA
ATOM     88  O   UNL A   1      45.319  37.722  26.579  1.00  0.00    -0.237 OA
ATOM     89  O   UNL A   1      42.918  37.174  26.520  1.00  0.00    -0.744 OA
ENDBRANCH  82  86
ENDBRANCH  56  79
ENDBRANCH  30  31
ENDBRANCH  23  25
ENDBRANCH  22  23
ENDBRANCH  21  22
ENDBRANCH   1  21
TORSDOF 17
ENDMDL
MODEL 2
REMARK VINA RESULT:     -11.8      2.187      3.197
REMARK SMILES O=C(/C=C/c1ccccc1Oc1cccc(Cl)c1)OCCOC(=O)c1ccc(-c2c3nc(c(-c4cc(S(=O)(=O)[O-])ccc4F)c4ccc([nH]4)c(-c4cc(S(=O)(=O)[O-])ccc4F)c4nc(c(-c5cc(S(=O)(=O)[O-])ccc5F)c5ccc2[nH]5)C=C4)C=C3)cc1
REMARK SMILES IDX 20 1 19 2 2 3 1 4 3 5 4 6 5 7 6 8 10 9 7 10 9 11 8 12 11 13
REMARK SMILES IDX 12 14 13 15 18 16 14 17 16 18 15 19 17 20 21 21 22 22 23 23
REMARK SMILES IDX 24 24 25 25 26 26 87 27 27 28 86 29 28 30 29 31 30 32 80 33
REMARK SMILES IDX 31 34 85 35 79 36 81 37 32 38 84 39 78 40 77 41 33 43 65 44
REMARK SMILES IDX 45 45 64 46 46 47 49 48 63 49 82 50 47 51 48 52 62 54 83 55
REMARK SMILES IDX 50 56 34 57 35 58 43 59 36 60 42 61 44 62 41 63 37 64 38 65
REMARK SMILES IDX 39 66 40 67 66 68 67 69 75 70 68 71 74 72 76 73 73 74 69 75
REMARK SMILES IDX 70 76 71 77 72 78 51 79 52 80 60 81 53 82 59 83 61 84 58 85
REMARK SMILES IDX 54 86 55 87 56 88 57 89
REMARK H PARENT 81 42 49 53
REMARK Flexibility Score: inf
ROOT
ATOM      1  C   UNL A   1      35.952  20.688  24.970  1.00  0.00     0.275 C 
ENDROOT
BRANCH   1   2
ATOM      2  O   UNL A   1      35.931  22.087  25.333  1.00  0.00    -0.459 OA
BRANCH   2   3
ATOM      3  C   UNL A   1      34.960  22.713  26.036  1.00  0.00     0.330 C 
ATOM      4  O   UNL A   1      34.790  22.478  27.227  1.00  0.00    -0.247 OA
BRANCH   3   5
ATOM      5  C   UNL A   1      34.048  23.625  25.333  1.00  0.00     0.094 C 
ATOM      6  C   UNL A   1      34.365  24.827  24.834  1.00  0.00     0.019 C 
BRANCH   6   7
ATOM      7  C   UNL A   1      33.402  25.575  24.014  1.00  0.00     0.017 A 
ATOM      8  C   UNL A   1      33.559  25.359  22.625  1.00  0.00     0.012 A 
ATOM      9  C   UNL A   1      32.372  26.430  24.450  1.00  0.00     0.134 A 
ATOM     10  C   UNL A   1      32.723  25.964  21.688  1.00  0.00     0.001 A 
ATOM     11  C   UNL A   1      31.536  27.028  23.488  1.00  0.00     0.048 A 
ATOM     12  C   UNL A   1      31.705  26.799  22.122  1.00  0.00     0.004 A 
BRANCH   9  13
ATOM     13  O   UNL A   1      32.040  26.845  25.727  1.00  0.00    -0.457 OA
BRANCH  13  14
ATOM     14  C   UNL A   1      32.538  28.008  26.242  1.00  0.00     0.128 A 
ATOM     15  C   UNL A   1      31.708  29.129  26.307  1.00  0.00     0.047 A 
ATOM     16  C   UNL A   1      33.880  28.098  26.603  1.00  0.00     0.067 A 
ATOM     17  C   UNL A   1      32.198  30.324  26.828  1.00  0.00     0.005 A 
ATOM     18  C   UNL A   1      34.357  29.288  27.146  1.00  0.00     0.044 A 
ATOM     19  C   UNL A   1      33.521  30.400  27.265  1.00  0.00     0.021 A 
ATOM     20  Cl  UNL A   1      35.979  29.371  27.716  1.00  0.00    -0.084 Cl
ENDBRANCH  13  14
ENDBRANCH   9  13
ENDBRANCH   6   7
ENDBRANCH   3   5
ENDBRANCH   2   3
ENDBRANCH   1   2
BRANCH   1  21
ATOM     21  C   UNL A   1      37.347  20.059  25.012  1.00  0.00     0.275 C 
BRANCH  21  22
ATOM     22  O   UNL A   1      38.377  21.063  25.099  1.00  0.00    -0.458 OA
BRANCH  22  23
ATOM     23  C   UNL A   1      39.389  20.787  25.962  1.00  0.00     0.338 C 
ATOM     24  O   UNL A   1      39.948  19.710  26.088  1.00  0.00    -0.246 OA
BRANCH  23  25
ATOM     25  C   UNL A   1      39.850  22.025  26.641  1.00  0.00     0.060 A 
ATOM     26  C   UNL A   1      39.205  23.224  26.307  1.00  0.00     0.016 A 
ATOM     27  C   UNL A   1      40.873  22.031  27.598  1.00  0.00     0.016 A 
ATOM     28  C   UNL A   1      39.610  24.427  26.886  1.00  0.00     0.010 A 
ATOM     29  C   UNL A   1      41.287  23.243  28.171  1.00  0.00     0.010 A 
ATOM     30  C   UNL A   1      40.682  24.453  27.791  1.00  0.00    -0.014 A 
BRANCH  30  31
ATOM     31  C   UNL A   1      41.275  25.767  28.157  1.00  0.00     0.031 A 
ATOM     32  C   UNL A   1      42.666  26.081  27.670  1.00  0.00     0.074 A 
ATOM     33  C   UNL A   1      40.586  26.698  28.841  1.00  0.00     0.049 A 
ATOM     34  N   UNL A   1      43.348  27.193  27.760  1.00  0.00    -0.248 NA
ATOM     35  C   UNL A   1      43.379  24.984  26.999  1.00  0.00     0.031 C 
ATOM     36  C   UNL A   1      39.244  26.519  29.385  1.00  0.00     0.029 A 
ATOM     37  N   UNL A   1      40.919  27.984  29.186  1.00  0.00    -0.354 N 
ATOM     38  C   UNL A   1      44.559  26.944  27.126  1.00  0.00     0.074 A 
ATOM     39  C   UNL A   1      44.537  25.557  26.709  1.00  0.00     0.031 C 
ATOM     40  C   UNL A   1      38.854  27.663  29.976  1.00  0.00     0.029 A 
ATOM     41  C   UNL A   1      39.932  28.648  29.879  1.00  0.00     0.049 A 
ATOM     42  H   UNL A   1      41.784  28.395  28.959  1.00  0.00     0.167 HD
ATOM     43  C   UNL A   1      45.591  27.792  26.895  1.00  0.00     0.034 A 
ATOM     44  C   UNL A   1      39.908  29.899  30.385  1.00  0.00     0.034 A 
ATOM     45  C   UNL A   1      45.641  29.155  27.362  1.00  0.00     0.049 A 
ATOM     46  C   UNL A   1      41.102  30.806  30.179  1.00  0.00     0.074 A 
ATOM     47  C   UNL A   1      46.656  30.083  27.210  1.00  0.00     0.029 A 
ATOM     48  N   UNL A   1      44.640  29.781  28.092  1.00  0.00    -0.354 N 
ATOM     49  N   UNL A   1      42.227  30.566  29.546  1.00  0.00    -0.248 NA
ATOM     50  C   UNL A   1      41.015  32.158  30.753  1.00  0.00     0.031 C 
ATOM     51  C   UNL A   1      46.295  31.248  27.897  1.00  0.00     0.029 A 
ATOM     52  C   UNL A   1      45.024  31.073  28.418  1.00  0.00     0.049 A 
ATOM     53  H   UNL A   1      43.782  29.367  28.342  1.00  0.00     0.167 HD
ATOM     54  C   UNL A   1      42.968  31.745  29.627  1.00  0.00     0.074 A 
ATOM     55  C   UNL A   1      42.154  32.699  30.347  1.00  0.00     0.031 C 
ATOM     56  C   UNL A   1      44.211  32.014  29.151  1.00  0.00     0.034 A 
BRANCH  43  57
ATOM     57  C   UNL A   1      46.767  27.234  26.135  1.00  0.00     0.023 A 
ATOM     58  C   UNL A   1      47.807  26.558  26.799  1.00  0.00     0.031 A 
ATOM     59  C   UNL A   1      46.880  27.424  24.749  1.00  0.00     0.131 A 
ATOM     60  C   UNL A   1      48.946  26.157  26.087  1.00  0.00     0.055 A 
ATOM     61  C   UNL A   1      47.984  26.958  24.032  1.00  0.00     0.041 A 
ATOM     62  F   UNL A   1      45.930  28.086  24.070  1.00  0.00    -0.206 F 
ATOM     63  C   UNL A   1      49.031  26.332  24.703  1.00  0.00     0.022 A 
BRANCH  60  64
ATOM     64  S   UNL A   1      50.372  25.528  27.014  1.00  0.00     0.124 S 
ATOM     65  O   UNL A   1      49.793  24.371  27.691  1.00  0.00    -0.237 OA
ATOM     66  O   UNL A   1      51.332  25.237  25.957  1.00  0.00    -0.237 OA
ATOM     67  O   UNL A   1      50.727  26.642  27.892  1.00  0.00    -0.744 OA
ENDBRANCH  60  64
ENDBRANCH  43  57
BRANCH  44  68
ATOM     68  C   UNL A   1      38.740  30.379  31.180  1.00  0.00     0.023 A 
ATOM     69  C   UNL A   1      37.712  31.132  30.591  1.00  0.00     0.031 A 
ATOM     70  C   UNL A   1      38.690  30.172  32.571  1.00  0.00     0.131 A 
ATOM     71  C   UNL A   1      36.713  31.704  31.395  1.00  0.00     0.055 A 
ATOM     72  C   UNL A   1      37.664  30.696  33.358  1.00  0.00     0.041 A 
ATOM     73  F   UNL A   1      39.649  29.461  33.186  1.00  0.00    -0.206 F 
ATOM     74  C   UNL A   1      36.677  31.482  32.773  1.00  0.00     0.022 A 
BRANCH  71  75
ATOM     75  S   UNL A   1      35.520  32.837  30.629  1.00  0.00     0.124 S 
ATOM     76  O   UNL A   1      35.494  32.355  29.253  1.00  0.00    -0.237 OA
ATOM     77  O   UNL A   1      34.319  32.593  31.418  1.00  0.00    -0.237 OA
ATOM     78  O   UNL A   1      36.131  34.152  30.817  1.00  0.00    -0.744 OA
ENDBRANCH  71  75
ENDBRANCH  44  68
BRANCH  56  79
ATOM     79  C   UNL A   1      44.744  33.412  29.366  1.00  0.00     0.023 A 
ATOM     80  C   UNL A   1      44.458  34.461  28.473  1.00  0.00     0.031 A 
ATOM     81  C   UNL A   1      45.565  33.693  30.472  1.00  0.00     0.131 A 
ATOM     82  C   UNL A   1      45.036  35.725  28.669  1.00  0.00     0.055 A 
ATOM     83  C   UNL A   1      46.091  34.967  30.693  1.00  0.00     0.041 A 
ATOM     84  F   UNL A   1      45.871  32.732  31.358  1.00  0.00    -0.206 F 
ATOM     85  C   UNL A   1      45.840  35.988  29.780  1.00  0.00     0.022 A 
BRANCH  82  86
ATOM     86  S   UNL A   1      44.801  37.000  27.400  1.00  0.00     0.124 S 
ATOM     87  O   UNL A   1      46.012  36.860  26.597  1.00  0.00    -0.237 OA
ATOM     88  O   UNL A   1      43.560  36.577  26.760  1.00  0.00    -0.237 OA
ATOM     89  O   UNL A   1      44.709  38.239  28.170  1.00  0.00    -0.744 OA
ENDBRANCH  82  86
ENDBRANCH  56  79
ENDBRANCH  30  31
ENDBRANCH  23  25
ENDBRANCH  22  23
ENDBRANCH  21  22
ENDBRANCH   1  21
TORSDOF 17
ENDMDL
MODEL 3
REMARK VINA RESULT:     -11.7      5.001     10.487
REMARK SMILES O=C(/C=C/c1ccccc1Oc1cccc(Cl)c1)OCCOC(=O)c1ccc(-c2c3nc(c(-c4cc(S(=O)(=O)[O-])ccc4F)c4ccc([nH]4)c(-c4cc(S(=O)(=O)[O-])ccc4F)c4nc(c(-c5cc(S(=O)(=O)[O-])ccc5F)c5ccc2[nH]5)C=C4)C=C3)cc1
REMARK SMILES IDX 20 1 19 2 2 3 1 4 3 5 4 6 5 7 6 8 10 9 7 10 9 11 8 12 11 13
REMARK SMILES IDX 12 14 13 15 18 16 14 17 16 18 15 19 17 20 21 21 22 22 23 23
REMARK SMILES IDX 24 24 25 25 26 26 87 27 27 28 86 29 28 30 29 31 30 32 80 33
REMARK SMILES IDX 31 34 85 35 79 36 81 37 32 38 84 39 78 40 77 41 33 43 65 44
REMARK SMILES IDX 45 45 64 46 46 47 49 48 63 49 82 50 47 51 48 52 62 54 83 55
REMARK SMILES IDX 50 56 34 57 35 58 43 59 36 60 42 61 44 62 41 63 37 64 38 65
REMARK SMILES IDX 39 66 40 67 66 68 67 69 75 70 68 71 74 72 76 73 73 74 69 75
REMARK SMILES IDX 70 76 71 77 72 78 51 79 52 80 60 81 53 82 59 83 61 84 58 85
REMARK SMILES IDX 54 86 55 87 56 88 57 89
REMARK H PARENT 81 42 49 53
REMARK Flexibility Score: inf
ROOT
ATOM      1  C   UNL A   1      31.567  30.938  26.735  1.00  0.00     0.275 C 
ENDROOT
BRANCH   1   2
ATOM      2  O   UNL A   1      32.426  30.366  25.724  1.00  0.00    -0.459 OA
BRANCH   2   3
ATOM      3  C   UNL A   1      33.325  29.372  25.910  1.00  0.00     0.330 C 
ATOM      4  O   UNL A   1      34.466  29.613  26.285  1.00  0.00    -0.247 OA
BRANCH   3   5
ATOM      5  C   UNL A   1      32.939  27.994  25.575  1.00  0.00     0.094 C 
ATOM      6  C   UNL A   1      31.884  27.330  26.063  1.00  0.00     0.019 C 
BRANCH   6   7
ATOM      7  C   UNL A   1      31.518  26.010  25.530  1.00  0.00     0.017 A 
ATOM      8  C   UNL A   1      31.474  24.999  26.517  1.00  0.00     0.012 A 
ATOM      9  C   UNL A   1      31.200  25.670  24.202  1.00  0.00     0.134 A 
ATOM     10  C   UNL A   1      31.123  23.685  26.208  1.00  0.00     0.001 A 
ATOM     11  C   UNL A   1      30.844  24.338  23.911  1.00  0.00     0.048 A 
ATOM     12  C   UNL A   1      30.804  23.355  24.900  1.00  0.00     0.004 A 
BRANCH   9  13
ATOM     13  O   UNL A   1      31.216  26.443  23.055  1.00  0.00    -0.457 OA
BRANCH  13  14
ATOM     14  C   UNL A   1      30.350  27.487  22.897  1.00  0.00     0.128 A 
ATOM     15  C   UNL A   1      30.833  28.695  22.392  1.00  0.00     0.047 A 
ATOM     16  C   UNL A   1      29.029  27.375  23.325  1.00  0.00     0.067 A 
ATOM     17  C   UNL A   1      29.966  29.773  22.223  1.00  0.00     0.005 A 
ATOM     18  C   UNL A   1      28.162  28.447  23.132  1.00  0.00     0.044 A 
ATOM     19  C   UNL A   1      28.622  29.644  22.579  1.00  0.00     0.021 A 
ATOM     20  Cl  UNL A   1      26.498  28.276  23.538  1.00  0.00    -0.084 Cl
ENDBRANCH  13  14
ENDBRANCH   9  13
ENDBRANCH   6   7
ENDBRANCH   3   5
ENDBRANCH   2   3
ENDBRANCH   1   2
BRANCH   1  21
ATOM     21  C   UNL A   1      31.501  32.466  26.699  1.00  0.00     0.275 C 
BRANCH  21  22
ATOM     22  O   UNL A   1      32.816  33.053  26.718  1.00  0.00    -0.458 OA
BRANCH  22  23
ATOM     23  C   UNL A   1      33.256  33.461  27.937  1.00  0.00     0.338 C 
ATOM     24  O   UNL A   1      32.637  34.155  28.725  1.00  0.00    -0.246 OA
BRANCH  23  25
ATOM     25  C   UNL A   1      34.552  32.815  28.268  1.00  0.00     0.060 A 
ATOM     26  C   UNL A   1      34.509  31.533  28.833  1.00  0.00     0.016 A 
ATOM     27  C   UNL A   1      35.789  33.424  28.022  1.00  0.00     0.016 A 
ATOM     28  C   UNL A   1      35.689  30.883  29.197  1.00  0.00     0.010 A 
ATOM     29  C   UNL A   1      36.975  32.774  28.399  1.00  0.00     0.010 A 
ATOM     30  C   UNL A   1      36.930  31.515  29.022  1.00  0.00    -0.014 A 
BRANCH  30  31
ATOM     31  C   UNL A   1      38.127  30.931  29.682  1.00  0.00     0.031 A 
ATOM     32  C   UNL A   1      38.401  31.302  31.116  1.00  0.00     0.074 A 
ATOM     33  C   UNL A   1      38.922  30.039  29.064  1.00  0.00     0.049 A 
ATOM     34  N   UNL A   1      39.308  30.839  31.937  1.00  0.00    -0.248 NA
ATOM     35  C   UNL A   1      37.535  32.341  31.692  1.00  0.00     0.031 C 
ATOM     36  C   UNL A   1      38.782  29.607  27.677  1.00  0.00     0.029 A 
ATOM     37  N   UNL A   1      40.000  29.327  29.529  1.00  0.00    -0.354 N 
ATOM     38  C   UNL A   1      39.102  31.504  33.139  1.00  0.00     0.074 A 
ATOM     39  C   UNL A   1      38.021  32.443  32.919  1.00  0.00     0.031 C 
ATOM     40  C   UNL A   1      39.723  28.684  27.408  1.00  0.00     0.029 A 
ATOM     41  C   UNL A   1      40.553  28.481  28.596  1.00  0.00     0.049 A 
ATOM     42  H   UNL A   1      40.345  29.414  30.447  1.00  0.00     0.167 HD
ATOM     43  C   UNL A   1      39.739  31.341  34.324  1.00  0.00     0.034 A 
ATOM     44  C   UNL A   1      41.613  27.649  28.687  1.00  0.00     0.034 A 
ATOM     45  C   UNL A   1      40.856  30.452  34.529  1.00  0.00     0.049 A 
ATOM     46  C   UNL A   1      42.358  27.538  29.999  1.00  0.00     0.074 A 
ATOM     47  C   UNL A   1      41.591  30.242  35.682  1.00  0.00     0.029 A 
ATOM     48  N   UNL A   1      41.412  29.639  33.551  1.00  0.00    -0.354 N 
ATOM     49  N   UNL A   1      42.127  28.148  31.139  1.00  0.00    -0.248 NA
ATOM     50  C   UNL A   1      43.502  26.615  30.036  1.00  0.00     0.031 C 
ATOM     51  C   UNL A   1      42.627  29.348  35.387  1.00  0.00     0.029 A 
ATOM     52  C   UNL A   1      42.497  28.945  34.068  1.00  0.00     0.049 A 
ATOM     53  H   UNL A   1      41.085  29.565  32.626  1.00  0.00     0.167 HD
ATOM     54  C   UNL A   1      43.085  27.664  32.031  1.00  0.00     0.074 A 
ATOM     55  C   UNL A   1      43.876  26.695  31.305  1.00  0.00     0.031 C 
ATOM     56  C   UNL A   1      43.291  27.991  33.332  1.00  0.00     0.034 A 
BRANCH  43  57
ATOM     57  C   UNL A   1      39.257  32.188  35.473  1.00  0.00     0.023 A 
ATOM     58  C   UNL A   1      39.685  33.519  35.626  1.00  0.00     0.031 A 
ATOM     59  C   UNL A   1      38.408  31.650  36.454  1.00  0.00     0.131 A 
ATOM     60  C   UNL A   1      39.319  34.245  36.768  1.00  0.00     0.055 A 
ATOM     61  C   UNL A   1      37.987  32.401  37.552  1.00  0.00     0.041 A 
ATOM     62  F   UNL A   1      37.991  30.377  36.372  1.00  0.00    -0.206 F 
ATOM     63  C   UNL A   1      38.453  33.702  37.721  1.00  0.00     0.022 A 
BRANCH  60  64
ATOM     64  S   UNL A   1      40.098  35.856  37.059  1.00  0.00     0.124 S 
ATOM     65  O   UNL A   1      41.501  35.479  37.217  1.00  0.00    -0.237 OA
ATOM     66  O   UNL A   1      39.766  36.591  35.845  1.00  0.00    -0.237 OA
ATOM     67  O   UNL A   1      39.447  36.335  38.277  1.00  0.00    -0.744 OA
ENDBRANCH  60  64
ENDBRANCH  43  57
BRANCH  44  68
ATOM     68  C   UNL A   1      42.083  26.879  27.498  1.00  0.00     0.023 A 
ATOM     69  C   UNL A   1      41.807  25.509  27.358  1.00  0.00     0.031 A 
ATOM     70  C   UNL A   1      42.906  27.487  26.533  1.00  0.00     0.131 A 
ATOM     71  C   UNL A   1      42.398  24.779  26.314  1.00  0.00     0.055 A 
ATOM     72  C   UNL A   1      43.446  26.768  25.465  1.00  0.00     0.041 A 
ATOM     73  F   UNL A   1      43.204  28.793  26.621  1.00  0.00    -0.206 F 
ATOM     74  C   UNL A   1      43.207  25.402  25.362  1.00  0.00     0.022 A 
BRANCH  71  75
ATOM     75  S   UNL A   1      42.185  22.977  26.282  1.00  0.00     0.124 S 
ATOM     76  O   UNL A   1      43.002  22.561  27.416  1.00  0.00    -0.237 OA
ATOM     77  O   UNL A   1      40.742  22.840  26.444  1.00  0.00    -0.237 OA
ATOM     78  O   UNL A   1      42.701  22.597  24.969  1.00  0.00    -0.744 OA
ENDBRANCH  71  75
ENDBRANCH  44  68
BRANCH  56  79
ATOM     79  C   UNL A   1      44.399  27.263  34.059  1.00  0.00     0.023 A 
ATOM     80  C   UNL A   1      44.210  25.981  34.604  1.00  0.00     0.031 A 
ATOM     81  C   UNL A   1      45.656  27.871  34.222  1.00  0.00     0.131 A 
ATOM     82  C   UNL A   1      45.241  25.372  35.337  1.00  0.00     0.055 A 
ATOM     83  C   UNL A   1      46.697  27.237  34.903  1.00  0.00     0.041 A 
ATOM     84  F   UNL A   1      45.895  29.093  33.721  1.00  0.00    -0.206 F 
ATOM     85  C   UNL A   1      46.488  25.987  35.479  1.00  0.00     0.022 A 
BRANCH  82  86
ATOM     86  S   UNL A   1      44.903  23.805  36.187  1.00  0.00     0.124 S 
ATOM     87  O   UNL A   1      46.072  23.006  35.831  1.00  0.00    -0.237 OA
ATOM     88  O   UNL A   1      44.817  24.220  37.582  1.00  0.00    -0.237 OA
ATOM     89  O   UNL A   1      43.644  23.357  35.595  1.00  0.00    -0.744 OA
ENDBRANCH  82  86
ENDBRANCH  56  79
ENDBRANCH  30  31
ENDBRANCH  23  25
ENDBRANCH  22  23
ENDBRANCH  21  22
ENDBRANCH   1  21
TORSDOF 17
ENDMDL
