MODEL 1
REMARK VINA RESULT:     -12.3      0.000      0.000
REMARK SMILES Cc1cc(F)c(-c2ccc(F)c(C(=O)OCCOC(=O)c3ccc(-c4c5nc(c(-c6cc(S(=O)(=O)[O-])ccc6F)c6ccc([nH]6)c(-c6cc(S(=O)(=O)[O-])ccc6F)c6nc(c(-c7cc(S(=O)(=O)[O-])ccc7F)c7ccc4[nH]7)C=C6)C=C5)cc3)c2)cc1F
REMARK SMILES IDX 17 1 16 2 15 3 13 4 14 5 12 6 7 7 8 8 84 9 9 10 10 11 11 12
REMARK SMILES IDX 6 13 1 14 2 15 3 16 86 17 4 18 85 19 87 20 5 21 18 22 19 23
REMARK SMILES IDX 20 24 21 25 22 26 83 27 23 28 82 29 24 30 25 31 26 32 76 33
REMARK SMILES IDX 27 34 81 35 75 36 77 37 28 38 80 39 74 40 73 41 29 43 61 44
REMARK SMILES IDX 41 45 60 46 42 47 45 48 59 49 78 50 43 51 44 52 58 54 79 55
REMARK SMILES IDX 46 56 30 57 31 58 39 59 32 60 38 61 40 62 37 63 33 64 34 65
REMARK SMILES IDX 35 66 36 67 62 68 63 69 71 70 64 71 70 72 72 73 69 74 65 75
REMARK SMILES IDX 66 76 67 77 68 78 47 79 48 80 56 81 49 82 55 83 57 84 54 85
REMARK SMILES IDX 50 86 51 87 52 88 53 89
REMARK H PARENT 77 42 45 53
REMARK Flexibility Score: inf
ROOT
ATOM      1  C   UNL A   1      32.118  30.534  26.127  1.00  0.00     0.275 C 
ENDROOT
BRANCH   1   2
ATOM      2  C   UNL A   1      32.183  29.341  25.171  1.00  0.00     0.275 C 
BRANCH   2   3
ATOM      3  O   UNL A   1      31.104  28.416  25.424  1.00  0.00    -0.458 OA
BRANCH   3   4
ATOM      4  C   UNL A   1      31.360  27.392  26.279  1.00  0.00     0.341 C 
ATOM      5  O   UNL A   1      31.390  27.466  27.496  1.00  0.00    -0.246 OA
BRANCH   4   6
ATOM      6  C   UNL A   1      31.527  26.134  25.515  1.00  0.00     0.096 A 
ATOM      7  C   UNL A   1      32.925  24.316  24.690  1.00  0.00    -0.014 A 
ATOM      8  C   UNL A   1      31.820  23.817  23.978  1.00  0.00     0.012 A 
ATOM      9  C   UNL A   1      32.777  25.509  25.419  1.00  0.00     0.027 A 
ATOM     10  C   UNL A   1      30.574  24.425  24.085  1.00  0.00     0.041 A 
ATOM     11  C   UNL A   1      30.425  25.543  24.896  1.00  0.00     0.137 A 
ATOM     12  F   UNL A   1      29.186  26.026  25.058  1.00  0.00    -0.206 F 
BRANCH   7  13
ATOM     13  C   UNL A   1      34.163  23.530  24.759  1.00  0.00     0.020 A 
ATOM     14  C   UNL A   1      37.519  20.803  24.802  1.00  0.00     0.047 C 
ATOM     15  C   UNL A   1      36.372  21.764  24.812  1.00  0.00    -0.012 A 
ATOM     16  C   UNL A   1      35.495  21.822  25.896  1.00  0.00     0.046 A 
ATOM     17  C   UNL A   1      36.166  22.633  23.736  1.00  0.00     0.126 A 
ATOM     18  C   UNL A   1      34.408  22.693  25.861  1.00  0.00     0.131 A 
ATOM     19  C   UNL A   1      35.078  23.503  23.700  1.00  0.00     0.051 A 
ATOM     20  F   UNL A   1      37.014  22.614  22.699  1.00  0.00    -0.207 F 
ATOM     21  F   UNL A   1      33.562  22.681  26.903  1.00  0.00    -0.206 F 
ENDBRANCH   7  13
ENDBRANCH   4   6
ENDBRANCH   3   4
ENDBRANCH   2   3
ENDBRANCH   1   2
BRANCH   1  22
ATOM     22  O   UNL A   1      33.082  30.391  27.184  1.00  0.00    -0.458 OA
BRANCH  22  23
ATOM     23  C   UNL A   1      33.750  31.522  27.510  1.00  0.00     0.338 C 
ATOM     24  O   UNL A   1      33.306  32.656  27.561  1.00  0.00    -0.246 OA
BRANCH  23  25
ATOM     25  C   UNL A   1      35.096  31.158  27.974  1.00  0.00     0.060 A 
ATOM     26  C   UNL A   1      36.110  32.091  28.144  1.00  0.00     0.016 A 
ATOM     27  C   UNL A   1      35.297  29.833  28.341  1.00  0.00     0.016 A 
ATOM     28  C   UNL A   1      37.339  31.663  28.666  1.00  0.00     0.010 A 
ATOM     29  C   UNL A   1      36.481  29.426  28.942  1.00  0.00     0.010 A 
ATOM     30  C   UNL A   1      37.535  30.329  29.092  1.00  0.00    -0.014 A 
BRANCH  30  31
ATOM     31  C   UNL A   1      38.809  29.895  29.736  1.00  0.00     0.031 A 
ATOM     32  C   UNL A   1      39.217  30.394  31.102  1.00  0.00     0.074 A 
ATOM     33  C   UNL A   1      39.637  29.074  29.057  1.00  0.00     0.049 A 
ATOM     34  N   UNL A   1      40.251  30.045  31.828  1.00  0.00    -0.248 NA
ATOM     35  C   UNL A   1      38.388  31.441  31.722  1.00  0.00     0.031 C 
ATOM     36  C   UNL A   1      39.422  28.629  27.679  1.00  0.00     0.029 A 
ATOM     37  N   UNL A   1      40.808  28.458  29.424  1.00  0.00    -0.354 N 
ATOM     38  C   UNL A   1      40.196  30.827  32.977  1.00  0.00     0.074 A 
ATOM     39  C   UNL A   1      39.079  31.727  32.818  1.00  0.00     0.031 C 
ATOM     40  C   UNL A   1      40.379  27.753  27.346  1.00  0.00     0.029 A 
ATOM     41  C   UNL A   1      41.307  27.605  28.465  1.00  0.00     0.049 A 
ATOM     42  H   UNL A   1      41.249  28.612  30.290  1.00  0.00     0.167 HD
ATOM     43  C   UNL A   1      40.979  30.770  34.082  1.00  0.00     0.034 A 
ATOM     44  C   UNL A   1      42.374  26.779  28.484  1.00  0.00     0.034 A 
ATOM     45  C   UNL A   1      42.067  29.839  34.238  1.00  0.00     0.049 A 
ATOM     46  C   UNL A   1      43.195  26.684  29.744  1.00  0.00     0.074 A 
ATOM     47  C   UNL A   1      42.858  29.630  35.355  1.00  0.00     0.029 A 
ATOM     48  N   UNL A   1      42.519  28.964  33.261  1.00  0.00    -0.354 N 
ATOM     49  N   UNL A   1      43.036  27.321  30.881  1.00  0.00    -0.248 NA
ATOM     50  C   UNL A   1      44.328  25.747  29.740  1.00  0.00     0.031 C 
ATOM     51  C   UNL A   1      43.832  28.687  35.030  1.00  0.00     0.029 A 
ATOM     52  C   UNL A   1      43.599  28.237  33.739  1.00  0.00     0.049 A 
ATOM     53  H   UNL A   1      42.132  28.873  32.360  1.00  0.00     0.167 HD
ATOM     54  C   UNL A   1      44.035  26.853  31.729  1.00  0.00     0.074 A 
ATOM     55  C   UNL A   1      44.769  25.849  30.987  1.00  0.00     0.031 C 
ATOM     56  C   UNL A   1      44.321  27.228  33.002  1.00  0.00     0.034 A 
BRANCH  43  57
ATOM     57  C   UNL A   1      40.672  31.684  35.250  1.00  0.00     0.023 A 
ATOM     58  C   UNL A   1      39.593  31.401  36.110  1.00  0.00     0.031 A 
ATOM     59  C   UNL A   1      41.342  32.910  35.414  1.00  0.00     0.131 A 
ATOM     60  C   UNL A   1      39.194  32.346  37.065  1.00  0.00     0.055 A 
ATOM     61  C   UNL A   1      40.975  33.825  36.402  1.00  0.00     0.041 A 
ATOM     62  F   UNL A   1      42.368  33.241  34.612  1.00  0.00    -0.206 F 
ATOM     63  C   UNL A   1      39.886  33.551  37.222  1.00  0.00     0.022 A 
BRANCH  60  64
ATOM     64  S   UNL A   1      37.710  32.094  38.078  1.00  0.00     0.124 S 
ATOM     65  O   UNL A   1      37.337  30.725  37.730  1.00  0.00    -0.237 OA
ATOM     66  O   UNL A   1      38.232  32.272  39.431  1.00  0.00    -0.237 OA
ATOM     67  O   UNL A   1      36.788  33.125  37.616  1.00  0.00    -0.744 OA
ENDBRANCH  60  64
ENDBRANCH  43  57
BRANCH  44  68
ATOM     68  C   UNL A   1      42.642  25.916  27.295  1.00  0.00     0.023 A 
ATOM     69  C   UNL A   1      42.110  24.616  27.208  1.00  0.00     0.031 A 
ATOM     70  C   UNL A   1      43.541  26.327  26.295  1.00  0.00     0.131 A 
ATOM     71  C   UNL A   1      42.543  23.750  26.194  1.00  0.00     0.055 A 
ATOM     72  C   UNL A   1      43.907  25.488  25.240  1.00  0.00     0.041 A 
ATOM     73  F   UNL A   1      44.090  27.551  26.341  1.00  0.00    -0.206 F 
ATOM     74  C   UNL A   1      43.424  24.185  25.199  1.00  0.00     0.022 A 
BRANCH  71  75
ATOM     75  S   UNL A   1      42.103  21.990  26.226  1.00  0.00     0.124 S 
ATOM     76  O   UNL A   1      42.923  21.451  25.146  1.00  0.00    -0.237 OA
ATOM     77  O   UNL A   1      42.509  21.607  27.577  1.00  0.00    -0.237 OA
ATOM     78  O   UNL A   1      40.664  21.990  25.988  1.00  0.00    -0.744 OA
ENDBRANCH  71  75
ENDBRANCH  44  68
BRANCH  56  79
ATOM     79  C   UNL A   1      45.486  26.573  33.710  1.00  0.00     0.023 A 
ATOM     80  C   UNL A   1      45.275  25.422  34.494  1.00  0.00     0.031 A 
ATOM     81  C   UNL A   1      46.754  27.179  33.748  1.00  0.00     0.131 A 
ATOM     82  C   UNL A   1      46.298  24.946  35.323  1.00  0.00     0.055 A 
ATOM     83  C   UNL A   1      47.789  26.664  34.531  1.00  0.00     0.041 A 
ATOM     84  F   UNL A   1      47.003  28.286  33.031  1.00  0.00    -0.206 F 
ATOM     85  C   UNL A   1      47.557  25.554  35.337  1.00  0.00     0.022 A 
BRANCH  82  86
ATOM     86  S   UNL A   1      46.002  23.589  36.493  1.00  0.00     0.124 S 
ATOM     87  O   UNL A   1      44.811  22.959  35.927  1.00  0.00    -0.237 OA
ATOM     88  O   UNL A   1      47.233  22.812  36.379  1.00  0.00    -0.237 OA
ATOM     89  O   UNL A   1      45.801  24.263  37.771  1.00  0.00    -0.744 OA
ENDBRANCH  82  86
ENDBRANCH  56  79
ENDBRANCH  30  31
ENDBRANCH  23  25
ENDBRANCH  22  23
ENDBRANCH   1  22
TORSDOF 15
ENDMDL
MODEL 2
REMARK VINA RESULT:     -12.1      3.922      6.321
REMARK SMILES Cc1cc(F)c(-c2ccc(F)c(C(=O)OCCOC(=O)c3ccc(-c4c5nc(c(-c6cc(S(=O)(=O)[O-])ccc6F)c6ccc([nH]6)c(-c6cc(S(=O)(=O)[O-])ccc6F)c6nc(c(-c7cc(S(=O)(=O)[O-])ccc7F)c7ccc4[nH]7)C=C6)C=C5)cc3)c2)cc1F
REMARK SMILES IDX 17 1 16 2 15 3 13 4 14 5 12 6 7 7 8 8 84 9 9 10 10 11 11 12
REMARK SMILES IDX 6 13 1 14 2 15 3 16 86 17 4 18 85 19 87 20 5 21 18 22 19 23
REMARK SMILES IDX 20 24 21 25 22 26 83 27 23 28 82 29 24 30 25 31 26 32 76 33
REMARK SMILES IDX 27 34 81 35 75 36 77 37 28 38 80 39 74 40 73 41 29 43 61 44
REMARK SMILES IDX 41 45 60 46 42 47 45 48 59 49 78 50 43 51 44 52 58 54 79 55
REMARK SMILES IDX 46 56 30 57 31 58 39 59 32 60 38 61 40 62 37 63 33 64 34 65
REMARK SMILES IDX 35 66 36 67 62 68 63 69 71 70 64 71 70 72 72 73 69 74 65 75
REMARK SMILES IDX 66 76 67 77 68 78 47 79 48 80 56 81 49 82 55 83 57 84 54 85
REMARK SMILES IDX 50 86 51 87 52 88 53 89
REMARK H PARENT 77 42 45 53
REMARK Flexibility Score: inf
ROOT
ATOM      1  C   UNL A   1      33.122  33.502  27.993  1.00  0.00     0.275 C 
ENDROOT
BRANCH   1   2
ATOM      2  C   UNL A   1      33.157  35.024  28.153  1.00  0.00     0.275 C 
BRANCH   2   3
ATOM      3  O   UNL A   1      32.571  35.426  29.409  1.00  0.00    -0.458 OA
BRANCH   3   4
ATOM      4  C   UNL A   1      33.164  36.460  30.061  1.00  0.00     0.341 C 
ATOM      5  O   UNL A   1      33.184  37.622  29.691  1.00  0.00    -0.246 OA
BRANCH   4   6
ATOM      6  C   UNL A   1      33.727  35.982  31.345  1.00  0.00     0.096 A 
ATOM      7  C   UNL A   1      34.730  34.226  32.705  1.00  0.00    -0.014 A 
ATOM      8  C   UNL A   1      34.688  35.090  33.814  1.00  0.00     0.012 A 
ATOM      9  C   UNL A   1      34.199  34.670  31.482  1.00  0.00     0.027 A 
ATOM     10  C   UNL A   1      34.237  36.398  33.678  1.00  0.00     0.041 A 
ATOM     11  C   UNL A   1      33.814  36.850  32.433  1.00  0.00     0.137 A 
ATOM     12  F   UNL A   1      33.497  38.147  32.326  1.00  0.00    -0.206 F 
BRANCH   7  13
ATOM     13  C   UNL A   1      35.429  32.939  32.809  1.00  0.00     0.020 A 
ATOM     14  C   UNL A   1      37.830  29.342  32.765  1.00  0.00     0.047 C 
ATOM     15  C   UNL A   1      36.972  30.568  32.787  1.00  0.00    -0.012 A 
ATOM     16  C   UNL A   1      35.999  30.781  31.809  1.00  0.00     0.046 A 
ATOM     17  C   UNL A   1      37.123  31.521  33.800  1.00  0.00     0.126 A 
ATOM     18  C   UNL A   1      35.245  31.952  31.827  1.00  0.00     0.131 A 
ATOM     19  C   UNL A   1      36.371  32.693  33.816  1.00  0.00     0.051 A 
ATOM     20  F   UNL A   1      38.032  31.321  34.765  1.00  0.00    -0.207 F 
ATOM     21  F   UNL A   1      34.355  32.139  30.839  1.00  0.00    -0.206 F 
ENDBRANCH   7  13
ENDBRANCH   4   6
ENDBRANCH   3   4
ENDBRANCH   2   3
ENDBRANCH   1   2
BRANCH   1  22
ATOM     22  O   UNL A   1      34.450  32.978  27.824  1.00  0.00    -0.458 OA
BRANCH  22  23
ATOM     23  C   UNL A   1      34.527  31.633  27.703  1.00  0.00     0.338 C 
ATOM     24  O   UNL A   1      33.683  30.880  27.246  1.00  0.00    -0.246 OA
BRANCH  23  25
ATOM     25  C   UNL A   1      35.885  31.203  28.060  1.00  0.00     0.060 A 
ATOM     26  C   UNL A   1      36.895  32.097  28.389  1.00  0.00     0.016 A 
ATOM     27  C   UNL A   1      36.106  29.834  28.156  1.00  0.00     0.016 A 
ATOM     28  C   UNL A   1      38.139  31.590  28.791  1.00  0.00     0.010 A 
ATOM     29  C   UNL A   1      37.307  29.333  28.641  1.00  0.00     0.010 A 
ATOM     30  C   UNL A   1      38.356  30.202  28.944  1.00  0.00    -0.014 A 
BRANCH  30  31
ATOM     31  C   UNL A   1      39.648  29.667  29.464  1.00  0.00     0.031 A 
ATOM     32  C   UNL A   1      40.342  30.288  30.654  1.00  0.00     0.074 A 
ATOM     33  C   UNL A   1      40.231  28.632  28.824  1.00  0.00     0.049 A 
ATOM     34  N   UNL A   1      41.424  29.886  31.273  1.00  0.00    -0.248 NA
ATOM     35  C   UNL A   1      39.779  31.535  31.197  1.00  0.00     0.031 C 
ATOM     36  C   UNL A   1      39.731  28.030  27.587  1.00  0.00     0.029 A 
ATOM     37  N   UNL A   1      41.351  27.894  29.120  1.00  0.00    -0.354 N 
ATOM     38  C   UNL A   1      41.670  30.828  32.268  1.00  0.00     0.074 A 
ATOM     39  C   UNL A   1      40.675  31.863  32.119  1.00  0.00     0.031 C 
ATOM     40  C   UNL A   1      40.489  26.971  27.275  1.00  0.00     0.029 A 
ATOM     41  C   UNL A   1      41.561  26.841  28.260  1.00  0.00     0.049 A 
ATOM     42  H   UNL A   1      41.947  28.100  29.876  1.00  0.00     0.167 HD
ATOM     43  C   UNL A   1      42.610  30.807  33.244  1.00  0.00     0.034 A 
ATOM     44  C   UNL A   1      42.494  25.865  28.268  1.00  0.00     0.034 A 
ATOM     45  C   UNL A   1      43.571  29.745  33.400  1.00  0.00     0.049 A 
ATOM     46  C   UNL A   1      43.492  25.824  29.396  1.00  0.00     0.074 A 
ATOM     47  C   UNL A   1      44.501  29.577  34.412  1.00  0.00     0.029 A 
ATOM     48  N   UNL A   1      43.730  28.675  32.532  1.00  0.00    -0.354 N 
ATOM     49  N   UNL A   1      43.613  26.639  30.418  1.00  0.00    -0.248 NA
ATOM     50  C   UNL A   1      44.469  24.726  29.390  1.00  0.00     0.031 C 
ATOM     51  C   UNL A   1      45.268  28.452  34.118  1.00  0.00     0.029 A 
ATOM     52  C   UNL A   1      44.764  27.861  32.969  1.00  0.00     0.049 A 
ATOM     53  H   UNL A   1      43.189  28.517  31.724  1.00  0.00     0.167 HD
ATOM     54  C   UNL A   1      44.666  26.144  31.183  1.00  0.00     0.074 A 
ATOM     55  C   UNL A   1      45.122  24.937  30.526  1.00  0.00     0.031 C 
ATOM     56  C   UNL A   1      45.209  26.651  32.319  1.00  0.00     0.034 A 
BRANCH  43  57
ATOM     57  C   UNL A   1      42.630  31.921  34.270  1.00  0.00     0.023 A 
ATOM     58  C   UNL A   1      41.883  31.804  35.459  1.00  0.00     0.031 A 
ATOM     59  C   UNL A   1      43.255  33.152  34.001  1.00  0.00     0.131 A 
ATOM     60  C   UNL A   1      41.748  32.911  36.310  1.00  0.00     0.055 A 
ATOM     61  C   UNL A   1      43.163  34.233  34.879  1.00  0.00     0.041 A 
ATOM     62  F   UNL A   1      43.967  33.326  32.875  1.00  0.00    -0.206 F 
ATOM     63  C   UNL A   1      42.393  34.120  36.031  1.00  0.00     0.022 A 
BRANCH  60  64
ATOM     64  S   UNL A   1      40.662  32.856  37.762  1.00  0.00     0.124 S 
ATOM     65  O   UNL A   1      41.529  32.240  38.764  1.00  0.00    -0.237 OA
ATOM     66  O   UNL A   1      40.370  34.270  37.977  1.00  0.00    -0.237 OA
ATOM     67  O   UNL A   1      39.536  32.037  37.329  1.00  0.00    -0.744 OA
ENDBRANCH  60  64
ENDBRANCH  43  57
BRANCH  44  68
ATOM     68  C   UNL A   1      42.439  24.804  27.217  1.00  0.00     0.023 A 
ATOM     69  C   UNL A   1      41.662  23.645  27.396  1.00  0.00     0.031 A 
ATOM     70  C   UNL A   1      43.266  24.873  26.081  1.00  0.00     0.131 A 
ATOM     71  C   UNL A   1      41.791  22.572  26.503  1.00  0.00     0.055 A 
ATOM     72  C   UNL A   1      43.329  23.834  25.149  1.00  0.00     0.041 A 
ATOM     73  F   UNL A   1      44.040  25.949  25.872  1.00  0.00    -0.206 F 
ATOM     74  C   UNL A   1      42.605  22.668  25.370  1.00  0.00     0.022 A 
BRANCH  71  75
ATOM     75  S   UNL A   1      41.030  20.966  26.866  1.00  0.00     0.124 S 
ATOM     76  O   UNL A   1      40.743  21.080  28.293  1.00  0.00    -0.237 OA
ATOM     77  O   UNL A   1      39.865  20.982  25.985  1.00  0.00    -0.237 OA
ATOM     78  O   UNL A   1      42.066  20.004  26.506  1.00  0.00    -0.744 OA
ENDBRANCH  71  75
ENDBRANCH  44  68
BRANCH  56  79
ATOM     79  C   UNL A   1      46.374  25.927  32.955  1.00  0.00     0.023 A 
ATOM     80  C   UNL A   1      47.654  26.006  32.373  1.00  0.00     0.031 A 
ATOM     81  C   UNL A   1      46.184  25.033  34.023  1.00  0.00     0.131 A 
ATOM     82  C   UNL A   1      48.680  25.167  32.826  1.00  0.00     0.055 A 
ATOM     83  C   UNL A   1      47.226  24.241  34.510  1.00  0.00     0.041 A 
ATOM     84  F   UNL A   1      44.980  24.908  34.604  1.00  0.00    -0.206 F 
ATOM     85  C   UNL A   1      48.475  24.293  33.898  1.00  0.00     0.022 A 
BRANCH  82  86
ATOM     86  S   UNL A   1      50.280  25.099  31.973  1.00  0.00     0.124 S 
ATOM     87  O   UNL A   1      49.915  25.499  30.616  1.00  0.00    -0.237 OA
ATOM     88  O   UNL A   1      51.068  26.075  32.721  1.00  0.00    -0.237 OA
ATOM     89  O   UNL A   1      50.700  23.709  32.120  1.00  0.00    -0.744 OA
ENDBRANCH  82  86
ENDBRANCH  56  79
ENDBRANCH  30  31
ENDBRANCH  23  25
ENDBRANCH  22  23
ENDBRANCH   1  22
TORSDOF 15
ENDMDL
MODEL 3
REMARK VINA RESULT:     -12.0      4.780      9.997
REMARK SMILES Cc1cc(F)c(-c2ccc(F)c(C(=O)OCCOC(=O)c3ccc(-c4c5nc(c(-c6cc(S(=O)(=O)[O-])ccc6F)c6ccc([nH]6)c(-c6cc(S(=O)(=O)[O-])ccc6F)c6nc(c(-c7cc(S(=O)(=O)[O-])ccc7F)c7ccc4[nH]7)C=C6)C=C5)cc3)c2)cc1F
REMARK SMILES IDX 17 1 16 2 15 3 13 4 14 5 12 6 7 7 8 8 84 9 9 10 10 11 11 12
REMARK SMILES IDX 6 13 1 14 2 15 3 16 86 17 4 18 85 19 87 20 5 21 18 22 19 23
REMARK SMILES IDX 20 24 21 25 22 26 83 27 23 28 82 29 24 30 25 31 26 32 76 33
REMARK SMILES IDX 27 34 81 35 75 36 77 37 28 38 80 39 74 40 73 41 29 43 61 44
REMARK SMILES IDX 41 45 60 46 42 47 45 48 59 49 78 50 43 51 44 52 58 54 79 55
REMARK SMILES IDX 46 56 30 57 31 58 39 59 32 60 38 61 40 62 37 63 33 64 34 65
REMARK SMILES IDX 35 66 36 67 62 68 63 69 71 70 64 71 70 72 72 73 69 74 65 75
REMARK SMILES IDX 66 76 67 77 68 78 47 79 48 80 56 81 49 82 55 83 57 84 54 85
REMARK SMILES IDX 50 86 51 87 52 88 53 89
REMARK H PARENT 77 42 45 53
REMARK Flexibility Score: inf
ROOT
ATOM      1  C   UNL A   1      37.408  20.380  24.753  1.00  0.00     0.275 C 
ENDROOT
BRANCH   1   2
ATOM      2  C   UNL A   1      35.899  20.417  25.009  1.00  0.00     0.275 C 
BRANCH   2   3
ATOM      3  O   UNL A   1      35.506  21.671  25.604  1.00  0.00    -0.458 OA
BRANCH   3   4
ATOM      4  C   UNL A   1      34.288  21.713  26.203  1.00  0.00     0.341 C 
ATOM      5  O   UNL A   1      33.949  21.069  27.182  1.00  0.00    -0.246 OA
BRANCH   4   6
ATOM      6  C   UNL A   1      33.437  22.723  25.533  1.00  0.00     0.096 A 
ATOM      7  C   UNL A   1      32.498  24.969  25.410  1.00  0.00    -0.014 A 
ATOM      8  C   UNL A   1      31.741  24.569  24.293  1.00  0.00     0.012 A 
ATOM      9  C   UNL A   1      33.309  24.018  26.053  1.00  0.00     0.027 A 
ATOM     10  C   UNL A   1      31.879  23.290  23.764  1.00  0.00     0.041 A 
ATOM     11  C   UNL A   1      32.767  22.398  24.353  1.00  0.00     0.137 A 
ATOM     12  F   UNL A   1      32.951  21.220  23.742  1.00  0.00    -0.206 F 
BRANCH   7  13
ATOM     13  C   UNL A   1      32.523  26.382  25.804  1.00  0.00     0.020 A 
ATOM     14  C   UNL A   1      32.243  30.627  26.585  1.00  0.00     0.047 C 
ATOM     15  C   UNL A   1      32.372  29.159  26.325  1.00  0.00    -0.012 A 
ATOM     16  C   UNL A   1      33.205  28.679  25.313  1.00  0.00     0.046 A 
ATOM     17  C   UNL A   1      31.665  28.237  27.104  1.00  0.00     0.126 A 
ATOM     18  C   UNL A   1      33.272  27.311  25.062  1.00  0.00     0.131 A 
ATOM     19  C   UNL A   1      31.730  26.868  26.852  1.00  0.00     0.051 A 
ATOM     20  F   UNL A   1      30.882  28.675  28.099  1.00  0.00    -0.207 F 
ATOM     21  F   UNL A   1      34.048  26.897  24.048  1.00  0.00    -0.206 F 
ENDBRANCH   7  13
ENDBRANCH   4   6
ENDBRANCH   3   4
ENDBRANCH   2   3
ENDBRANCH   1   2
BRANCH   1  22
ATOM     22  O   UNL A   1      38.061  21.483  25.404  1.00  0.00    -0.458 OA
BRANCH  22  23
ATOM     23  C   UNL A   1      39.180  21.162  26.094  1.00  0.00     0.338 C 
ATOM     24  O   UNL A   1      39.745  20.082  26.129  1.00  0.00    -0.246 OA
BRANCH  23  25
ATOM     25  C   UNL A   1      39.737  22.386  26.686  1.00  0.00     0.060 A 
ATOM     26  C   UNL A   1      40.769  22.370  27.615  1.00  0.00     0.016 A 
ATOM     27  C   UNL A   1      39.253  23.595  26.201  1.00  0.00     0.016 A 
ATOM     28  C   UNL A   1      41.288  23.592  28.066  1.00  0.00     0.010 A 
ATOM     29  C   UNL A   1      39.827  24.802  26.579  1.00  0.00     0.010 A 
ATOM     30  C   UNL A   1      40.839  24.824  27.539  1.00  0.00    -0.014 A 
BRANCH  30  31
ATOM     31  C   UNL A   1      41.457  26.119  27.948  1.00  0.00     0.031 A 
ATOM     32  C   UNL A   1      42.870  26.483  27.556  1.00  0.00     0.074 A 
ATOM     33  C   UNL A   1      40.750  26.962  28.727  1.00  0.00     0.049 A 
ATOM     34  N   UNL A   1      43.516  27.603  27.763  1.00  0.00    -0.248 NA
ATOM     35  C   UNL A   1      43.676  25.453  26.878  1.00  0.00     0.031 C 
ATOM     36  C   UNL A   1      39.428  26.670  29.285  1.00  0.00     0.029 A 
ATOM     37  N   UNL A   1      41.024  28.231  29.178  1.00  0.00    -0.354 N 
ATOM     38  C   UNL A   1      44.795  27.410  27.249  1.00  0.00     0.074 A 
ATOM     39  C   UNL A   1      44.862  26.042  26.796  1.00  0.00     0.031 C 
ATOM     40  C   UNL A   1      38.973  27.753  29.930  1.00  0.00     0.029 A 
ATOM     41  C   UNL A   1      39.987  28.804  29.878  1.00  0.00     0.049 A 
ATOM     42  H   UNL A   1      41.881  28.687  29.013  1.00  0.00     0.167 HD
ATOM     43  C   UNL A   1      45.805  28.305  27.127  1.00  0.00     0.034 A 
ATOM     44  C   UNL A   1      39.851  30.040  30.403  1.00  0.00     0.034 A 
ATOM     45  C   UNL A   1      45.707  29.678  27.552  1.00  0.00     0.049 A 
ATOM     46  C   UNL A   1      40.959  31.040  30.202  1.00  0.00     0.074 A 
ATOM     47  C   UNL A   1      46.635  30.692  27.384  1.00  0.00     0.029 A 
ATOM     48  N   UNL A   1      44.628  30.234  28.224  1.00  0.00    -0.354 N 
ATOM     49  N   UNL A   1      42.104  30.887  29.577  1.00  0.00    -0.248 NA
ATOM     50  C   UNL A   1      40.759  32.387  30.757  1.00  0.00     0.031 C 
ATOM     51  C   UNL A   1      46.150  31.836  28.016  1.00  0.00     0.029 A 
ATOM     52  C   UNL A   1      44.881  31.567  28.505  1.00  0.00     0.049 A 
ATOM     53  H   UNL A   1      43.804  29.751  28.467  1.00  0.00     0.167 HD
ATOM     54  C   UNL A   1      42.751  32.117  29.648  1.00  0.00     0.074 A 
ATOM     55  C   UNL A   1      41.853  33.016  30.345  1.00  0.00     0.031 C 
ATOM     56  C   UNL A   1      43.979  32.464  29.188  1.00  0.00     0.034 A 
BRANCH  43  57
ATOM     57  C   UNL A   1      47.093  27.874  26.456  1.00  0.00     0.023 A 
ATOM     58  C   UNL A   1      47.263  28.045  25.068  1.00  0.00     0.031 A 
ATOM     59  C   UNL A   1      48.079  27.157  27.158  1.00  0.00     0.131 A 
ATOM     60  C   UNL A   1      48.368  27.471  24.424  1.00  0.00     0.055 A 
ATOM     61  C   UNL A   1      49.205  26.633  26.521  1.00  0.00     0.041 A 
ATOM     62  F   UNL A   1      47.962  26.949  28.480  1.00  0.00    -0.206 F 
ATOM     63  C   UNL A   1      49.344  26.776  25.145  1.00  0.00     0.022 A 
BRANCH  60  64
ATOM     64  S   UNL A   1      48.538  27.523  22.618  1.00  0.00     0.124 S 
ATOM     65  O   UNL A   1      47.316  28.217  22.221  1.00  0.00    -0.237 OA
ATOM     66  O   UNL A   1      49.771  28.288  22.451  1.00  0.00    -0.237 OA
ATOM     67  O   UNL A   1      48.608  26.119  22.230  1.00  0.00    -0.744 OA
ENDBRANCH  60  64
ENDBRANCH  43  57
BRANCH  44  68
ATOM     68  C   UNL A   1      38.566  30.403  31.074  1.00  0.00     0.023 A 
ATOM     69  C   UNL A   1      37.520  31.013  30.356  1.00  0.00     0.031 A 
ATOM     70  C   UNL A   1      38.417  30.268  32.466  1.00  0.00     0.131 A 
ATOM     71  C   UNL A   1      36.415  31.537  31.042  1.00  0.00     0.055 A 
ATOM     72  C   UNL A   1      37.277  30.719  33.135  1.00  0.00     0.041 A 
ATOM     73  F   UNL A   1      39.393  29.709  33.199  1.00  0.00    -0.206 F 
ATOM     74  C   UNL A   1      36.279  31.376  32.424  1.00  0.00     0.022 A 
BRANCH  71  75
ATOM     75  S   UNL A   1      35.202  32.580  30.187  1.00  0.00     0.124 S 
ATOM     76  O   UNL A   1      34.220  32.830  31.237  1.00  0.00    -0.237 OA
ATOM     77  O   UNL A   1      36.018  33.729  29.799  1.00  0.00    -0.237 OA
ATOM     78  O   UNL A   1      34.746  31.744  29.082  1.00  0.00    -0.744 OA
ENDBRANCH  71  75
ENDBRANCH  44  68
BRANCH  56  79
ATOM     79  C   UNL A   1      44.468  33.878  29.412  1.00  0.00     0.023 A 
ATOM     80  C   UNL A   1      45.100  34.220  30.623  1.00  0.00     0.031 A 
ATOM     81  C   UNL A   1      44.157  34.911  28.510  1.00  0.00     0.131 A 
ATOM     82  C   UNL A   1      45.353  35.565  30.923  1.00  0.00     0.055 A 
ATOM     83  C   UNL A   1      44.465  36.244  28.789  1.00  0.00     0.041 A 
ATOM     84  F   UNL A   1      43.541  34.640  27.348  1.00  0.00    -0.206 F 
ATOM     85  C   UNL A   1      45.048  36.577  30.008  1.00  0.00     0.022 A 
BRANCH  82  86
ATOM     86  S   UNL A   1      45.982  36.060  32.552  1.00  0.00     0.124 S 
ATOM     87  O   UNL A   1      44.746  36.290  33.295  1.00  0.00    -0.237 OA
ATOM     88  O   UNL A   1      46.744  34.882  32.957  1.00  0.00    -0.237 OA
ATOM     89  O   UNL A   1      46.774  37.254  32.276  1.00  0.00    -0.744 OA
ENDBRANCH  82  86
ENDBRANCH  56  79
ENDBRANCH  30  31
ENDBRANCH  23  25
ENDBRANCH  22  23
ENDBRANCH   1  22
TORSDOF 15
ENDMDL
