MODEL 1
REMARK VINA RESULT:     -13.3      0.000      0.000
REMARK SMILES C[C@@H](C(=O)OCCOC(=O)c1ccc(-c2c3nc(c(-c4cc(S(=O)(=O)[O-])ccc4F)c4ccc([nH]4)c(-c4cc(S(=O)(=O)[O-])ccc4F)c4nc(c(-c5cc(S(=O)(=O)[O-])ccc5F)c5ccc2[nH]5)C=C4)C=C3)cc1)c1ccc2c3cc(Cl)ccc3n(C(=O)c3ccc(Cl)cc3)c2c1
REMARK SMILES IDX 6 1 5 2 3 3 4 4 2 5 1 6 74 7 75 8 96 9 76 10 95 11 77 12
REMARK SMILES IDX 85 13 78 14 84 15 79 16 83 17 80 18 82 19 81 20 86 21 87 22
REMARK SMILES IDX 88 23 89 24 94 25 90 26 93 27 91 28 92 29 7 30 8 31 9 32
REMARK SMILES IDX 10 33 11 34 12 35 73 36 13 37 72 38 14 39 15 40 16 41 66 42
REMARK SMILES IDX 17 43 71 44 65 45 67 46 18 47 70 48 64 49 63 50 19 52 51 53
REMARK SMILES IDX 31 54 50 55 32 56 35 57 49 58 68 59 33 60 34 61 48 63 69 64
REMARK SMILES IDX 36 65 20 66 21 67 29 68 22 69 28 70 30 71 27 72 23 73 24 74
REMARK SMILES IDX 25 75 26 76 52 77 53 78 61 79 54 80 60 81 62 82 59 83 55 84
REMARK SMILES IDX 56 85 57 86 58 87 37 88 38 89 46 90 39 91 45 92 47 93 44 94
REMARK SMILES IDX 40 95 41 96 42 97 43 98
REMARK H PARENT 67 51 35 62
REMARK Flexibility Score: inf
ROOT
ATOM      1  C   UNL A   1      31.127  29.861  24.435  1.00  0.00     0.274 C 
ENDROOT
BRANCH   1   2
ATOM      2  O   UNL A   1      30.339  28.659  24.325  1.00  0.00    -0.462 OA
BRANCH   2   3
ATOM      3  C   UNL A   1      30.518  27.914  23.197  1.00  0.00     0.313 C 
ATOM      4  O   UNL A   1      30.708  28.401  22.088  1.00  0.00    -0.252 OA
BRANCH   3   5
ATOM      5  C   UNL A   1      30.388  26.406  23.457  1.00  0.00     0.126 C 
ATOM      6  C   UNL A   1      29.139  26.037  24.265  1.00  0.00     0.025 C 
BRANCH   5   7
ATOM      7  C   UNL A   1      31.681  25.806  24.013  1.00  0.00    -0.032 A 
ATOM      8  C   UNL A   1      32.628  26.552  24.722  1.00  0.00     0.005 A 
ATOM      9  C   UNL A   1      31.942  24.442  23.772  1.00  0.00     0.032 A 
ATOM     10  C   UNL A   1      33.815  25.966  25.189  1.00  0.00     0.011 A 
ATOM     11  C   UNL A   1      33.154  23.864  24.208  1.00  0.00     0.057 A 
ATOM     12  C   UNL A   1      34.092  24.609  24.918  1.00  0.00     0.008 A 
ATOM     13  N   UNL A   1      33.635  22.551  24.109  1.00  0.00    -0.276 N 
ATOM     14  C   UNL A   1      35.221  23.770  25.153  1.00  0.00     0.009 A 
ATOM     15  C   UNL A   1      34.956  22.527  24.566  1.00  0.00     0.057 A 
ATOM     16  C   UNL A   1      36.475  23.992  25.763  1.00  0.00     0.031 A 
ATOM     17  C   UNL A   1      35.957  21.539  24.479  1.00  0.00     0.029 A 
ATOM     18  C   UNL A   1      37.446  22.991  25.723  1.00  0.00     0.041 A 
ATOM     19  C   UNL A   1      37.200  21.789  25.072  1.00  0.00     0.023 A 
ATOM     20  Cl  UNL A   1      38.969  23.255  26.478  1.00  0.00    -0.084 Cl
BRANCH  13  21
ATOM     21  C   UNL A   1      32.873  21.464  23.613  1.00  0.00     0.262 C 
ATOM     22  O   UNL A   1      32.056  21.722  22.727  1.00  0.00    -0.268 OA
BRANCH  21  23
ATOM     23  C   UNL A   1      32.873  20.061  24.131  1.00  0.00     0.040 A 
ATOM     24  C   UNL A   1      32.624  19.027  23.209  1.00  0.00     0.015 A 
ATOM     25  C   UNL A   1      32.954  19.741  25.491  1.00  0.00     0.015 A 
ATOM     26  C   UNL A   1      32.471  17.705  23.633  1.00  0.00     0.021 A 
ATOM     27  C   UNL A   1      32.830  18.411  25.913  1.00  0.00     0.021 A 
ATOM     28  C   UNL A   1      32.578  17.402  24.986  1.00  0.00     0.041 A 
ATOM     29  Cl  UNL A   1      32.354  15.781  25.518  1.00  0.00    -0.084 Cl
ENDBRANCH  21  23
ENDBRANCH  13  21
ENDBRANCH   5   7
ENDBRANCH   3   5
ENDBRANCH   2   3
ENDBRANCH   1   2
BRANCH   1  30
ATOM     30  C   UNL A   1      31.403  30.176  25.901  1.00  0.00     0.275 C 
BRANCH  30  31
ATOM     31  O   UNL A   1      32.817  30.342  26.094  1.00  0.00    -0.458 OA
BRANCH  31  32
ATOM     32  C   UNL A   1      33.188  31.302  26.971  1.00  0.00     0.338 C 
ATOM     33  O   UNL A   1      32.553  32.291  27.295  1.00  0.00    -0.246 OA
BRANCH  32  34
ATOM     34  C   UNL A   1      34.528  30.992  27.499  1.00  0.00     0.060 A 
ATOM     35  C   UNL A   1      34.874  29.676  27.793  1.00  0.00     0.016 A 
ATOM     36  C   UNL A   1      35.408  32.031  27.806  1.00  0.00     0.016 A 
ATOM     37  C   UNL A   1      36.057  29.412  28.483  1.00  0.00     0.010 A 
ATOM     38  C   UNL A   1      36.634  31.747  28.420  1.00  0.00     0.010 A 
ATOM     39  C   UNL A   1      36.955  30.436  28.814  1.00  0.00    -0.014 A 
BRANCH  39  40
ATOM     40  C   UNL A   1      38.173  30.150  29.636  1.00  0.00     0.031 A 
ATOM     41  C   UNL A   1      39.298  29.322  29.062  1.00  0.00     0.074 A 
ATOM     42  C   UNL A   1      38.314  30.660  30.878  1.00  0.00     0.049 A 
ATOM     43  N   UNL A   1      40.327  28.782  29.667  1.00  0.00    -0.248 NA
ATOM     44  C   UNL A   1      39.249  29.050  27.617  1.00  0.00     0.031 C 
ATOM     45  C   UNL A   1      37.348  31.530  31.554  1.00  0.00     0.029 A 
ATOM     46  N   UNL A   1      39.335  30.536  31.790  1.00  0.00    -0.354 N 
ATOM     47  C   UNL A   1      41.008  28.054  28.694  1.00  0.00     0.074 A 
ATOM     48  C   UNL A   1      40.268  28.217  27.460  1.00  0.00     0.031 C 
ATOM     49  C   UNL A   1      37.850  31.909  32.738  1.00  0.00     0.029 A 
ATOM     50  C   UNL A   1      39.119  31.228  32.959  1.00  0.00     0.049 A 
ATOM     51  H   UNL A   1      40.145  30.003  31.621  1.00  0.00     0.167 HD
ATOM     52  C   UNL A   1      42.142  27.318  28.820  1.00  0.00     0.034 A 
ATOM     53  C   UNL A   1      39.831  31.276  34.103  1.00  0.00     0.034 A 
ATOM     54  C   UNL A   1      42.915  27.224  30.036  1.00  0.00     0.049 A 
ATOM     55  C   UNL A   1      41.077  30.443  34.226  1.00  0.00     0.074 A 
ATOM     56  C   UNL A   1      44.063  26.486  30.277  1.00  0.00     0.029 A 
ATOM     57  N   UNL A   1      42.642  27.918  31.207  1.00  0.00    -0.354 N 
ATOM     58  N   UNL A   1      41.631  29.650  33.341  1.00  0.00    -0.248 NA
ATOM     59  C   UNL A   1      41.781  30.495  35.515  1.00  0.00     0.031 C 
ATOM     60  C   UNL A   1      44.455  26.698  31.605  1.00  0.00     0.029 A 
ATOM     61  C   UNL A   1      43.589  27.615  32.175  1.00  0.00     0.049 A 
ATOM     62  H   UNL A   1      41.887  28.538  31.332  1.00  0.00     0.167 HD
ATOM     63  C   UNL A   1      42.744  29.101  33.969  1.00  0.00     0.074 A 
ATOM     64  C   UNL A   1      42.805  29.684  35.294  1.00  0.00     0.031 C 
ATOM     65  C   UNL A   1      43.627  28.185  33.498  1.00  0.00     0.034 A 
BRANCH  52  66
ATOM     66  C   UNL A   1      42.577  26.500  27.626  1.00  0.00     0.023 A 
ATOM     67  C   UNL A   1      42.373  25.112  27.551  1.00  0.00     0.031 A 
ATOM     68  C   UNL A   1      43.228  27.130  26.548  1.00  0.00     0.131 A 
ATOM     69  C   UNL A   1      42.873  24.392  26.454  1.00  0.00     0.055 A 
ATOM     70  C   UNL A   1      43.654  26.418  25.426  1.00  0.00     0.041 A 
ATOM     71  F   UNL A   1      43.467  28.451  26.573  1.00  0.00    -0.206 F 
ATOM     72  C   UNL A   1      43.490  25.038  25.381  1.00  0.00     0.022 A 
BRANCH  69  73
ATOM     73  S   UNL A   1      42.828  22.579  26.513  1.00  0.00     0.124 S 
ATOM     74  O   UNL A   1      42.186  22.339  27.803  1.00  0.00    -0.237 OA
ATOM     75  O   UNL A   1      42.038  22.244  25.334  1.00  0.00    -0.237 OA
ATOM     76  O   UNL A   1      44.238  22.198  26.448  1.00  0.00    -0.744 OA
ENDBRANCH  69  73
ENDBRANCH  52  66
BRANCH  53  77
ATOM     77  C   UNL A   1      39.344  32.088  35.255  1.00  0.00     0.023 A 
ATOM     78  C   UNL A   1      39.777  33.409  35.439  1.00  0.00     0.031 A 
ATOM     79  C   UNL A   1      38.460  31.543  36.203  1.00  0.00     0.131 A 
ATOM     80  C   UNL A   1      39.345  34.135  36.560  1.00  0.00     0.055 A 
ATOM     81  C   UNL A   1      37.992  32.285  37.286  1.00  0.00     0.041 A 
ATOM     82  F   UNL A   1      38.019  30.281  36.073  1.00  0.00    -0.206 F 
ATOM     83  C   UNL A   1      38.442  33.588  37.476  1.00  0.00     0.022 A 
BRANCH  80  84
ATOM     84  S   UNL A   1      40.025  35.793  36.833  1.00  0.00     0.124 S 
ATOM     85  O   UNL A   1      39.346  36.193  38.059  1.00  0.00    -0.237 OA
ATOM     86  O   UNL A   1      41.454  35.517  36.952  1.00  0.00    -0.237 OA
ATOM     87  O   UNL A   1      39.631  36.525  35.632  1.00  0.00    -0.744 OA
ENDBRANCH  80  84
ENDBRANCH  53  77
BRANCH  65  88
ATOM     88  C   UNL A   1      44.740  27.778  34.428  1.00  0.00     0.023 A 
ATOM     89  C   UNL A   1      44.557  26.773  35.395  1.00  0.00     0.031 A 
ATOM     90  C   UNL A   1      45.988  28.421  34.367  1.00  0.00     0.131 A 
ATOM     91  C   UNL A   1      45.589  26.475  36.297  1.00  0.00     0.055 A 
ATOM     92  C   UNL A   1      47.028  28.087  35.236  1.00  0.00     0.041 A 
ATOM     93  F   UNL A   1      46.214  29.388  33.465  1.00  0.00    -0.206 F 
ATOM     94  C   UNL A   1      46.827  27.118  36.216  1.00  0.00     0.022 A 
BRANCH  91  95
ATOM     95  S   UNL A   1      45.265  25.293  37.635  1.00  0.00     0.124 S 
ATOM     96  O   UNL A   1      43.807  25.294  37.695  1.00  0.00    -0.237 OA
ATOM     97  O   UNL A   1      45.882  24.071  37.129  1.00  0.00    -0.237 OA
ATOM     98  O   UNL A   1      45.933  25.891  38.789  1.00  0.00    -0.744 OA
ENDBRANCH  91  95
ENDBRANCH  65  88
ENDBRANCH  39  40
ENDBRANCH  32  34
ENDBRANCH  31  32
ENDBRANCH  30  31
ENDBRANCH   1  30
TORSDOF 17
ENDMDL
MODEL 2
REMARK VINA RESULT:     -12.9      1.877      2.206
REMARK SMILES C[C@@H](C(=O)OCCOC(=O)c1ccc(-c2c3nc(c(-c4cc(S(=O)(=O)[O-])ccc4F)c4ccc([nH]4)c(-c4cc(S(=O)(=O)[O-])ccc4F)c4nc(c(-c5cc(S(=O)(=O)[O-])ccc5F)c5ccc2[nH]5)C=C4)C=C3)cc1)c1ccc2c3cc(Cl)ccc3n(C(=O)c3ccc(Cl)cc3)c2c1
REMARK SMILES IDX 6 1 5 2 3 3 4 4 2 5 1 6 74 7 75 8 96 9 76 10 95 11 77 12
REMARK SMILES IDX 85 13 78 14 84 15 79 16 83 17 80 18 82 19 81 20 86 21 87 22
REMARK SMILES IDX 88 23 89 24 94 25 90 26 93 27 91 28 92 29 7 30 8 31 9 32
REMARK SMILES IDX 10 33 11 34 12 35 73 36 13 37 72 38 14 39 15 40 16 41 66 42
REMARK SMILES IDX 17 43 71 44 65 45 67 46 18 47 70 48 64 49 63 50 19 52 51 53
REMARK SMILES IDX 31 54 50 55 32 56 35 57 49 58 68 59 33 60 34 61 48 63 69 64
REMARK SMILES IDX 36 65 20 66 21 67 29 68 22 69 28 70 30 71 27 72 23 73 24 74
REMARK SMILES IDX 25 75 26 76 52 77 53 78 61 79 54 80 60 81 62 82 59 83 55 84
REMARK SMILES IDX 56 85 57 86 58 87 37 88 38 89 46 90 39 91 45 92 47 93 44 94
REMARK SMILES IDX 40 95 41 96 42 97 43 98
REMARK H PARENT 67 51 35 62
REMARK Flexibility Score: inf
ROOT
ATOM      1  C   UNL A   1      31.529  29.782  24.625  1.00  0.00     0.274 C 
ENDROOT
BRANCH   1   2
ATOM      2  O   UNL A   1      30.505  28.796  24.387  1.00  0.00    -0.462 OA
BRANCH   2   3
ATOM      3  C   UNL A   1      30.525  28.178  23.172  1.00  0.00     0.313 C 
ATOM      4  O   UNL A   1      30.530  28.782  22.105  1.00  0.00    -0.252 OA
BRANCH   3   5
ATOM      5  C   UNL A   1      30.472  26.647  23.286  1.00  0.00     0.126 C 
ATOM      6  C   UNL A   1      29.196  26.134  23.962  1.00  0.00     0.025 C 
BRANCH   5   7
ATOM      7  C   UNL A   1      31.759  26.071  23.881  1.00  0.00    -0.032 A 
ATOM      8  C   UNL A   1      32.918  26.829  24.076  1.00  0.00     0.005 A 
ATOM      9  C   UNL A   1      31.785  24.703  24.220  1.00  0.00     0.032 A 
ATOM     10  C   UNL A   1      34.085  26.252  24.599  1.00  0.00     0.011 A 
ATOM     11  C   UNL A   1      32.972  24.115  24.707  1.00  0.00     0.057 A 
ATOM     12  C   UNL A   1      34.122  24.875  24.905  1.00  0.00     0.008 A 
ATOM     13  N   UNL A   1      33.246  22.805  25.124  1.00  0.00    -0.276 N 
ATOM     14  C   UNL A   1      35.154  23.990  25.336  1.00  0.00     0.009 A 
ATOM     15  C   UNL A   1      34.616  22.699  25.379  1.00  0.00     0.057 A 
ATOM     16  C   UNL A   1      36.522  24.179  25.631  1.00  0.00     0.031 A 
ATOM     17  C   UNL A   1      35.441  21.578  25.601  1.00  0.00     0.029 A 
ATOM     18  C   UNL A   1      37.325  23.071  25.905  1.00  0.00     0.041 A 
ATOM     19  C   UNL A   1      36.798  21.786  25.871  1.00  0.00     0.023 A 
ATOM     20  Cl  UNL A   1      38.989  23.300  26.277  1.00  0.00    -0.084 Cl
BRANCH  13  21
ATOM     21  C   UNL A   1      32.264  21.790  25.243  1.00  0.00     0.262 C 
ATOM     22  O   UNL A   1      31.231  22.090  25.847  1.00  0.00    -0.268 OA
BRANCH  21  23
ATOM     23  C   UNL A   1      32.394  20.364  24.814  1.00  0.00     0.040 A 
ATOM     24  C   UNL A   1      32.728  19.416  25.799  1.00  0.00     0.015 A 
ATOM     25  C   UNL A   1      32.353  19.955  23.475  1.00  0.00     0.015 A 
ATOM     26  C   UNL A   1      33.003  18.089  25.458  1.00  0.00     0.021 A 
ATOM     27  C   UNL A   1      32.601  18.618  23.137  1.00  0.00     0.021 A 
ATOM     28  C   UNL A   1      32.935  17.695  24.125  1.00  0.00     0.041 A 
ATOM     29  Cl  UNL A   1      33.309  16.071  23.696  1.00  0.00    -0.084 Cl
ENDBRANCH  21  23
ENDBRANCH  13  21
ENDBRANCH   5   7
ENDBRANCH   3   5
ENDBRANCH   2   3
ENDBRANCH   1   2
BRANCH   1  30
ATOM     30  C   UNL A   1      31.883  29.825  26.107  1.00  0.00     0.275 C 
BRANCH  30  31
ATOM     31  O   UNL A   1      33.280  30.126  26.254  1.00  0.00    -0.458 OA
BRANCH  31  32
ATOM     32  C   UNL A   1      33.586  31.109  27.132  1.00  0.00     0.338 C 
ATOM     33  O   UNL A   1      32.916  32.089  27.405  1.00  0.00    -0.246 OA
BRANCH  32  34
ATOM     34  C   UNL A   1      34.904  30.835  27.732  1.00  0.00     0.060 A 
ATOM     35  C   UNL A   1      35.259  29.533  28.071  1.00  0.00     0.016 A 
ATOM     36  C   UNL A   1      35.747  31.898  28.060  1.00  0.00     0.016 A 
ATOM     37  C   UNL A   1      36.411  29.307  28.824  1.00  0.00     0.010 A 
ATOM     38  C   UNL A   1      36.947  31.650  28.739  1.00  0.00     0.010 A 
ATOM     39  C   UNL A   1      37.272  30.355  29.177  1.00  0.00    -0.014 A 
BRANCH  39  40
ATOM     40  C   UNL A   1      38.453  30.110  30.065  1.00  0.00     0.031 A 
ATOM     41  C   UNL A   1      39.605  29.264  29.577  1.00  0.00     0.074 A 
ATOM     42  C   UNL A   1      38.535  30.671  31.289  1.00  0.00     0.049 A 
ATOM     43  N   UNL A   1      40.608  28.755  30.249  1.00  0.00    -0.248 NA
ATOM     44  C   UNL A   1      39.623  28.932  28.144  1.00  0.00     0.031 C 
ATOM     45  C   UNL A   1      37.536  31.562  31.884  1.00  0.00     0.029 A 
ATOM     46  N   UNL A   1      39.514  30.590  32.250  1.00  0.00    -0.354 N 
ATOM     47  C   UNL A   1      41.334  27.991  29.339  1.00  0.00     0.074 A 
ATOM     48  C   UNL A   1      40.650  28.099  28.067  1.00  0.00     0.031 C 
ATOM     49  C   UNL A   1      37.982  31.993  33.073  1.00  0.00     0.029 A 
ATOM     50  C   UNL A   1      39.243  31.328  33.380  1.00  0.00     0.049 A 
ATOM     51  H   UNL A   1      40.333  30.054  32.141  1.00  0.00     0.167 HD
ATOM     52  C   UNL A   1      42.465  27.267  29.546  1.00  0.00     0.034 A 
ATOM     53  C   UNL A   1      39.902  31.428  34.551  1.00  0.00     0.034 A 
ATOM     54  C   UNL A   1      43.182  27.228  30.799  1.00  0.00     0.049 A 
ATOM     55  C   UNL A   1      41.144  30.607  34.765  1.00  0.00     0.074 A 
ATOM     56  C   UNL A   1      44.320  26.507  31.121  1.00  0.00     0.029 A 
ATOM     57  N   UNL A   1      42.854  27.968  31.926  1.00  0.00    -0.354 N 
ATOM     58  N   UNL A   1      41.740  29.781  33.939  1.00  0.00    -0.248 NA
ATOM     59  C   UNL A   1      41.789  30.716  36.081  1.00  0.00     0.031 C 
ATOM     60  C   UNL A   1      44.651  26.776  32.456  1.00  0.00     0.029 A 
ATOM     61  C   UNL A   1      43.757  27.710  32.948  1.00  0.00     0.049 A 
ATOM     62  H   UNL A   1      42.092  28.588  31.991  1.00  0.00     0.167 HD
ATOM     63  C   UNL A   1      42.826  29.265  34.639  1.00  0.00     0.074 A 
ATOM     64  C   UNL A   1      42.825  29.902  35.940  1.00  0.00     0.031 C 
ATOM     65  C   UNL A   1      43.733  28.335  34.247  1.00  0.00     0.034 A 
BRANCH  52  66
ATOM     66  C   UNL A   1      42.956  26.403  28.408  1.00  0.00     0.023 A 
ATOM     67  C   UNL A   1      44.083  26.741  27.640  1.00  0.00     0.031 A 
ATOM     68  C   UNL A   1      42.262  25.223  28.079  1.00  0.00     0.131 A 
ATOM     69  C   UNL A   1      44.443  25.943  26.542  1.00  0.00     0.055 A 
ATOM     70  C   UNL A   1      42.672  24.395  27.032  1.00  0.00     0.041 A 
ATOM     71  F   UNL A   1      41.167  24.860  28.764  1.00  0.00    -0.206 F 
ATOM     72  C   UNL A   1      43.760  24.760  26.248  1.00  0.00     0.022 A 
BRANCH  69  73
ATOM     73  S   UNL A   1      45.734  26.545  25.418  1.00  0.00     0.124 S 
ATOM     74  O   UNL A   1      46.818  26.852  26.348  1.00  0.00    -0.237 OA
ATOM     75  O   UNL A   1      45.949  25.399  24.543  1.00  0.00    -0.237 OA
ATOM     76  O   UNL A   1      45.121  27.709  24.783  1.00  0.00    -0.744 OA
ENDBRANCH  69  73
ENDBRANCH  52  66
BRANCH  53  77
ATOM     77  C   UNL A   1      39.361  32.283  35.645  1.00  0.00     0.023 A 
ATOM     78  C   UNL A   1      38.573  31.735  36.667  1.00  0.00     0.031 A 
ATOM     79  C   UNL A   1      39.603  33.669  35.667  1.00  0.00     0.131 A 
ATOM     80  C   UNL A   1      38.032  32.571  37.656  1.00  0.00     0.055 A 
ATOM     81  C   UNL A   1      39.108  34.488  36.681  1.00  0.00     0.041 A 
ATOM     82  F   UNL A   1      40.349  34.243  34.710  1.00  0.00    -0.206 F 
ATOM     83  C   UNL A   1      38.308  33.941  37.680  1.00  0.00     0.022 A 
BRANCH  80  84
ATOM     84  S   UNL A   1      36.914  31.847  38.886  1.00  0.00     0.124 S 
ATOM     85  O   UNL A   1      36.831  30.464  38.433  1.00  0.00    -0.237 OA
ATOM     86  O   UNL A   1      37.646  32.073  40.128  1.00  0.00    -0.237 OA
ATOM     87  O   UNL A   1      35.689  32.629  38.735  1.00  0.00    -0.744 OA
ENDBRANCH  80  84
ENDBRANCH  53  77
BRANCH  65  88
ATOM     88  C   UNL A   1      44.804  27.972  35.242  1.00  0.00     0.023 A 
ATOM     89  C   UNL A   1      44.546  27.094  36.310  1.00  0.00     0.031 A 
ATOM     90  C   UNL A   1      46.088  28.533  35.139  1.00  0.00     0.131 A 
ATOM     91  C   UNL A   1      45.543  26.842  37.263  1.00  0.00     0.055 A 
ATOM     92  C   UNL A   1      47.092  28.240  36.064  1.00  0.00     0.041 A 
ATOM     93  F   UNL A   1      46.386  29.378  34.140  1.00  0.00    -0.206 F 
ATOM     94  C   UNL A   1      46.818  27.400  37.140  1.00  0.00     0.022 A 
BRANCH  91  95
ATOM     95  S   UNL A   1      45.127  25.838  38.716  1.00  0.00     0.124 S 
ATOM     96  O   UNL A   1      46.171  26.221  39.660  1.00  0.00    -0.237 OA
ATOM     97  O   UNL A   1      43.778  26.294  39.035  1.00  0.00    -0.237 OA
ATOM     98  O   UNL A   1      45.214  24.465  38.221  1.00  0.00    -0.744 OA
ENDBRANCH  91  95
ENDBRANCH  65  88
ENDBRANCH  39  40
ENDBRANCH  32  34
ENDBRANCH  31  32
ENDBRANCH  30  31
ENDBRANCH   1  30
TORSDOF 17
ENDMDL
MODEL 3
REMARK VINA RESULT:     -12.4      5.695      9.829
REMARK SMILES C[C@@H](C(=O)OCCOC(=O)c1ccc(-c2c3nc(c(-c4cc(S(=O)(=O)[O-])ccc4F)c4ccc([nH]4)c(-c4cc(S(=O)(=O)[O-])ccc4F)c4nc(c(-c5cc(S(=O)(=O)[O-])ccc5F)c5ccc2[nH]5)C=C4)C=C3)cc1)c1ccc2c3cc(Cl)ccc3n(C(=O)c3ccc(Cl)cc3)c2c1
REMARK SMILES IDX 6 1 5 2 3 3 4 4 2 5 1 6 74 7 75 8 96 9 76 10 95 11 77 12
REMARK SMILES IDX 85 13 78 14 84 15 79 16 83 17 80 18 82 19 81 20 86 21 87 22
REMARK SMILES IDX 88 23 89 24 94 25 90 26 93 27 91 28 92 29 7 30 8 31 9 32
REMARK SMILES IDX 10 33 11 34 12 35 73 36 13 37 72 38 14 39 15 40 16 41 66 42
REMARK SMILES IDX 17 43 71 44 65 45 67 46 18 47 70 48 64 49 63 50 19 52 51 53
REMARK SMILES IDX 31 54 50 55 32 56 35 57 49 58 68 59 33 60 34 61 48 63 69 64
REMARK SMILES IDX 36 65 20 66 21 67 29 68 22 69 28 70 30 71 27 72 23 73 24 74
REMARK SMILES IDX 25 75 26 76 52 77 53 78 61 79 54 80 60 81 62 82 59 83 55 84
REMARK SMILES IDX 56 85 57 86 58 87 37 88 38 89 46 90 39 91 45 92 47 93 44 94
REMARK SMILES IDX 40 95 41 96 42 97 43 98
REMARK H PARENT 67 51 35 62
REMARK Flexibility Score: inf
ROOT
ATOM      1  C   UNL A   1      41.854  19.867  27.149  1.00  0.00     0.274 C 
ENDROOT
BRANCH   1   2
ATOM      2  O   UNL A   1      41.425  21.022  26.402  1.00  0.00    -0.462 OA
BRANCH   2   3
ATOM      3  C   UNL A   1      40.780  21.997  27.104  1.00  0.00     0.313 C 
ATOM      4  O   UNL A   1      40.963  22.204  28.298  1.00  0.00    -0.252 OA
BRANCH   3   5
ATOM      5  C   UNL A   1      39.753  22.758  26.252  1.00  0.00     0.126 C 
ATOM      6  C   UNL A   1      39.370  24.120  26.841  1.00  0.00     0.025 C 
BRANCH   5   7
ATOM      7  C   UNL A   1      38.552  21.885  25.885  1.00  0.00    -0.032 A 
ATOM      8  C   UNL A   1      38.673  20.642  25.255  1.00  0.00     0.005 A 
ATOM      9  C   UNL A   1      37.261  22.371  26.171  1.00  0.00     0.032 A 
ATOM     10  C   UNL A   1      37.542  19.887  24.911  1.00  0.00     0.011 A 
ATOM     11  C   UNL A   1      36.122  21.628  25.788  1.00  0.00     0.057 A 
ATOM     12  C   UNL A   1      36.248  20.390  25.165  1.00  0.00     0.008 A 
ATOM     13  N   UNL A   1      34.755  21.881  25.969  1.00  0.00    -0.276 N 
ATOM     14  C   UNL A   1      34.935  19.930  24.850  1.00  0.00     0.009 A 
ATOM     15  C   UNL A   1      34.029  20.909  25.275  1.00  0.00     0.057 A 
ATOM     16  C   UNL A   1      34.451  18.787  24.177  1.00  0.00     0.031 A 
ATOM     17  C   UNL A   1      32.662  20.823  24.944  1.00  0.00     0.029 A 
ATOM     18  C   UNL A   1      33.087  18.679  23.899  1.00  0.00     0.041 A 
ATOM     19  C   UNL A   1      32.207  19.691  24.258  1.00  0.00     0.023 A 
ATOM     20  Cl  UNL A   1      32.495  17.280  23.092  1.00  0.00    -0.084 Cl
BRANCH  13  21
ATOM     21  C   UNL A   1      34.244  22.961  26.732  1.00  0.00     0.262 C 
ATOM     22  O   UNL A   1      34.306  22.848  27.958  1.00  0.00    -0.268 OA
BRANCH  21  23
ATOM     23  C   UNL A   1      33.535  24.169  26.209  1.00  0.00     0.040 A 
ATOM     24  C   UNL A   1      34.303  25.129  25.523  1.00  0.00     0.015 A 
ATOM     25  C   UNL A   1      32.197  24.462  26.497  1.00  0.00     0.015 A 
ATOM     26  C   UNL A   1      33.746  26.346  25.126  1.00  0.00     0.021 A 
ATOM     27  C   UNL A   1      31.631  25.671  26.072  1.00  0.00     0.021 A 
ATOM     28  C   UNL A   1      32.408  26.612  25.399  1.00  0.00     0.041 A 
ATOM     29  Cl  UNL A   1      31.727  28.124  24.944  1.00  0.00    -0.084 Cl
ENDBRANCH  21  23
ENDBRANCH  13  21
ENDBRANCH   5   7
ENDBRANCH   3   5
ENDBRANCH   2   3
ENDBRANCH   1   2
BRANCH   1  30
ATOM     30  C   UNL A   1      42.555  18.875  26.227  1.00  0.00     0.275 C 
BRANCH  30  31
ATOM     31  O   UNL A   1      42.860  19.519  24.979  1.00  0.00    -0.458 OA
BRANCH  31  32
ATOM     32  C   UNL A   1      44.172  19.612  24.665  1.00  0.00     0.338 C 
ATOM     33  O   UNL A   1      44.897  18.722  24.254  1.00  0.00    -0.246 OA
BRANCH  32  34
ATOM     34  C   UNL A   1      44.637  20.989  24.908  1.00  0.00     0.060 A 
ATOM     35  C   UNL A   1      45.329  21.294  26.076  1.00  0.00     0.016 A 
ATOM     36  C   UNL A   1      44.285  22.004  24.018  1.00  0.00     0.016 A 
ATOM     37  C   UNL A   1      45.583  22.627  26.398  1.00  0.00     0.010 A 
ATOM     38  C   UNL A   1      44.622  23.332  24.308  1.00  0.00     0.010 A 
ATOM     39  C   UNL A   1      45.232  23.670  25.529  1.00  0.00    -0.014 A 
BRANCH  39  40
ATOM     40  C   UNL A   1      45.424  25.099  25.931  1.00  0.00     0.031 A 
ATOM     41  C   UNL A   1      46.753  25.779  25.698  1.00  0.00     0.074 A 
ATOM     42  C   UNL A   1      44.413  25.819  26.460  1.00  0.00     0.049 A 
ATOM     43  N   UNL A   1      47.195  26.923  26.161  1.00  0.00    -0.248 NA
ATOM     44  C   UNL A   1      47.720  25.070  24.847  1.00  0.00     0.031 C 
ATOM     45  C   UNL A   1      43.052  25.329  26.691  1.00  0.00     0.029 A 
ATOM     46  N   UNL A   1      44.365  27.125  26.884  1.00  0.00    -0.354 N 
ATOM     47  C   UNL A   1      48.508  27.038  25.713  1.00  0.00     0.074 A 
ATOM     48  C   UNL A   1      48.792  25.841  24.948  1.00  0.00     0.031 C 
ATOM     49  C   UNL A   1      42.294  26.334  27.152  1.00  0.00     0.029 A 
ATOM     50  C   UNL A   1      43.131  27.510  27.355  1.00  0.00     0.049 A 
ATOM     51  H   UNL A   1      45.142  27.730  26.853  1.00  0.00     0.167 HD
ATOM     52  C   UNL A   1      49.394  28.046  25.923  1.00  0.00     0.034 A 
ATOM     53  C   UNL A   1      42.721  28.658  27.931  1.00  0.00     0.034 A 
ATOM     54  C   UNL A   1      49.077  29.270  26.621  1.00  0.00     0.049 A 
ATOM     55  C   UNL A   1      43.721  29.757  28.165  1.00  0.00     0.074 A 
ATOM     56  C   UNL A   1      49.906  30.341  26.909  1.00  0.00     0.029 A 
ATOM     57  N   UNL A   1      47.821  29.604  27.108  1.00  0.00    -0.354 N 
ATOM     58  N   UNL A   1      44.996  29.792  27.860  1.00  0.00    -0.248 NA
ATOM     59  C   UNL A   1      43.229  30.963  28.846  1.00  0.00     0.031 C 
ATOM     60  C   UNL A   1      49.164  31.300  27.611  1.00  0.00     0.029 A 
ATOM     61  C   UNL A   1      47.857  30.855  27.708  1.00  0.00     0.049 A 
ATOM     62  H   UNL A   1      47.019  29.036  27.038  1.00  0.00     0.167 HD
ATOM     63  C   UNL A   1      45.461  31.020  28.319  1.00  0.00     0.074 A 
ATOM     64  C   UNL A   1      44.321  31.712  28.886  1.00  0.00     0.031 C 
ATOM     65  C   UNL A   1      46.720  31.524  28.289  1.00  0.00     0.034 A 
BRANCH  52  66
ATOM     66  C   UNL A   1      50.812  27.836  25.447  1.00  0.00     0.023 A 
ATOM     67  C   UNL A   1      51.200  28.057  24.115  1.00  0.00     0.031 A 
ATOM     68  C   UNL A   1      51.792  27.386  26.353  1.00  0.00     0.131 A 
ATOM     69  C   UNL A   1      52.513  27.765  23.712  1.00  0.00     0.055 A 
ATOM     70  C   UNL A   1      53.115  27.170  25.961  1.00  0.00     0.041 A 
ATOM     71  F   UNL A   1      51.477  27.139  27.634  1.00  0.00    -0.206 F 
ATOM     72  C   UNL A   1      53.479  27.346  24.630  1.00  0.00     0.022 A 
BRANCH  69  73
ATOM     73  S   UNL A   1      52.908  27.808  21.942  1.00  0.00     0.124 S 
ATOM     74  O   UNL A   1      53.118  26.392  21.651  1.00  0.00    -0.237 OA
ATOM     75  O   UNL A   1      51.711  28.408  21.365  1.00  0.00    -0.237 OA
ATOM     76  O   UNL A   1      54.113  28.633  21.879  1.00  0.00    -0.744 OA
ENDBRANCH  69  73
ENDBRANCH  52  66
BRANCH  53  77
ATOM     77  C   UNL A   1      41.313  28.802  28.395  1.00  0.00     0.023 A 
ATOM     78  C   UNL A   1      40.985  28.676  29.753  1.00  0.00     0.031 A 
ATOM     79  C   UNL A   1      40.271  29.042  27.482  1.00  0.00     0.131 A 
ATOM     80  C   UNL A   1      39.644  28.765  30.157  1.00  0.00     0.055 A 
ATOM     81  C   UNL A   1      38.946  29.182  27.895  1.00  0.00     0.041 A 
ATOM     82  F   UNL A   1      40.532  29.167  26.171  1.00  0.00    -0.206 F 
ATOM     83  C   UNL A   1      38.624  29.034  29.240  1.00  0.00     0.022 A 
BRANCH  80  84
ATOM     84  S   UNL A   1      39.244  28.469  31.901  1.00  0.00     0.124 S 
ATOM     85  O   UNL A   1      38.626  29.733  32.282  1.00  0.00    -0.237 OA
ATOM     86  O   UNL A   1      38.351  27.318  31.814  1.00  0.00    -0.237 OA
ATOM     87  O   UNL A   1      40.546  28.201  32.508  1.00  0.00    -0.744 OA
ENDBRANCH  80  84
ENDBRANCH  53  77
BRANCH  65  88
ATOM     88  C   UNL A   1      46.914  32.898  28.876  1.00  0.00     0.023 A 
ATOM     89  C   UNL A   1      46.762  34.057  28.094  1.00  0.00     0.031 A 
ATOM     90  C   UNL A   1      47.281  33.049  30.223  1.00  0.00     0.131 A 
ATOM     91  C   UNL A   1      47.028  35.316  28.652  1.00  0.00     0.055 A 
ATOM     92  C   UNL A   1      47.497  34.308  30.787  1.00  0.00     0.041 A 
ATOM     93  F   UNL A   1      47.441  31.976  31.012  1.00  0.00    -0.206 F 
ATOM     94  C   UNL A   1      47.383  35.449  29.997  1.00  0.00     0.022 A 
BRANCH  91  95
ATOM     95  S   UNL A   1      46.984  36.776  27.575  1.00  0.00     0.124 S 
ATOM     96  O   UNL A   1      45.586  37.180  27.667  1.00  0.00    -0.237 OA
ATOM     97  O   UNL A   1      47.950  37.664  28.213  1.00  0.00    -0.237 OA
ATOM     98  O   UNL A   1      47.393  36.252  26.272  1.00  0.00    -0.744 OA
ENDBRANCH  91  95
ENDBRANCH  65  88
ENDBRANCH  39  40
ENDBRANCH  32  34
ENDBRANCH  31  32
ENDBRANCH  30  31
ENDBRANCH   1  30
TORSDOF 17
ENDMDL
