MODEL 1
REMARK VINA RESULT:     -13.9      0.000      0.000
REMARK SMILES Cc1cccc(N2C(=O)/C(=C/c3ccc(C(=O)OCCOC(=O)c4ccc(-c5c6nc(c(-c7cc(S(=O)(=O)[O-])ccc7F)c7ccc([nH]7)c(-c7cc(S(=O)(=O)[O-])ccc7F)c7nc(c(-c8cc(S(=O)(=O)[O-])ccc8F)c8ccc5[nH]8)C=C7)C=C6)cc4)cc3)c3ccccc3C2=O)c1
REMARK SMILES IDX 20 1 19 2 18 3 16 4 17 5 15 6 12 7 13 8 88 9 14 10 87 11
REMARK SMILES IDX 11 12 7 13 8 14 95 15 9 16 10 17 94 18 96 19 89 20 93 21
REMARK SMILES IDX 90 22 92 23 91 24 6 25 1 26 2 27 3 28 97 29 4 30 5 31 21 32
REMARK SMILES IDX 22 33 23 34 24 35 25 36 86 37 26 38 85 39 27 40 28 41 29 42
REMARK SMILES IDX 79 43 30 44 84 45 78 46 80 47 31 48 83 49 77 50 76 51 32 53
REMARK SMILES IDX 64 54 44 55 63 56 45 57 48 58 62 59 81 60 46 61 47 62 61 64
REMARK SMILES IDX 82 65 49 66 33 67 34 68 42 69 35 70 41 71 43 72 40 73 36 74
REMARK SMILES IDX 37 75 38 76 39 77 65 78 66 79 74 80 67 81 73 82 75 83 72 84
REMARK SMILES IDX 68 85 69 86 70 87 71 88 50 89 51 90 59 91 52 92 58 93 60 94
REMARK SMILES IDX 57 95 53 96 54 97 55 98 56 99
REMARK H PARENT 80 52 48 63
REMARK Flexibility Score: inf
ROOT
ATOM      1  C   UNL A   1      32.872  30.094  27.095  1.00  0.00     0.275 C 
ENDROOT
BRANCH   1   2
ATOM      2  C   UNL A   1      31.914  28.960  26.695  1.00  0.00     0.275 C 
BRANCH   2   3
ATOM      3  O   UNL A   1      32.319  28.231  25.532  1.00  0.00    -0.458 OA
BRANCH   3   4
ATOM      4  C   UNL A   1      31.359  28.250  24.564  1.00  0.00     0.338 C 
ATOM      5  O   UNL A   1      30.804  29.250  24.157  1.00  0.00    -0.246 OA
BRANCH   4   6
ATOM      6  C   UNL A   1      30.998  26.889  24.083  1.00  0.00     0.060 A 
ATOM      7  C   UNL A   1      30.823  24.177  23.477  1.00  0.00    -0.025 A 
ATOM      8  C   UNL A   1      31.101  25.097  22.461  1.00  0.00     0.009 A 
ATOM      9  C   UNL A   1      30.405  24.632  24.732  1.00  0.00     0.009 A 
ATOM     10  C   UNL A   1      31.198  26.457  22.767  1.00  0.00     0.016 A 
ATOM     11  C   UNL A   1      30.521  25.984  25.042  1.00  0.00     0.016 A 
BRANCH   7  12
ATOM     12  C   UNL A   1      31.213  22.772  23.304  1.00  0.00     0.022 C 
ATOM     13  N   UNL A   1      33.288  20.184  24.627  1.00  0.00    -0.242 N 
ATOM     14  C   UNL A   1      32.578  20.793  23.568  1.00  0.00     0.265 C 
ATOM     15  C   UNL A   1      33.780  20.947  25.716  1.00  0.00     0.265 C 
ATOM     16  O   UNL A   1      32.042  20.240  22.610  1.00  0.00    -0.268 OA
ATOM     17  C   UNL A   1      32.415  22.275  23.693  1.00  0.00     0.049 C 
ATOM     18  C   UNL A   1      34.053  22.385  25.474  1.00  0.00     0.048 A 
ATOM     19  O   UNL A   1      34.057  20.546  26.845  1.00  0.00    -0.268 OA
ATOM     20  C   UNL A   1      33.476  23.017  24.381  1.00  0.00    -0.000 A 
ATOM     21  C   UNL A   1      34.908  23.095  26.333  1.00  0.00     0.014 A 
ATOM     22  C   UNL A   1      33.885  24.321  24.061  1.00  0.00     0.010 A 
ATOM     23  C   UNL A   1      35.222  24.427  26.067  1.00  0.00     0.001 A 
ATOM     24  C   UNL A   1      34.731  25.032  24.915  1.00  0.00     0.001 A 
BRANCH  13  25
ATOM     25  C   UNL A   1      33.442  18.726  24.635  1.00  0.00     0.053 A 
ATOM     26  C   UNL A   1      31.671  15.656  26.114  1.00  0.00     0.044 C 
ATOM     27  C   UNL A   1      32.653  16.489  25.346  1.00  0.00    -0.049 A 
ATOM     28  C   UNL A   1      33.692  15.881  24.645  1.00  0.00     0.003 A 
ATOM     29  C   UNL A   1      32.528  17.891  25.312  1.00  0.00     0.030 A 
ATOM     30  C   UNL A   1      34.596  16.668  23.946  1.00  0.00     0.002 A 
ATOM     31  C   UNL A   1      34.474  18.064  23.949  1.00  0.00     0.027 A 
ENDBRANCH  13  25
ENDBRANCH   7  12
ENDBRANCH   4   6
ENDBRANCH   3   4
ENDBRANCH   2   3
ENDBRANCH   1   2
BRANCH   1  32
ATOM     32  O   UNL A   1      34.185  29.827  27.662  1.00  0.00    -0.458 OA
BRANCH  32  33
ATOM     33  C   UNL A   1      35.149  30.746  27.911  1.00  0.00     0.338 C 
ATOM     34  O   UNL A   1      34.897  31.947  27.971  1.00  0.00    -0.246 OA
BRANCH  33  35
ATOM     35  C   UNL A   1      36.486  30.208  28.229  1.00  0.00     0.060 A 
ATOM     36  C   UNL A   1      36.655  29.443  29.398  1.00  0.00     0.016 A 
ATOM     37  C   UNL A   1      37.490  30.281  27.272  1.00  0.00     0.016 A 
ATOM     38  C   UNL A   1      37.780  28.639  29.544  1.00  0.00     0.010 A 
ATOM     39  C   UNL A   1      38.514  29.373  27.334  1.00  0.00     0.010 A 
ATOM     40  C   UNL A   1      38.683  28.590  28.485  1.00  0.00    -0.014 A 
BRANCH  40  41
ATOM     41  C   UNL A   1      40.009  28.013  28.578  1.00  0.00     0.031 A 
ATOM     42  C   UNL A   1      40.266  26.587  28.296  1.00  0.00     0.074 A 
ATOM     43  C   UNL A   1      40.946  28.966  28.793  1.00  0.00     0.049 A 
ATOM     44  N   UNL A   1      41.204  25.893  28.838  1.00  0.00    -0.248 NA
ATOM     45  C   UNL A   1      39.442  25.780  27.393  1.00  0.00     0.031 C 
ATOM     46  C   UNL A   1      42.387  28.922  28.660  1.00  0.00     0.029 A 
ATOM     47  N   UNL A   1      40.740  30.271  29.259  1.00  0.00    -0.354 N 
ATOM     48  C   UNL A   1      41.358  24.756  28.061  1.00  0.00     0.074 A 
ATOM     49  C   UNL A   1      40.126  24.628  27.330  1.00  0.00     0.031 C 
ATOM     50  C   UNL A   1      42.908  29.953  29.361  1.00  0.00     0.029 A 
ATOM     51  C   UNL A   1      41.806  30.579  30.084  1.00  0.00     0.049 A 
ATOM     52  H   UNL A   1      39.979  30.857  29.040  1.00  0.00     0.167 HD
ATOM     53  C   UNL A   1      42.606  24.218  27.915  1.00  0.00     0.034 A 
ATOM     54  C   UNL A   1      41.664  30.624  31.446  1.00  0.00     0.034 A 
ATOM     55  C   UNL A   1      43.569  25.056  28.618  1.00  0.00     0.049 A 
ATOM     56  C   UNL A   1      42.537  29.558  32.072  1.00  0.00     0.074 A 
ATOM     57  C   UNL A   1      44.408  26.057  28.157  1.00  0.00     0.029 A 
ATOM     58  N   UNL A   1      43.509  25.175  29.994  1.00  0.00    -0.354 N 
ATOM     59  N   UNL A   1      42.747  28.382  31.540  1.00  0.00    -0.248 NA
ATOM     60  C   UNL A   1      43.330  29.792  33.272  1.00  0.00     0.031 C 
ATOM     61  C   UNL A   1      44.813  26.822  29.278  1.00  0.00     0.029 A 
ATOM     62  C   UNL A   1      44.217  26.282  30.404  1.00  0.00     0.049 A 
ATOM     63  H   UNL A   1      43.029  24.558  30.593  1.00  0.00     0.167 HD
ATOM     64  C   UNL A   1      43.766  27.763  32.222  1.00  0.00     0.074 A 
ATOM     65  C   UNL A   1      44.070  28.672  33.317  1.00  0.00     0.031 C 
ATOM     66  C   UNL A   1      44.338  26.590  31.813  1.00  0.00     0.034 A 
BRANCH  53  67
ATOM     67  C   UNL A   1      43.071  23.208  26.886  1.00  0.00     0.023 A 
ATOM     68  C   UNL A   1      42.575  21.886  26.989  1.00  0.00     0.031 A 
ATOM     69  C   UNL A   1      43.954  23.431  25.818  1.00  0.00     0.131 A 
ATOM     70  C   UNL A   1      43.009  20.850  26.147  1.00  0.00     0.055 A 
ATOM     71  C   UNL A   1      44.395  22.395  24.972  1.00  0.00     0.041 A 
ATOM     72  F   UNL A   1      44.404  24.658  25.520  1.00  0.00    -0.206 F 
ATOM     73  C   UNL A   1      43.932  21.094  25.141  1.00  0.00     0.022 A 
BRANCH  70  74
ATOM     74  S   UNL A   1      42.348  19.182  26.418  1.00  0.00     0.124 S 
ATOM     75  O   UNL A   1      42.336  19.090  27.875  1.00  0.00    -0.237 OA
ATOM     76  O   UNL A   1      41.046  19.251  25.765  1.00  0.00    -0.237 OA
ATOM     77  O   UNL A   1      43.324  18.320  25.754  1.00  0.00    -0.744 OA
ENDBRANCH  70  74
ENDBRANCH  53  67
BRANCH  54  78
ATOM     78  C   UNL A   1      40.301  31.025  31.933  1.00  0.00     0.023 A 
ATOM     79  C   UNL A   1      39.750  32.221  31.420  1.00  0.00     0.031 A 
ATOM     80  C   UNL A   1      39.424  30.141  32.578  1.00  0.00     0.131 A 
ATOM     81  C   UNL A   1      38.359  32.421  31.402  1.00  0.00     0.055 A 
ATOM     82  C   UNL A   1      38.039  30.379  32.619  1.00  0.00     0.041 A 
ATOM     83  F   UNL A   1      39.867  28.986  33.092  1.00  0.00    -0.206 F 
ATOM     84  C   UNL A   1      37.495  31.501  31.993  1.00  0.00     0.022 A 
BRANCH  81  85
ATOM     85  S   UNL A   1      37.702  33.756  30.355  1.00  0.00     0.124 S 
ATOM     86  O   UNL A   1      38.448  34.914  30.831  1.00  0.00    -0.237 OA
ATOM     87  O   UNL A   1      38.039  33.282  29.014  1.00  0.00    -0.237 OA
ATOM     88  O   UNL A   1      36.273  33.757  30.656  1.00  0.00    -0.744 OA
ENDBRANCH  81  85
ENDBRANCH  54  78
BRANCH  66  89
ATOM     89  C   UNL A   1      45.187  25.678  32.663  1.00  0.00     0.023 A 
ATOM     90  C   UNL A   1      44.639  24.624  33.390  1.00  0.00     0.031 A 
ATOM     91  C   UNL A   1      46.603  25.774  32.693  1.00  0.00     0.131 A 
ATOM     92  C   UNL A   1      45.439  23.810  34.202  1.00  0.00     0.055 A 
ATOM     93  C   UNL A   1      47.410  24.889  33.409  1.00  0.00     0.041 A 
ATOM     94  F   UNL A   1      47.274  26.716  32.014  1.00  0.00    -0.206 F 
ATOM     95  C   UNL A   1      46.826  23.913  34.197  1.00  0.00     0.022 A 
BRANCH  92  96
ATOM     96  S   UNL A   1      44.590  22.700  35.344  1.00  0.00     0.124 S 
ATOM     97  O   UNL A   1      44.614  21.440  34.605  1.00  0.00    -0.237 OA
ATOM     98  O   UNL A   1      45.446  22.753  36.526  1.00  0.00    -0.237 OA
ATOM     99  O   UNL A   1      43.272  23.308  35.499  1.00  0.00    -0.744 OA
ENDBRANCH  92  96
ENDBRANCH  66  89
ENDBRANCH  40  41
ENDBRANCH  33  35
ENDBRANCH  32  33
ENDBRANCH   1  32
TORSDOF 16
ENDMDL
MODEL 2
REMARK VINA RESULT:     -13.0      2.753      4.178
REMARK SMILES Cc1cccc(N2C(=O)/C(=C/c3ccc(C(=O)OCCOC(=O)c4ccc(-c5c6nc(c(-c7cc(S(=O)(=O)[O-])ccc7F)c7ccc([nH]7)c(-c7cc(S(=O)(=O)[O-])ccc7F)c7nc(c(-c8cc(S(=O)(=O)[O-])ccc8F)c8ccc5[nH]8)C=C7)C=C6)cc4)cc3)c3ccccc3C2=O)c1
REMARK SMILES IDX 20 1 19 2 18 3 16 4 17 5 15 6 12 7 13 8 88 9 14 10 87 11
REMARK SMILES IDX 11 12 7 13 8 14 95 15 9 16 10 17 94 18 96 19 89 20 93 21
REMARK SMILES IDX 90 22 92 23 91 24 6 25 1 26 2 27 3 28 97 29 4 30 5 31 21 32
REMARK SMILES IDX 22 33 23 34 24 35 25 36 86 37 26 38 85 39 27 40 28 41 29 42
REMARK SMILES IDX 79 43 30 44 84 45 78 46 80 47 31 48 83 49 77 50 76 51 32 53
REMARK SMILES IDX 64 54 44 55 63 56 45 57 48 58 62 59 81 60 46 61 47 62 61 64
REMARK SMILES IDX 82 65 49 66 33 67 34 68 42 69 35 70 41 71 43 72 40 73 36 74
REMARK SMILES IDX 37 75 38 76 39 77 65 78 66 79 74 80 67 81 73 82 75 83 72 84
REMARK SMILES IDX 68 85 69 86 70 87 71 88 50 89 51 90 59 91 52 92 58 93 60 94
REMARK SMILES IDX 57 95 53 96 54 97 55 98 56 99
REMARK H PARENT 80 52 48 63
REMARK Flexibility Score: inf
ROOT
ATOM      1  C   UNL A   1      33.379  34.325  28.918  1.00  0.00     0.275 C 
ENDROOT
BRANCH   1   2
ATOM      2  C   UNL A   1      33.820  33.411  27.762  1.00  0.00     0.275 C 
BRANCH   2   3
ATOM      3  O   UNL A   1      33.417  32.046  27.905  1.00  0.00    -0.458 OA
BRANCH   3   4
ATOM      4  C   UNL A   1      32.344  31.750  27.119  1.00  0.00     0.338 C 
ATOM      5  O   UNL A   1      31.440  32.518  26.862  1.00  0.00    -0.246 OA
BRANCH   4   6
ATOM      6  C   UNL A   1      32.348  30.340  26.644  1.00  0.00     0.060 A 
ATOM      7  C   UNL A   1      32.673  27.602  26.259  1.00  0.00    -0.025 A 
ATOM      8  C   UNL A   1      33.325  28.502  25.410  1.00  0.00     0.009 A 
ATOM      9  C   UNL A   1      31.687  28.063  27.137  1.00  0.00     0.009 A 
ATOM     10  C   UNL A   1      33.168  29.877  25.609  1.00  0.00     0.016 A 
ATOM     11  C   UNL A   1      31.547  29.431  27.349  1.00  0.00     0.016 A 
BRANCH   7  12
ATOM     12  C   UNL A   1      33.200  26.240  26.404  1.00  0.00     0.022 C 
ATOM     13  N   UNL A   1      34.362  23.398  24.579  1.00  0.00    -0.242 N 
ATOM     14  C   UNL A   1      33.782  23.993  25.722  1.00  0.00     0.265 C 
ATOM     15  C   UNL A   1      34.256  24.004  23.301  1.00  0.00     0.265 C 
ATOM     16  O   UNL A   1      33.862  23.610  26.888  1.00  0.00    -0.268 OA
ATOM     17  C   UNL A   1      33.055  25.275  25.461  1.00  0.00     0.049 C 
ATOM     18  C   UNL A   1      33.102  24.907  23.067  1.00  0.00     0.048 A 
ATOM     19  O   UNL A   1      34.992  23.836  22.331  1.00  0.00    -0.268 OA
ATOM     20  C   UNL A   1      32.415  25.436  24.152  1.00  0.00    -0.000 A 
ATOM     21  C   UNL A   1      32.694  25.205  21.757  1.00  0.00     0.014 A 
ATOM     22  C   UNL A   1      31.221  26.135  23.919  1.00  0.00     0.010 A 
ATOM     23  C   UNL A   1      31.567  25.995  21.535  1.00  0.00     0.001 A 
ATOM     24  C   UNL A   1      30.815  26.439  22.617  1.00  0.00     0.001 A 
BRANCH  13  25
ATOM     25  C   UNL A   1      35.157  22.177  24.738  1.00  0.00     0.053 A 
ATOM     26  C   UNL A   1      34.637  18.373  24.629  1.00  0.00     0.044 C 
ATOM     27  C   UNL A   1      35.314  19.706  24.754  1.00  0.00    -0.049 A 
ATOM     28  C   UNL A   1      36.681  19.777  25.009  1.00  0.00     0.003 A 
ATOM     29  C   UNL A   1      34.580  20.897  24.598  1.00  0.00     0.030 A 
ATOM     30  C   UNL A   1      37.290  21.019  25.129  1.00  0.00     0.002 A 
ATOM     31  C   UNL A   1      36.537  22.194  25.002  1.00  0.00     0.027 A 
ENDBRANCH  13  25
ENDBRANCH   7  12
ENDBRANCH   4   6
ENDBRANCH   3   4
ENDBRANCH   2   3
ENDBRANCH   1   2
BRANCH   1  32
ATOM     32  O   UNL A   1      33.694  34.017  30.304  1.00  0.00    -0.458 OA
BRANCH  32  33
ATOM     33  C   UNL A   1      34.854  34.306  30.943  1.00  0.00     0.338 C 
ATOM     34  O   UNL A   1      34.912  35.166  31.819  1.00  0.00    -0.246 OA
BRANCH  33  35
ATOM     35  C   UNL A   1      36.005  33.443  30.613  1.00  0.00     0.060 A 
ATOM     36  C   UNL A   1      36.838  33.796  29.535  1.00  0.00     0.016 A 
ATOM     37  C   UNL A   1      36.369  32.433  31.495  1.00  0.00     0.016 A 
ATOM     38  C   UNL A   1      38.102  33.229  29.420  1.00  0.00     0.010 A 
ATOM     39  C   UNL A   1      37.666  31.995  31.481  1.00  0.00     0.010 A 
ATOM     40  C   UNL A   1      38.513  32.355  30.423  1.00  0.00    -0.014 A 
BRANCH  40  41
ATOM     41  C   UNL A   1      39.676  31.496  30.321  1.00  0.00     0.031 A 
ATOM     42  C   UNL A   1      39.575  30.090  29.878  1.00  0.00     0.074 A 
ATOM     43  C   UNL A   1      40.820  32.189  30.527  1.00  0.00     0.049 A 
ATOM     44  N   UNL A   1      40.371  29.150  30.250  1.00  0.00    -0.248 NA
ATOM     45  C   UNL A   1      38.519  29.594  28.993  1.00  0.00     0.031 C 
ATOM     46  C   UNL A   1      42.197  31.847  30.240  1.00  0.00     0.029 A 
ATOM     47  N   UNL A   1      40.955  33.444  31.134  1.00  0.00    -0.354 N 
ATOM     48  C   UNL A   1      40.198  28.105  29.356  1.00  0.00     0.074 A 
ATOM     49  C   UNL A   1      38.914  28.336  28.749  1.00  0.00     0.031 C 
ATOM     50  C   UNL A   1      42.994  32.650  30.977  1.00  0.00     0.029 A 
ATOM     51  C   UNL A   1      42.127  33.413  31.869  1.00  0.00     0.049 A 
ATOM     52  H   UNL A   1      40.334  34.204  31.053  1.00  0.00     0.167 HD
ATOM     53  C   UNL A   1      41.273  27.329  29.029  1.00  0.00     0.034 A 
ATOM     54  C   UNL A   1      42.109  33.328  33.237  1.00  0.00     0.034 A 
ATOM     55  C   UNL A   1      42.456  27.848  29.704  1.00  0.00     0.049 A 
ATOM     56  C   UNL A   1      42.763  32.032  33.662  1.00  0.00     0.074 A 
ATOM     57  C   UNL A   1      43.462  28.688  29.256  1.00  0.00     0.029 A 
ATOM     58  N   UNL A   1      42.536  27.815  31.084  1.00  0.00    -0.354 N 
ATOM     59  N   UNL A   1      42.655  30.909  33.001  1.00  0.00    -0.248 NA
ATOM     60  C   UNL A   1      43.683  31.945  34.789  1.00  0.00     0.031 C 
ATOM     61  C   UNL A   1      44.120  29.210  30.396  1.00  0.00     0.029 A 
ATOM     62  C   UNL A   1      43.509  28.686  31.522  1.00  0.00     0.049 A 
ATOM     63  H   UNL A   1      41.978  27.253  31.668  1.00  0.00     0.167 HD
ATOM     64  C   UNL A   1      43.557  30.007  33.510  1.00  0.00     0.074 A 
ATOM     65  C   UNL A   1      44.148  30.693  34.649  1.00  0.00     0.031 C 
ATOM     66  C   UNL A   1      43.810  28.793  32.933  1.00  0.00     0.034 A 
BRANCH  53  67
ATOM     67  C   UNL A   1      41.411  26.369  27.865  1.00  0.00     0.023 A 
ATOM     68  C   UNL A   1      41.580  24.995  28.160  1.00  0.00     0.031 A 
ATOM     69  C   UNL A   1      41.390  26.686  26.497  1.00  0.00     0.131 A 
ATOM     70  C   UNL A   1      41.808  24.032  27.164  1.00  0.00     0.055 A 
ATOM     71  C   UNL A   1      41.621  25.725  25.495  1.00  0.00     0.041 A 
ATOM     72  F   UNL A   1      41.112  27.924  26.065  1.00  0.00    -0.206 F 
ATOM     73  C   UNL A   1      41.843  24.392  25.826  1.00  0.00     0.022 A 
BRANCH  70  74
ATOM     74  S   UNL A   1      42.074  22.311  27.673  1.00  0.00     0.124 S 
ATOM     75  O   UNL A   1      42.982  22.462  28.806  1.00  0.00    -0.237 OA
ATOM     76  O   UNL A   1      40.721  21.863  27.984  1.00  0.00    -0.237 OA
ATOM     77  O   UNL A   1      42.667  21.696  26.486  1.00  0.00    -0.744 OA
ENDBRANCH  70  74
ENDBRANCH  53  67
BRANCH  54  78
ATOM     78  C   UNL A   1      40.918  33.958  33.899  1.00  0.00     0.023 A 
ATOM     79  C   UNL A   1      39.884  33.100  34.337  1.00  0.00     0.031 A 
ATOM     80  C   UNL A   1      40.922  35.266  34.404  1.00  0.00     0.131 A 
ATOM     81  C   UNL A   1      39.014  33.493  35.369  1.00  0.00     0.055 A 
ATOM     82  C   UNL A   1      40.004  35.677  35.387  1.00  0.00     0.041 A 
ATOM     83  F   UNL A   1      41.867  36.142  34.038  1.00  0.00    -0.206 F 
ATOM     84  C   UNL A   1      39.072  34.778  35.904  1.00  0.00     0.022 A 
BRANCH  81  85
ATOM     85  S   UNL A   1      38.007  32.208  36.172  1.00  0.00     0.124 S 
ATOM     86  O   UNL A   1      37.485  31.468  35.029  1.00  0.00    -0.237 OA
ATOM     87  O   UNL A   1      38.999  31.513  36.988  1.00  0.00    -0.237 OA
ATOM     88  O   UNL A   1      37.021  32.969  36.934  1.00  0.00    -0.744 OA
ENDBRANCH  81  85
ENDBRANCH  54  78
BRANCH  66  89
ATOM     89  C   UNL A   1      44.494  27.625  33.598  1.00  0.00     0.023 A 
ATOM     90  C   UNL A   1      43.788  26.677  34.336  1.00  0.00     0.031 A 
ATOM     91  C   UNL A   1      45.879  27.362  33.428  1.00  0.00     0.131 A 
ATOM     92  C   UNL A   1      44.445  25.619  34.976  1.00  0.00     0.055 A 
ATOM     93  C   UNL A   1      46.513  26.243  33.969  1.00  0.00     0.041 A 
ATOM     94  F   UNL A   1      46.681  28.166  32.715  1.00  0.00    -0.206 F 
ATOM     95  C   UNL A   1      45.800  25.375  34.777  1.00  0.00     0.022 A 
BRANCH  92  96
ATOM     96  S   UNL A   1      43.488  24.655  36.165  1.00  0.00     0.124 S 
ATOM     97  O   UNL A   1      44.542  24.083  36.999  1.00  0.00    -0.237 OA
ATOM     98  O   UNL A   1      42.664  25.676  36.804  1.00  0.00    -0.237 OA
ATOM     99  O   UNL A   1      42.766  23.700  35.330  1.00  0.00    -0.744 OA
ENDBRANCH  92  96
ENDBRANCH  66  89
ENDBRANCH  40  41
ENDBRANCH  33  35
ENDBRANCH  32  33
ENDBRANCH   1  32
TORSDOF 16
ENDMDL
MODEL 3
REMARK VINA RESULT:     -13.0      2.104      2.357
REMARK SMILES Cc1cccc(N2C(=O)/C(=C/c3ccc(C(=O)OCCOC(=O)c4ccc(-c5c6nc(c(-c7cc(S(=O)(=O)[O-])ccc7F)c7ccc([nH]7)c(-c7cc(S(=O)(=O)[O-])ccc7F)c7nc(c(-c8cc(S(=O)(=O)[O-])ccc8F)c8ccc5[nH]8)C=C7)C=C6)cc4)cc3)c3ccccc3C2=O)c1
REMARK SMILES IDX 20 1 19 2 18 3 16 4 17 5 15 6 12 7 13 8 88 9 14 10 87 11
REMARK SMILES IDX 11 12 7 13 8 14 95 15 9 16 10 17 94 18 96 19 89 20 93 21
REMARK SMILES IDX 90 22 92 23 91 24 6 25 1 26 2 27 3 28 97 29 4 30 5 31 21 32
REMARK SMILES IDX 22 33 23 34 24 35 25 36 86 37 26 38 85 39 27 40 28 41 29 42
REMARK SMILES IDX 79 43 30 44 84 45 78 46 80 47 31 48 83 49 77 50 76 51 32 53
REMARK SMILES IDX 64 54 44 55 63 56 45 57 48 58 62 59 81 60 46 61 47 62 61 64
REMARK SMILES IDX 82 65 49 66 33 67 34 68 42 69 35 70 41 71 43 72 40 73 36 74
REMARK SMILES IDX 37 75 38 76 39 77 65 78 66 79 74 80 67 81 73 82 75 83 72 84
REMARK SMILES IDX 68 85 69 86 70 87 71 88 50 89 51 90 59 91 52 92 58 93 60 94
REMARK SMILES IDX 57 95 53 96 54 97 55 98 56 99
REMARK H PARENT 80 52 48 63
REMARK Flexibility Score: inf
ROOT
ATOM      1  C   UNL A   1      33.567  30.180  26.648  1.00  0.00     0.275 C 
ENDROOT
BRANCH   1   2
ATOM      2  C   UNL A   1      32.132  29.667  26.442  1.00  0.00     0.275 C 
BRANCH   2   3
ATOM      3  O   UNL A   1      32.051  28.349  25.891  1.00  0.00    -0.458 OA
BRANCH   3   4
ATOM      4  C   UNL A   1      31.354  28.332  24.720  1.00  0.00     0.338 C 
ATOM      5  O   UNL A   1      31.023  29.319  24.095  1.00  0.00    -0.246 OA
BRANCH   4   6
ATOM      6  C   UNL A   1      30.969  26.959  24.298  1.00  0.00     0.060 A 
ATOM      7  C   UNL A   1      30.784  24.236  23.744  1.00  0.00    -0.025 A 
ATOM      8  C   UNL A   1      30.926  25.148  22.693  1.00  0.00     0.009 A 
ATOM      9  C   UNL A   1      30.500  24.699  25.033  1.00  0.00     0.009 A 
ATOM     10  C   UNL A   1      31.028  26.514  22.972  1.00  0.00     0.016 A 
ATOM     11  C   UNL A   1      30.622  26.057  25.313  1.00  0.00     0.016 A 
BRANCH   7  12
ATOM     12  C   UNL A   1      31.181  22.837  23.544  1.00  0.00     0.022 C 
ATOM     13  N   UNL A   1      33.337  20.261  24.756  1.00  0.00    -0.242 N 
ATOM     14  C   UNL A   1      32.576  20.871  23.734  1.00  0.00     0.265 C 
ATOM     15  C   UNL A   1      33.866  21.021  25.830  1.00  0.00     0.265 C 
ATOM     16  O   UNL A   1      32.006  20.319  22.794  1.00  0.00    -0.268 OA
ATOM     17  C   UNL A   1      32.403  22.350  23.877  1.00  0.00     0.049 C 
ATOM     18  C   UNL A   1      34.113  22.463  25.589  1.00  0.00     0.048 A 
ATOM     19  O   UNL A   1      34.194  20.614  26.943  1.00  0.00    -0.268 OA
ATOM     20  C   UNL A   1      33.484  23.098  24.527  1.00  0.00    -0.000 A 
ATOM     21  C   UNL A   1      34.996  23.176  26.417  1.00  0.00     0.014 A 
ATOM     22  C   UNL A   1      33.865  24.408  24.201  1.00  0.00     0.010 A 
ATOM     23  C   UNL A   1      35.284  24.514  26.150  1.00  0.00     0.001 A 
ATOM     24  C   UNL A   1      34.739  25.122  25.025  1.00  0.00     0.001 A 
BRANCH  13  25
ATOM     25  C   UNL A   1      33.506  18.805  24.746  1.00  0.00     0.053 A 
ATOM     26  C   UNL A   1      31.717  15.692  26.111  1.00  0.00     0.044 C 
ATOM     27  C   UNL A   1      32.717  16.548  25.392  1.00  0.00    -0.049 A 
ATOM     28  C   UNL A   1      33.786  15.963  24.718  1.00  0.00     0.003 A 
ATOM     29  C   UNL A   1      32.578  17.949  25.376  1.00  0.00     0.030 A 
ATOM     30  C   UNL A   1      34.706  16.770  24.064  1.00  0.00     0.002 A 
ATOM     31  C   UNL A   1      34.569  18.165  24.086  1.00  0.00     0.027 A 
ENDBRANCH  13  25
ENDBRANCH   7  12
ENDBRANCH   4   6
ENDBRANCH   3   4
ENDBRANCH   2   3
ENDBRANCH   1   2
BRANCH   1  32
ATOM     32  O   UNL A   1      34.360  29.796  27.805  1.00  0.00    -0.458 OA
BRANCH  32  33
ATOM     33  C   UNL A   1      35.185  30.606  28.512  1.00  0.00     0.338 C 
ATOM     34  O   UNL A   1      34.774  31.626  29.062  1.00  0.00    -0.246 OA
BRANCH  33  35
ATOM     35  C   UNL A   1      36.569  30.126  28.686  1.00  0.00     0.060 A 
ATOM     36  C   UNL A   1      36.926  29.492  29.891  1.00  0.00     0.016 A 
ATOM     37  C   UNL A   1      37.424  30.111  27.592  1.00  0.00     0.016 A 
ATOM     38  C   UNL A   1      38.084  28.725  29.955  1.00  0.00     0.010 A 
ATOM     39  C   UNL A   1      38.472  29.230  27.598  1.00  0.00     0.010 A 
ATOM     40  C   UNL A   1      38.827  28.577  28.787  1.00  0.00    -0.014 A 
BRANCH  40  41
ATOM     41  C   UNL A   1      40.170  28.033  28.746  1.00  0.00     0.031 A 
ATOM     42  C   UNL A   1      40.430  26.605  28.474  1.00  0.00     0.074 A 
ATOM     43  C   UNL A   1      41.101  29.013  28.831  1.00  0.00     0.049 A 
ATOM     44  N   UNL A   1      41.441  25.948  28.925  1.00  0.00    -0.248 NA
ATOM     45  C   UNL A   1      39.532  25.755  27.689  1.00  0.00     0.031 C 
ATOM     46  C   UNL A   1      42.519  28.998  28.539  1.00  0.00     0.029 A 
ATOM     47  N   UNL A   1      40.914  30.325  29.283  1.00  0.00    -0.354 N 
ATOM     48  C   UNL A   1      41.536  24.793  28.165  1.00  0.00     0.074 A 
ATOM     49  C   UNL A   1      40.234  24.617  27.580  1.00  0.00     0.031 C 
ATOM     50  C   UNL A   1      43.087  30.059  29.150  1.00  0.00     0.029 A 
ATOM     51  C   UNL A   1      42.057  30.680  29.976  1.00  0.00     0.049 A 
ATOM     52  H   UNL A   1      40.119  30.888  29.136  1.00  0.00     0.167 HD
ATOM     53  C   UNL A   1      42.773  24.281  27.893  1.00  0.00     0.034 A 
ATOM     54  C   UNL A   1      42.067  30.760  31.344  1.00  0.00     0.034 A 
ATOM     55  C   UNL A   1      43.787  25.160  28.463  1.00  0.00     0.049 A 
ATOM     56  C   UNL A   1      43.030  29.732  31.895  1.00  0.00     0.074 A 
ATOM     57  C   UNL A   1      44.544  26.165  27.886  1.00  0.00     0.029 A 
ATOM     58  N   UNL A   1      43.877  25.315  29.833  1.00  0.00    -0.354 N 
ATOM     59  N   UNL A   1      43.211  28.547  31.373  1.00  0.00    -0.248 NA
ATOM     60  C   UNL A   1      43.946  30.018  32.992  1.00  0.00     0.031 C 
ATOM     61  C   UNL A   1      45.051  26.971  28.935  1.00  0.00     0.029 A 
ATOM     62  C   UNL A   1      44.598  26.450  30.134  1.00  0.00     0.049 A 
ATOM     63  H   UNL A   1      43.483  24.705  30.498  1.00  0.00     0.167 HD
ATOM     64  C   UNL A   1      44.315  27.971  31.952  1.00  0.00     0.074 A 
ATOM     65  C   UNL A   1      44.715  28.916  32.982  1.00  0.00     0.031 C 
ATOM     66  C   UNL A   1      44.867  26.800  31.512  1.00  0.00     0.034 A 
BRANCH  53  67
ATOM     67  C   UNL A   1      43.147  23.253  26.845  1.00  0.00     0.023 A 
ATOM     68  C   UNL A   1      42.575  21.962  26.954  1.00  0.00     0.031 A 
ATOM     69  C   UNL A   1      44.012  23.430  25.754  1.00  0.00     0.131 A 
ATOM     70  C   UNL A   1      42.921  20.909  26.093  1.00  0.00     0.055 A 
ATOM     71  C   UNL A   1      44.364  22.376  24.888  1.00  0.00     0.041 A 
ATOM     72  F   UNL A   1      44.526  24.630  25.451  1.00  0.00    -0.206 F 
ATOM     73  C   UNL A   1      43.828  21.105  25.062  1.00  0.00     0.022 A 
BRANCH  70  74
ATOM     74  S   UNL A   1      42.167  19.282  26.372  1.00  0.00     0.124 S 
ATOM     75  O   UNL A   1      40.791  19.502  25.937  1.00  0.00    -0.237 OA
ATOM     76  O   UNL A   1      42.980  18.411  25.531  1.00  0.00    -0.237 OA
ATOM     77  O   UNL A   1      42.332  19.076  27.811  1.00  0.00    -0.744 OA
ENDBRANCH  70  74
ENDBRANCH  53  67
BRANCH  54  78
ATOM     78  C   UNL A   1      40.757  31.144  31.969  1.00  0.00     0.023 A 
ATOM     79  C   UNL A   1      40.416  30.536  33.198  1.00  0.00     0.031 A 
ATOM     80  C   UNL A   1      40.033  32.286  31.597  1.00  0.00     0.131 A 
ATOM     81  C   UNL A   1      39.519  31.159  34.083  1.00  0.00     0.055 A 
ATOM     82  C   UNL A   1      39.085  32.869  32.457  1.00  0.00     0.041 A 
ATOM     83  F   UNL A   1      40.294  32.922  30.447  1.00  0.00    -0.206 F 
ATOM     84  C   UNL A   1      38.854  32.330  33.723  1.00  0.00     0.022 A 
BRANCH  81  85
ATOM     85  S   UNL A   1      39.459  30.560  35.800  1.00  0.00     0.124 S 
ATOM     86  O   UNL A   1      40.132  31.633  36.523  1.00  0.00    -0.237 OA
ATOM     87  O   UNL A   1      38.020  30.438  36.027  1.00  0.00    -0.237 OA
ATOM     88  O   UNL A   1      40.175  29.289  35.746  1.00  0.00    -0.744 OA
ENDBRANCH  81  85
ENDBRANCH  54  78
BRANCH  66  89
ATOM     89  C   UNL A   1      45.828  25.931  32.284  1.00  0.00     0.023 A 
ATOM     90  C   UNL A   1      47.207  26.008  32.097  1.00  0.00     0.031 A 
ATOM     91  C   UNL A   1      45.397  25.059  33.318  1.00  0.00     0.131 A 
ATOM     92  C   UNL A   1      48.081  25.168  32.797  1.00  0.00     0.055 A 
ATOM     93  C   UNL A   1      46.278  24.308  34.096  1.00  0.00     0.041 A 
ATOM     94  F   UNL A   1      44.104  24.907  33.637  1.00  0.00    -0.206 F 
ATOM     95  C   UNL A   1      47.633  24.336  33.818  1.00  0.00     0.022 A 
BRANCH  92  96
ATOM     96  S   UNL A   1      49.798  25.120  32.240  1.00  0.00     0.124 S 
ATOM     97  O   UNL A   1      49.665  25.504  30.837  1.00  0.00    -0.237 OA
ATOM     98  O   UNL A   1      50.435  26.108  33.106  1.00  0.00    -0.237 OA
ATOM     99  O   UNL A   1      50.196  23.734  32.473  1.00  0.00    -0.744 OA
ENDBRANCH  92  96
ENDBRANCH  66  89
ENDBRANCH  40  41
ENDBRANCH  33  35
ENDBRANCH  32  33
ENDBRANCH   1  32
TORSDOF 16
ENDMDL
