MODEL 1
REMARK VINA RESULT:     -12.3      0.000      0.000
REMARK SMILES Cc1ccc(S(=O)(=O)N2CCN(C(=O)[C@H]3CCCC[C@@H]3C(=O)OCCOC(=O)c3ccc(-c4c5nc(c(-c6cc(S(=O)(=O)[O-])ccc6F)c6ccc([nH]6)c(-c6cc(S(=O)(=O)[O-])ccc6F)c6nc(c(-c7cc(S(=O)(=O)[O-])ccc7F)c7ccc4[nH]7)C=C6)C=C5)cc3)CC2)cc1C
REMARK SMILES IDX 24 1 23 2 21 3 22 4 20 5 15 6 16 7 17 8 19 9 18 10 13 11
REMARK SMILES IDX 9 12 10 13 93 14 11 15 92 16 12 17 14 18 6 19 7 20 8 21 5 22
REMARK SMILES IDX 1 23 2 24 3 25 95 26 4 27 94 28 96 29 25 30 26 31 27 32
REMARK SMILES IDX 28 33 29 34 30 35 91 36 31 37 90 38 32 39 33 40 34 41 84 42
REMARK SMILES IDX 35 43 89 44 83 45 85 46 36 47 88 48 82 49 81 50 37 52 69 53
REMARK SMILES IDX 49 54 68 55 50 56 53 57 67 58 86 59 51 60 52 61 66 63 87 64
REMARK SMILES IDX 54 65 38 66 39 67 47 68 40 69 46 70 48 71 45 72 41 73 42 74
REMARK SMILES IDX 43 75 44 76 70 77 71 78 79 79 72 80 78 81 80 82 77 83 73 84
REMARK SMILES IDX 74 85 75 86 76 87 55 88 56 89 64 90 57 91 63 92 65 93 62 94
REMARK SMILES IDX 58 95 59 96 60 97 61 98
REMARK H PARENT 85 51 53 62
REMARK Flexibility Score: inf
ROOT
ATOM      1  C   UNL A   1      42.021  19.339  26.026  1.00  0.00     0.274 C 
ENDROOT
BRANCH   1   2
ATOM      2  O   UNL A   1      42.895  20.483  25.946  1.00  0.00    -0.462 OA
BRANCH   2   3
ATOM      3  C   UNL A   1      44.155  20.232  25.486  1.00  0.00     0.309 C 
ATOM      4  O   UNL A   1      44.499  19.191  24.942  1.00  0.00    -0.252 OA
BRANCH   3   5
ATOM      5  C   UNL A   1      45.087  21.405  25.765  1.00  0.00     0.111 C 
ATOM      6  C   UNL A   1      44.375  22.538  26.562  1.00  0.00     0.093 C 
ATOM      7  C   UNL A   1      43.390  23.333  25.688  1.00  0.00     0.014 C 
ATOM      8  C   UNL A   1      43.996  23.791  24.370  1.00  0.00     0.001 C 
ATOM      9  C   UNL A   1      45.667  21.900  24.434  1.00  0.00     0.016 C 
ATOM     10  C   UNL A   1      44.632  22.646  23.597  1.00  0.00     0.001 C 
BRANCH   6  11
ATOM     11  C   UNL A   1      45.393  23.468  27.237  1.00  0.00     0.226 C 
ATOM     12  N   UNL A   1      44.786  24.807  31.216  1.00  0.00    -0.194 NA
ATOM     13  C   UNL A   1      45.531  25.587  30.216  1.00  0.00     0.124 C 
ATOM     14  C   UNL A   1      43.847  23.795  30.687  1.00  0.00     0.124 C 
ATOM     15  C   UNL A   1      46.218  24.660  29.213  1.00  0.00     0.136 C 
ATOM     16  C   UNL A   1      44.462  22.950  29.552  1.00  0.00     0.136 C 
ATOM     17  N   UNL A   1      45.269  23.723  28.595  1.00  0.00    -0.340 N 
ATOM     18  O   UNL A   1      46.290  23.995  26.573  1.00  0.00    -0.275 OA
BRANCH  12  19
ATOM     19  S   UNL A   1      45.107  24.956  32.859  1.00  0.00     0.243 S 
ATOM     20  O   UNL A   1      46.425  25.509  33.022  1.00  0.00    -0.207 OA
ATOM     21  O   UNL A   1      44.737  23.686  33.464  1.00  0.00    -0.207 OA
BRANCH  19  22
ATOM     22  C   UNL A   1      43.945  26.161  33.457  1.00  0.00     0.082 A 
ATOM     23  C   UNL A   1      41.265  29.206  34.930  1.00  0.00     0.044 C 
ATOM     24  C   UNL A   1      42.186  28.150  34.376  1.00  0.00    -0.048 A 
ATOM     25  C   UNL A   1      42.802  27.267  35.273  1.00  0.00     0.005 A 
ATOM     26  C   UNL A   1      42.415  27.998  32.994  1.00  0.00    -0.047 A 
ATOM     27  C   UNL A   1      43.652  26.264  34.812  1.00  0.00     0.022 A 
ATOM     28  C   UNL A   1      43.323  27.019  32.548  1.00  0.00     0.025 A 
ATOM     29  C   UNL A   1      41.685  28.808  31.957  1.00  0.00     0.044 C 
ENDBRANCH  19  22
ENDBRANCH  12  19
ENDBRANCH   6  11
ENDBRANCH   3   5
ENDBRANCH   2   3
ENDBRANCH   1   2
BRANCH   1  30
ATOM     30  C   UNL A   1      40.560  19.760  26.172  1.00  0.00     0.275 C 
BRANCH  30  31
ATOM     31  O   UNL A   1      40.481  20.996  26.901  1.00  0.00    -0.458 OA
BRANCH  31  32
ATOM     32  C   UNL A   1      39.539  21.875  26.482  1.00  0.00     0.338 C 
ATOM     33  O   UNL A   1      38.505  21.627  25.886  1.00  0.00    -0.246 OA
BRANCH  32  34
ATOM     34  C   UNL A   1      39.935  23.229  26.901  1.00  0.00     0.060 A 
ATOM     35  C   UNL A   1      39.652  24.298  26.055  1.00  0.00     0.016 A 
ATOM     36  C   UNL A   1      40.656  23.442  28.071  1.00  0.00     0.016 A 
ATOM     37  C   UNL A   1      40.117  25.576  26.347  1.00  0.00     0.010 A 
ATOM     38  C   UNL A   1      41.051  24.745  28.407  1.00  0.00     0.010 A 
ATOM     39  C   UNL A   1      40.797  25.828  27.542  1.00  0.00    -0.014 A 
BRANCH  39  40
ATOM     40  C   UNL A   1      41.253  27.209  27.872  1.00  0.00     0.031 A 
ATOM     41  C   UNL A   1      42.700  27.585  27.706  1.00  0.00     0.074 A 
ATOM     42  C   UNL A   1      40.379  28.136  28.319  1.00  0.00     0.049 A 
ATOM     43  N   UNL A   1      43.344  28.630  28.156  1.00  0.00    -0.248 NA
ATOM     44  C   UNL A   1      43.533  26.645  26.945  1.00  0.00     0.031 C 
ATOM     45  C   UNL A   1      38.936  27.935  28.472  1.00  0.00     0.029 A 
ATOM     46  N   UNL A   1      40.576  29.429  28.741  1.00  0.00    -0.354 N 
ATOM     47  C   UNL A   1      44.673  28.448  27.788  1.00  0.00     0.074 A 
ATOM     48  C   UNL A   1      44.736  27.183  27.080  1.00  0.00     0.031 C 
ATOM     49  C   UNL A   1      38.380  29.062  28.941  1.00  0.00     0.029 A 
ATOM     50  C   UNL A   1      39.437  30.023  29.235  1.00  0.00     0.049 A 
ATOM     51  H   UNL A   1      41.448  29.885  28.695  1.00  0.00     0.167 HD
ATOM     52  C   UNL A   1      45.738  29.255  28.029  1.00  0.00     0.034 A 
ATOM     53  C   UNL A   1      39.261  31.166  29.929  1.00  0.00     0.034 A 
ATOM     54  C   UNL A   1      45.643  30.528  28.703  1.00  0.00     0.049 A 
ATOM     55  C   UNL A   1      40.462  32.007  30.263  1.00  0.00     0.074 A 
ATOM     56  C   UNL A   1      46.646  31.449  28.954  1.00  0.00     0.029 A 
ATOM     57  N   UNL A   1      44.476  31.063  29.236  1.00  0.00    -0.354 N 
ATOM     58  N   UNL A   1      41.723  31.798  29.964  1.00  0.00    -0.248 NA
ATOM     59  C   UNL A   1      40.220  33.223  31.050  1.00  0.00     0.031 C 
ATOM     60  C   UNL A   1      46.103  32.499  29.703  1.00  0.00     0.029 A 
ATOM     61  C   UNL A   1      44.745  32.273  29.858  1.00  0.00     0.049 A 
ATOM     62  H   UNL A   1      43.587  30.643  29.179  1.00  0.00     0.167 HD
ATOM     63  C   UNL A   1      42.428  32.857  30.530  1.00  0.00     0.074 A 
ATOM     64  C   UNL A   1      41.446  33.714  31.168  1.00  0.00     0.031 C 
ATOM     65  C   UNL A   1      43.764  33.097  30.527  1.00  0.00     0.034 A 
BRANCH  52  66
ATOM     66  C   UNL A   1      47.100  28.747  27.618  1.00  0.00     0.023 A 
ATOM     67  C   UNL A   1      47.468  28.622  26.269  1.00  0.00     0.031 A 
ATOM     68  C   UNL A   1      48.025  28.328  28.590  1.00  0.00     0.131 A 
ATOM     69  C   UNL A   1      48.681  28.007  25.925  1.00  0.00     0.055 A 
ATOM     70  C   UNL A   1      49.269  27.795  28.243  1.00  0.00     0.041 A 
ATOM     71  F   UNL A   1      47.726  28.406  29.896  1.00  0.00    -0.206 F 
ATOM     72  C   UNL A   1      49.595  27.613  26.903  1.00  0.00     0.022 A 
BRANCH  69  73
ATOM     73  S   UNL A   1      48.957  27.570  24.186  1.00  0.00     0.124 S 
ATOM     74  O   UNL A   1      47.785  28.164  23.543  1.00  0.00    -0.237 OA
ATOM     75  O   UNL A   1      50.231  28.214  23.897  1.00  0.00    -0.237 OA
ATOM     76  O   UNL A   1      48.979  26.109  24.198  1.00  0.00    -0.744 OA
ENDBRANCH  69  73
ENDBRANCH  52  66
BRANCH  53  77
ATOM     77  C   UNL A   1      37.912  31.500  30.470  1.00  0.00     0.023 A 
ATOM     78  C   UNL A   1      36.979  32.236  29.726  1.00  0.00     0.031 A 
ATOM     79  C   UNL A   1      37.539  31.069  31.759  1.00  0.00     0.131 A 
ATOM     80  C   UNL A   1      35.722  32.528  30.281  1.00  0.00     0.055 A 
ATOM     81  C   UNL A   1      36.271  31.318  32.284  1.00  0.00     0.041 A 
ATOM     82  F   UNL A   1      38.396  30.364  32.514  1.00  0.00    -0.206 F 
ATOM     83  C   UNL A   1      35.355  32.058  31.545  1.00  0.00     0.022 A 
BRANCH  80  84
ATOM     84  S   UNL A   1      34.573  33.575  29.344  1.00  0.00     0.124 S 
ATOM     85  O   UNL A   1      33.701  34.077  30.400  1.00  0.00    -0.237 OA
ATOM     86  O   UNL A   1      35.475  34.546  28.736  1.00  0.00    -0.237 OA
ATOM     87  O   UNL A   1      33.948  32.641  28.409  1.00  0.00    -0.744 OA
ENDBRANCH  80  84
ENDBRANCH  53  77
BRANCH  65  88
ATOM     88  C   UNL A   1      44.233  34.344  31.233  1.00  0.00     0.023 A 
ATOM     89  C   UNL A   1      44.233  35.594  30.591  1.00  0.00     0.031 A 
ATOM     90  C   UNL A   1      44.693  34.279  32.560  1.00  0.00     0.131 A 
ATOM     91  C   UNL A   1      44.727  36.724  31.260  1.00  0.00     0.055 A 
ATOM     92  C   UNL A   1      45.133  35.416  33.240  1.00  0.00     0.041 A 
ATOM     93  F   UNL A   1      44.717  33.110  33.219  1.00  0.00    -0.206 F 
ATOM     94  C   UNL A   1      45.161  36.645  32.587  1.00  0.00     0.022 A 
BRANCH  91  95
ATOM     95  S   UNL A   1      44.862  38.288  30.353  1.00  0.00     0.124 S 
ATOM     96  O   UNL A   1      46.259  38.273  29.931  1.00  0.00    -0.237 OA
ATOM     97  O   UNL A   1      43.872  38.123  29.293  1.00  0.00    -0.237 OA
ATOM     98  O   UNL A   1      44.529  39.297  31.357  1.00  0.00    -0.744 OA
ENDBRANCH  91  95
ENDBRANCH  65  88
ENDBRANCH  39  40
ENDBRANCH  32  34
ENDBRANCH  31  32
ENDBRANCH  30  31
ENDBRANCH   1  30
TORSDOF 17
ENDMDL
MODEL 2
REMARK VINA RESULT:     -12.3      4.417     10.691
REMARK SMILES Cc1ccc(S(=O)(=O)N2CCN(C(=O)[C@H]3CCCC[C@@H]3C(=O)OCCOC(=O)c3ccc(-c4c5nc(c(-c6cc(S(=O)(=O)[O-])ccc6F)c6ccc([nH]6)c(-c6cc(S(=O)(=O)[O-])ccc6F)c6nc(c(-c7cc(S(=O)(=O)[O-])ccc7F)c7ccc4[nH]7)C=C6)C=C5)cc3)CC2)cc1C
REMARK SMILES IDX 24 1 23 2 21 3 22 4 20 5 15 6 16 7 17 8 19 9 18 10 13 11
REMARK SMILES IDX 9 12 10 13 93 14 11 15 92 16 12 17 14 18 6 19 7 20 8 21 5 22
REMARK SMILES IDX 1 23 2 24 3 25 95 26 4 27 94 28 96 29 25 30 26 31 27 32
REMARK SMILES IDX 28 33 29 34 30 35 91 36 31 37 90 38 32 39 33 40 34 41 84 42
REMARK SMILES IDX 35 43 89 44 83 45 85 46 36 47 88 48 82 49 81 50 37 52 69 53
REMARK SMILES IDX 49 54 68 55 50 56 53 57 67 58 86 59 51 60 52 61 66 63 87 64
REMARK SMILES IDX 54 65 38 66 39 67 47 68 40 69 46 70 48 71 45 72 41 73 42 74
REMARK SMILES IDX 43 75 44 76 70 77 71 78 79 79 72 80 78 81 80 82 77 83 73 84
REMARK SMILES IDX 74 85 75 86 76 87 55 88 56 89 64 90 57 91 63 92 65 93 62 94
REMARK SMILES IDX 58 95 59 96 60 97 61 98
REMARK H PARENT 85 51 53 62
REMARK Flexibility Score: inf
ROOT
ATOM      1  C   UNL A   1      35.865  20.732  24.900  1.00  0.00     0.274 C 
ENDROOT
BRANCH   1   2
ATOM      2  O   UNL A   1      35.528  22.131  24.991  1.00  0.00    -0.462 OA
BRANCH   2   3
ATOM      3  C   UNL A   1      35.031  22.694  23.852  1.00  0.00     0.309 C 
ATOM      4  O   UNL A   1      35.658  22.816  22.809  1.00  0.00    -0.252 OA
BRANCH   3   5
ATOM      5  C   UNL A   1      33.600  23.179  24.057  1.00  0.00     0.111 C 
ATOM      6  C   UNL A   1      33.157  23.073  25.546  1.00  0.00     0.093 C 
ATOM      7  C   UNL A   1      32.884  21.620  25.969  1.00  0.00     0.014 C 
ATOM      8  C   UNL A   1      31.979  20.874  24.999  1.00  0.00     0.001 C 
ATOM      9  C   UNL A   1      32.676  22.399  23.113  1.00  0.00     0.016 C 
ATOM     10  C   UNL A   1      32.478  20.955  23.564  1.00  0.00     0.001 C 
BRANCH   6  11
ATOM     11  C   UNL A   1      31.943  23.970  25.831  1.00  0.00     0.226 C 
ATOM     12  N   UNL A   1      32.425  28.153  26.343  1.00  0.00    -0.194 NA
ATOM     13  C   UNL A   1      31.344  27.389  26.984  1.00  0.00     0.124 C 
ATOM     14  C   UNL A   1      33.610  27.378  25.922  1.00  0.00     0.124 C 
ATOM     15  C   UNL A   1      30.948  26.189  26.123  1.00  0.00     0.136 C 
ATOM     16  C   UNL A   1      33.237  26.071  25.191  1.00  0.00     0.136 C 
ATOM     17  N   UNL A   1      32.106  25.347  25.793  1.00  0.00    -0.340 N 
ATOM     18  O   UNL A   1      30.851  23.468  26.109  1.00  0.00    -0.275 OA
BRANCH  12  19
ATOM     19  S   UNL A   1      32.245  29.782  25.974  1.00  0.00     0.243 S 
ATOM     20  O   UNL A   1      33.493  30.277  25.456  1.00  0.00    -0.207 OA
ATOM     21  O   UNL A   1      31.607  30.395  27.128  1.00  0.00    -0.207 OA
BRANCH  19  22
ATOM     22  C   UNL A   1      31.059  29.836  24.650  1.00  0.00     0.082 A 
ATOM     23  C   UNL A   1      28.064  29.868  21.544  1.00  0.00     0.044 C 
ATOM     24  C   UNL A   1      29.100  29.898  22.637  1.00  0.00    -0.048 A 
ATOM     25  C   UNL A   1      30.042  28.862  22.690  1.00  0.00     0.005 A 
ATOM     26  C   UNL A   1      29.175  30.945  23.577  1.00  0.00    -0.047 A 
ATOM     27  C   UNL A   1      31.029  28.848  23.672  1.00  0.00     0.022 A 
ATOM     28  C   UNL A   1      30.141  30.887  24.599  1.00  0.00     0.025 A 
ATOM     29  C   UNL A   1      28.297  32.164  23.505  1.00  0.00     0.044 C 
ENDBRANCH  19  22
ENDBRANCH  12  19
ENDBRANCH   6  11
ENDBRANCH   3   5
ENDBRANCH   2   3
ENDBRANCH   1   2
BRANCH   1  30
ATOM     30  C   UNL A   1      37.375  20.515  24.970  1.00  0.00     0.275 C 
BRANCH  30  31
ATOM     31  O   UNL A   1      37.978  21.541  25.774  1.00  0.00    -0.458 OA
BRANCH  31  32
ATOM     32  C   UNL A   1      39.212  21.268  26.261  1.00  0.00     0.338 C 
ATOM     33  O   UNL A   1      39.749  20.178  26.355  1.00  0.00    -0.246 OA
BRANCH  32  34
ATOM     34  C   UNL A   1      39.862  22.533  26.640  1.00  0.00     0.060 A 
ATOM     35  C   UNL A   1      40.887  22.500  27.581  1.00  0.00     0.016 A 
ATOM     36  C   UNL A   1      39.414  23.753  26.146  1.00  0.00     0.016 A 
ATOM     37  C   UNL A   1      41.445  23.679  28.065  1.00  0.00     0.010 A 
ATOM     38  C   UNL A   1      40.034  24.937  26.570  1.00  0.00     0.010 A 
ATOM     39  C   UNL A   1      41.051  24.915  27.546  1.00  0.00    -0.014 A 
BRANCH  39  40
ATOM     40  C   UNL A   1      41.685  26.174  28.034  1.00  0.00     0.031 A 
ATOM     41  C   UNL A   1      40.869  27.182  28.796  1.00  0.00     0.074 A 
ATOM     42  C   UNL A   1      42.991  26.423  27.803  1.00  0.00     0.049 A 
ATOM     43  N   UNL A   1      41.149  28.425  29.092  1.00  0.00    -0.248 NA
ATOM     44  C   UNL A   1      39.554  26.731  29.271  1.00  0.00     0.031 C 
ATOM     45  C   UNL A   1      43.922  25.512  27.132  1.00  0.00     0.029 A 
ATOM     46  N   UNL A   1      43.762  27.523  28.094  1.00  0.00    -0.354 N 
ATOM     47  C   UNL A   1      40.022  28.928  29.734  1.00  0.00     0.074 A 
ATOM     48  C   UNL A   1      39.054  27.849  29.777  1.00  0.00     0.031 C 
ATOM     49  C   UNL A   1      45.134  26.083  27.072  1.00  0.00     0.029 A 
ATOM     50  C   UNL A   1      45.041  27.442  27.590  1.00  0.00     0.049 A 
ATOM     51  H   UNL A   1      43.432  28.293  28.611  1.00  0.00     0.167 HD
ATOM     52  C   UNL A   1      39.815  30.174  30.230  1.00  0.00     0.034 A 
ATOM     53  C   UNL A   1      46.008  28.375  27.470  1.00  0.00     0.034 A 
ATOM     54  C   UNL A   1      40.809  31.221  30.210  1.00  0.00     0.049 A 
ATOM     55  C   UNL A   1      45.733  29.775  27.946  1.00  0.00     0.074 A 
ATOM     56  C   UNL A   1      40.725  32.502  30.729  1.00  0.00     0.029 A 
ATOM     57  N   UNL A   1      42.071  31.112  29.639  1.00  0.00    -0.354 N 
ATOM     58  N   UNL A   1      44.644  30.259  28.497  1.00  0.00    -0.248 NA
ATOM     59  C   UNL A   1      46.806  30.761  27.758  1.00  0.00     0.031 C 
ATOM     60  C   UNL A   1      41.902  33.188  30.405  1.00  0.00     0.029 A 
ATOM     61  C   UNL A   1      42.753  32.314  29.747  1.00  0.00     0.049 A 
ATOM     62  H   UNL A   1      42.430  30.296  29.218  1.00  0.00     0.167 HD
ATOM     63  C   UNL A   1      44.900  31.609  28.721  1.00  0.00     0.074 A 
ATOM     64  C   UNL A   1      46.255  31.855  28.265  1.00  0.00     0.031 C 
ATOM     65  C   UNL A   1      44.088  32.559  29.251  1.00  0.00     0.034 A 
BRANCH  52  66
ATOM     66  C   UNL A   1      38.440  30.485  30.772  1.00  0.00     0.023 A 
ATOM     67  C   UNL A   1      37.450  31.088  29.980  1.00  0.00     0.031 A 
ATOM     68  C   UNL A   1      38.130  30.223  32.118  1.00  0.00     0.131 A 
ATOM     69  C   UNL A   1      36.239  31.498  30.558  1.00  0.00     0.055 A 
ATOM     70  C   UNL A   1      36.889  30.554  32.668  1.00  0.00     0.041 A 
ATOM     71  F   UNL A   1      39.039  29.662  32.932  1.00  0.00    -0.206 F 
ATOM     72  C   UNL A   1      35.942  31.214  31.892  1.00  0.00     0.022 A 
BRANCH  69  73
ATOM     73  S   UNL A   1      35.141  32.563  29.583  1.00  0.00     0.124 S 
ATOM     74  O   UNL A   1      34.114  32.906  30.565  1.00  0.00    -0.237 OA
ATOM     75  O   UNL A   1      36.027  33.650  29.187  1.00  0.00    -0.237 OA
ATOM     76  O   UNL A   1      34.693  31.691  28.499  1.00  0.00    -0.744 OA
ENDBRANCH  69  73
ENDBRANCH  52  66
BRANCH  53  77
ATOM     77  C   UNL A   1      47.267  28.042  26.744  1.00  0.00     0.023 A 
ATOM     78  C   UNL A   1      47.325  28.005  25.343  1.00  0.00     0.031 A 
ATOM     79  C   UNL A   1      48.447  27.762  27.462  1.00  0.00     0.131 A 
ATOM     80  C   UNL A   1      48.534  27.683  24.705  1.00  0.00     0.055 A 
ATOM     81  C   UNL A   1      49.657  27.494  26.822  1.00  0.00     0.041 A 
ATOM     82  F   UNL A   1      48.445  27.782  28.804  1.00  0.00    -0.206 F 
ATOM     83  C   UNL A   1      49.704  27.448  25.434  1.00  0.00     0.022 A 
BRANCH  80  84
ATOM     84  S   UNL A   1      48.558  27.532  22.897  1.00  0.00     0.124 S 
ATOM     85  O   UNL A   1      49.826  28.170  22.562  1.00  0.00    -0.237 OA
ATOM     86  O   UNL A   1      48.495  26.086  22.712  1.00  0.00    -0.237 OA
ATOM     87  O   UNL A   1      47.362  28.261  22.479  1.00  0.00    -0.744 OA
ENDBRANCH  80  84
ENDBRANCH  53  77
BRANCH  65  88
ATOM     88  C   UNL A   1      44.656  33.951  29.369  1.00  0.00     0.023 A 
ATOM     89  C   UNL A   1      45.396  34.347  30.496  1.00  0.00     0.031 A 
ATOM     90  C   UNL A   1      44.446  34.893  28.347  1.00  0.00     0.131 A 
ATOM     91  C   UNL A   1      45.864  35.667  30.596  1.00  0.00     0.055 A 
ATOM     92  C   UNL A   1      44.959  36.188  28.427  1.00  0.00     0.041 A 
ATOM     93  F   UNL A   1      43.743  34.567  27.250  1.00  0.00    -0.206 F 
ATOM     94  C   UNL A   1      45.664  36.584  29.561  1.00  0.00     0.022 A 
BRANCH  91  95
ATOM     95  S   UNL A   1      46.677  36.192  32.129  1.00  0.00     0.124 S 
ATOM     96  O   UNL A   1      46.432  37.631  32.123  1.00  0.00    -0.237 OA
ATOM     97  O   UNL A   1      45.960  35.426  33.144  1.00  0.00    -0.237 OA
ATOM     98  O   UNL A   1      48.071  35.800  31.930  1.00  0.00    -0.744 OA
ENDBRANCH  91  95
ENDBRANCH  65  88
ENDBRANCH  39  40
ENDBRANCH  32  34
ENDBRANCH  31  32
ENDBRANCH  30  31
ENDBRANCH   1  30
TORSDOF 17
ENDMDL
MODEL 3
REMARK VINA RESULT:     -12.2      3.320     11.512
REMARK SMILES Cc1ccc(S(=O)(=O)N2CCN(C(=O)[C@H]3CCCC[C@@H]3C(=O)OCCOC(=O)c3ccc(-c4c5nc(c(-c6cc(S(=O)(=O)[O-])ccc6F)c6ccc([nH]6)c(-c6cc(S(=O)(=O)[O-])ccc6F)c6nc(c(-c7cc(S(=O)(=O)[O-])ccc7F)c7ccc4[nH]7)C=C6)C=C5)cc3)CC2)cc1C
REMARK SMILES IDX 24 1 23 2 21 3 22 4 20 5 15 6 16 7 17 8 19 9 18 10 13 11
REMARK SMILES IDX 9 12 10 13 93 14 11 15 92 16 12 17 14 18 6 19 7 20 8 21 5 22
REMARK SMILES IDX 1 23 2 24 3 25 95 26 4 27 94 28 96 29 25 30 26 31 27 32
REMARK SMILES IDX 28 33 29 34 30 35 91 36 31 37 90 38 32 39 33 40 34 41 84 42
REMARK SMILES IDX 35 43 89 44 83 45 85 46 36 47 88 48 82 49 81 50 37 52 69 53
REMARK SMILES IDX 49 54 68 55 50 56 53 57 67 58 86 59 51 60 52 61 66 63 87 64
REMARK SMILES IDX 54 65 38 66 39 67 47 68 40 69 46 70 48 71 45 72 41 73 42 74
REMARK SMILES IDX 43 75 44 76 70 77 71 78 79 79 72 80 78 81 80 82 77 83 73 84
REMARK SMILES IDX 74 85 75 86 76 87 55 88 56 89 64 90 57 91 63 92 65 93 62 94
REMARK SMILES IDX 58 95 59 96 60 97 61 98
REMARK H PARENT 85 51 53 62
REMARK Flexibility Score: inf
ROOT
ATOM      1  C   UNL A   1      33.265  34.285  29.379  1.00  0.00     0.274 C 
ENDROOT
BRANCH   1   2
ATOM      2  O   UNL A   1      34.390  34.754  30.149  1.00  0.00    -0.462 OA
BRANCH   2   3
ATOM      3  C   UNL A   1      34.083  35.397  31.313  1.00  0.00     0.309 C 
ATOM      4  O   UNL A   1      33.056  36.035  31.501  1.00  0.00    -0.252 OA
BRANCH   3   5
ATOM      5  C   UNL A   1      35.201  35.243  32.339  1.00  0.00     0.111 C 
ATOM      6  C   UNL A   1      36.370  34.368  31.798  1.00  0.00     0.093 C 
ATOM      7  C   UNL A   1      36.004  32.875  31.750  1.00  0.00     0.014 C 
ATOM      8  C   UNL A   1      35.399  32.365  33.049  1.00  0.00     0.001 C 
ATOM      9  C   UNL A   1      34.603  34.687  33.637  1.00  0.00     0.016 C 
ATOM     10  C   UNL A   1      34.225  33.214  33.512  1.00  0.00     0.001 C 
BRANCH   6  11
ATOM     11  C   UNL A   1      37.656  34.598  32.606  1.00  0.00     0.226 C 
ATOM     12  N   UNL A   1      41.455  33.864  30.868  1.00  0.00    -0.194 NA
ATOM     13  C   UNL A   1      41.200  33.741  32.312  1.00  0.00     0.124 C 
ATOM     14  C   UNL A   1      40.273  33.768  29.986  1.00  0.00     0.124 C 
ATOM     15  C   UNL A   1      40.099  34.709  32.748  1.00  0.00     0.136 C 
ATOM     16  C   UNL A   1      39.083  34.609  30.494  1.00  0.00     0.136 C 
ATOM     17  N   UNL A   1      38.877  34.543  31.950  1.00  0.00    -0.340 N 
ATOM     18  O   UNL A   1      37.598  34.806  33.821  1.00  0.00    -0.275 OA
BRANCH  12  19
ATOM     19  S   UNL A   1      42.981  34.248  30.279  1.00  0.00     0.243 S 
ATOM     20  O   UNL A   1      43.759  34.813  31.349  1.00  0.00    -0.207 OA
ATOM     21  O   UNL A   1      42.768  34.968  29.033  1.00  0.00    -0.207 OA
BRANCH  19  22
ATOM     22  C   UNL A   1      43.722  32.690  29.845  1.00  0.00     0.082 A 
ATOM     23  C   UNL A   1      45.460  28.936  28.618  1.00  0.00     0.044 C 
ATOM     24  C   UNL A   1      44.893  30.264  29.047  1.00  0.00    -0.048 A 
ATOM     25  C   UNL A   1      43.574  30.304  29.520  1.00  0.00     0.005 A 
ATOM     26  C   UNL A   1      45.651  31.452  29.024  1.00  0.00    -0.047 A 
ATOM     27  C   UNL A   1      43.006  31.503  29.941  1.00  0.00     0.022 A 
ATOM     28  C   UNL A   1      45.044  32.666  29.396  1.00  0.00     0.025 A 
ATOM     29  C   UNL A   1      47.112  31.474  28.668  1.00  0.00     0.044 C 
ENDBRANCH  19  22
ENDBRANCH  12  19
ENDBRANCH   6  11
ENDBRANCH   3   5
ENDBRANCH   2   3
ENDBRANCH   1   2
BRANCH   1  30
ATOM     30  C   UNL A   1      33.595  34.215  27.890  1.00  0.00     0.275 C 
BRANCH  30  31
ATOM     31  O   UNL A   1      34.740  33.371  27.686  1.00  0.00    -0.458 OA
BRANCH  31  32
ATOM     32  C   UNL A   1      34.514  32.037  27.744  1.00  0.00     0.338 C 
ATOM     33  O   UNL A   1      33.517  31.436  27.386  1.00  0.00    -0.246 OA
BRANCH  32  34
ATOM     34  C   UNL A   1      35.713  31.376  28.287  1.00  0.00     0.060 A 
ATOM     35  C   UNL A   1      35.572  30.129  28.887  1.00  0.00     0.016 A 
ATOM     36  C   UNL A   1      36.950  32.011  28.288  1.00  0.00     0.016 A 
ATOM     37  C   UNL A   1      36.649  29.523  29.526  1.00  0.00     0.010 A 
ATOM     38  C   UNL A   1      38.055  31.362  28.857  1.00  0.00     0.010 A 
ATOM     39  C   UNL A   1      37.916  30.114  29.495  1.00  0.00    -0.014 A 
BRANCH  39  40
ATOM     40  C   UNL A   1      39.078  29.438  30.142  1.00  0.00     0.031 A 
ATOM     41  C   UNL A   1      39.564  29.900  31.488  1.00  0.00     0.074 A 
ATOM     42  C   UNL A   1      39.704  28.409  29.532  1.00  0.00     0.049 A 
ATOM     43  N   UNL A   1      40.682  29.623  32.107  1.00  0.00    -0.248 NA
ATOM     44  C   UNL A   1      38.675  30.807  32.226  1.00  0.00     0.031 C 
ATOM     45  C   UNL A   1      39.308  27.814  28.254  1.00  0.00     0.029 A 
ATOM     46  N   UNL A   1      40.815  27.689  29.898  1.00  0.00    -0.354 N 
ATOM     47  C   UNL A   1      40.664  30.371  33.280  1.00  0.00     0.074 A 
ATOM     48  C   UNL A   1      39.419  31.114  33.278  1.00  0.00     0.031 C 
ATOM     49  C   UNL A   1      40.152  26.818  27.949  1.00  0.00     0.029 A 
ATOM     50  C   UNL A   1      41.216  26.780  28.945  1.00  0.00     0.049 A 
ATOM     51  H   UNL A   1      41.280  27.811  30.758  1.00  0.00     0.167 HD
ATOM     52  C   UNL A   1      41.603  30.435  34.259  1.00  0.00     0.034 A 
ATOM     53  C   UNL A   1      42.351  26.060  28.826  1.00  0.00     0.034 A 
ATOM     54  C   UNL A   1      42.818  29.655  34.257  1.00  0.00     0.049 A 
ATOM     55  C   UNL A   1      43.420  26.207  29.874  1.00  0.00     0.074 A 
ATOM     56  C   UNL A   1      43.812  29.603  35.220  1.00  0.00     0.029 A 
ATOM     57  N   UNL A   1      43.209  28.789  33.243  1.00  0.00    -0.354 N 
ATOM     58  N   UNL A   1      43.421  26.960  30.949  1.00  0.00    -0.248 NA
ATOM     59  C   UNL A   1      44.650  25.429  29.679  1.00  0.00     0.031 C 
ATOM     60  C   UNL A   1      44.835  28.769  34.753  1.00  0.00     0.029 A 
ATOM     61  C   UNL A   1      44.449  28.241  33.532  1.00  0.00     0.049 A 
ATOM     62  H   UNL A   1      42.680  28.594  32.435  1.00  0.00     0.167 HD
ATOM     63  C   UNL A   1      44.655  26.748  31.559  1.00  0.00     0.074 A 
ATOM     64  C   UNL A   1      45.359  25.779  30.742  1.00  0.00     0.031 C 
ATOM     65  C   UNL A   1      45.160  27.307  32.689  1.00  0.00     0.034 A 
BRANCH  52  66
ATOM     66  C   UNL A   1      41.377  31.431  35.372  1.00  0.00     0.023 A 
ATOM     67  C   UNL A   1      40.262  31.353  36.221  1.00  0.00     0.031 A 
ATOM     68  C   UNL A   1      42.263  32.508  35.552  1.00  0.00     0.131 A 
ATOM     69  C   UNL A   1      40.006  32.380  37.143  1.00  0.00     0.055 A 
ATOM     70  C   UNL A   1      42.050  33.482  36.531  1.00  0.00     0.041 A 
ATOM     71  F   UNL A   1      43.339  32.648  34.762  1.00  0.00    -0.206 F 
ATOM     72  C   UNL A   1      40.905  33.432  37.320  1.00  0.00     0.022 A 
BRANCH  69  73
ATOM     73  S   UNL A   1      38.393  32.404  37.972  1.00  0.00     0.124 S 
ATOM     74  O   UNL A   1      37.769  31.194  37.439  1.00  0.00    -0.237 OA
ATOM     75  O   UNL A   1      38.763  32.356  39.381  1.00  0.00    -0.237 OA
ATOM     76  O   UNL A   1      37.795  33.658  37.521  1.00  0.00    -0.744 OA
ENDBRANCH  69  73
ENDBRANCH  52  66
BRANCH  53  77
ATOM     77  C   UNL A   1      42.584  25.249  27.597  1.00  0.00     0.023 A 
ATOM     78  C   UNL A   1      42.183  23.907  27.510  1.00  0.00     0.031 A 
ATOM     79  C   UNL A   1      43.216  25.823  26.476  1.00  0.00     0.131 A 
ATOM     80  C   UNL A   1      42.427  23.183  26.332  1.00  0.00     0.055 A 
ATOM     81  C   UNL A   1      43.409  25.114  25.291  1.00  0.00     0.041 A 
ATOM     82  F   UNL A   1      43.622  27.103  26.508  1.00  0.00    -0.206 F 
ATOM     83  C   UNL A   1      43.019  23.783  25.217  1.00  0.00     0.022 A 
BRANCH  80  84
ATOM     84  S   UNL A   1      41.999  21.420  26.283  1.00  0.00     0.124 S 
ATOM     85  O   UNL A   1      42.216  21.023  27.669  1.00  0.00    -0.237 OA
ATOM     86  O   UNL A   1      40.612  21.457  25.832  1.00  0.00    -0.237 OA
ATOM     87  O   UNL A   1      42.948  20.867  25.319  1.00  0.00    -0.744 OA
ENDBRANCH  80  84
ENDBRANCH  53  77
BRANCH  65  88
ATOM     88  C   UNL A   1      46.543  26.871  33.104  1.00  0.00     0.023 A 
ATOM     89  C   UNL A   1      46.747  25.704  33.860  1.00  0.00     0.031 A 
ATOM     90  C   UNL A   1      47.666  27.636  32.746  1.00  0.00     0.131 A 
ATOM     91  C   UNL A   1      48.042  25.358  34.274  1.00  0.00     0.055 A 
ATOM     92  C   UNL A   1      48.958  27.258  33.115  1.00  0.00     0.041 A 
ATOM     93  F   UNL A   1      47.527  28.761  32.027  1.00  0.00    -0.206 F 
ATOM     94  C   UNL A   1      49.151  26.119  33.892  1.00  0.00     0.022 A 
BRANCH  91  95
ATOM     95  S   UNL A   1      48.255  23.936  35.380  1.00  0.00     0.124 S 
ATOM     96  O   UNL A   1      47.036  23.173  35.129  1.00  0.00    -0.237 OA
ATOM     97  O   UNL A   1      49.494  23.340  34.889  1.00  0.00    -0.237 OA
ATOM     98  O   UNL A   1      48.345  24.543  36.706  1.00  0.00    -0.744 OA
ENDBRANCH  91  95
ENDBRANCH  65  88
ENDBRANCH  39  40
ENDBRANCH  32  34
ENDBRANCH  31  32
ENDBRANCH  30  31
ENDBRANCH   1  30
TORSDOF 17
ENDMDL
