MODEL 1
REMARK VINA RESULT:     -11.1      0.000      0.000
REMARK SMILES O=C(OCCOC(=O)c1ccnc(Oc2cccc(C(F)(F)F)c2)c1)c1ccc(-c2c3nc(c(-c4cc(S(=O)(=O)[O-])ccc4F)c4ccc([nH]4)c(-c4cc(S(=O)(=O)[O-])ccc4F)c4nc(c(-c5cc(S(=O)(=O)[O-])ccc5F)c5ccc2[nH]5)C=C4)C=C3)cc1
REMARK SMILES IDX 4 1 3 2 2 3 1 4 26 5 27 6 88 7 28 8 87 9 29 10 30 11 31 12
REMARK SMILES IDX 81 13 32 14 86 15 80 16 82 17 33 18 85 19 79 20 78 21 34 23
REMARK SMILES IDX 66 24 46 25 65 26 47 27 50 28 64 29 83 30 48 31 49 32 63 34
REMARK SMILES IDX 84 35 51 36 35 37 36 38 44 39 37 40 43 41 45 42 42 43 38 44
REMARK SMILES IDX 39 45 40 46 41 47 67 48 68 49 76 50 69 51 75 52 77 53 74 54
REMARK SMILES IDX 70 55 71 56 72 57 73 58 52 59 53 60 61 61 54 62 60 63 62 64
REMARK SMILES IDX 59 65 55 66 56 67 57 68 58 69 5 70 6 71 7 72 8 73 9 74 10 75
REMARK SMILES IDX 25 76 11 77 13 78 12 79 14 80 15 81 16 82 24 83 17 84 19 85
REMARK SMILES IDX 18 86 20 87 21 88 22 89 23 90
REMARK H PARENT 82 22 50 33
REMARK Flexibility Score: inf
ROOT
ATOM      1  C   UNL A   1      34.273  33.057  28.223  1.00  0.00     0.275 C 
ENDROOT
BRANCH   1   2
ATOM      2  O   UNL A   1      34.238  32.005  27.252  1.00  0.00    -0.458 OA
BRANCH   2   3
ATOM      3  C   UNL A   1      34.511  30.691  27.401  1.00  0.00     0.338 C 
ATOM      4  O   UNL A   1      33.581  29.896  27.259  1.00  0.00    -0.246 OA
BRANCH   3   5
ATOM      5  C   UNL A   1      35.837  30.142  27.859  1.00  0.00     0.060 A 
ATOM      6  C   UNL A   1      37.041  30.082  27.152  1.00  0.00     0.016 A 
ATOM      7  C   UNL A   1      35.856  29.684  29.183  1.00  0.00     0.016 A 
ATOM      8  C   UNL A   1      38.229  29.659  27.762  1.00  0.00     0.010 A 
ATOM      9  C   UNL A   1      37.036  29.299  29.816  1.00  0.00     0.010 A 
ATOM     10  C   UNL A   1      38.234  29.272  29.099  1.00  0.00    -0.014 A 
BRANCH  10  11
ATOM     11  C   UNL A   1      39.421  28.630  29.698  1.00  0.00     0.031 A 
ATOM     12  C   UNL A   1      40.056  29.314  30.868  1.00  0.00     0.074 A 
ATOM     13  C   UNL A   1      39.929  27.487  29.201  1.00  0.00     0.049 A 
ATOM     14  N   UNL A   1      41.150  29.016  31.512  1.00  0.00    -0.248 NA
ATOM     15  C   UNL A   1      39.347  30.495  31.388  1.00  0.00     0.031 C 
ATOM     16  C   UNL A   1      39.330  26.696  28.131  1.00  0.00     0.029 A 
ATOM     17  N   UNL A   1      41.086  26.816  29.500  1.00  0.00    -0.354 N 
ATOM     18  C   UNL A   1      41.245  29.956  32.529  1.00  0.00     0.074 A 
ATOM     19  C   UNL A   1      40.157  30.889  32.354  1.00  0.00     0.031 C 
ATOM     20  C   UNL A   1      40.173  25.709  27.784  1.00  0.00     0.029 A 
ATOM     21  C   UNL A   1      41.368  25.800  28.617  1.00  0.00     0.049 A 
ATOM     22  H   UNL A   1      41.657  27.039  30.270  1.00  0.00     0.167 HD
ATOM     23  C   UNL A   1      42.141  30.002  33.543  1.00  0.00     0.034 A 
ATOM     24  C   UNL A   1      42.481  25.055  28.477  1.00  0.00     0.034 A 
ATOM     25  C   UNL A   1      43.241  29.081  33.649  1.00  0.00     0.049 A 
ATOM     26  C   UNL A   1      43.574  25.226  29.499  1.00  0.00     0.074 A 
ATOM     27  C   UNL A   1      44.221  29.010  34.619  1.00  0.00     0.029 A 
ATOM     28  N   UNL A   1      43.521  28.083  32.719  1.00  0.00    -0.354 N 
ATOM     29  N   UNL A   1      43.635  26.082  30.496  1.00  0.00    -0.248 NA
ATOM     30  C   UNL A   1      44.715  24.310  29.419  1.00  0.00     0.031 C 
ATOM     31  C   UNL A   1      45.141  28.029  34.229  1.00  0.00     0.029 A 
ATOM     32  C   UNL A   1      44.685  27.420  33.067  1.00  0.00     0.049 A 
ATOM     33  H   UNL A   1      42.971  27.878  31.929  1.00  0.00     0.167 HD
ATOM     34  C   UNL A   1      44.790  25.764  31.201  1.00  0.00     0.074 A 
ATOM     35  C   UNL A   1      45.408  24.655  30.496  1.00  0.00     0.031 C 
ATOM     36  C   UNL A   1      45.276  26.315  32.344  1.00  0.00     0.034 A 
BRANCH  23  37
ATOM     37  C   UNL A   1      41.969  31.123  34.541  1.00  0.00     0.023 A 
ATOM     38  C   UNL A   1      42.657  32.344  34.396  1.00  0.00     0.031 A 
ATOM     39  C   UNL A   1      41.222  30.927  35.713  1.00  0.00     0.131 A 
ATOM     40  C   UNL A   1      42.692  33.258  35.458  1.00  0.00     0.055 A 
ATOM     41  C   UNL A   1      41.176  31.889  36.723  1.00  0.00     0.041 A 
ATOM     42  F   UNL A   1      40.565  29.775  35.920  1.00  0.00    -0.206 F 
ATOM     43  C   UNL A   1      41.935  33.051  36.613  1.00  0.00     0.022 A 
BRANCH  40  44
ATOM     44  S   UNL A   1      43.912  34.602  35.400  1.00  0.00     0.124 S 
ATOM     45  O   UNL A   1      44.494  34.417  34.072  1.00  0.00    -0.237 OA
ATOM     46  O   UNL A   1      43.082  35.790  35.570  1.00  0.00    -0.237 OA
ATOM     47  O   UNL A   1      44.809  34.301  36.512  1.00  0.00    -0.744 OA
ENDBRANCH  40  44
ENDBRANCH  23  37
BRANCH  24  48
ATOM     48  C   UNL A   1      42.613  24.117  27.326  1.00  0.00     0.023 A 
ATOM     49  C   UNL A   1      42.084  22.819  27.359  1.00  0.00     0.031 A 
ATOM     50  C   UNL A   1      43.275  24.528  26.152  1.00  0.00     0.131 A 
ATOM     51  C   UNL A   1      42.242  21.970  26.249  1.00  0.00     0.055 A 
ATOM     52  C   UNL A   1      43.404  23.692  25.041  1.00  0.00     0.041 A 
ATOM     53  F   UNL A   1      43.789  25.765  26.062  1.00  0.00    -0.206 F 
ATOM     54  C   UNL A   1      42.891  22.401  25.088  1.00  0.00     0.022 A 
BRANCH  51  55
ATOM     55  S   UNL A   1      41.615  20.270  26.355  1.00  0.00     0.124 S 
ATOM     56  O   UNL A   1      42.005  19.890  27.706  1.00  0.00    -0.237 OA
ATOM     57  O   UNL A   1      40.186  20.464  26.127  1.00  0.00    -0.237 OA
ATOM     58  O   UNL A   1      42.324  19.578  25.280  1.00  0.00    -0.744 OA
ENDBRANCH  51  55
ENDBRANCH  24  48
BRANCH  36  59
ATOM     59  C   UNL A   1      46.497  25.678  32.952  1.00  0.00     0.023 A 
ATOM     60  C   UNL A   1      46.407  24.618  33.868  1.00  0.00     0.031 A 
ATOM     61  C   UNL A   1      47.775  26.110  32.552  1.00  0.00     0.131 A 
ATOM     62  C   UNL A   1      47.580  24.042  34.377  1.00  0.00     0.055 A 
ATOM     63  C   UNL A   1      48.935  25.493  33.014  1.00  0.00     0.041 A 
ATOM     64  F   UNL A   1      47.912  27.125  31.682  1.00  0.00    -0.206 F 
ATOM     65  C   UNL A   1      48.842  24.456  33.937  1.00  0.00     0.022 A 
BRANCH  62  66
ATOM     66  S   UNL A   1      47.441  22.781  35.671  1.00  0.00     0.124 S 
ATOM     67  O   UNL A   1      48.102  21.638  35.049  1.00  0.00    -0.237 OA
ATOM     68  O   UNL A   1      48.149  23.398  36.788  1.00  0.00    -0.237 OA
ATOM     69  O   UNL A   1      45.998  22.638  35.856  1.00  0.00    -0.744 OA
ENDBRANCH  62  66
ENDBRANCH  36  59
ENDBRANCH  10  11
ENDBRANCH   3   5
ENDBRANCH   2   3
ENDBRANCH   1   2
BRANCH   1  70
ATOM     70  C   UNL A   1      33.123  34.066  28.101  1.00  0.00     0.275 C 
BRANCH  70  71
ATOM     71  O   UNL A   1      32.641  34.578  29.357  1.00  0.00    -0.458 OA
BRANCH  71  72
ATOM     72  C   UNL A   1      32.871  35.899  29.597  1.00  0.00     0.338 C 
ATOM     73  O   UNL A   1      32.564  36.829  28.879  1.00  0.00    -0.246 OA
BRANCH  72  74
ATOM     74  C   UNL A   1      33.488  36.069  30.934  1.00  0.00     0.067 A 
ATOM     75  C   UNL A   1      33.277  37.235  31.662  1.00  0.00     0.036 A 
ATOM     76  C   UNL A   1      34.277  35.035  31.463  1.00  0.00     0.084 A 
ATOM     77  C   UNL A   1      33.865  37.316  32.907  1.00  0.00     0.116 A 
ATOM     78  C   UNL A   1      34.872  35.233  32.702  1.00  0.00     0.220 A 
ATOM     79  N   UNL A   1      34.648  36.350  33.427  1.00  0.00    -0.222 NA
BRANCH  78  80
ATOM     80  O   UNL A   1      35.722  34.364  33.349  1.00  0.00    -0.439 OA
BRANCH  80  81
ATOM     81  C   UNL A   1      37.045  34.325  33.008  1.00  0.00     0.130 A 
ATOM     82  C   UNL A   1      37.991  34.565  34.000  1.00  0.00     0.047 A 
ATOM     83  C   UNL A   1      37.442  34.190  31.679  1.00  0.00     0.060 A 
ATOM     84  C   UNL A   1      39.345  34.590  33.671  1.00  0.00     0.004 A 
ATOM     85  C   UNL A   1      38.803  34.138  31.344  1.00  0.00     0.059 A 
ATOM     86  C   UNL A   1      39.751  34.353  32.356  1.00  0.00     0.013 A 
BRANCH  85  87
ATOM     87  C   UNL A   1      39.259  33.857  29.931  1.00  0.00     0.416 C 
ATOM     88  F   UNL A   1      39.181  34.959  29.133  1.00  0.00    -0.166 F 
ATOM     89  F   UNL A   1      40.561  33.458  29.876  1.00  0.00    -0.166 F 
ATOM     90  F   UNL A   1      38.538  32.887  29.304  1.00  0.00    -0.166 F 
ENDBRANCH  85  87
ENDBRANCH  80  81
ENDBRANCH  78  80
ENDBRANCH  72  74
ENDBRANCH  71  72
ENDBRANCH  70  71
ENDBRANCH   1  70
TORSDOF 17
ENDMDL
MODEL 2
REMARK VINA RESULT:     -11.0      1.334      1.702
REMARK SMILES O=C(OCCOC(=O)c1ccnc(Oc2cccc(C(F)(F)F)c2)c1)c1ccc(-c2c3nc(c(-c4cc(S(=O)(=O)[O-])ccc4F)c4ccc([nH]4)c(-c4cc(S(=O)(=O)[O-])ccc4F)c4nc(c(-c5cc(S(=O)(=O)[O-])ccc5F)c5ccc2[nH]5)C=C4)C=C3)cc1
REMARK SMILES IDX 4 1 3 2 2 3 1 4 26 5 27 6 88 7 28 8 87 9 29 10 30 11 31 12
REMARK SMILES IDX 81 13 32 14 86 15 80 16 82 17 33 18 85 19 79 20 78 21 34 23
REMARK SMILES IDX 66 24 46 25 65 26 47 27 50 28 64 29 83 30 48 31 49 32 63 34
REMARK SMILES IDX 84 35 51 36 35 37 36 38 44 39 37 40 43 41 45 42 42 43 38 44
REMARK SMILES IDX 39 45 40 46 41 47 67 48 68 49 76 50 69 51 75 52 77 53 74 54
REMARK SMILES IDX 70 55 71 56 72 57 73 58 52 59 53 60 61 61 54 62 60 63 62 64
REMARK SMILES IDX 59 65 55 66 56 67 57 68 58 69 5 70 6 71 7 72 8 73 9 74 10 75
REMARK SMILES IDX 25 76 11 77 13 78 12 79 14 80 15 81 16 82 24 83 17 84 19 85
REMARK SMILES IDX 18 86 20 87 21 88 22 89 23 90
REMARK H PARENT 82 22 50 33
REMARK Flexibility Score: inf
ROOT
ATOM      1  C   UNL A   1      34.408  33.248  28.098  1.00  0.00     0.275 C 
ENDROOT
BRANCH   1   2
ATOM      2  O   UNL A   1      34.374  32.102  27.241  1.00  0.00    -0.458 OA
BRANCH   2   3
ATOM      3  C   UNL A   1      34.594  30.802  27.537  1.00  0.00     0.338 C 
ATOM      4  O   UNL A   1      33.620  30.048  27.554  1.00  0.00    -0.246 OA
BRANCH   3   5
ATOM      5  C   UNL A   1      35.921  30.241  27.978  1.00  0.00     0.060 A 
ATOM      6  C   UNL A   1      37.137  30.249  27.288  1.00  0.00     0.016 A 
ATOM      7  C   UNL A   1      35.926  29.692  29.266  1.00  0.00     0.016 A 
ATOM      8  C   UNL A   1      38.321  29.801  27.887  1.00  0.00     0.010 A 
ATOM      9  C   UNL A   1      37.102  29.280  29.891  1.00  0.00     0.010 A 
ATOM     10  C   UNL A   1      38.311  29.321  29.193  1.00  0.00    -0.014 A 
BRANCH  10  11
ATOM     11  C   UNL A   1      39.499  28.654  29.765  1.00  0.00     0.031 A 
ATOM     12  C   UNL A   1      40.167  29.320  30.927  1.00  0.00     0.074 A 
ATOM     13  C   UNL A   1      39.978  27.507  29.252  1.00  0.00     0.049 A 
ATOM     14  N   UNL A   1      41.268  29.000  31.548  1.00  0.00    -0.248 NA
ATOM     15  C   UNL A   1      39.488  30.509  31.468  1.00  0.00     0.031 C 
ATOM     16  C   UNL A   1      39.344  26.733  28.188  1.00  0.00     0.029 A 
ATOM     17  N   UNL A   1      41.128  26.814  29.525  1.00  0.00    -0.354 N 
ATOM     18  C   UNL A   1      41.399  29.932  32.569  1.00  0.00     0.074 A 
ATOM     19  C   UNL A   1      40.323  30.884  32.420  1.00  0.00     0.031 C 
ATOM     20  C   UNL A   1      40.165  25.734  27.820  1.00  0.00     0.029 A 
ATOM     21  C   UNL A   1      41.376  25.799  28.629  1.00  0.00     0.049 A 
ATOM     22  H   UNL A   1      41.718  27.022  30.285  1.00  0.00     0.167 HD
ATOM     23  C   UNL A   1      42.315  29.956  33.566  1.00  0.00     0.034 A 
ATOM     24  C   UNL A   1      42.474  25.036  28.463  1.00  0.00     0.034 A 
ATOM     25  C   UNL A   1      43.400  29.016  33.645  1.00  0.00     0.049 A 
ATOM     26  C   UNL A   1      43.588  25.183  29.466  1.00  0.00     0.074 A 
ATOM     27  C   UNL A   1      44.398  28.922  34.595  1.00  0.00     0.029 A 
ATOM     28  N   UNL A   1      43.646  28.019  32.703  1.00  0.00    -0.354 N 
ATOM     29  N   UNL A   1      43.684  26.031  30.467  1.00  0.00    -0.248 NA
ATOM     30  C   UNL A   1      44.713  24.248  29.358  1.00  0.00     0.031 C 
ATOM     31  C   UNL A   1      45.293  27.928  34.182  1.00  0.00     0.029 A 
ATOM     32  C   UNL A   1      44.805  27.335  33.025  1.00  0.00     0.049 A 
ATOM     33  H   UNL A   1      43.078  27.829  31.923  1.00  0.00     0.167 HD
ATOM     34  C   UNL A   1      44.846  25.689  31.147  1.00  0.00     0.074 A 
ATOM     35  C   UNL A   1      45.432  24.575  30.424  1.00  0.00     0.031 C 
ATOM     36  C   UNL A   1      45.363  26.225  32.284  1.00  0.00     0.034 A 
BRANCH  23  37
ATOM     37  C   UNL A   1      42.181  31.074  34.573  1.00  0.00     0.023 A 
ATOM     38  C   UNL A   1      42.843  32.304  34.394  1.00  0.00     0.031 A 
ATOM     39  C   UNL A   1      41.501  30.865  35.784  1.00  0.00     0.131 A 
ATOM     40  C   UNL A   1      42.922  33.218  35.454  1.00  0.00     0.055 A 
ATOM     41  C   UNL A   1      41.496  31.825  36.797  1.00  0.00     0.041 A 
ATOM     42  F   UNL A   1      40.873  29.704  36.024  1.00  0.00    -0.206 F 
ATOM     43  C   UNL A   1      42.231  32.998  36.648  1.00  0.00     0.022 A 
BRANCH  40  44
ATOM     44  S   UNL A   1      44.117  34.579  35.333  1.00  0.00     0.124 S 
ATOM     45  O   UNL A   1      44.214  35.013  36.725  1.00  0.00    -0.237 OA
ATOM     46  O   UNL A   1      45.298  33.917  34.789  1.00  0.00    -0.237 OA
ATOM     47  O   UNL A   1      43.465  35.531  34.437  1.00  0.00    -0.744 OA
ENDBRANCH  40  44
ENDBRANCH  23  37
BRANCH  24  48
ATOM     48  C   UNL A   1      42.568  24.104  27.305  1.00  0.00     0.023 A 
ATOM     49  C   UNL A   1      42.055  22.800  27.355  1.00  0.00     0.031 A 
ATOM     50  C   UNL A   1      43.175  24.527  26.106  1.00  0.00     0.131 A 
ATOM     51  C   UNL A   1      42.176  21.956  26.237  1.00  0.00     0.055 A 
ATOM     52  C   UNL A   1      43.266  23.695  24.987  1.00  0.00     0.041 A 
ATOM     53  F   UNL A   1      43.670  25.769  25.999  1.00  0.00    -0.206 F 
ATOM     54  C   UNL A   1      42.771  22.398  25.051  1.00  0.00     0.022 A 
BRANCH  51  55
ATOM     55  S   UNL A   1      41.573  20.249  26.362  1.00  0.00     0.124 S 
ATOM     56  O   UNL A   1      42.343  19.582  25.320  1.00  0.00    -0.237 OA
ATOM     57  O   UNL A   1      41.923  19.910  27.737  1.00  0.00    -0.237 OA
ATOM     58  O   UNL A   1      40.141  20.373  26.100  1.00  0.00    -0.744 OA
ENDBRANCH  51  55
ENDBRANCH  24  48
BRANCH  36  59
ATOM     59  C   UNL A   1      46.584  25.563  32.864  1.00  0.00     0.023 A 
ATOM     60  C   UNL A   1      47.877  25.831  32.386  1.00  0.00     0.031 A 
ATOM     61  C   UNL A   1      46.444  24.690  33.959  1.00  0.00     0.131 A 
ATOM     62  C   UNL A   1      48.980  25.208  32.986  1.00  0.00     0.055 A 
ATOM     63  C   UNL A   1      47.550  24.124  34.591  1.00  0.00     0.041 A 
ATOM     64  F   UNL A   1      45.228  24.398  34.448  1.00  0.00    -0.206 F 
ATOM     65  C   UNL A   1      48.827  24.377  34.101  1.00  0.00     0.022 A 
BRANCH  62  66
ATOM     66  S   UNL A   1      50.621  25.450  32.255  1.00  0.00     0.124 S 
ATOM     67  O   UNL A   1      51.484  25.402  33.432  1.00  0.00    -0.237 OA
ATOM     68  O   UNL A   1      50.726  24.319  31.339  1.00  0.00    -0.237 OA
ATOM     69  O   UNL A   1      50.520  26.760  31.613  1.00  0.00    -0.744 OA
ENDBRANCH  62  66
ENDBRANCH  36  59
ENDBRANCH  10  11
ENDBRANCH   3   5
ENDBRANCH   2   3
ENDBRANCH   1   2
BRANCH   1  70
ATOM     70  C   UNL A   1      33.102  34.055  28.125  1.00  0.00     0.275 C 
BRANCH  70  71
ATOM     71  O   UNL A   1      32.708  34.512  29.431  1.00  0.00    -0.458 OA
BRANCH  71  72
ATOM     72  C   UNL A   1      32.959  35.822  29.711  1.00  0.00     0.338 C 
ATOM     73  O   UNL A   1      32.665  36.778  29.022  1.00  0.00    -0.246 OA
BRANCH  72  74
ATOM     74  C   UNL A   1      33.583  35.941  31.051  1.00  0.00     0.067 A 
ATOM     75  C   UNL A   1      33.362  37.073  31.830  1.00  0.00     0.036 A 
ATOM     76  C   UNL A   1      34.386  34.895  31.530  1.00  0.00     0.084 A 
ATOM     77  C   UNL A   1      33.956  37.106  33.073  1.00  0.00     0.116 A 
ATOM     78  C   UNL A   1      34.986  35.047  32.774  1.00  0.00     0.220 A 
ATOM     79  N   UNL A   1      34.753  36.128  33.547  1.00  0.00    -0.222 NA
BRANCH  78  80
ATOM     80  O   UNL A   1      35.850  34.160  33.377  1.00  0.00    -0.439 OA
BRANCH  80  81
ATOM     81  C   UNL A   1      37.189  34.225  33.111  1.00  0.00     0.130 A 
ATOM     82  C   UNL A   1      38.062  34.472  34.165  1.00  0.00     0.047 A 
ATOM     83  C   UNL A   1      37.664  34.187  31.801  1.00  0.00     0.060 A 
ATOM     84  C   UNL A   1      39.427  34.602  33.915  1.00  0.00     0.004 A 
ATOM     85  C   UNL A   1      39.041  34.241  31.541  1.00  0.00     0.059 A 
ATOM     86  C   UNL A   1      39.917  34.462  32.615  1.00  0.00     0.013 A 
BRANCH  85  87
ATOM     87  C   UNL A   1      39.589  34.065  30.144  1.00  0.00     0.416 C 
ATOM     88  F   UNL A   1      38.928  33.098  29.448  1.00  0.00    -0.166 F 
ATOM     89  F   UNL A   1      39.472  35.198  29.395  1.00  0.00    -0.166 F 
ATOM     90  F   UNL A   1      40.905  33.722  30.110  1.00  0.00    -0.166 F 
ENDBRANCH  85  87
ENDBRANCH  80  81
ENDBRANCH  78  80
ENDBRANCH  72  74
ENDBRANCH  71  72
ENDBRANCH  70  71
ENDBRANCH   1  70
TORSDOF 17
ENDMDL
MODEL 3
REMARK VINA RESULT:     -10.6      1.859      2.308
REMARK SMILES O=C(OCCOC(=O)c1ccnc(Oc2cccc(C(F)(F)F)c2)c1)c1ccc(-c2c3nc(c(-c4cc(S(=O)(=O)[O-])ccc4F)c4ccc([nH]4)c(-c4cc(S(=O)(=O)[O-])ccc4F)c4nc(c(-c5cc(S(=O)(=O)[O-])ccc5F)c5ccc2[nH]5)C=C4)C=C3)cc1
REMARK SMILES IDX 4 1 3 2 2 3 1 4 26 5 27 6 88 7 28 8 87 9 29 10 30 11 31 12
REMARK SMILES IDX 81 13 32 14 86 15 80 16 82 17 33 18 85 19 79 20 78 21 34 23
REMARK SMILES IDX 66 24 46 25 65 26 47 27 50 28 64 29 83 30 48 31 49 32 63 34
REMARK SMILES IDX 84 35 51 36 35 37 36 38 44 39 37 40 43 41 45 42 42 43 38 44
REMARK SMILES IDX 39 45 40 46 41 47 67 48 68 49 76 50 69 51 75 52 77 53 74 54
REMARK SMILES IDX 70 55 71 56 72 57 73 58 52 59 53 60 61 61 54 62 60 63 62 64
REMARK SMILES IDX 59 65 55 66 56 67 57 68 58 69 5 70 6 71 7 72 8 73 9 74 10 75
REMARK SMILES IDX 25 76 11 77 13 78 12 79 14 80 15 81 16 82 24 83 17 84 19 85
REMARK SMILES IDX 18 86 20 87 21 88 22 89 23 90
REMARK H PARENT 82 22 50 33
REMARK Flexibility Score: inf
ROOT
ATOM      1  C   UNL A   1      33.233  33.794  27.809  1.00  0.00     0.275 C 
ENDROOT
BRANCH   1   2
ATOM      2  O   UNL A   1      34.463  33.078  27.644  1.00  0.00    -0.458 OA
BRANCH   2   3
ATOM      3  C   UNL A   1      34.725  31.768  27.842  1.00  0.00     0.338 C 
ATOM      4  O   UNL A   1      33.811  30.967  27.644  1.00  0.00    -0.246 OA
BRANCH   3   5
ATOM      5  C   UNL A   1      36.012  31.235  28.416  1.00  0.00     0.060 A 
ATOM      6  C   UNL A   1      37.278  31.825  28.401  1.00  0.00     0.016 A 
ATOM      7  C   UNL A   1      35.890  30.013  29.091  1.00  0.00     0.016 A 
ATOM      8  C   UNL A   1      38.358  31.263  29.095  1.00  0.00     0.010 A 
ATOM      9  C   UNL A   1      36.943  29.461  29.819  1.00  0.00     0.010 A 
ATOM     10  C   UNL A   1      38.193  30.082  29.813  1.00  0.00    -0.014 A 
BRANCH  10  11
ATOM     11  C   UNL A   1      39.359  29.367  30.373  1.00  0.00     0.031 A 
ATOM     12  C   UNL A   1      39.940  29.894  31.648  1.00  0.00     0.074 A 
ATOM     13  C   UNL A   1      39.893  28.299  29.754  1.00  0.00     0.049 A 
ATOM     14  N   UNL A   1      41.007  29.515  32.293  1.00  0.00    -0.248 NA
ATOM     15  C   UNL A   1      39.203  30.997  32.286  1.00  0.00     0.031 C 
ATOM     16  C   UNL A   1      39.344  27.653  28.566  1.00  0.00     0.029 A 
ATOM     17  N   UNL A   1      41.040  27.595  30.012  1.00  0.00    -0.354 N 
ATOM     18  C   UNL A   1      41.055  30.315  33.427  1.00  0.00     0.074 A 
ATOM     19  C   UNL A   1      39.970  31.263  33.328  1.00  0.00     0.031 C 
ATOM     20  C   UNL A   1      40.207  26.720  28.130  1.00  0.00     0.029 A 
ATOM     21  C   UNL A   1      41.365  26.702  29.017  1.00  0.00     0.049 A 
ATOM     22  H   UNL A   1      41.578  27.716  30.828  1.00  0.00     0.167 HD
ATOM     23  C   UNL A   1      41.907  30.230  34.475  1.00  0.00     0.034 A 
ATOM     24  C   UNL A   1      42.488  25.982  28.829  1.00  0.00     0.034 A 
ATOM     25  C   UNL A   1      43.007  29.303  34.507  1.00  0.00     0.049 A 
ATOM     26  C   UNL A   1      43.535  26.020  29.910  1.00  0.00     0.074 A 
ATOM     27  C   UNL A   1      43.946  29.107  35.500  1.00  0.00     0.029 A 
ATOM     28  N   UNL A   1      43.331  28.434  33.468  1.00  0.00    -0.354 N 
ATOM     29  N   UNL A   1      43.550  26.738  31.011  1.00  0.00    -0.248 NA
ATOM     30  C   UNL A   1      44.685  25.122  29.760  1.00  0.00     0.031 C 
ATOM     31  C   UNL A   1      44.887  28.185  35.026  1.00  0.00     0.029 A 
ATOM     32  C   UNL A   1      44.483  27.732  33.776  1.00  0.00     0.049 A 
ATOM     33  H   UNL A   1      42.816  28.333  32.636  1.00  0.00     0.167 HD
ATOM     34  C   UNL A   1      44.676  26.332  31.717  1.00  0.00     0.074 A 
ATOM     35  C   UNL A   1      45.329  25.325  30.901  1.00  0.00     0.031 C 
ATOM     36  C   UNL A   1      45.110  26.731  32.941  1.00  0.00     0.034 A 
BRANCH  23  37
ATOM     37  C   UNL A   1      41.688  31.212  35.601  1.00  0.00     0.023 A 
ATOM     38  C   UNL A   1      40.460  31.275  36.288  1.00  0.00     0.031 A 
ATOM     39  C   UNL A   1      42.658  32.181  35.902  1.00  0.00     0.131 A 
ATOM     40  C   UNL A   1      40.187  32.357  37.138  1.00  0.00     0.055 A 
ATOM     41  C   UNL A   1      42.418  33.196  36.830  1.00  0.00     0.041 A 
ATOM     42  F   UNL A   1      43.838  32.188  35.263  1.00  0.00    -0.206 F 
ATOM     43  C   UNL A   1      41.168  33.306  37.433  1.00  0.00     0.022 A 
BRANCH  40  44
ATOM     44  S   UNL A   1      38.472  32.627  37.668  1.00  0.00     0.124 S 
ATOM     45  O   UNL A   1      38.571  32.412  39.110  1.00  0.00    -0.237 OA
ATOM     46  O   UNL A   1      38.222  34.001  37.246  1.00  0.00    -0.237 OA
ATOM     47  O   UNL A   1      37.722  31.604  36.944  1.00  0.00    -0.744 OA
ENDBRANCH  40  44
ENDBRANCH  23  37
BRANCH  24  48
ATOM     48  C   UNL A   1      42.673  25.202  27.573  1.00  0.00     0.023 A 
ATOM     49  C   UNL A   1      42.285  23.858  27.467  1.00  0.00     0.031 A 
ATOM     50  C   UNL A   1      43.241  25.813  26.439  1.00  0.00     0.131 A 
ATOM     51  C   UNL A   1      42.489  23.164  26.262  1.00  0.00     0.055 A 
ATOM     52  C   UNL A   1      43.414  25.128  25.234  1.00  0.00     0.041 A 
ATOM     53  F   UNL A   1      43.618  27.101  26.481  1.00  0.00    -0.206 F 
ATOM     54  C   UNL A   1      43.043  23.792  25.142  1.00  0.00     0.022 A 
BRANCH  51  55
ATOM     55  S   UNL A   1      42.049  21.404  26.183  1.00  0.00     0.124 S 
ATOM     56  O   UNL A   1      43.004  20.900  25.204  1.00  0.00    -0.237 OA
ATOM     57  O   UNL A   1      42.260  20.982  27.564  1.00  0.00    -0.237 OA
ATOM     58  O   UNL A   1      40.654  21.421  25.747  1.00  0.00    -0.744 OA
ENDBRANCH  51  55
ENDBRANCH  24  48
BRANCH  36  59
ATOM     59  C   UNL A   1      46.309  26.020  33.512  1.00  0.00     0.023 A 
ATOM     60  C   UNL A   1      46.195  24.806  34.208  1.00  0.00     0.031 A 
ATOM     61  C   UNL A   1      47.594  26.549  33.298  1.00  0.00     0.131 A 
ATOM     62  C   UNL A   1      47.350  24.174  34.691  1.00  0.00     0.055 A 
ATOM     63  C   UNL A   1      48.742  25.884  33.725  1.00  0.00     0.041 A 
ATOM     64  F   UNL A   1      47.754  27.711  32.643  1.00  0.00    -0.206 F 
ATOM     65  C   UNL A   1      48.623  24.691  34.431  1.00  0.00     0.022 A 
BRANCH  62  66
ATOM     66  S   UNL A   1      47.167  22.690  35.716  1.00  0.00     0.124 S 
ATOM     67  O   UNL A   1      48.440  22.660  36.429  1.00  0.00    -0.237 OA
ATOM     68  O   UNL A   1      45.991  23.008  36.520  1.00  0.00    -0.237 OA
ATOM     69  O   UNL A   1      46.977  21.620  34.739  1.00  0.00    -0.744 OA
ENDBRANCH  62  66
ENDBRANCH  36  59
ENDBRANCH  10  11
ENDBRANCH   3   5
ENDBRANCH   2   3
ENDBRANCH   1   2
BRANCH   1  70
ATOM     70  C   UNL A   1      33.322  34.986  28.773  1.00  0.00     0.275 C 
BRANCH  70  71
ATOM     71  O   UNL A   1      34.294  34.834  29.823  1.00  0.00    -0.458 OA
BRANCH  71  72
ATOM     72  C   UNL A   1      33.804  34.785  31.094  1.00  0.00     0.338 C 
ATOM     73  O   UNL A   1      32.697  35.129  31.456  1.00  0.00    -0.246 OA
BRANCH  72  74
ATOM     74  C   UNL A   1      34.800  34.156  31.994  1.00  0.00     0.067 A 
ATOM     75  C   UNL A   1      34.682  32.815  32.344  1.00  0.00     0.036 A 
ATOM     76  C   UNL A   1      35.870  34.924  32.479  1.00  0.00     0.084 A 
ATOM     77  C   UNL A   1      35.655  32.291  33.168  1.00  0.00     0.116 A 
ATOM     78  C   UNL A   1      36.769  34.320  33.348  1.00  0.00     0.220 A 
ATOM     79  N   UNL A   1      36.677  33.012  33.669  1.00  0.00    -0.222 NA
BRANCH  78  80
ATOM     80  O   UNL A   1      37.838  34.927  33.969  1.00  0.00    -0.439 OA
BRANCH  80  81
ATOM     81  C   UNL A   1      39.099  34.769  33.466  1.00  0.00     0.130 A 
ATOM     82  C   UNL A   1      40.181  34.969  34.316  1.00  0.00     0.047 A 
ATOM     83  C   UNL A   1      39.307  34.552  32.105  1.00  0.00     0.060 A 
ATOM     84  C   UNL A   1      41.479  34.873  33.817  1.00  0.00     0.004 A 
ATOM     85  C   UNL A   1      40.604  34.378  31.602  1.00  0.00     0.059 A 
ATOM     86  C   UNL A   1      41.690  34.554  32.474  1.00  0.00     0.013 A 
BRANCH  85  87
ATOM     87  C   UNL A   1      40.850  34.007  30.158  1.00  0.00     0.416 C 
ATOM     88  F   UNL A   1      41.884  34.708  29.613  1.00  0.00    -0.166 F 
ATOM     89  F   UNL A   1      41.181  32.694  30.009  1.00  0.00    -0.166 F 
ATOM     90  F   UNL A   1      39.779  34.223  29.346  1.00  0.00    -0.166 F 
ENDBRANCH  85  87
ENDBRANCH  80  81
ENDBRANCH  78  80
ENDBRANCH  72  74
ENDBRANCH  71  72
ENDBRANCH  70  71
ENDBRANCH   1  70
TORSDOF 17
ENDMDL
