MODEL 1
REMARK VINA RESULT:     -11.8      0.000      0.000
REMARK SMILES CCOC(=O)c1cccc(NC(=O)CCC(=O)OCCOC(=O)c2ccc(-c3c4nc(c(-c5cc(S(=O)(=O)[O-])ccc5F)c5ccc([nH]5)c(-c5cc(S(=O)(=O)[O-])ccc5F)c5nc(c(-c6cc(S(=O)(=O)[O-])ccc6F)c6ccc3[nH]6)C=C5)C=C4)cc2)c1
REMARK SMILES IDX 18 1 16 2 17 3 15 4 14 5 12 6 11 7 13 9 10 10 6 11 7 12
REMARK SMILES IDX 87 13 8 14 9 15 4 16 5 17 3 18 2 19 1 20 19 21 20 22 21 23
REMARK SMILES IDX 22 24 23 25 24 26 25 27 86 28 26 29 85 30 27 31 28 32 29 33
REMARK SMILES IDX 79 34 30 35 84 36 78 37 80 38 31 39 83 40 77 41 76 42 32 44
REMARK SMILES IDX 64 45 44 46 63 47 45 48 48 49 62 50 81 51 46 52 47 53 61 55
REMARK SMILES IDX 82 56 49 57 33 58 34 59 42 60 35 61 41 62 43 63 40 64 36 65
REMARK SMILES IDX 37 66 38 67 39 68 65 69 66 70 74 71 67 72 73 73 75 74 72 75
REMARK SMILES IDX 68 76 69 77 70 78 71 79 50 80 51 81 59 82 52 83 58 84 60 85
REMARK SMILES IDX 57 86 53 87 54 88 55 89 56 90
REMARK H PARENT 11 8 80 43 48 54
REMARK Flexibility Score: inf
ROOT
ATOM      1  O   UNL A   1      30.625  27.665  24.789  1.00  0.00    -0.462 OA
ENDROOT
BRANCH   1   2
ATOM      2  C   UNL A   1      31.323  26.512  24.630  1.00  0.00     0.306 C 
ATOM      3  O   UNL A   1      32.007  26.254  23.648  1.00  0.00    -0.252 OA
BRANCH   2   4
ATOM      4  C   UNL A   1      31.267  25.624  25.873  1.00  0.00     0.132 C 
BRANCH   4   5
ATOM      5  C   UNL A   1      32.005  24.274  25.912  1.00  0.00     0.112 C 
BRANCH   5   6
ATOM      6  C   UNL A   1      31.260  23.074  26.450  1.00  0.00     0.224 C 
ATOM      7  N   UNL A   1      31.563  21.796  26.078  1.00  0.00    -0.326 N 
ATOM      8  H   UNL A   1      30.870  21.126  26.279  1.00  0.00     0.169 HD
ATOM      9  O   UNL A   1      30.346  23.235  27.266  1.00  0.00    -0.275 OA
BRANCH   7  10
ATOM     10  C   UNL A   1      32.717  21.292  25.452  1.00  0.00     0.042 A 
ATOM     11  C   UNL A   1      33.972  18.667  24.302  1.00  0.00     0.062 A 
ATOM     12  C   UNL A   1      35.619  19.295  24.627  1.00  0.00     0.016 A 
ATOM     13  C   UNL A   1      32.528  19.667  24.692  1.00  0.00     0.041 A 
ATOM     14  C   UNL A   1      35.848  20.907  25.383  1.00  0.00     0.003 A 
ATOM     15  C   UNL A   1      34.391  21.924  25.753  1.00  0.00     0.026 A 
BRANCH  11  16
ATOM     16  C   UNL A   1      33.874  17.356  23.655  1.00  0.00     0.338 C 
ATOM     17  O   UNL A   1      33.281  17.175  22.607  1.00  0.00    -0.246 OA
BRANCH  16  18
ATOM     18  O   UNL A   1      34.404  16.427  24.480  1.00  0.00    -0.462 OA
BRANCH  18  19
ATOM     19  C   UNL A   1      33.657  16.198  25.686  1.00  0.00     0.230 C 
ATOM     20  C   UNL A   1      32.533  15.200  25.453  1.00  0.00     0.049 C 
ENDBRANCH  18  19
ENDBRANCH  16  18
ENDBRANCH  11  16
ENDBRANCH   7  10
ENDBRANCH   5   6
ENDBRANCH   4   5
ENDBRANCH   2   4
ENDBRANCH   1   2
BRANCH   1  21
ATOM     21  C   UNL A   1      31.340  29.140  24.740  1.00  0.00     0.274 C 
BRANCH  21  22
ATOM     22  C   UNL A   1      32.998  29.843  25.995  1.00  0.00     0.275 C 
BRANCH  22  23
ATOM     23  O   UNL A   1      32.918  30.676  27.367  1.00  0.00    -0.458 OA
BRANCH  23  24
ATOM     24  C   UNL A   1      33.600  31.838  27.551  1.00  0.00     0.338 C 
ATOM     25  O   UNL A   1      33.140  32.963  27.615  1.00  0.00    -0.246 OA
BRANCH  24  26
ATOM     26  C   UNL A   1      34.921  31.428  28.082  1.00  0.00     0.060 A 
ATOM     27  C   UNL A   1      35.071  30.121  28.577  1.00  0.00     0.016 A 
ATOM     28  C   UNL A   1      36.022  32.279  27.990  1.00  0.00     0.016 A 
ATOM     29  C   UNL A   1      36.317  29.661  28.987  1.00  0.00     0.010 A 
ATOM     30  C   UNL A   1      37.263  31.834  28.444  1.00  0.00     0.010 A 
ATOM     31  C   UNL A   1      37.406  30.535  28.971  1.00  0.00    -0.014 A 
BRANCH  31  32
ATOM     32  C   UNL A   1      38.612  30.202  29.759  1.00  0.00     0.031 A 
ATOM     33  C   UNL A   1      39.557  29.198  29.160  1.00  0.00     0.074 A 
ATOM     34  C   UNL A   1      38.861  30.778  30.946  1.00  0.00     0.049 A 
ATOM     35  N   UNL A   1      40.586  28.599  29.691  1.00  0.00    -0.248 NA
ATOM     36  C   UNL A   1      39.282  28.806  27.766  1.00  0.00     0.031 C 
ATOM     37  C   UNL A   1      38.053  31.830  31.562  1.00  0.00     0.029 A 
ATOM     38  N   UNL A   1      39.863  30.548  31.854  1.00  0.00    -0.354 N 
ATOM     39  C   UNL A   1      41.064  27.738  28.709  1.00  0.00     0.074 A 
ATOM     40  C   UNL A   1      40.196  27.872  27.562  1.00  0.00     0.031 C 
ATOM     41  C   UNL A   1      38.580  32.137  32.762  1.00  0.00     0.029 A 
ATOM     42  C   UNL A   1      39.723  31.264  33.020  1.00  0.00     0.049 A 
ATOM     43  H   UNL A   1      40.609  29.929  31.687  1.00  0.00     0.167 HD
ATOM     44  C   UNL A   1      42.133  26.908  28.769  1.00  0.00     0.034 A 
ATOM     45  C   UNL A   1      40.417  31.182  34.173  1.00  0.00     0.034 A 
ATOM     46  C   UNL A   1      42.970  26.799  29.936  1.00  0.00     0.049 A 
ATOM     47  C   UNL A   1      41.549  30.181  34.254  1.00  0.00     0.074 A 
ATOM     48  C   UNL A   1      44.078  25.998  30.132  1.00  0.00     0.029 A 
ATOM     49  N   UNL A   1      42.780  27.515  31.114  1.00  0.00    -0.354 N 
ATOM     50  N   UNL A   1      41.981  29.347  33.333  1.00  0.00    -0.248 NA
ATOM     51  C   UNL A   1      42.284  30.113  35.522  1.00  0.00     0.031 C 
ATOM     52  C   UNL A   1      44.509  26.171  31.452  1.00  0.00     0.029 A 
ATOM     53  C   UNL A   1      43.729  27.148  32.051  1.00  0.00     0.049 A 
ATOM     54  H   UNL A   1      42.073  28.184  31.258  1.00  0.00     0.167 HD
ATOM     55  C   UNL A   1      43.060  28.676  33.904  1.00  0.00     0.074 A 
ATOM     56  C   UNL A   1      43.219  29.216  35.240  1.00  0.00     0.031 C 
ATOM     57  C   UNL A   1      43.853  27.705  33.379  1.00  0.00     0.034 A 
BRANCH  44  58
ATOM     58  C   UNL A   1      42.394  26.019  27.576  1.00  0.00     0.023 A 
ATOM     59  C   UNL A   1      41.871  24.717  27.483  1.00  0.00     0.031 A 
ATOM     60  C   UNL A   1      43.225  26.467  26.533  1.00  0.00     0.131 A 
ATOM     61  C   UNL A   1      42.242  23.887  26.414  1.00  0.00     0.055 A 
ATOM     62  C   UNL A   1      43.521  25.666  25.428  1.00  0.00     0.041 A 
ATOM     63  F   UNL A   1      43.783  27.687  26.579  1.00  0.00    -0.206 F 
ATOM     64  C   UNL A   1      43.040  24.362  25.371  1.00  0.00     0.022 A 
BRANCH  61  65
ATOM     65  S   UNL A   1      41.789  22.130  26.481  1.00  0.00     0.124 S 
ATOM     66  O   UNL A   1      42.284  21.749  27.802  1.00  0.00    -0.237 OA
ATOM     67  O   UNL A   1      40.339  22.172  26.330  1.00  0.00    -0.237 OA
ATOM     68  O   UNL A   1      42.518  21.546  25.358  1.00  0.00    -0.744 OA
ENDBRANCH  61  65
ENDBRANCH  44  58
BRANCH  45  69
ATOM     69  C   UNL A   1      40.039  32.016  35.353  1.00  0.00     0.023 A 
ATOM     70  C   UNL A   1      39.124  31.549  36.310  1.00  0.00     0.031 A 
ATOM     71  C   UNL A   1      40.554  33.315  35.519  1.00  0.00     0.131 A 
ATOM     72  C   UNL A   1      38.721  32.386  37.363  1.00  0.00     0.055 A 
ATOM     73  C   UNL A   1      40.196  34.122  36.600  1.00  0.00     0.041 A 
ATOM     74  F   UNL A   1      41.424  33.821  34.630  1.00  0.00    -0.206 F 
ATOM     75  C   UNL A   1      39.263  33.663  37.525  1.00  0.00     0.022 A 
BRANCH  72  76
ATOM     76  S   UNL A   1      37.400  31.817  38.469  1.00  0.00     0.124 S 
ATOM     77  O   UNL A   1      38.016  31.989  39.779  1.00  0.00    -0.237 OA
ATOM     78  O   UNL A   1      36.316  32.737  38.144  1.00  0.00    -0.237 OA
ATOM     79  O   UNL A   1      37.185  30.432  38.057  1.00  0.00    -0.744 OA
ENDBRANCH  72  76
ENDBRANCH  45  69
BRANCH  57  80
ATOM     80  C   UNL A   1      44.988  27.209  34.240  1.00  0.00     0.023 A 
ATOM     81  C   UNL A   1      46.265  27.793  34.189  1.00  0.00     0.031 A 
ATOM     82  C   UNL A   1      44.783  26.137  35.126  1.00  0.00     0.131 A 
ATOM     83  C   UNL A   1      47.304  27.263  34.966  1.00  0.00     0.055 A 
ATOM     84  C   UNL A   1      45.802  25.659  35.949  1.00  0.00     0.041 A 
ATOM     85  F   UNL A   1      43.583  25.541  35.213  1.00  0.00    -0.206 F 
ATOM     86  C   UNL A   1      47.076  26.215  35.862  1.00  0.00     0.022 A 
BRANCH  83  87
ATOM     87  S   UNL A   1      48.984  27.896  34.716  1.00  0.00     0.124 S 
ATOM     88  O   UNL A   1      49.653  26.744  34.118  1.00  0.00    -0.237 OA
ATOM     89  O   UNL A   1      48.760  29.034  33.830  1.00  0.00    -0.237 OA
ATOM     90  O   UNL A   1      49.426  28.239  36.066  1.00  0.00    -0.744 OA
ENDBRANCH  83  87
ENDBRANCH  57  80
ENDBRANCH  31  32
ENDBRANCH  24  26
ENDBRANCH  23  24
ENDBRANCH  22  23
ENDBRANCH  21  22
ENDBRANCH   1  21
TORSDOF 20
ENDMDL
MODEL 2
REMARK VINA RESULT:     -11.6      5.327     10.799
REMARK SMILES CCOC(=O)c1cccc(NC(=O)CCC(=O)OCCOC(=O)c2ccc(-c3c4nc(c(-c5cc(S(=O)(=O)[O-])ccc5F)c5ccc([nH]5)c(-c5cc(S(=O)(=O)[O-])ccc5F)c5nc(c(-c6cc(S(=O)(=O)[O-])ccc6F)c6ccc3[nH]6)C=C5)C=C4)cc2)c1
REMARK SMILES IDX 18 1 16 2 17 3 15 4 14 5 12 6 11 7 13 9 10 10 6 11 7 12
REMARK SMILES IDX 87 13 8 14 9 15 4 16 5 17 3 18 2 19 1 20 19 21 20 22 21 23
REMARK SMILES IDX 22 24 23 25 24 26 25 27 86 28 26 29 85 30 27 31 28 32 29 33
REMARK SMILES IDX 79 34 30 35 84 36 78 37 80 38 31 39 83 40 77 41 76 42 32 44
REMARK SMILES IDX 64 45 44 46 63 47 45 48 48 49 62 50 81 51 46 52 47 53 61 55
REMARK SMILES IDX 82 56 49 57 33 58 34 59 42 60 35 61 41 62 43 63 40 64 36 65
REMARK SMILES IDX 37 66 38 67 39 68 65 69 66 70 74 71 67 72 73 73 75 74 72 75
REMARK SMILES IDX 68 76 69 77 70 78 71 79 50 80 51 81 59 82 52 83 58 84 60 85
REMARK SMILES IDX 57 86 53 87 54 88 55 89 56 90
REMARK H PARENT 11 8 80 43 48 54
REMARK Flexibility Score: inf
ROOT
ATOM      1  O   UNL A   1      36.791  22.127  25.608  1.00  0.00    -0.462 OA
ENDROOT
BRANCH   1   2
ATOM      2  C   UNL A   1      36.319  23.136  24.833  1.00  0.00     0.306 C 
ATOM      3  O   UNL A   1      36.639  23.311  23.664  1.00  0.00    -0.252 OA
BRANCH   2   4
ATOM      4  C   UNL A   1      35.241  23.957  25.542  1.00  0.00     0.132 C 
BRANCH   4   5
ATOM      5  C   UNL A   1      33.990  24.438  24.785  1.00  0.00     0.112 C 
BRANCH   5   6
ATOM      6  C   UNL A   1      32.681  23.736  25.062  1.00  0.00     0.224 C 
ATOM      7  N   UNL A   1      31.585  24.392  25.543  1.00  0.00    -0.326 N 
ATOM      8  H   UNL A   1      30.885  23.815  25.925  1.00  0.00     0.169 HD
ATOM      9  O   UNL A   1      32.577  22.523  24.845  1.00  0.00    -0.275 OA
BRANCH   7  10
ATOM     10  C   UNL A   1      31.304  25.770  25.573  1.00  0.00     0.042 A 
ATOM     11  C   UNL A   1      30.343  28.146  23.780  1.00  0.00     0.062 A 
ATOM     12  C   UNL A   1      31.230  29.307  24.818  1.00  0.00     0.016 A 
ATOM     13  C   UNL A   1      30.360  26.389  24.166  1.00  0.00     0.041 A 
ATOM     14  C   UNL A   1      32.181  28.729  26.226  1.00  0.00     0.003 A 
ATOM     15  C   UNL A   1      32.178  26.960  26.628  1.00  0.00     0.026 A 
BRANCH  11  16
ATOM     16  C   UNL A   1      29.566  28.704  22.669  1.00  0.00     0.338 C 
ATOM     17  O   UNL A   1      30.067  29.038  21.611  1.00  0.00    -0.246 OA
BRANCH  16  18
ATOM     18  O   UNL A   1      28.297  28.905  23.087  1.00  0.00    -0.462 OA
BRANCH  18  19
ATOM     19  C   UNL A   1      27.658  30.065  22.531  1.00  0.00     0.230 C 
ATOM     20  C   UNL A   1      27.648  31.215  23.525  1.00  0.00     0.049 C 
ENDBRANCH  18  19
ENDBRANCH  16  18
ENDBRANCH  11  16
ENDBRANCH   7  10
ENDBRANCH   5   6
ENDBRANCH   4   5
ENDBRANCH   2   4
ENDBRANCH   1   2
BRANCH   1  21
ATOM     21  C   UNL A   1      38.395  21.828  25.780  1.00  0.00     0.274 C 
BRANCH  21  22
ATOM     22  C   UNL A   1      39.394  19.879  25.642  1.00  0.00     0.275 C 
BRANCH  22  23
ATOM     23  O   UNL A   1      40.747  19.405  26.369  1.00  0.00    -0.458 OA
BRANCH  23  24
ATOM     24  C   UNL A   1      41.979  19.707  25.880  1.00  0.00     0.338 C 
ATOM     25  O   UNL A   1      42.582  19.134  24.990  1.00  0.00    -0.246 OA
BRANCH  24  26
ATOM     26  C   UNL A   1      42.241  21.094  26.328  1.00  0.00     0.060 A 
ATOM     27  C   UNL A   1      42.375  22.102  25.357  1.00  0.00     0.016 A 
ATOM     28  C   UNL A   1      42.244  21.416  27.685  1.00  0.00     0.016 A 
ATOM     29  C   UNL A   1      42.517  23.432  25.736  1.00  0.00     0.010 A 
ATOM     30  C   UNL A   1      42.433  22.744  28.067  1.00  0.00     0.010 A 
ATOM     31  C   UNL A   1      42.599  23.749  27.093  1.00  0.00    -0.014 A 
BRANCH  31  32
ATOM     32  C   UNL A   1      43.142  25.065  27.496  1.00  0.00     0.031 A 
ATOM     33  C   UNL A   1      42.186  26.017  28.159  1.00  0.00     0.074 A 
ATOM     34  C   UNL A   1      44.429  25.389  27.295  1.00  0.00     0.049 A 
ATOM     35  N   UNL A   1      42.336  27.277  28.458  1.00  0.00    -0.248 NA
ATOM     36  C   UNL A   1      40.868  25.463  28.516  1.00  0.00     0.031 C 
ATOM     37  C   UNL A   1      45.451  24.497  26.747  1.00  0.00     0.029 A 
ATOM     38  N   UNL A   1      45.095  26.567  27.517  1.00  0.00    -0.354 N 
ATOM     39  C   UNL A   1      41.123  27.676  29.010  1.00  0.00     0.074 A 
ATOM     40  C   UNL A   1      40.241  26.532  28.979  1.00  0.00     0.031 C 
ATOM     41  C   UNL A   1      46.612  25.172  26.652  1.00  0.00     0.029 A 
ATOM     42  C   UNL A   1      46.398  26.554  27.078  1.00  0.00     0.049 A 
ATOM     43  H   UNL A   1      44.679  27.348  27.948  1.00  0.00     0.167 HD
ATOM     44  C   UNL A   1      40.783  28.894  29.496  1.00  0.00     0.034 A 
ATOM     45  C   UNL A   1      47.292  27.560  26.992  1.00  0.00     0.034 A 
ATOM     46  C   UNL A   1      41.692  30.011  29.503  1.00  0.00     0.049 A 
ATOM     47  C   UNL A   1      46.863  28.935  27.451  1.00  0.00     0.074 A 
ATOM     48  C   UNL A   1      41.476  31.297  29.960  1.00  0.00     0.029 A 
ATOM     49  N   UNL A   1      42.995  29.972  29.018  1.00  0.00    -0.354 N 
ATOM     50  N   UNL A   1      45.705  29.318  27.946  1.00  0.00    -0.248 NA
ATOM     51  C   UNL A   1      47.855  30.011  27.343  1.00  0.00     0.031 C 
ATOM     52  C   UNL A   1      42.619  32.054  29.680  1.00  0.00     0.029 A 
ATOM     53  C   UNL A   1      43.583  31.219  29.134  1.00  0.00     0.049 A 
ATOM     54  H   UNL A   1      43.435  29.173  28.648  1.00  0.00     0.167 HD
ATOM     55  C   UNL A   1      45.843  30.673  28.236  1.00  0.00     0.074 A 
ATOM     56  C   UNL A   1      47.200  31.033  27.875  1.00  0.00     0.031 C 
ATOM     57  C   UNL A   1      44.939  31.544  28.756  1.00  0.00     0.034 A 
BRANCH  44  58
ATOM     58  C   UNL A   1      39.364  29.081  29.979  1.00  0.00     0.023 A 
ATOM     59  C   UNL A   1      38.341  29.547  29.134  1.00  0.00     0.031 A 
ATOM     60  C   UNL A   1      39.040  28.835  31.325  1.00  0.00     0.131 A 
ATOM     61  C   UNL A   1      37.069  29.821  29.658  1.00  0.00     0.055 A 
ATOM     62  C   UNL A   1      37.750  29.028  31.821  1.00  0.00     0.041 A 
ATOM     63  F   UNL A   1      39.980  28.422  32.190  1.00  0.00    -0.206 F 
ATOM     64  C   UNL A   1      36.758  29.538  30.990  1.00  0.00     0.022 A 
BRANCH  61  65
ATOM     65  S   UNL A   1      35.868  30.693  28.614  1.00  0.00     0.124 S 
ATOM     66  O   UNL A   1      36.744  31.365  27.656  1.00  0.00    -0.237 OA
ATOM     67  O   UNL A   1      35.060  29.602  28.082  1.00  0.00    -0.237 OA
ATOM     68  O   UNL A   1      35.181  31.581  29.549  1.00  0.00    -0.744 OA
ENDBRANCH  61  65
ENDBRANCH  44  58
BRANCH  45  69
ATOM     69  C   UNL A   1      48.646  27.330  26.405  1.00  0.00     0.023 A 
ATOM     70  C   UNL A   1      48.921  27.647  25.065  1.00  0.00     0.031 A 
ATOM     71  C   UNL A   1      49.677  26.745  27.164  1.00  0.00     0.131 A 
ATOM     72  C   UNL A   1      50.177  27.342  24.515  1.00  0.00     0.055 A 
ATOM     73  C   UNL A   1      50.943  26.499  26.630  1.00  0.00     0.041 A 
ATOM     74  F   UNL A   1      49.470  26.409  28.447  1.00  0.00    -0.206 F 
ATOM     75  C   UNL A   1      51.195  26.786  25.292  1.00  0.00     0.022 A 
BRANCH  72  76
ATOM     76  S   UNL A   1      50.431  27.595  22.737  1.00  0.00     0.124 S 
ATOM     77  O   UNL A   1      49.138  27.197  22.193  1.00  0.00    -0.237 OA
ATOM     78  O   UNL A   1      50.742  29.019  22.675  1.00  0.00    -0.237 OA
ATOM     79  O   UNL A   1      51.544  26.702  22.421  1.00  0.00    -0.744 OA
ENDBRANCH  72  76
ENDBRANCH  45  69
BRANCH  57  80
ATOM     80  C   UNL A   1      45.414  32.954  29.006  1.00  0.00     0.023 A 
ATOM     81  C   UNL A   1      45.319  33.953  28.022  1.00  0.00     0.031 A 
ATOM     82  C   UNL A   1      45.967  33.299  30.252  1.00  0.00     0.131 A 
ATOM     83  C   UNL A   1      45.825  35.234  28.280  1.00  0.00     0.055 A 
ATOM     84  C   UNL A   1      46.404  34.595  30.528  1.00  0.00     0.041 A 
ATOM     85  F   UNL A   1      46.083  32.383  31.227  1.00  0.00    -0.206 F 
ATOM     86  C   UNL A   1      46.347  35.568  29.533  1.00  0.00     0.022 A 
BRANCH  83  87
ATOM     87  S   UNL A   1      45.886  36.432  26.922  1.00  0.00     0.124 S 
ATOM     88  O   UNL A   1      45.963  35.560  25.754  1.00  0.00    -0.237 OA
ATOM     89  O   UNL A   1      44.633  37.162  27.092  1.00  0.00    -0.237 OA
ATOM     90  O   UNL A   1      47.096  37.205  27.201  1.00  0.00    -0.744 OA
ENDBRANCH  83  87
ENDBRANCH  57  80
ENDBRANCH  31  32
ENDBRANCH  24  26
ENDBRANCH  23  24
ENDBRANCH  22  23
ENDBRANCH  21  22
ENDBRANCH   1  21
TORSDOF 20
ENDMDL
MODEL 3
REMARK VINA RESULT:     -11.3      2.326      8.145
REMARK SMILES CCOC(=O)c1cccc(NC(=O)CCC(=O)OCCOC(=O)c2ccc(-c3c4nc(c(-c5cc(S(=O)(=O)[O-])ccc5F)c5ccc([nH]5)c(-c5cc(S(=O)(=O)[O-])ccc5F)c5nc(c(-c6cc(S(=O)(=O)[O-])ccc6F)c6ccc3[nH]6)C=C5)C=C4)cc2)c1
REMARK SMILES IDX 18 1 16 2 17 3 15 4 14 5 12 6 11 7 13 9 10 10 6 11 7 12
REMARK SMILES IDX 87 13 8 14 9 15 4 16 5 17 3 18 2 19 1 20 19 21 20 22 21 23
REMARK SMILES IDX 22 24 23 25 24 26 25 27 86 28 26 29 85 30 27 31 28 32 29 33
REMARK SMILES IDX 79 34 30 35 84 36 78 37 80 38 31 39 83 40 77 41 76 42 32 44
REMARK SMILES IDX 64 45 44 46 63 47 45 48 48 49 62 50 81 51 46 52 47 53 61 55
REMARK SMILES IDX 82 56 49 57 33 58 34 59 42 60 35 61 41 62 43 63 40 64 36 65
REMARK SMILES IDX 37 66 38 67 39 68 65 69 66 70 74 71 67 72 73 73 75 74 72 75
REMARK SMILES IDX 68 76 69 77 70 78 71 79 50 80 51 81 59 82 52 83 58 84 60 85
REMARK SMILES IDX 57 86 53 87 54 88 55 89 56 90
REMARK H PARENT 11 8 80 43 48 54
REMARK Flexibility Score: inf
ROOT
ATOM      1  O   UNL A   1      31.472  29.397  26.443  1.00  0.00    -0.462 OA
ENDROOT
BRANCH   1   2
ATOM      2  C   UNL A   1      31.289  29.015  25.155  1.00  0.00     0.306 C 
ATOM      3  O   UNL A   1      30.771  29.718  24.298  1.00  0.00    -0.252 OA
BRANCH   2   4
ATOM      4  C   UNL A   1      31.918  27.653  24.858  1.00  0.00     0.132 C 
BRANCH   4   5
ATOM      5  C   UNL A   1      31.798  26.493  25.863  1.00  0.00     0.112 C 
BRANCH   5   6
ATOM      6  C   UNL A   1      30.496  25.727  25.907  1.00  0.00     0.224 C 
ATOM      7  N   UNL A   1      30.215  24.710  25.039  1.00  0.00    -0.326 N 
ATOM      8  H   UNL A   1      29.265  24.458  24.984  1.00  0.00     0.169 HD
ATOM      9  O   UNL A   1      29.646  26.010  26.757  1.00  0.00    -0.275 OA
BRANCH   7  10
ATOM     10  C   UNL A   1      31.079  23.968  24.214  1.00  0.00     0.042 A 
ATOM     11  C   UNL A   1      33.322  21.790  24.290  1.00  0.00     0.062 A 
ATOM     12  C   UNL A   1      34.017  22.432  22.768  1.00  0.00     0.016 A 
ATOM     13  C   UNL A   1      31.848  22.539  25.000  1.00  0.00     0.041 A 
ATOM     14  C   UNL A   1      33.279  23.853  21.956  1.00  0.00     0.003 A 
ATOM     15  C   UNL A   1      31.779  24.591  22.660  1.00  0.00     0.026 A 
BRANCH  11  16
ATOM     16  C   UNL A   1      33.967  20.609  24.871  1.00  0.00     0.338 C 
ATOM     17  O   UNL A   1      34.996  20.666  25.520  1.00  0.00    -0.246 OA
BRANCH  16  18
ATOM     18  O   UNL A   1      33.318  19.506  24.437  1.00  0.00    -0.462 OA
BRANCH  18  19
ATOM     19  C   UNL A   1      34.136  18.329  24.338  1.00  0.00     0.230 C 
ATOM     20  C   UNL A   1      33.598  17.376  23.281  1.00  0.00     0.049 C 
ENDBRANCH  18  19
ENDBRANCH  16  18
ENDBRANCH  11  16
ENDBRANCH   7  10
ENDBRANCH   5   6
ENDBRANCH   4   5
ENDBRANCH   2   4
ENDBRANCH   1   2
BRANCH   1  21
ATOM     21  C   UNL A   1      32.493  30.610  26.863  1.00  0.00     0.274 C 
BRANCH  21  22
ATOM     22  C   UNL A   1      32.011  32.746  27.016  1.00  0.00     0.275 C 
BRANCH  22  23
ATOM     23  O   UNL A   1      33.017  33.974  27.265  1.00  0.00    -0.458 OA
BRANCH  23  24
ATOM     24  C   UNL A   1      33.363  34.387  28.513  1.00  0.00     0.338 C 
ATOM     25  O   UNL A   1      32.682  35.027  29.295  1.00  0.00    -0.246 OA
BRANCH  24  26
ATOM     26  C   UNL A   1      34.528  33.552  28.886  1.00  0.00     0.060 A 
ATOM     27  C   UNL A   1      34.297  32.263  29.394  1.00  0.00     0.016 A 
ATOM     28  C   UNL A   1      35.828  33.990  28.634  1.00  0.00     0.016 A 
ATOM     29  C   UNL A   1      35.360  31.407  29.658  1.00  0.00     0.010 A 
ATOM     30  C   UNL A   1      36.898  33.150  28.943  1.00  0.00     0.010 A 
ATOM     31  C   UNL A   1      36.666  31.869  29.482  1.00  0.00    -0.014 A 
BRANCH  31  32
ATOM     32  C   UNL A   1      37.782  31.141  30.124  1.00  0.00     0.031 A 
ATOM     33  C   UNL A   1      38.046  31.447  31.572  1.00  0.00     0.074 A 
ATOM     34  C   UNL A   1      38.515  30.238  29.452  1.00  0.00     0.049 A 
ATOM     35  N   UNL A   1      39.046  31.093  32.331  1.00  0.00    -0.248 NA
ATOM     36  C   UNL A   1      37.041  32.287  32.247  1.00  0.00     0.031 C 
ATOM     37  C   UNL A   1      38.273  29.807  28.076  1.00  0.00     0.029 A 
ATOM     38  N   UNL A   1      39.624  29.530  29.837  1.00  0.00    -0.354 N 
ATOM     39  C   UNL A   1      38.808  31.692  33.564  1.00  0.00     0.074 A 
ATOM     40  C   UNL A   1      37.585  32.452  33.441  1.00  0.00     0.031 C 
ATOM     41  C   UNL A   1      39.226  28.924  27.723  1.00  0.00     0.029 A 
ATOM     42  C   UNL A   1      40.172  28.774  28.826  1.00  0.00     0.049 A 
ATOM     43  H   UNL A   1      39.994  29.560  30.749  1.00  0.00     0.167 HD
ATOM     44  C   UNL A   1      39.551  31.612  34.693  1.00  0.00     0.034 A 
ATOM     45  C   UNL A   1      41.329  28.083  28.793  1.00  0.00     0.034 A 
ATOM     46  C   UNL A   1      40.769  30.847  34.770  1.00  0.00     0.049 A 
ATOM     47  C   UNL A   1      42.194  28.083  30.034  1.00  0.00     0.074 A 
ATOM     48  C   UNL A   1      41.619  30.683  35.847  1.00  0.00     0.029 A 
ATOM     49  N   UNL A   1      41.314  30.120  33.717  1.00  0.00    -0.354 N 
ATOM     50  N   UNL A   1      41.982  28.674  31.190  1.00  0.00    -0.248 NA
ATOM     51  C   UNL A   1      43.449  27.325  29.968  1.00  0.00     0.031 C 
ATOM     52  C   UNL A   1      42.716  29.926  35.423  1.00  0.00     0.029 A 
ATOM     53  C   UNL A   1      42.506  29.536  34.108  1.00  0.00     0.049 A 
ATOM     54  H   UNL A   1      40.910  30.035  32.823  1.00  0.00     0.167 HD
ATOM     55  C   UNL A   1      43.063  28.332  31.998  1.00  0.00     0.074 A 
ATOM     56  C   UNL A   1      43.915  27.471  31.200  1.00  0.00     0.031 C 
ATOM     57  C   UNL A   1      43.334  28.688  33.281  1.00  0.00     0.034 A 
BRANCH  44  58
ATOM     58  C   UNL A   1      39.101  32.424  35.884  1.00  0.00     0.023 A 
ATOM     59  C   UNL A   1      39.508  33.756  36.079  1.00  0.00     0.031 A 
ATOM     60  C   UNL A   1      38.289  31.837  36.870  1.00  0.00     0.131 A 
ATOM     61  C   UNL A   1      39.164  34.429  37.261  1.00  0.00     0.055 A 
ATOM     62  C   UNL A   1      37.878  32.540  38.004  1.00  0.00     0.041 A 
ATOM     63  F   UNL A   1      37.896  30.558  36.759  1.00  0.00    -0.206 F 
ATOM     64  C   UNL A   1      38.328  33.840  38.212  1.00  0.00     0.022 A 
BRANCH  61  65
ATOM     65  S   UNL A   1      39.946  36.029  37.610  1.00  0.00     0.124 S 
ATOM     66  O   UNL A   1      39.106  36.538  38.693  1.00  0.00    -0.237 OA
ATOM     67  O   UNL A   1      41.302  35.643  37.982  1.00  0.00    -0.237 OA
ATOM     68  O   UNL A   1      39.827  36.752  36.346  1.00  0.00    -0.744 OA
ENDBRANCH  61  65
ENDBRANCH  44  58
BRANCH  45  69
ATOM     69  C   UNL A   1      41.768  27.388  27.547  1.00  0.00     0.023 A 
ATOM     70  C   UNL A   1      41.703  25.990  27.432  1.00  0.00     0.031 A 
ATOM     71  C   UNL A   1      42.303  28.109  26.463  1.00  0.00     0.131 A 
ATOM     72  C   UNL A   1      42.202  25.356  26.282  1.00  0.00     0.055 A 
ATOM     73  C   UNL A   1      42.742  27.479  25.297  1.00  0.00     0.041 A 
ATOM     74  F   UNL A   1      42.400  29.447  26.518  1.00  0.00    -0.206 F 
ATOM     75  C   UNL A   1      42.704  26.091  25.207  1.00  0.00     0.022 A 
BRANCH  72  76
ATOM     76  S   UNL A   1      42.272  23.543  26.251  1.00  0.00     0.124 S 
ATOM     77  O   UNL A   1      40.858  23.191  26.313  1.00  0.00    -0.237 OA
ATOM     78  O   UNL A   1      42.942  23.288  24.981  1.00  0.00    -0.237 OA
ATOM     79  O   UNL A   1      43.051  23.213  27.442  1.00  0.00    -0.744 OA
ENDBRANCH  72  76
ENDBRANCH  45  69
BRANCH  57  80
ATOM     80  C   UNL A   1      44.575  28.103  33.906  1.00  0.00     0.023 A 
ATOM     81  C   UNL A   1      44.556  26.865  34.572  1.00  0.00     0.031 A 
ATOM     82  C   UNL A   1      45.796  28.796  33.829  1.00  0.00     0.131 A 
ATOM     83  C   UNL A   1      45.722  26.387  35.186  1.00  0.00     0.055 A 
ATOM     84  C   UNL A   1      46.969  28.282  34.381  1.00  0.00     0.041 A 
ATOM     85  F   UNL A   1      45.870  29.983  33.206  1.00  0.00    -0.206 F 
ATOM     86  C   UNL A   1      46.933  27.076  35.076  1.00  0.00     0.022 A 
BRANCH  83  87
ATOM     87  S   UNL A   1      45.611  24.902  36.220  1.00  0.00     0.124 S 
ATOM     88  O   UNL A   1      44.189  24.586  36.142  1.00  0.00    -0.237 OA
ATOM     89  O   UNL A   1      46.509  23.977  35.534  1.00  0.00    -0.237 OA
ATOM     90  O   UNL A   1      46.076  25.360  37.528  1.00  0.00    -0.744 OA
ENDBRANCH  83  87
ENDBRANCH  57  80
ENDBRANCH  31  32
ENDBRANCH  24  26
ENDBRANCH  23  24
ENDBRANCH  22  23
ENDBRANCH  21  22
ENDBRANCH   1  21
TORSDOF 20
ENDMDL
