MODEL 1
REMARK VINA RESULT:     -11.6      0.000      0.000
REMARK SMILES CC(=O)N1[C@@H](c2c(F)cccc2Cl)SC[C@H]1C(=O)OCCOC(=O)c1ccc(-c2c3nc(c(-c4cc(S(=O)(=O)[O-])ccc4F)c4ccc([nH]4)c(-c4cc(S(=O)(=O)[O-])ccc4F)c4nc(c(-c5cc(S(=O)(=O)[O-])ccc5F)c5ccc2[nH]5)C=C4)C=C3)cc1
REMARK SMILES IDX 21 1 20 2 19 3 17 4 18 5 16 6 4 7 5 8 14 9 15 10 2 11 1 12
REMARK SMILES IDX 3 13 6 14 7 15 12 16 8 17 9 18 11 19 13 20 10 21 22 22 23 23
REMARK SMILES IDX 24 24 25 25 26 26 87 27 27 28 86 29 28 30 29 31 30 32 80 33
REMARK SMILES IDX 31 34 85 35 79 36 81 37 32 38 84 39 78 40 77 41 33 43 65 44
REMARK SMILES IDX 45 45 64 46 46 47 49 48 63 49 82 50 47 51 48 52 62 54 83 55
REMARK SMILES IDX 50 56 34 57 35 58 43 59 36 60 42 61 44 62 41 63 37 64 38 65
REMARK SMILES IDX 39 66 40 67 66 68 67 69 75 70 68 71 74 72 76 73 73 74 69 75
REMARK SMILES IDX 70 76 71 77 72 78 51 79 52 80 60 81 53 82 59 83 61 84 58 85
REMARK SMILES IDX 54 86 55 87 56 88 57 89
REMARK H PARENT 81 42 49 53
REMARK Flexibility Score: inf
ROOT
ATOM      1  C   UNL A   1      36.887  21.340  24.558  1.00  0.00     0.275 C 
ENDROOT
BRANCH   1   2
ATOM      2  C   UNL A   1      36.630  22.467  23.566  1.00  0.00     0.274 C 
BRANCH   2   3
ATOM      3  O   UNL A   1      35.520  23.278  24.007  1.00  0.00    -0.461 OA
BRANCH   3   4
ATOM      4  C   UNL A   1      34.389  23.241  23.244  1.00  0.00     0.329 C 
ATOM      5  O   UNL A   1      34.372  23.392  22.027  1.00  0.00    -0.250 OA
BRANCH   4   6
ATOM      6  C   UNL A   1      33.120  22.943  24.062  1.00  0.00     0.206 C 
ATOM      7  N   UNL A   1      32.749  23.904  25.113  1.00  0.00    -0.312 N 
ATOM      8  C   UNL A   1      31.835  24.945  24.652  1.00  0.00     0.179 C 
ATOM      9  S   UNL A   1      30.693  24.039  23.548  1.00  0.00    -0.129 SA
ATOM     10  C   UNL A   1      31.893  22.708  23.180  1.00  0.00     0.109 C 
BRANCH   7  11
ATOM     11  C   UNL A   1      33.061  23.570  26.416  1.00  0.00     0.221 C 
ATOM     12  C   UNL A   1      32.000  22.985  27.307  1.00  0.00     0.114 C 
ATOM     13  O   UNL A   1      34.221  23.626  26.827  1.00  0.00    -0.275 OA
ENDBRANCH   7  11
BRANCH   8  14
ATOM     14  C   UNL A   1      32.529  26.137  23.992  1.00  0.00     0.039 A 
ATOM     15  C   UNL A   1      32.557  26.323  22.595  1.00  0.00     0.130 A 
ATOM     16  C   UNL A   1      33.230  27.106  24.737  1.00  0.00     0.050 A 
ATOM     17  F   UNL A   1      31.934  25.473  21.768  1.00  0.00    -0.207 F 
ATOM     18  C   UNL A   1      33.259  27.357  21.971  1.00  0.00     0.040 A 
ATOM     19  C   UNL A   1      33.955  28.139  24.114  1.00  0.00     0.021 A 
ATOM     20  Cl  UNL A   1      33.224  27.163  26.462  1.00  0.00    -0.084 Cl
ATOM     21  C   UNL A   1      33.977  28.261  22.730  1.00  0.00     0.005 A 
ENDBRANCH   8  14
ENDBRANCH   4   6
ENDBRANCH   3   4
ENDBRANCH   2   3
ENDBRANCH   1   2
BRANCH   1  22
ATOM     22  O   UNL A   1      37.425  21.907  25.759  1.00  0.00    -0.458 OA
BRANCH  22  23
ATOM     23  C   UNL A   1      38.721  21.613  26.006  1.00  0.00     0.338 C 
ATOM     24  O   UNL A   1      39.302  20.559  25.781  1.00  0.00    -0.246 OA
BRANCH  23  25
ATOM     25  C   UNL A   1      39.340  22.804  26.594  1.00  0.00     0.060 A 
ATOM     26  C   UNL A   1      38.887  24.063  26.200  1.00  0.00     0.016 A 
ATOM     27  C   UNL A   1      40.393  22.677  27.493  1.00  0.00     0.016 A 
ATOM     28  C   UNL A   1      39.530  25.210  26.647  1.00  0.00     0.010 A 
ATOM     29  C   UNL A   1      40.993  23.833  28.000  1.00  0.00     0.010 A 
ATOM     30  C   UNL A   1      40.584  25.107  27.560  1.00  0.00    -0.014 A 
BRANCH  30  31
ATOM     31  C   UNL A   1      41.304  26.322  28.013  1.00  0.00     0.031 A 
ATOM     32  C   UNL A   1      40.562  27.372  28.791  1.00  0.00     0.074 A 
ATOM     33  C   UNL A   1      42.609  26.486  27.722  1.00  0.00     0.049 A 
ATOM     34  N   UNL A   1      40.925  28.588  29.103  1.00  0.00    -0.248 NA
ATOM     35  C   UNL A   1      39.218  27.003  29.264  1.00  0.00     0.031 C 
ATOM     36  C   UNL A   1      43.452  25.507  27.032  1.00  0.00     0.029 A 
ATOM     37  N   UNL A   1      43.455  27.539  27.966  1.00  0.00    -0.354 N 
ATOM     38  C   UNL A   1      39.839  29.148  29.768  1.00  0.00     0.074 A 
ATOM     39  C   UNL A   1      38.799  28.141  29.796  1.00  0.00     0.031 C 
ATOM     40  C   UNL A   1      44.693  26.003  26.913  1.00  0.00     0.029 A 
ATOM     41  C   UNL A   1      44.715  27.362  27.442  1.00  0.00     0.049 A 
ATOM     42  H   UNL A   1      43.186  28.343  28.465  1.00  0.00     0.167 HD
ATOM     43  C   UNL A   1      39.728  30.391  30.302  1.00  0.00     0.034 A 
ATOM     44  C   UNL A   1      45.752  28.216  27.354  1.00  0.00     0.034 A 
ATOM     45  C   UNL A   1      40.793  31.365  30.281  1.00  0.00     0.049 A 
ATOM     46  C   UNL A   1      45.586  29.612  27.896  1.00  0.00     0.074 A 
ATOM     47  C   UNL A   1      40.800  32.650  30.795  1.00  0.00     0.029 A 
ATOM     48  N   UNL A   1      42.046  31.159  29.715  1.00  0.00    -0.354 N 
ATOM     49  N   UNL A   1      44.537  30.154  28.473  1.00  0.00    -0.248 NA
ATOM     50  C   UNL A   1      46.738  30.512  27.769  1.00  0.00     0.031 C 
ATOM     51  C   UNL A   1      42.032  33.239  30.488  1.00  0.00     0.029 A 
ATOM     52  C   UNL A   1      42.824  32.300  29.845  1.00  0.00     0.049 A 
ATOM     53  H   UNL A   1      42.339  30.324  29.283  1.00  0.00     0.167 HD
ATOM     54  C   UNL A   1      44.913  31.454  28.795  1.00  0.00     0.074 A 
ATOM     55  C   UNL A   1      46.288  31.606  28.364  1.00  0.00     0.031 C 
ATOM     56  C   UNL A   1      44.189  32.435  29.392  1.00  0.00     0.034 A 
BRANCH  43  57
ATOM     57  C   UNL A   1      38.388  30.776  30.885  1.00  0.00     0.023 A 
ATOM     58  C   UNL A   1      37.382  31.385  30.115  1.00  0.00     0.031 A 
ATOM     59  C   UNL A   1      38.133  30.569  32.253  1.00  0.00     0.131 A 
ATOM     60  C   UNL A   1      36.201  31.832  30.731  1.00  0.00     0.055 A 
ATOM     61  C   UNL A   1      36.925  30.944  32.844  1.00  0.00     0.041 A 
ATOM     62  F   UNL A   1      39.063  30.014  33.046  1.00  0.00    -0.206 F 
ATOM     63  C   UNL A   1      35.957  31.595  32.086  1.00  0.00     0.022 A 
BRANCH  60  64
ATOM     64  S   UNL A   1      35.052  32.857  29.771  1.00  0.00     0.124 S 
ATOM     65  O   UNL A   1      34.146  33.339  30.810  1.00  0.00    -0.237 OA
ATOM     66  O   UNL A   1      35.937  33.855  29.181  1.00  0.00    -0.237 OA
ATOM     67  O   UNL A   1      34.458  31.914  28.826  1.00  0.00    -0.744 OA
ENDBRANCH  60  64
ENDBRANCH  43  57
BRANCH  44  68
ATOM     68  C   UNL A   1      47.011  27.804  26.669  1.00  0.00     0.023 A 
ATOM     69  C   UNL A   1      47.158  27.934  25.279  1.00  0.00     0.031 A 
ATOM     70  C   UNL A   1      48.078  27.242  27.396  1.00  0.00     0.131 A 
ATOM     71  C   UNL A   1      48.331  27.480  24.656  1.00  0.00     0.055 A 
ATOM     72  C   UNL A   1      49.262  26.840  26.776  1.00  0.00     0.041 A 
ATOM     73  F   UNL A   1      47.989  27.093  28.727  1.00  0.00    -0.206 F 
ATOM     74  C   UNL A   1      49.389  26.947  25.396  1.00  0.00     0.022 A 
BRANCH  71  75
ATOM     75  S   UNL A   1      48.425  27.525  22.844  1.00  0.00     0.124 S 
ATOM     76  O   UNL A   1      47.213  28.258  22.501  1.00  0.00    -0.237 OA
ATOM     77  O   UNL A   1      49.685  28.229  22.625  1.00  0.00    -0.237 OA
ATOM     78  O   UNL A   1      48.429  26.113  22.468  1.00  0.00    -0.744 OA
ENDBRANCH  71  75
ENDBRANCH  44  68
BRANCH  56  79
ATOM     79  C   UNL A   1      44.900  33.741  29.649  1.00  0.00     0.023 A 
ATOM     80  C   UNL A   1      44.913  34.774  28.697  1.00  0.00     0.031 A 
ATOM     81  C   UNL A   1      45.595  33.940  30.855  1.00  0.00     0.131 A 
ATOM     82  C   UNL A   1      45.654  35.940  28.942  1.00  0.00     0.055 A 
ATOM     83  C   UNL A   1      46.281  35.125  31.118  1.00  0.00     0.041 A 
ATOM     84  F   UNL A   1      45.617  32.984  31.797  1.00  0.00    -0.206 F 
ATOM     85  C   UNL A   1      46.325  36.129  30.155  1.00  0.00     0.022 A 
BRANCH  82  86
ATOM     86  S   UNL A   1      45.805  37.173  27.621  1.00  0.00     0.124 S 
ATOM     87  O   UNL A   1      44.502  37.829  27.667  1.00  0.00    -0.237 OA
ATOM     88  O   UNL A   1      46.939  37.974  28.069  1.00  0.00    -0.237 OA
ATOM     89  O   UNL A   1      46.052  36.367  26.426  1.00  0.00    -0.744 OA
ENDBRANCH  82  86
ENDBRANCH  56  79
ENDBRANCH  30  31
ENDBRANCH  23  25
ENDBRANCH  22  23
ENDBRANCH   1  22
TORSDOF 16
ENDMDL
MODEL 2
REMARK VINA RESULT:     -11.5      1.505      1.710
REMARK SMILES CC(=O)N1[C@@H](c2c(F)cccc2Cl)SC[C@H]1C(=O)OCCOC(=O)c1ccc(-c2c3nc(c(-c4cc(S(=O)(=O)[O-])ccc4F)c4ccc([nH]4)c(-c4cc(S(=O)(=O)[O-])ccc4F)c4nc(c(-c5cc(S(=O)(=O)[O-])ccc5F)c5ccc2[nH]5)C=C4)C=C3)cc1
REMARK SMILES IDX 21 1 20 2 19 3 17 4 18 5 16 6 4 7 5 8 14 9 15 10 2 11 1 12
REMARK SMILES IDX 3 13 6 14 7 15 12 16 8 17 9 18 11 19 13 20 10 21 22 22 23 23
REMARK SMILES IDX 24 24 25 25 26 26 87 27 27 28 86 29 28 30 29 31 30 32 80 33
REMARK SMILES IDX 31 34 85 35 79 36 81 37 32 38 84 39 78 40 77 41 33 43 65 44
REMARK SMILES IDX 45 45 64 46 46 47 49 48 63 49 82 50 47 51 48 52 62 54 83 55
REMARK SMILES IDX 50 56 34 57 35 58 43 59 36 60 42 61 44 62 41 63 37 64 38 65
REMARK SMILES IDX 39 66 40 67 66 68 67 69 75 70 68 71 74 72 76 73 73 74 69 75
REMARK SMILES IDX 70 76 71 77 72 78 51 79 52 80 60 81 53 82 59 83 61 84 58 85
REMARK SMILES IDX 54 86 55 87 56 88 57 89
REMARK H PARENT 81 42 49 53
REMARK Flexibility Score: inf
ROOT
ATOM      1  C   UNL A   1      36.540  21.365  24.434  1.00  0.00     0.275 C 
ENDROOT
BRANCH   1   2
ATOM      2  C   UNL A   1      36.618  22.585  23.524  1.00  0.00     0.274 C 
BRANCH   2   3
ATOM      3  O   UNL A   1      35.301  23.137  23.313  1.00  0.00    -0.461 OA
BRANCH   3   4
ATOM      4  C   UNL A   1      34.684  23.690  24.397  1.00  0.00     0.329 C 
ATOM      5  O   UNL A   1      35.180  24.561  25.104  1.00  0.00    -0.250 OA
BRANCH   4   6
ATOM      6  C   UNL A   1      33.265  23.140  24.627  1.00  0.00     0.206 C 
ATOM      7  N   UNL A   1      32.343  23.959  25.429  1.00  0.00    -0.312 N 
ATOM      8  C   UNL A   1      31.528  24.869  24.629  1.00  0.00     0.179 C 
ATOM      9  S   UNL A   1      31.103  23.866  23.160  1.00  0.00    -0.129 SA
ATOM     10  C   UNL A   1      32.558  22.770  23.322  1.00  0.00     0.109 C 
BRANCH   7  11
ATOM     11  C   UNL A   1      32.156  23.594  26.748  1.00  0.00     0.221 C 
ATOM     12  C   UNL A   1      33.172  22.718  27.427  1.00  0.00     0.114 C 
ATOM     13  O   UNL A   1      31.238  24.072  27.416  1.00  0.00    -0.275 OA
ENDBRANCH   7  11
BRANCH   8  14
ATOM     14  C   UNL A   1      32.212  26.197  24.304  1.00  0.00     0.039 A 
ATOM     15  C   UNL A   1      32.881  26.429  23.085  1.00  0.00     0.130 A 
ATOM     16  C   UNL A   1      32.261  27.263  25.224  1.00  0.00     0.050 A 
ATOM     17  F   UNL A   1      32.916  25.498  22.123  1.00  0.00    -0.207 F 
ATOM     18  C   UNL A   1      33.586  27.603  22.806  1.00  0.00     0.040 A 
ATOM     19  C   UNL A   1      32.984  28.440  24.956  1.00  0.00     0.021 A 
ATOM     20  Cl  UNL A   1      31.405  27.263  26.722  1.00  0.00    -0.084 Cl
ATOM     21  C   UNL A   1      33.654  28.608  23.751  1.00  0.00     0.005 A 
ENDBRANCH   8  14
ENDBRANCH   4   6
ENDBRANCH   3   4
ENDBRANCH   2   3
ENDBRANCH   1   2
BRANCH   1  22
ATOM     22  O   UNL A   1      37.122  21.706  25.698  1.00  0.00    -0.458 OA
BRANCH  22  23
ATOM     23  C   UNL A   1      38.419  21.354  25.849  1.00  0.00     0.338 C 
ATOM     24  O   UNL A   1      38.942  20.290  25.548  1.00  0.00    -0.246 OA
BRANCH  23  25
ATOM     25  C   UNL A   1      39.120  22.498  26.439  1.00  0.00     0.060 A 
ATOM     26  C   UNL A   1      38.681  23.787  26.136  1.00  0.00     0.016 A 
ATOM     27  C   UNL A   1      40.233  22.299  27.248  1.00  0.00     0.016 A 
ATOM     28  C   UNL A   1      39.394  24.893  26.581  1.00  0.00     0.010 A 
ATOM     29  C   UNL A   1      40.908  23.411  27.757  1.00  0.00     0.010 A 
ATOM     30  C   UNL A   1      40.510  24.716  27.405  1.00  0.00    -0.014 A 
BRANCH  30  31
ATOM     31  C   UNL A   1      41.303  25.887  27.853  1.00  0.00     0.031 A 
ATOM     32  C   UNL A   1      40.642  26.949  28.687  1.00  0.00     0.074 A 
ATOM     33  C   UNL A   1      42.600  26.001  27.510  1.00  0.00     0.049 A 
ATOM     34  N   UNL A   1      41.073  28.140  29.009  1.00  0.00    -0.248 NA
ATOM     35  C   UNL A   1      39.305  26.628  29.210  1.00  0.00     0.031 C 
ATOM     36  C   UNL A   1      43.368  25.003  26.761  1.00  0.00     0.029 A 
ATOM     37  N   UNL A   1      43.502  27.009  27.739  1.00  0.00    -0.354 N 
ATOM     38  C   UNL A   1      40.043  28.731  29.735  1.00  0.00     0.074 A 
ATOM     39  C   UNL A   1      38.961  27.770  29.785  1.00  0.00     0.031 C 
ATOM     40  C   UNL A   1      44.624  25.446  26.599  1.00  0.00     0.029 A 
ATOM     41  C   UNL A   1      44.730  26.790  27.157  1.00  0.00     0.049 A 
ATOM     42  H   UNL A   1      43.291  27.812  28.268  1.00  0.00     0.167 HD
ATOM     43  C   UNL A   1      40.010  29.964  30.300  1.00  0.00     0.034 A 
ATOM     44  C   UNL A   1      45.799  27.600  27.043  1.00  0.00     0.034 A 
ATOM     45  C   UNL A   1      41.116  30.891  30.255  1.00  0.00     0.049 A 
ATOM     46  C   UNL A   1      45.719  28.987  27.623  1.00  0.00     0.074 A 
ATOM     47  C   UNL A   1      41.203  32.160  30.797  1.00  0.00     0.029 A 
ATOM     48  N   UNL A   1      42.334  30.644  29.630  1.00  0.00    -0.354 N 
ATOM     49  N   UNL A   1      44.721  29.561  28.258  1.00  0.00    -0.248 NA
ATOM     50  C   UNL A   1      46.904  29.839  27.466  1.00  0.00     0.031 C 
ATOM     51  C   UNL A   1      42.446  32.703  30.450  1.00  0.00     0.029 A 
ATOM     52  C   UNL A   1      43.166  31.746  29.752  1.00  0.00     0.049 A 
ATOM     53  H   UNL A   1      42.570  29.808  29.166  1.00  0.00     0.167 HD
ATOM     54  C   UNL A   1      45.169  30.835  28.592  1.00  0.00     0.074 A 
ATOM     55  C   UNL A   1      46.530  30.937  28.104  1.00  0.00     0.031 C 
ATOM     56  C   UNL A   1      44.516  31.832  29.243  1.00  0.00     0.034 A 
BRANCH  43  57
ATOM     57  C   UNL A   1      38.716  30.393  30.950  1.00  0.00     0.023 A 
ATOM     58  C   UNL A   1      37.665  30.973  30.218  1.00  0.00     0.031 A 
ATOM     59  C   UNL A   1      38.551  30.259  32.341  1.00  0.00     0.131 A 
ATOM     60  C   UNL A   1      36.531  31.463  30.887  1.00  0.00     0.055 A 
ATOM     61  C   UNL A   1      37.388  30.677  32.991  1.00  0.00     0.041 A 
ATOM     62  F   UNL A   1      39.527  29.735  33.098  1.00  0.00    -0.206 F 
ATOM     63  C   UNL A   1      36.377  31.299  32.265  1.00  0.00     0.022 A 
BRANCH  60  64
ATOM     64  S   UNL A   1      35.328  32.450  29.954  1.00  0.00     0.124 S 
ATOM     65  O   UNL A   1      34.312  32.717  30.968  1.00  0.00    -0.237 OA
ATOM     66  O   UNL A   1      36.123  33.596  29.528  1.00  0.00    -0.237 OA
ATOM     67  O   UNL A   1      34.905  31.552  28.882  1.00  0.00    -0.744 OA
ENDBRANCH  60  64
ENDBRANCH  43  57
BRANCH  44  68
ATOM     68  C   UNL A   1      47.008  27.150  26.294  1.00  0.00     0.023 A 
ATOM     69  C   UNL A   1      48.055  26.476  26.942  1.00  0.00     0.031 A 
ATOM     70  C   UNL A   1      47.146  27.415  24.919  1.00  0.00     0.131 A 
ATOM     71  C   UNL A   1      49.207  26.120  26.224  1.00  0.00     0.055 A 
ATOM     72  C   UNL A   1      48.271  27.013  24.198  1.00  0.00     0.041 A 
ATOM     73  F   UNL A   1      46.175  28.057  24.250  1.00  0.00    -0.206 F 
ATOM     74  C   UNL A   1      49.316  26.371  24.854  1.00  0.00     0.022 A 
BRANCH  71  75
ATOM     75  S   UNL A   1      50.601  25.388  27.125  1.00  0.00     0.124 S 
ATOM     76  O   UNL A   1      49.954  24.295  27.839  1.00  0.00    -0.237 OA
ATOM     77  O   UNL A   1      51.496  25.005  26.037  1.00  0.00    -0.237 OA
ATOM     78  O   UNL A   1      51.079  26.486  27.963  1.00  0.00    -0.744 OA
ENDBRANCH  71  75
ENDBRANCH  44  68
BRANCH  56  79
ATOM     79  C   UNL A   1      45.295  33.099  29.497  1.00  0.00     0.023 A 
ATOM     80  C   UNL A   1      45.280  34.170  28.588  1.00  0.00     0.031 A 
ATOM     81  C   UNL A   1      46.083  33.221  30.655  1.00  0.00     0.131 A 
ATOM     82  C   UNL A   1      46.083  35.296  28.824  1.00  0.00     0.055 A 
ATOM     83  C   UNL A   1      46.833  34.367  30.914  1.00  0.00     0.041 A 
ATOM     84  F   UNL A   1      46.135  32.226  31.555  1.00  0.00    -0.206 F 
ATOM     85  C   UNL A   1      46.847  35.409  29.990  1.00  0.00     0.022 A 
BRANCH  82  86
ATOM     86  S   UNL A   1      46.187  36.577  27.544  1.00  0.00     0.124 S 
ATOM     87  O   UNL A   1      44.904  36.432  26.865  1.00  0.00    -0.237 OA
ATOM     88  O   UNL A   1      46.358  37.793  28.332  1.00  0.00    -0.237 OA
ATOM     89  O   UNL A   1      47.354  36.182  26.757  1.00  0.00    -0.744 OA
ENDBRANCH  82  86
ENDBRANCH  56  79
ENDBRANCH  30  31
ENDBRANCH  23  25
ENDBRANCH  22  23
ENDBRANCH   1  22
TORSDOF 16
ENDMDL
MODEL 3
REMARK VINA RESULT:     -11.5      5.062      9.815
REMARK SMILES CC(=O)N1[C@@H](c2c(F)cccc2Cl)SC[C@H]1C(=O)OCCOC(=O)c1ccc(-c2c3nc(c(-c4cc(S(=O)(=O)[O-])ccc4F)c4ccc([nH]4)c(-c4cc(S(=O)(=O)[O-])ccc4F)c4nc(c(-c5cc(S(=O)(=O)[O-])ccc5F)c5ccc2[nH]5)C=C4)C=C3)cc1
REMARK SMILES IDX 21 1 20 2 19 3 17 4 18 5 16 6 4 7 5 8 14 9 15 10 2 11 1 12
REMARK SMILES IDX 3 13 6 14 7 15 12 16 8 17 9 18 11 19 13 20 10 21 22 22 23 23
REMARK SMILES IDX 24 24 25 25 26 26 87 27 27 28 86 29 28 30 29 31 30 32 80 33
REMARK SMILES IDX 31 34 85 35 79 36 81 37 32 38 84 39 78 40 77 41 33 43 65 44
REMARK SMILES IDX 45 45 64 46 46 47 49 48 63 49 82 50 47 51 48 52 62 54 83 55
REMARK SMILES IDX 50 56 34 57 35 58 43 59 36 60 42 61 44 62 41 63 37 64 38 65
REMARK SMILES IDX 39 66 40 67 66 68 67 69 75 70 68 71 74 72 76 73 73 74 69 75
REMARK SMILES IDX 70 76 71 77 72 78 51 79 52 80 60 81 53 82 59 83 61 84 58 85
REMARK SMILES IDX 54 86 55 87 56 88 57 89
REMARK H PARENT 81 42 49 53
REMARK Flexibility Score: inf
ROOT
ATOM      1  C   UNL A   1      31.952  30.083  26.413  1.00  0.00     0.275 C 
ENDROOT
BRANCH   1   2
ATOM      2  C   UNL A   1      31.774  28.790  27.200  1.00  0.00     0.274 C 
BRANCH   2   3
ATOM      3  O   UNL A   1      32.218  27.662  26.417  1.00  0.00    -0.461 OA
BRANCH   3   4
ATOM      4  C   UNL A   1      31.262  26.773  26.021  1.00  0.00     0.329 C 
ATOM      5  O   UNL A   1      30.453  26.246  26.778  1.00  0.00    -0.250 OA
BRANCH   4   6
ATOM      6  C   UNL A   1      31.264  26.523  24.502  1.00  0.00     0.206 C 
ATOM      7  N   UNL A   1      32.472  25.922  23.916  1.00  0.00    -0.312 N 
ATOM      8  C   UNL A   1      32.422  24.465  23.845  1.00  0.00     0.179 C 
ATOM      9  S   UNL A   1      30.690  24.131  23.360  1.00  0.00    -0.129 SA
ATOM     10  C   UNL A   1      30.056  25.706  24.039  1.00  0.00     0.109 C 
BRANCH   7  11
ATOM     11  C   UNL A   1      33.351  26.770  23.271  1.00  0.00     0.221 C 
ATOM     12  C   UNL A   1      33.993  27.895  24.035  1.00  0.00     0.114 C 
ATOM     13  O   UNL A   1      33.715  26.550  22.115  1.00  0.00    -0.275 OA
ENDBRANCH   7  11
BRANCH   8  14
ATOM     14  C   UNL A   1      32.859  23.762  25.131  1.00  0.00     0.039 A 
ATOM     15  C   UNL A   1      31.940  23.191  26.035  1.00  0.00     0.130 A 
ATOM     16  C   UNL A   1      34.209  23.682  25.522  1.00  0.00     0.050 A 
ATOM     17  F   UNL A   1      30.623  23.202  25.788  1.00  0.00    -0.207 F 
ATOM     18  C   UNL A   1      32.313  22.624  27.256  1.00  0.00     0.040 A 
ATOM     19  C   UNL A   1      34.591  23.128  26.758  1.00  0.00     0.021 A 
ATOM     20  Cl  UNL A   1      35.519  24.188  24.519  1.00  0.00    -0.084 Cl
ATOM     21  C   UNL A   1      33.644  22.606  27.630  1.00  0.00     0.005 A 
ENDBRANCH   8  14
ENDBRANCH   4   6
ENDBRANCH   3   4
ENDBRANCH   2   3
ENDBRANCH   1   2
BRANCH   1  22
ATOM     22  O   UNL A   1      33.343  30.422  26.408  1.00  0.00    -0.458 OA
BRANCH  22  23
ATOM     23  C   UNL A   1      33.701  31.404  27.266  1.00  0.00     0.338 C 
ATOM     24  O   UNL A   1      33.057  32.399  27.570  1.00  0.00    -0.246 OA
BRANCH  23  25
ATOM     25  C   UNL A   1      35.023  31.062  27.800  1.00  0.00     0.060 A 
ATOM     26  C   UNL A   1      35.277  29.744  28.178  1.00  0.00     0.016 A 
ATOM     27  C   UNL A   1      35.988  32.049  27.970  1.00  0.00     0.016 A 
ATOM     28  C   UNL A   1      36.475  29.412  28.797  1.00  0.00     0.010 A 
ATOM     29  C   UNL A   1      37.221  31.701  28.526  1.00  0.00     0.010 A 
ATOM     30  C   UNL A   1      37.465  30.386  28.968  1.00  0.00    -0.014 A 
BRANCH  30  31
ATOM     31  C   UNL A   1      38.732  30.052  29.664  1.00  0.00     0.031 A 
ATOM     32  C   UNL A   1      39.682  29.072  29.034  1.00  0.00     0.074 A 
ATOM     33  C   UNL A   1      39.023  30.616  30.852  1.00  0.00     0.049 A 
ATOM     34  N   UNL A   1      40.728  28.483  29.549  1.00  0.00    -0.248 NA
ATOM     35  C   UNL A   1      39.399  28.694  27.641  1.00  0.00     0.031 C 
ATOM     36  C   UNL A   1      38.211  31.629  31.529  1.00  0.00     0.029 A 
ATOM     37  N   UNL A   1      40.079  30.413  31.704  1.00  0.00    -0.354 N 
ATOM     38  C   UNL A   1      41.205  27.627  28.560  1.00  0.00     0.074 A 
ATOM     39  C   UNL A   1      40.317  27.765  27.424  1.00  0.00     0.031 C 
ATOM     40  C   UNL A   1      38.802  31.963  32.687  1.00  0.00     0.029 A 
ATOM     41  C   UNL A   1      39.985  31.131  32.874  1.00  0.00     0.049 A 
ATOM     42  H   UNL A   1      40.830  29.811  31.499  1.00  0.00     0.167 HD
ATOM     43  C   UNL A   1      42.282  26.804  28.605  1.00  0.00     0.034 A 
ATOM     44  C   UNL A   1      40.739  31.086  33.989  1.00  0.00     0.034 A 
ATOM     45  C   UNL A   1      43.164  26.707  29.744  1.00  0.00     0.049 A 
ATOM     46  C   UNL A   1      41.893  30.120  34.042  1.00  0.00     0.074 A 
ATOM     47  C   UNL A   1      44.289  25.918  29.902  1.00  0.00     0.029 A 
ATOM     48  N   UNL A   1      43.019  27.430  30.923  1.00  0.00    -0.354 N 
ATOM     49  N   UNL A   1      42.303  29.272  33.125  1.00  0.00    -0.248 NA
ATOM     50  C   UNL A   1      42.680  30.097  35.281  1.00  0.00     0.031 C 
ATOM     51  C   UNL A   1      44.788  26.117  31.195  1.00  0.00     0.029 A 
ATOM     52  C   UNL A   1      44.019  27.086  31.821  1.00  0.00     0.049 A 
ATOM     53  H   UNL A   1      42.309  28.090  31.096  1.00  0.00     0.167 HD
ATOM     54  C   UNL A   1      43.409  28.630  33.672  1.00  0.00     0.074 A 
ATOM     55  C   UNL A   1      43.611  29.201  34.989  1.00  0.00     0.031 C 
ATOM     56  C   UNL A   1      44.190  27.657  33.137  1.00  0.00     0.034 A 
BRANCH  43  57
ATOM     57  C   UNL A   1      42.514  25.902  27.415  1.00  0.00     0.023 A 
ATOM     58  C   UNL A   1      42.015  24.589  27.360  1.00  0.00     0.031 A 
ATOM     59  C   UNL A   1      43.292  26.355  26.333  1.00  0.00     0.131 A 
ATOM     60  C   UNL A   1      42.359  23.752  26.285  1.00  0.00     0.055 A 
ATOM     61  C   UNL A   1      43.566  25.544  25.230  1.00  0.00     0.041 A 
ATOM     62  F   UNL A   1      43.817  27.590  26.338  1.00  0.00    -0.206 F 
ATOM     63  C   UNL A   1      43.113  24.229  25.210  1.00  0.00     0.022 A 
BRANCH  60  64
ATOM     64  S   UNL A   1      41.934  21.991  26.382  1.00  0.00     0.124 S 
ATOM     65  O   UNL A   1      42.319  21.667  27.753  1.00  0.00    -0.237 OA
ATOM     66  O   UNL A   1      40.502  21.997  26.105  1.00  0.00    -0.237 OA
ATOM     67  O   UNL A   1      42.766  21.380  25.349  1.00  0.00    -0.744 OA
ENDBRANCH  60  64
ENDBRANCH  43  57
BRANCH  44  68
ATOM     68  C   UNL A   1      40.388  31.928  35.168  1.00  0.00     0.023 A 
ATOM     69  C   UNL A   1      39.373  31.545  36.060  1.00  0.00     0.031 A 
ATOM     70  C   UNL A   1      41.046  33.150  35.405  1.00  0.00     0.131 A 
ATOM     71  C   UNL A   1      39.024  32.389  37.125  1.00  0.00     0.055 A 
ATOM     72  C   UNL A   1      40.730  33.961  36.496  1.00  0.00     0.041 A 
ATOM     73  F   UNL A   1      42.023  33.566  34.584  1.00  0.00    -0.206 F 
ATOM     74  C   UNL A   1      39.704  33.587  37.358  1.00  0.00     0.022 A 
BRANCH  71  75
ATOM     75  S   UNL A   1      37.609  31.935  38.165  1.00  0.00     0.124 S 
ATOM     76  O   UNL A   1      37.358  30.562  37.744  1.00  0.00    -0.237 OA
ATOM     77  O   UNL A   1      38.153  32.106  39.508  1.00  0.00    -0.237 OA
ATOM     78  O   UNL A   1      36.582  32.903  37.784  1.00  0.00    -0.744 OA
ENDBRANCH  71  75
ENDBRANCH  44  68
BRANCH  56  79
ATOM     79  C   UNL A   1      45.358  27.190  33.971  1.00  0.00     0.023 A 
ATOM     80  C   UNL A   1      45.249  26.097  34.847  1.00  0.00     0.031 A 
ATOM     81  C   UNL A   1      46.588  27.867  33.902  1.00  0.00     0.131 A 
ATOM     82  C   UNL A   1      46.334  25.747  35.664  1.00  0.00     0.055 A 
ATOM     83  C   UNL A   1      47.682  27.478  34.674  1.00  0.00     0.041 A 
ATOM     84  F   UNL A   1      46.745  28.919  33.084  1.00  0.00    -0.206 F 
ATOM     85  C   UNL A   1      47.557  26.420  35.571  1.00  0.00     0.022 A 
BRANCH  82  86
ATOM     86  S   UNL A   1      46.104  24.456  36.917  1.00  0.00     0.124 S 
ATOM     87  O   UNL A   1      47.376  24.498  37.632  1.00  0.00    -0.237 OA
ATOM     88  O   UNL A   1      44.942  24.940  37.654  1.00  0.00    -0.237 OA
ATOM     89  O   UNL A   1      45.875  23.248  36.127  1.00  0.00    -0.744 OA
ENDBRANCH  82  86
ENDBRANCH  56  79
ENDBRANCH  30  31
ENDBRANCH  23  25
ENDBRANCH  22  23
ENDBRANCH   1  22
TORSDOF 16
ENDMDL
