MODEL 1
REMARK VINA RESULT:     -10.9      0.000      0.000
REMARK SMILES C[C@H](NC(=O)c1cc(S(=O)(=O)N(C)C)cs1)C(=O)OCCOC(=O)c1ccc(-c2c3nc(c(-c4cc(S(=O)(=O)[O-])ccc4F)c4ccc([nH]4)c(-c4cc(S(=O)(=O)[O-])ccc4F)c4nc(c(-c5cc(S(=O)(=O)[O-])ccc5F)c5ccc2[nH]5)C=C4)C=C3)cc1
REMARK SMILES IDX 20 1 19 2 17 3 18 4 2 5 1 6 3 7 4 8 5 10 6 11 7 12 16 13
REMARK SMILES IDX 8 14 15 15 9 16 10 17 11 18 12 19 13 20 14 21 21 22 22 23
REMARK SMILES IDX 23 24 24 25 25 26 26 27 87 28 27 29 86 30 28 31 29 32 30 33
REMARK SMILES IDX 80 34 31 35 85 36 79 37 81 38 32 39 84 40 78 41 77 42 33 44
REMARK SMILES IDX 65 45 45 46 64 47 46 48 49 49 63 50 82 51 47 52 48 53 62 55
REMARK SMILES IDX 83 56 50 57 34 58 35 59 43 60 36 61 42 62 44 63 41 64 37 65
REMARK SMILES IDX 38 66 39 67 40 68 66 69 67 70 75 71 68 72 74 73 76 74 73 75
REMARK SMILES IDX 69 76 70 77 71 78 72 79 51 80 52 81 60 82 53 83 59 84 61 85
REMARK SMILES IDX 58 86 54 87 55 88 56 89 57 90
REMARK H PARENT 3 9 81 43 49 54
REMARK Flexibility Score: inf
ROOT
ATOM      1  C   UNL A   1      37.046  22.520  23.613  1.00  0.00     0.274 C 
ENDROOT
BRANCH   1   2
ATOM      2  O   UNL A   1      36.188  23.546  24.145  1.00  0.00    -0.461 OA
BRANCH   2   3
ATOM      3  C   UNL A   1      34.898  23.513  23.714  1.00  0.00     0.328 C 
ATOM      4  O   UNL A   1      34.548  23.175  22.588  1.00  0.00    -0.250 OA
BRANCH   3   5
ATOM      5  C   UNL A   1      33.914  24.062  24.752  1.00  0.00     0.189 C 
ATOM      6  C   UNL A   1      33.832  25.574  24.548  1.00  0.00     0.043 C 
BRANCH   5   7
ATOM      7  N   UNL A   1      34.227  23.747  26.152  1.00  0.00    -0.338 N 
ATOM      8  C   UNL A   1      33.893  22.607  26.861  1.00  0.00     0.262 C 
ATOM      9  H   UNL A   1      34.735  24.429  26.646  1.00  0.00     0.164 HD
ATOM     10  O   UNL A   1      34.011  22.621  28.084  1.00  0.00    -0.268 OA
BRANCH   8  11
ATOM     11  C   UNL A   1      33.395  21.468  26.106  1.00  0.00     0.093 A 
ATOM     12  C   UNL A   1      33.945  20.207  25.988  1.00  0.00     0.047 A 
ATOM     13  S   UNL A   1      31.960  21.606  25.178  1.00  0.00    -0.137 S 
ATOM     14  C   UNL A   1      33.355  19.472  24.923  1.00  0.00     0.094 A 
ATOM     15  C   UNL A   1      32.239  20.095  24.412  1.00  0.00     0.087 A 
BRANCH  14  16
ATOM     16  S   UNL A   1      34.066  18.035  24.259  1.00  0.00     0.243 S 
ATOM     17  O   UNL A   1      33.326  17.791  23.050  1.00  0.00    -0.207 OA
ATOM     18  O   UNL A   1      35.474  18.387  24.261  1.00  0.00    -0.207 OA
BRANCH  16  19
ATOM     19  N   UNL A   1      33.815  16.773  25.371  1.00  0.00    -0.204 NA
ATOM     20  C   UNL A   1      32.495  16.107  25.265  1.00  0.00     0.124 C 
ATOM     21  C   UNL A   1      34.915  15.790  25.463  1.00  0.00     0.124 C 
ENDBRANCH  16  19
ENDBRANCH  14  16
ENDBRANCH   8  11
ENDBRANCH   5   7
ENDBRANCH   3   5
ENDBRANCH   2   3
ENDBRANCH   1   2
BRANCH   1  22
ATOM     22  C   UNL A   1      37.240  21.378  24.613  1.00  0.00     0.275 C 
BRANCH  22  23
ATOM     23  O   UNL A   1      37.629  21.852  25.914  1.00  0.00    -0.458 OA
BRANCH  23  24
ATOM     24  C   UNL A   1      38.952  21.711  26.185  1.00  0.00     0.338 C 
ATOM     25  O   UNL A   1      39.658  20.773  25.844  1.00  0.00    -0.246 OA
BRANCH  24  26
ATOM     26  C   UNL A   1      39.491  22.910  26.860  1.00  0.00     0.060 A 
ATOM     27  C   UNL A   1      38.919  24.141  26.525  1.00  0.00     0.016 A 
ATOM     28  C   UNL A   1      40.572  22.857  27.746  1.00  0.00     0.016 A 
ATOM     29  C   UNL A   1      39.426  25.318  27.068  1.00  0.00     0.010 A 
ATOM     30  C   UNL A   1      41.093  24.045  28.280  1.00  0.00     0.010 A 
ATOM     31  C   UNL A   1      40.528  25.283  27.934  1.00  0.00    -0.014 A 
BRANCH  31  32
ATOM     32  C   UNL A   1      41.113  26.570  28.386  1.00  0.00     0.031 A 
ATOM     33  C   UNL A   1      42.508  26.930  27.965  1.00  0.00     0.074 A 
ATOM     34  C   UNL A   1      40.364  27.449  29.075  1.00  0.00     0.049 A 
ATOM     35  N   UNL A   1      43.154  28.057  28.115  1.00  0.00    -0.248 NA
ATOM     36  C   UNL A   1      43.272  25.876  27.285  1.00  0.00     0.031 C 
ATOM     37  C   UNL A   1      38.994  27.211  29.522  1.00  0.00     0.029 A 
ATOM     38  N   UNL A   1      40.628  28.736  29.471  1.00  0.00    -0.354 N 
ATOM     39  C   UNL A   1      44.410  27.848  27.559  1.00  0.00     0.074 A 
ATOM     40  C   UNL A   1      44.428  26.484  27.070  1.00  0.00     0.031 C 
ATOM     41  C   UNL A   1      38.512  28.341  30.067  1.00  0.00     0.029 A 
ATOM     42  C   UNL A   1      39.548  29.370  30.041  1.00  0.00     0.049 A 
ATOM     43  H   UNL A   1      41.507  29.166  29.359  1.00  0.00     0.167 HD
ATOM     44  C   UNL A   1      45.457  28.708  27.479  1.00  0.00     0.034 A 
ATOM     45  C   UNL A   1      39.409  30.640  30.477  1.00  0.00     0.034 A 
ATOM     46  C   UNL A   1      45.441  30.049  28.012  1.00  0.00     0.049 A 
ATOM     47  C   UNL A   1      40.595  31.572  30.393  1.00  0.00     0.074 A 
ATOM     48  C   UNL A   1      46.462  30.984  28.031  1.00  0.00     0.029 A 
ATOM     49  N   UNL A   1      44.353  30.642  28.640  1.00  0.00    -0.354 N 
ATOM     50  N   UNL A   1      41.779  31.359  29.867  1.00  0.00    -0.248 NA
ATOM     51  C   UNL A   1      40.426  32.909  30.978  1.00  0.00     0.031 C 
ATOM     52  C   UNL A   1      46.011  32.116  28.724  1.00  0.00     0.029 A 
ATOM     53  C   UNL A   1      44.686  31.916  29.076  1.00  0.00     0.049 A 
ATOM     54  H   UNL A   1      43.472  30.220  28.756  1.00  0.00     0.167 HD
ATOM     55  C   UNL A   1      42.496  32.538  30.061  1.00  0.00     0.074 A 
ATOM     56  C   UNL A   1      41.597  33.470  30.709  1.00  0.00     0.031 C 
ATOM     57  C   UNL A   1      43.786  32.823  29.748  1.00  0.00     0.034 A 
BRANCH  44  58
ATOM     58  C   UNL A   1      46.731  28.170  26.878  1.00  0.00     0.023 A 
ATOM     59  C   UNL A   1      46.987  28.246  25.498  1.00  0.00     0.031 A 
ATOM     60  C   UNL A   1      47.666  27.504  27.689  1.00  0.00     0.131 A 
ATOM     61  C   UNL A   1      48.110  27.597  24.961  1.00  0.00     0.055 A 
ATOM     62  C   UNL A   1      48.820  26.925  27.159  1.00  0.00     0.041 A 
ATOM     63  F   UNL A   1      47.457  27.378  29.009  1.00  0.00    -0.206 F 
ATOM     64  C   UNL A   1      49.039  26.955  25.784  1.00  0.00     0.022 A 
BRANCH  61  65
ATOM     65  S   UNL A   1      48.253  27.460  23.158  1.00  0.00     0.124 S 
ATOM     66  O   UNL A   1      49.558  28.069  22.918  1.00  0.00    -0.237 OA
ATOM     67  O   UNL A   1      48.169  26.020  22.945  1.00  0.00    -0.237 OA
ATOM     68  O   UNL A   1      47.113  28.232  22.664  1.00  0.00    -0.744 OA
ENDBRANCH  61  65
ENDBRANCH  44  58
BRANCH  45  69
ATOM     69  C   UNL A   1      38.115  31.122  31.042  1.00  0.00     0.023 A 
ATOM     70  C   UNL A   1      37.155  31.732  30.217  1.00  0.00     0.031 A 
ATOM     71  C   UNL A   1      37.845  31.046  32.419  1.00  0.00     0.131 A 
ATOM     72  C   UNL A   1      35.998  32.288  30.783  1.00  0.00     0.055 A 
ATOM     73  C   UNL A   1      36.664  31.547  32.969  1.00  0.00     0.041 A 
ATOM     74  F   UNL A   1      38.728  30.477  33.254  1.00  0.00    -0.206 F 
ATOM     75  C   UNL A   1      35.737  32.186  32.151  1.00  0.00     0.022 A 
BRANCH  72  76
ATOM     76  S   UNL A   1      34.877  33.234  29.715  1.00  0.00     0.124 S 
ATOM     77  O   UNL A   1      35.809  34.098  29.001  1.00  0.00    -0.237 OA
ATOM     78  O   UNL A   1      34.250  32.177  28.929  1.00  0.00    -0.237 OA
ATOM     79  O   UNL A   1      33.995  33.912  30.663  1.00  0.00    -0.744 OA
ENDBRANCH  72  76
ENDBRANCH  45  69
BRANCH  57  80
ATOM     80  C   UNL A   1      44.288  34.199  30.110  1.00  0.00     0.023 A 
ATOM     81  C   UNL A   1      44.112  35.295  29.247  1.00  0.00     0.031 A 
ATOM     82  C   UNL A   1      44.964  34.415  31.323  1.00  0.00     0.131 A 
ATOM     83  C   UNL A   1      44.653  36.546  29.581  1.00  0.00     0.055 A 
ATOM     84  C   UNL A   1      45.455  35.674  31.676  1.00  0.00     0.041 A 
ATOM     85  F   UNL A   1      45.160  33.404  32.185  1.00  0.00    -0.206 F 
ATOM     86  C   UNL A   1      45.312  36.744  30.798  1.00  0.00     0.022 A 
BRANCH  83  87
ATOM     87  S   UNL A   1      44.556  37.892  28.369  1.00  0.00     0.124 S 
ATOM     88  O   UNL A   1      43.942  37.227  27.224  1.00  0.00    -0.237 OA
ATOM     89  O   UNL A   1      43.725  38.873  29.057  1.00  0.00    -0.237 OA
ATOM     90  O   UNL A   1      45.952  38.286  28.181  1.00  0.00    -0.744 OA
ENDBRANCH  83  87
ENDBRANCH  57  80
ENDBRANCH  31  32
ENDBRANCH  24  26
ENDBRANCH  23  24
ENDBRANCH  22  23
ENDBRANCH   1  22
TORSDOF 18
ENDMDL
MODEL 2
REMARK VINA RESULT:     -10.9      1.969      3.592
REMARK SMILES C[C@H](NC(=O)c1cc(S(=O)(=O)N(C)C)cs1)C(=O)OCCOC(=O)c1ccc(-c2c3nc(c(-c4cc(S(=O)(=O)[O-])ccc4F)c4ccc([nH]4)c(-c4cc(S(=O)(=O)[O-])ccc4F)c4nc(c(-c5cc(S(=O)(=O)[O-])ccc5F)c5ccc2[nH]5)C=C4)C=C3)cc1
REMARK SMILES IDX 20 1 19 2 17 3 18 4 2 5 1 6 3 7 4 8 5 10 6 11 7 12 16 13
REMARK SMILES IDX 8 14 15 15 9 16 10 17 11 18 12 19 13 20 14 21 21 22 22 23
REMARK SMILES IDX 23 24 24 25 25 26 26 27 87 28 27 29 86 30 28 31 29 32 30 33
REMARK SMILES IDX 80 34 31 35 85 36 79 37 81 38 32 39 84 40 78 41 77 42 33 44
REMARK SMILES IDX 65 45 45 46 64 47 46 48 49 49 63 50 82 51 47 52 48 53 62 55
REMARK SMILES IDX 83 56 50 57 34 58 35 59 43 60 36 61 42 62 44 63 41 64 37 65
REMARK SMILES IDX 38 66 39 67 40 68 66 69 67 70 75 71 68 72 74 73 76 74 73 75
REMARK SMILES IDX 69 76 70 77 71 78 72 79 51 80 52 81 60 82 53 83 59 84 61 85
REMARK SMILES IDX 58 86 54 87 55 88 56 89 57 90
REMARK H PARENT 3 9 81 43 49 54
REMARK Flexibility Score: inf
ROOT
ATOM      1  C   UNL A   1      36.807  22.381  23.708  1.00  0.00     0.274 C 
ENDROOT
BRANCH   1   2
ATOM      2  O   UNL A   1      35.896  23.232  24.427  1.00  0.00    -0.461 OA
BRANCH   2   3
ATOM      3  C   UNL A   1      34.589  22.855  24.390  1.00  0.00     0.328 C 
ATOM      4  O   UNL A   1      34.070  22.233  23.469  1.00  0.00    -0.250 OA
BRANCH   3   5
ATOM      5  C   UNL A   1      33.783  23.399  25.574  1.00  0.00     0.189 C 
ATOM      6  C   UNL A   1      34.645  23.241  26.825  1.00  0.00     0.043 C 
BRANCH   5   7
ATOM      7  N   UNL A   1      32.463  22.786  25.777  1.00  0.00    -0.338 N 
ATOM      8  C   UNL A   1      31.233  23.416  25.831  1.00  0.00     0.262 C 
ATOM      9  H   UNL A   1      32.453  21.808  25.889  1.00  0.00     0.164 HD
ATOM     10  O   UNL A   1      30.270  22.786  26.260  1.00  0.00    -0.268 OA
BRANCH   8  11
ATOM     11  C   UNL A   1      31.169  24.802  25.397  1.00  0.00     0.093 A 
ATOM     12  C   UNL A   1      30.911  25.298  24.135  1.00  0.00     0.047 A 
ATOM     13  S   UNL A   1      31.468  26.071  26.510  1.00  0.00    -0.137 S 
ATOM     14  C   UNL A   1      31.245  26.676  24.031  1.00  0.00     0.094 A 
ATOM     15  C   UNL A   1      31.532  27.239  25.254  1.00  0.00     0.087 A 
BRANCH  14  16
ATOM     16  S   UNL A   1      31.415  27.495  22.510  1.00  0.00     0.243 S 
ATOM     17  O   UNL A   1      32.505  28.411  22.713  1.00  0.00    -0.207 OA
ATOM     18  O   UNL A   1      31.492  26.374  21.591  1.00  0.00    -0.207 OA
BRANCH  16  19
ATOM     19  N   UNL A   1      29.973  28.347  22.217  1.00  0.00    -0.204 NA
ATOM     20  C   UNL A   1      28.864  28.026  23.146  1.00  0.00     0.124 C 
ATOM     21  C   UNL A   1      30.131  29.806  22.040  1.00  0.00     0.124 C 
ENDBRANCH  16  19
ENDBRANCH  14  16
ENDBRANCH   8  11
ENDBRANCH   5   7
ENDBRANCH   3   5
ENDBRANCH   2   3
ENDBRANCH   1   2
BRANCH   1  22
ATOM     22  C   UNL A   1      37.324  21.241  24.588  1.00  0.00     0.275 C 
BRANCH  22  23
ATOM     23  O   UNL A   1      37.733  21.700  25.889  1.00  0.00    -0.458 OA
BRANCH  23  24
ATOM     24  C   UNL A   1      39.065  21.590  26.125  1.00  0.00     0.338 C 
ATOM     25  O   UNL A   1      39.785  20.673  25.757  1.00  0.00    -0.246 OA
BRANCH  24  26
ATOM     26  C   UNL A   1      39.591  22.796  26.798  1.00  0.00     0.060 A 
ATOM     27  C   UNL A   1      39.002  24.019  26.463  1.00  0.00     0.016 A 
ATOM     28  C   UNL A   1      40.675  22.758  27.681  1.00  0.00     0.016 A 
ATOM     29  C   UNL A   1      39.496  25.204  27.004  1.00  0.00     0.010 A 
ATOM     30  C   UNL A   1      41.182  23.952  28.213  1.00  0.00     0.010 A 
ATOM     31  C   UNL A   1      40.600  25.182  27.867  1.00  0.00    -0.014 A 
BRANCH  31  32
ATOM     32  C   UNL A   1      41.170  26.477  28.317  1.00  0.00     0.031 A 
ATOM     33  C   UNL A   1      42.561  26.852  27.898  1.00  0.00     0.074 A 
ATOM     34  C   UNL A   1      40.410  27.349  29.003  1.00  0.00     0.049 A 
ATOM     35  N   UNL A   1      43.195  27.986  28.046  1.00  0.00    -0.248 NA
ATOM     36  C   UNL A   1      43.338  25.805  27.222  1.00  0.00     0.031 C 
ATOM     37  C   UNL A   1      39.042  27.097  29.447  1.00  0.00     0.029 A 
ATOM     38  N   UNL A   1      40.659  28.641  29.396  1.00  0.00    -0.354 N 
ATOM     39  C   UNL A   1      44.455  27.790  27.493  1.00  0.00     0.074 A 
ATOM     40  C   UNL A   1      44.489  26.425  27.008  1.00  0.00     0.031 C 
ATOM     41  C   UNL A   1      38.547  28.224  29.990  1.00  0.00     0.029 A 
ATOM     42  C   UNL A   1      39.571  29.264  29.963  1.00  0.00     0.049 A 
ATOM     43  H   UNL A   1      41.534  29.080  29.284  1.00  0.00     0.167 HD
ATOM     44  C   UNL A   1      45.491  28.661  27.413  1.00  0.00     0.034 A 
ATOM     45  C   UNL A   1      39.417  30.533  30.395  1.00  0.00     0.034 A 
ATOM     46  C   UNL A   1      45.460  30.003  27.942  1.00  0.00     0.049 A 
ATOM     47  C   UNL A   1      40.593  31.478  30.310  1.00  0.00     0.074 A 
ATOM     48  C   UNL A   1      46.471  30.950  27.960  1.00  0.00     0.029 A 
ATOM     49  N   UNL A   1      44.365  30.586  28.566  1.00  0.00    -0.354 N 
ATOM     50  N   UNL A   1      41.781  31.277  29.787  1.00  0.00    -0.248 NA
ATOM     51  C   UNL A   1      40.409  32.815  30.891  1.00  0.00     0.031 C 
ATOM     52  C   UNL A   1      46.006  32.078  28.649  1.00  0.00     0.029 A 
ATOM     53  C   UNL A   1      44.683  31.864  28.999  1.00  0.00     0.049 A 
ATOM     54  H   UNL A   1      43.488  30.154  28.682  1.00  0.00     0.167 HD
ATOM     55  C   UNL A   1      42.484  32.465  29.980  1.00  0.00     0.074 A 
ATOM     56  C   UNL A   1      41.574  33.388  30.623  1.00  0.00     0.031 C 
ATOM     57  C   UNL A   1      43.771  32.763  29.667  1.00  0.00     0.034 A 
BRANCH  44  58
ATOM     58  C   UNL A   1      46.772  28.136  26.815  1.00  0.00     0.023 A 
ATOM     59  C   UNL A   1      47.043  28.237  25.439  1.00  0.00     0.031 A 
ATOM     60  C   UNL A   1      47.700  27.456  27.623  1.00  0.00     0.131 A 
ATOM     61  C   UNL A   1      48.172  27.600  24.902  1.00  0.00     0.055 A 
ATOM     62  C   UNL A   1      48.861  26.888  27.094  1.00  0.00     0.041 A 
ATOM     63  F   UNL A   1      47.478  27.305  28.938  1.00  0.00    -0.206 F 
ATOM     64  C   UNL A   1      49.093  26.944  25.723  1.00  0.00     0.022 A 
BRANCH  61  65
ATOM     65  S   UNL A   1      48.334  27.497  23.098  1.00  0.00     0.124 S 
ATOM     66  O   UNL A   1      48.301  26.053  22.881  1.00  0.00    -0.237 OA
ATOM     67  O   UNL A   1      47.169  28.242  22.636  1.00  0.00    -0.237 OA
ATOM     68  O   UNL A   1      49.626  28.129  22.834  1.00  0.00    -0.744 OA
ENDBRANCH  61  65
ENDBRANCH  44  58
BRANCH  45  69
ATOM     69  C   UNL A   1      38.117  31.003  30.956  1.00  0.00     0.023 A 
ATOM     70  C   UNL A   1      37.169  31.637  30.136  1.00  0.00     0.031 A 
ATOM     71  C   UNL A   1      37.829  30.890  32.327  1.00  0.00     0.131 A 
ATOM     72  C   UNL A   1      36.005  32.179  30.703  1.00  0.00     0.055 A 
ATOM     73  C   UNL A   1      36.642  31.378  32.875  1.00  0.00     0.041 A 
ATOM     74  F   UNL A   1      38.702  30.296  33.157  1.00  0.00    -0.206 F 
ATOM     75  C   UNL A   1      35.728  32.041  32.064  1.00  0.00     0.022 A 
BRANCH  72  76
ATOM     76  S   UNL A   1      34.900  33.156  29.646  1.00  0.00     0.124 S 
ATOM     77  O   UNL A   1      34.161  32.111  28.947  1.00  0.00    -0.237 OA
ATOM     78  O   UNL A   1      34.148  33.926  30.631  1.00  0.00    -0.237 OA
ATOM     79  O   UNL A   1      35.820  33.933  28.819  1.00  0.00    -0.744 OA
ENDBRANCH  72  76
ENDBRANCH  45  69
BRANCH  57  80
ATOM     80  C   UNL A   1      44.257  34.146  30.027  1.00  0.00     0.023 A 
ATOM     81  C   UNL A   1      44.064  35.239  29.164  1.00  0.00     0.031 A 
ATOM     82  C   UNL A   1      44.935  34.371  31.237  1.00  0.00     0.131 A 
ATOM     83  C   UNL A   1      44.591  36.496  29.495  1.00  0.00     0.055 A 
ATOM     84  C   UNL A   1      45.412  35.636  31.588  1.00  0.00     0.041 A 
ATOM     85  F   UNL A   1      45.147  33.363  32.099  1.00  0.00    -0.206 F 
ATOM     86  C   UNL A   1      45.252  36.704  30.709  1.00  0.00     0.022 A 
BRANCH  83  87
ATOM     87  S   UNL A   1      44.473  37.840  28.282  1.00  0.00     0.124 S 
ATOM     88  O   UNL A   1      44.693  37.135  27.024  1.00  0.00    -0.237 OA
ATOM     89  O   UNL A   1      43.121  38.343  28.504  1.00  0.00    -0.237 OA
ATOM     90  O   UNL A   1      45.546  38.753  28.676  1.00  0.00    -0.744 OA
ENDBRANCH  83  87
ENDBRANCH  57  80
ENDBRANCH  31  32
ENDBRANCH  24  26
ENDBRANCH  23  24
ENDBRANCH  22  23
ENDBRANCH   1  22
TORSDOF 18
ENDMDL
MODEL 3
REMARK VINA RESULT:     -10.9      2.075      3.932
REMARK SMILES C[C@H](NC(=O)c1cc(S(=O)(=O)N(C)C)cs1)C(=O)OCCOC(=O)c1ccc(-c2c3nc(c(-c4cc(S(=O)(=O)[O-])ccc4F)c4ccc([nH]4)c(-c4cc(S(=O)(=O)[O-])ccc4F)c4nc(c(-c5cc(S(=O)(=O)[O-])ccc5F)c5ccc2[nH]5)C=C4)C=C3)cc1
REMARK SMILES IDX 20 1 19 2 17 3 18 4 2 5 1 6 3 7 4 8 5 10 6 11 7 12 16 13
REMARK SMILES IDX 8 14 15 15 9 16 10 17 11 18 12 19 13 20 14 21 21 22 22 23
REMARK SMILES IDX 23 24 24 25 25 26 26 27 87 28 27 29 86 30 28 31 29 32 30 33
REMARK SMILES IDX 80 34 31 35 85 36 79 37 81 38 32 39 84 40 78 41 77 42 33 44
REMARK SMILES IDX 65 45 45 46 64 47 46 48 49 49 63 50 82 51 47 52 48 53 62 55
REMARK SMILES IDX 83 56 50 57 34 58 35 59 43 60 36 61 42 62 44 63 41 64 37 65
REMARK SMILES IDX 38 66 39 67 40 68 66 69 67 70 75 71 68 72 74 73 76 74 73 75
REMARK SMILES IDX 69 76 70 77 71 78 72 79 51 80 52 81 60 82 53 83 59 84 61 85
REMARK SMILES IDX 58 86 54 87 55 88 56 89 57 90
REMARK H PARENT 3 9 81 43 49 54
REMARK Flexibility Score: inf
ROOT
ATOM      1  C   UNL A   1      35.767  21.991  25.753  1.00  0.00     0.274 C 
ENDROOT
BRANCH   1   2
ATOM      2  O   UNL A   1      34.948  22.290  24.608  1.00  0.00    -0.461 OA
BRANCH   2   3
ATOM      3  C   UNL A   1      34.595  23.596  24.465  1.00  0.00     0.328 C 
ATOM      4  O   UNL A   1      35.171  24.536  25.003  1.00  0.00    -0.250 OA
BRANCH   3   5
ATOM      5  C   UNL A   1      33.310  23.776  23.649  1.00  0.00     0.189 C 
ATOM      6  C   UNL A   1      32.546  22.455  23.702  1.00  0.00     0.043 C 
BRANCH   5   7
ATOM      7  N   UNL A   1      33.499  24.208  22.257  1.00  0.00    -0.338 N 
ATOM      8  C   UNL A   1      32.934  25.300  21.623  1.00  0.00     0.262 C 
ATOM      9  H   UNL A   1      34.098  23.653  21.710  1.00  0.00     0.164 HD
ATOM     10  O   UNL A   1      32.998  25.364  20.398  1.00  0.00    -0.268 OA
BRANCH   8  11
ATOM     11  C   UNL A   1      32.275  26.293  22.455  1.00  0.00     0.093 A 
ATOM     12  C   UNL A   1      32.810  27.429  23.028  1.00  0.00     0.047 A 
ATOM     13  S   UNL A   1      30.620  26.114  22.868  1.00  0.00    -0.137 S 
ATOM     14  C   UNL A   1      31.952  27.973  24.023  1.00  0.00     0.094 A 
ATOM     15  C   UNL A   1      30.709  27.380  24.024  1.00  0.00     0.087 A 
BRANCH  14  16
ATOM     16  S   UNL A   1      32.481  29.143  25.191  1.00  0.00     0.243 S 
ATOM     17  O   UNL A   1      33.682  29.698  24.628  1.00  0.00    -0.207 OA
ATOM     18  O   UNL A   1      31.270  29.921  25.383  1.00  0.00    -0.207 OA
BRANCH  16  19
ATOM     19  N   UNL A   1      32.832  28.312  26.633  1.00  0.00    -0.204 NA
ATOM     20  C   UNL A   1      33.986  28.849  27.392  1.00  0.00     0.124 C 
ATOM     21  C   UNL A   1      31.671  28.060  27.511  1.00  0.00     0.124 C 
ENDBRANCH  16  19
ENDBRANCH  14  16
ENDBRANCH   8  11
ENDBRANCH   5   7
ENDBRANCH   3   5
ENDBRANCH   2   3
ENDBRANCH   1   2
BRANCH   1  22
ATOM     22  C   UNL A   1      36.950  21.096  25.377  1.00  0.00     0.275 C 
BRANCH  22  23
ATOM     23  O   UNL A   1      38.159  21.849  25.173  1.00  0.00    -0.458 OA
BRANCH  23  24
ATOM     24  C   UNL A   1      39.159  21.542  26.039  1.00  0.00     0.338 C 
ATOM     25  O   UNL A   1      39.664  20.439  26.189  1.00  0.00    -0.246 OA
BRANCH  24  26
ATOM     26  C   UNL A   1      39.666  22.751  26.721  1.00  0.00     0.060 A 
ATOM     27  C   UNL A   1      39.112  23.977  26.340  1.00  0.00     0.016 A 
ATOM     28  C   UNL A   1      40.703  22.711  27.660  1.00  0.00     0.016 A 
ATOM     29  C   UNL A   1      39.594  25.162  26.890  1.00  0.00     0.010 A 
ATOM     30  C   UNL A   1      41.199  23.906  28.200  1.00  0.00     0.010 A 
ATOM     31  C   UNL A   1      40.652  25.139  27.808  1.00  0.00    -0.014 A 
BRANCH  31  32
ATOM     32  C   UNL A   1      41.216  26.432  28.269  1.00  0.00     0.031 A 
ATOM     33  C   UNL A   1      42.606  26.817  27.853  1.00  0.00     0.074 A 
ATOM     34  C   UNL A   1      40.453  27.296  28.961  1.00  0.00     0.049 A 
ATOM     35  N   UNL A   1      43.235  27.952  28.011  1.00  0.00    -0.248 NA
ATOM     36  C   UNL A   1      43.388  25.778  27.169  1.00  0.00     0.031 C 
ATOM     37  C   UNL A   1      39.086  27.034  29.403  1.00  0.00     0.029 A 
ATOM     38  N   UNL A   1      40.696  28.585  29.365  1.00  0.00    -0.354 N 
ATOM     39  C   UNL A   1      44.495  27.766  27.457  1.00  0.00     0.074 A 
ATOM     40  C   UNL A   1      44.536  26.405  26.960  1.00  0.00     0.031 C 
ATOM     41  C   UNL A   1      38.585  28.153  29.954  1.00  0.00     0.029 A 
ATOM     42  C   UNL A   1      39.605  29.199  29.936  1.00  0.00     0.049 A 
ATOM     43  H   UNL A   1      41.568  29.028  29.257  1.00  0.00     0.167 HD
ATOM     44  C   UNL A   1      45.529  28.642  27.384  1.00  0.00     0.034 A 
ATOM     45  C   UNL A   1      39.445  30.463  30.378  1.00  0.00     0.034 A 
ATOM     46  C   UNL A   1      45.491  29.980  27.925  1.00  0.00     0.049 A 
ATOM     47  C   UNL A   1      40.617  31.414  30.302  1.00  0.00     0.074 A 
ATOM     48  C   UNL A   1      46.498  30.931  27.950  1.00  0.00     0.029 A 
ATOM     49  N   UNL A   1      44.393  30.553  28.553  1.00  0.00    -0.354 N 
ATOM     50  N   UNL A   1      41.805  31.223  29.778  1.00  0.00    -0.248 NA
ATOM     51  C   UNL A   1      40.426  32.745  30.894  1.00  0.00     0.031 C 
ATOM     52  C   UNL A   1      46.028  32.052  28.648  1.00  0.00     0.029 A 
ATOM     53  C   UNL A   1      44.705  31.829  28.996  1.00  0.00     0.049 A 
ATOM     54  H   UNL A   1      43.518  30.116  28.665  1.00  0.00     0.167 HD
ATOM     55  C   UNL A   1      42.504  32.412  29.981  1.00  0.00     0.074 A 
ATOM     56  C   UNL A   1      41.589  33.326  30.632  1.00  0.00     0.031 C 
ATOM     57  C   UNL A   1      43.789  32.718  29.672  1.00  0.00     0.034 A 
BRANCH  44  58
ATOM     58  C   UNL A   1      46.812  28.128  26.782  1.00  0.00     0.023 A 
ATOM     59  C   UNL A   1      47.075  28.224  25.405  1.00  0.00     0.031 A 
ATOM     60  C   UNL A   1      47.751  27.462  27.590  1.00  0.00     0.131 A 
ATOM     61  C   UNL A   1      48.208  27.596  24.866  1.00  0.00     0.055 A 
ATOM     62  C   UNL A   1      48.915  26.904  27.058  1.00  0.00     0.041 A 
ATOM     63  F   UNL A   1      47.537  27.316  28.907  1.00  0.00    -0.206 F 
ATOM     64  C   UNL A   1      49.140  26.955  25.686  1.00  0.00     0.022 A 
BRANCH  61  65
ATOM     65  S   UNL A   1      48.362  27.485  23.062  1.00  0.00     0.124 S 
ATOM     66  O   UNL A   1      49.653  28.128  22.836  1.00  0.00    -0.237 OA
ATOM     67  O   UNL A   1      48.313  26.045  22.832  1.00  0.00    -0.237 OA
ATOM     68  O   UNL A   1      47.206  28.235  22.573  1.00  0.00    -0.744 OA
ENDBRANCH  61  65
ENDBRANCH  44  58
BRANCH  45  69
ATOM     69  C   UNL A   1      38.143  30.923  30.943  1.00  0.00     0.023 A 
ATOM     70  C   UNL A   1      37.197  31.571  30.131  1.00  0.00     0.031 A 
ATOM     71  C   UNL A   1      37.850  30.786  32.311  1.00  0.00     0.131 A 
ATOM     72  C   UNL A   1      36.031  32.103  30.703  1.00  0.00     0.055 A 
ATOM     73  C   UNL A   1      36.660  31.264  32.863  1.00  0.00     0.041 A 
ATOM     74  F   UNL A   1      38.719  30.178  33.134  1.00  0.00    -0.206 F 
ATOM     75  C   UNL A   1      35.748  31.941  32.060  1.00  0.00     0.022 A 
BRANCH  72  76
ATOM     76  S   UNL A   1      34.929  33.098  29.659  1.00  0.00     0.124 S 
ATOM     77  O   UNL A   1      34.367  32.085  28.774  1.00  0.00    -0.237 OA
ATOM     78  O   UNL A   1      34.018  33.667  30.645  1.00  0.00    -0.237 OA
ATOM     79  O   UNL A   1      35.834  34.052  29.023  1.00  0.00    -0.744 OA
ENDBRANCH  72  76
ENDBRANCH  45  69
BRANCH  57  80
ATOM     80  C   UNL A   1      44.269  34.100  30.043  1.00  0.00     0.023 A 
ATOM     81  C   UNL A   1      44.098  35.194  29.175  1.00  0.00     0.031 A 
ATOM     82  C   UNL A   1      44.920  34.324  31.268  1.00  0.00     0.131 A 
ATOM     83  C   UNL A   1      44.618  36.450  29.520  1.00  0.00     0.055 A 
ATOM     84  C   UNL A   1      45.390  35.588  31.629  1.00  0.00     0.041 A 
ATOM     85  F   UNL A   1      45.111  33.315  32.134  1.00  0.00    -0.206 F 
ATOM     86  C   UNL A   1      45.252  36.656  30.749  1.00  0.00     0.022 A 
BRANCH  83  87
ATOM     87  S   UNL A   1      44.530  37.795  28.305  1.00  0.00     0.124 S 
ATOM     88  O   UNL A   1      43.994  38.893  29.104  1.00  0.00    -0.237 OA
ATOM     89  O   UNL A   1      45.922  37.931  27.888  1.00  0.00    -0.237 OA
ATOM     90  O   UNL A   1      43.625  37.274  27.281  1.00  0.00    -0.744 OA
ENDBRANCH  83  87
ENDBRANCH  57  80
ENDBRANCH  31  32
ENDBRANCH  24  26
ENDBRANCH  23  24
ENDBRANCH  22  23
ENDBRANCH   1  22
TORSDOF 18
ENDMDL
