MODEL 1
REMARK VINA RESULT:     -10.7      0.000      0.000
REMARK SMILES C[C@H]([NH2+][C@H](C)c1ccccn1)[C@@H](C)C(=O)OCCOC(=O)c1ccc(-c2c3nc(c(-c4cc(S(=O)(=O)[O-])ccc4F)c4ccc([nH]4)c(-c4cc(S(=O)(=O)[O-])ccc4F)c4nc(c(-c5cc(S(=O)(=O)[O-])ccc5F)c5ccc2[nH]5)C=C4)C=C3)cc1
REMARK SMILES IDX 17 1 16 2 14 3 15 4 12 5 13 6 2 7 1 8 3 9 4 12 5 13 6 14
REMARK SMILES IDX 7 15 11 16 8 17 10 18 9 19 18 20 19 21 20 22 21 23 22 24
REMARK SMILES IDX 23 25 84 26 24 27 83 28 25 29 26 30 27 31 77 32 28 33 82 34
REMARK SMILES IDX 76 35 78 36 29 37 81 38 75 39 74 40 30 42 62 43 42 44 61 45
REMARK SMILES IDX 43 46 46 47 60 48 79 49 44 50 45 51 59 53 80 54 47 55 31 56
REMARK SMILES IDX 32 57 40 58 33 59 39 60 41 61 38 62 34 63 35 64 36 65 37 66
REMARK SMILES IDX 63 67 64 68 72 69 65 70 71 71 73 72 70 73 66 74 67 75 68 76
REMARK SMILES IDX 69 77 48 78 49 79 57 80 50 81 56 82 58 83 55 84 51 85 52 86
REMARK SMILES IDX 53 87 54 88
REMARK H PARENT 3 10 3 11 78 41 46 52
REMARK Flexibility Score: inf
ROOT
ATOM      1  C   UNL A   1      36.558  22.561  23.857  1.00  0.00     0.274 C 
ENDROOT
BRANCH   1   2
ATOM      2  O   UNL A   1      35.127  22.488  24.045  1.00  0.00    -0.462 OA
BRANCH   2   3
ATOM      3  C   UNL A   1      34.630  23.386  24.932  1.00  0.00     0.314 C 
ATOM      4  O   UNL A   1      35.279  24.312  25.412  1.00  0.00    -0.252 OA
BRANCH   3   5
ATOM      5  C   UNL A   1      33.188  23.125  25.335  1.00  0.00     0.154 C 
ATOM      6  C   UNL A   1      32.596  24.477  25.751  1.00  0.00     0.026 C 
BRANCH   5   7
ATOM      7  C   UNL A   1      32.905  21.997  26.378  1.00  0.00     0.193 C 
ATOM      8  C   UNL A   1      34.169  21.474  27.066  1.00  0.00     0.076 C 
BRANCH   7   9
ATOM      9  N   UNL A   1      32.201  20.909  25.649  1.00  0.00    -0.336 N 
ATOM     10  H   UNL A   1      31.353  21.316  25.252  1.00  0.00     0.347 HD
ATOM     11  H   UNL A   1      32.075  20.186  26.357  1.00  0.00     0.347 HD
BRANCH   9  12
ATOM     12  C   UNL A   1      32.899  20.203  24.545  1.00  0.00     0.229 C 
ATOM     13  C   UNL A   1      32.222  20.470  23.195  1.00  0.00     0.082 C 
BRANCH  12  14
ATOM     14  C   UNL A   1      33.220  18.728  24.799  1.00  0.00     0.097 A 
ATOM     15  C   UNL A   1      34.431  18.189  24.350  1.00  0.00     0.030 A 
ATOM     16  N   UNL A   1      32.308  17.978  25.475  1.00  0.00    -0.255 NA
ATOM     17  C   UNL A   1      34.733  16.862  24.641  1.00  0.00     0.004 A 
ATOM     18  C   UNL A   1      32.623  16.684  25.718  1.00  0.00     0.111 A 
ATOM     19  C   UNL A   1      33.814  16.092  25.338  1.00  0.00     0.020 A 
ENDBRANCH  12  14
ENDBRANCH   9  12
ENDBRANCH   7   9
ENDBRANCH   5   7
ENDBRANCH   3   5
ENDBRANCH   2   3
ENDBRANCH   1   2
BRANCH   1  20
ATOM     20  C   UNL A   1      37.243  21.321  24.443  1.00  0.00     0.275 C 
BRANCH  20  21
ATOM     21  O   UNL A   1      37.611  21.569  25.812  1.00  0.00    -0.458 OA
BRANCH  21  22
ATOM     22  C   UNL A   1      38.923  21.393  26.098  1.00  0.00     0.338 C 
ATOM     23  O   UNL A   1      39.539  20.345  26.001  1.00  0.00    -0.246 OA
BRANCH  22  24
ATOM     24  C   UNL A   1      39.517  22.659  26.601  1.00  0.00     0.060 A 
ATOM     25  C   UNL A   1      39.091  23.916  26.154  1.00  0.00     0.016 A 
ATOM     26  C   UNL A   1      40.565  22.579  27.521  1.00  0.00     0.016 A 
ATOM     27  C   UNL A   1      39.732  25.082  26.593  1.00  0.00     0.010 A 
ATOM     28  C   UNL A   1      41.166  23.746  28.004  1.00  0.00     0.010 A 
ATOM     29  C   UNL A   1      40.772  25.009  27.528  1.00  0.00    -0.014 A 
BRANCH  29  30
ATOM     30  C   UNL A   1      41.503  26.224  27.987  1.00  0.00     0.031 A 
ATOM     31  C   UNL A   1      40.759  27.296  28.741  1.00  0.00     0.074 A 
ATOM     32  C   UNL A   1      42.805  26.402  27.689  1.00  0.00     0.049 A 
ATOM     33  N   UNL A   1      41.131  28.512  29.051  1.00  0.00    -0.248 NA
ATOM     34  C   UNL A   1      39.401  26.950  29.189  1.00  0.00     0.031 C 
ATOM     35  C   UNL A   1      43.656  25.437  26.994  1.00  0.00     0.029 A 
ATOM     36  N   UNL A   1      43.635  27.475  27.915  1.00  0.00    -0.354 N 
ATOM     37  C   UNL A   1      40.042  29.092  29.694  1.00  0.00     0.074 A 
ATOM     38  C   UNL A   1      38.988  28.096  29.706  1.00  0.00     0.031 C 
ATOM     39  C   UNL A   1      44.884  25.961  26.845  1.00  0.00     0.029 A 
ATOM     40  C   UNL A   1      44.892  27.321  27.376  1.00  0.00     0.049 A 
ATOM     41  H   UNL A   1      43.357  28.277  28.414  1.00  0.00     0.167 HD
ATOM     42  C   UNL A   1      39.931  30.335  30.227  1.00  0.00     0.034 A 
ATOM     43  C   UNL A   1      45.920  28.189  27.282  1.00  0.00     0.034 A 
ATOM     44  C   UNL A   1      40.993  31.313  30.219  1.00  0.00     0.049 A 
ATOM     45  C   UNL A   1      45.760  29.582  27.839  1.00  0.00     0.074 A 
ATOM     46  C   UNL A   1      40.990  32.597  30.740  1.00  0.00     0.029 A 
ATOM     47  N   UNL A   1      42.252  31.118  29.664  1.00  0.00    -0.354 N 
ATOM     48  N   UNL A   1      44.717  30.128  28.418  1.00  0.00    -0.248 NA
ATOM     49  C   UNL A   1      46.923  30.474  27.730  1.00  0.00     0.031 C 
ATOM     50  C   UNL A   1      42.223  33.195  30.450  1.00  0.00     0.029 A 
ATOM     51  C   UNL A   1      43.023  32.261  29.813  1.00  0.00     0.049 A 
ATOM     52  H   UNL A   1      42.552  30.288  29.228  1.00  0.00     0.167 HD
ATOM     53  C   UNL A   1      45.109  31.419  28.768  1.00  0.00     0.074 A 
ATOM     54  C   UNL A   1      46.488  31.561  28.348  1.00  0.00     0.031 C 
ATOM     55  C   UNL A   1      44.396  32.396  29.383  1.00  0.00     0.034 A 
BRANCH  42  56
ATOM     56  C   UNL A   1      38.592  30.719  30.812  1.00  0.00     0.023 A 
ATOM     57  C   UNL A   1      37.591  31.333  30.039  1.00  0.00     0.031 A 
ATOM     58  C   UNL A   1      38.326  30.504  32.177  1.00  0.00     0.131 A 
ATOM     59  C   UNL A   1      36.411  31.784  30.649  1.00  0.00     0.055 A 
ATOM     60  C   UNL A   1      37.114  30.878  32.761  1.00  0.00     0.041 A 
ATOM     61  F   UNL A   1      39.250  29.941  32.973  1.00  0.00    -0.206 F 
ATOM     62  C   UNL A   1      36.154  31.537  32.000  1.00  0.00     0.022 A 
BRANCH  59  63
ATOM     63  S   UNL A   1      35.286  32.834  29.688  1.00  0.00     0.124 S 
ATOM     64  O   UNL A   1      36.202  33.440  28.724  1.00  0.00    -0.237 OA
ATOM     65  O   UNL A   1      34.336  31.868  29.150  1.00  0.00    -0.237 OA
ATOM     66  O   UNL A   1      34.744  33.756  30.684  1.00  0.00    -0.744 OA
ENDBRANCH  59  63
ENDBRANCH  42  56
BRANCH  43  67
ATOM     67  C   UNL A   1      47.182  27.794  26.594  1.00  0.00     0.023 A 
ATOM     68  C   UNL A   1      47.329  27.949  25.206  1.00  0.00     0.031 A 
ATOM     69  C   UNL A   1      48.240  27.203  27.308  1.00  0.00     0.131 A 
ATOM     70  C   UNL A   1      48.487  27.477  24.569  1.00  0.00     0.055 A 
ATOM     71  C   UNL A   1      49.411  26.783  26.676  1.00  0.00     0.041 A 
ATOM     72  F   UNL A   1      48.151  27.031  28.636  1.00  0.00    -0.206 F 
ATOM     73  C   UNL A   1      49.534  26.907  25.296  1.00  0.00     0.022 A 
BRANCH  70  74
ATOM     74  S   UNL A   1      48.568  27.543  22.758  1.00  0.00     0.124 S 
ATOM     75  O   UNL A   1      49.800  28.292  22.543  1.00  0.00    -0.237 OA
ATOM     76  O   UNL A   1      48.607  26.127  22.404  1.00  0.00    -0.237 OA
ATOM     77  O   UNL A   1      47.338  28.241  22.388  1.00  0.00    -0.744 OA
ENDBRANCH  70  74
ENDBRANCH  43  67
BRANCH  55  78
ATOM     78  C   UNL A   1      45.124  33.683  29.688  1.00  0.00     0.023 A 
ATOM     79  C   UNL A   1      45.220  34.725  28.748  1.00  0.00     0.031 A 
ATOM     80  C   UNL A   1      45.763  33.854  30.930  1.00  0.00     0.131 A 
ATOM     81  C   UNL A   1      45.991  35.861  29.039  1.00  0.00     0.055 A 
ATOM     82  C   UNL A   1      46.480  35.011  31.236  1.00  0.00     0.041 A 
ATOM     83  F   UNL A   1      45.707  32.891  31.865  1.00  0.00    -0.206 F 
ATOM     84  C   UNL A   1      46.610  36.017  30.282  1.00  0.00     0.022 A 
BRANCH  81  85
ATOM     85  S   UNL A   1      46.266  37.088  27.730  1.00  0.00     0.124 S 
ATOM     86  O   UNL A   1      46.108  36.285  26.521  1.00  0.00    -0.237 OA
ATOM     87  O   UNL A   1      45.211  38.061  27.991  1.00  0.00    -0.237 OA
ATOM     88  O   UNL A   1      47.625  37.563  27.985  1.00  0.00    -0.744 OA
ENDBRANCH  81  85
ENDBRANCH  55  78
ENDBRANCH  29  30
ENDBRANCH  22  24
ENDBRANCH  21  22
ENDBRANCH  20  21
ENDBRANCH   1  20
TORSDOF 18
ENDMDL
MODEL 2
REMARK VINA RESULT:     -10.6      5.475      9.985
REMARK SMILES C[C@H]([NH2+][C@H](C)c1ccccn1)[C@@H](C)C(=O)OCCOC(=O)c1ccc(-c2c3nc(c(-c4cc(S(=O)(=O)[O-])ccc4F)c4ccc([nH]4)c(-c4cc(S(=O)(=O)[O-])ccc4F)c4nc(c(-c5cc(S(=O)(=O)[O-])ccc5F)c5ccc2[nH]5)C=C4)C=C3)cc1
REMARK SMILES IDX 17 1 16 2 14 3 15 4 12 5 13 6 2 7 1 8 3 9 4 12 5 13 6 14
REMARK SMILES IDX 7 15 11 16 8 17 10 18 9 19 18 20 19 21 20 22 21 23 22 24
REMARK SMILES IDX 23 25 84 26 24 27 83 28 25 29 26 30 27 31 77 32 28 33 82 34
REMARK SMILES IDX 76 35 78 36 29 37 81 38 75 39 74 40 30 42 62 43 42 44 61 45
REMARK SMILES IDX 43 46 46 47 60 48 79 49 44 50 45 51 59 53 80 54 47 55 31 56
REMARK SMILES IDX 32 57 40 58 33 59 39 60 41 61 38 62 34 63 35 64 36 65 37 66
REMARK SMILES IDX 63 67 64 68 72 69 65 70 71 71 73 72 70 73 66 74 67 75 68 76
REMARK SMILES IDX 69 77 48 78 49 79 57 80 50 81 56 82 58 83 55 84 51 85 52 86
REMARK SMILES IDX 53 87 54 88
REMARK H PARENT 3 10 3 11 78 41 46 52
REMARK Flexibility Score: inf
ROOT
ATOM      1  C   UNL A   1      31.817  28.433  24.612  1.00  0.00     0.274 C 
ENDROOT
BRANCH   1   2
ATOM      2  O   UNL A   1      32.560  27.513  25.441  1.00  0.00    -0.462 OA
BRANCH   2   3
ATOM      3  C   UNL A   1      31.790  26.663  26.166  1.00  0.00     0.314 C 
ATOM      4  O   UNL A   1      31.056  27.013  27.087  1.00  0.00    -0.252 OA
BRANCH   3   5
ATOM      5  C   UNL A   1      31.946  25.202  25.776  1.00  0.00     0.154 C 
ATOM      6  C   UNL A   1      33.332  24.762  26.264  1.00  0.00     0.026 C 
BRANCH   5   7
ATOM      7  C   UNL A   1      31.673  24.800  24.292  1.00  0.00     0.193 C 
ATOM      8  C   UNL A   1      30.266  25.167  23.812  1.00  0.00     0.076 C 
BRANCH   7   9
ATOM      9  N   UNL A   1      31.910  23.336  24.196  1.00  0.00    -0.336 N 
ATOM     10  H   UNL A   1      30.999  22.895  24.064  1.00  0.00     0.347 HD
ATOM     11  H   UNL A   1      32.407  23.115  25.060  1.00  0.00     0.347 HD
BRANCH   9  12
ATOM     12  C   UNL A   1      32.803  22.811  23.133  1.00  0.00     0.229 C 
ATOM     13  C   UNL A   1      32.156  21.635  22.390  1.00  0.00     0.082 C 
BRANCH  12  14
ATOM     14  C   UNL A   1      34.255  22.562  23.547  1.00  0.00     0.097 A 
ATOM     15  C   UNL A   1      34.542  21.670  24.585  1.00  0.00     0.030 A 
ATOM     16  N   UNL A   1      35.238  23.218  22.873  1.00  0.00    -0.255 NA
ATOM     17  C   UNL A   1      35.870  21.409  24.910  1.00  0.00     0.004 A 
ATOM     18  C   UNL A   1      36.518  22.961  23.232  1.00  0.00     0.111 A 
ATOM     19  C   UNL A   1      36.880  22.065  24.222  1.00  0.00     0.020 A 
ENDBRANCH  12  14
ENDBRANCH   9  12
ENDBRANCH   7   9
ENDBRANCH   5   7
ENDBRANCH   3   5
ENDBRANCH   2   3
ENDBRANCH   1   2
BRANCH   1  20
ATOM     20  C   UNL A   1      31.817  29.837  25.229  1.00  0.00     0.275 C 
BRANCH  20  21
ATOM     21  O   UNL A   1      33.114  30.127  25.780  1.00  0.00    -0.458 OA
BRANCH  21  22
ATOM     22  C   UNL A   1      33.122  31.021  26.797  1.00  0.00     0.338 C 
ATOM     23  O   UNL A   1      32.259  31.854  27.021  1.00  0.00    -0.246 OA
BRANCH  22  24
ATOM     24  C   UNL A   1      34.367  30.883  27.597  1.00  0.00     0.060 A 
ATOM     25  C   UNL A   1      35.294  31.924  27.727  1.00  0.00     0.016 A 
ATOM     26  C   UNL A   1      34.631  29.651  28.202  1.00  0.00     0.016 A 
ATOM     27  C   UNL A   1      36.493  31.725  28.424  1.00  0.00     0.010 A 
ATOM     28  C   UNL A   1      35.800  29.472  28.947  1.00  0.00     0.010 A 
ATOM     29  C   UNL A   1      36.756  30.498  29.047  1.00  0.00    -0.014 A 
BRANCH  29  30
ATOM     30  C   UNL A   1      38.038  30.239  29.762  1.00  0.00     0.031 A 
ATOM     31  C   UNL A   1      39.043  29.291  29.162  1.00  0.00     0.074 A 
ATOM     32  C   UNL A   1      38.284  30.797  30.964  1.00  0.00     0.049 A 
ATOM     33  N   UNL A   1      40.115  28.761  29.695  1.00  0.00    -0.248 NA
ATOM     34  C   UNL A   1      38.790  28.871  27.775  1.00  0.00     0.031 C 
ATOM     35  C   UNL A   1      37.417  31.755  31.648  1.00  0.00     0.029 A 
ATOM     36  N   UNL A   1      39.333  30.618  31.834  1.00  0.00    -0.354 N 
ATOM     37  C   UNL A   1      40.644  27.914  28.725  1.00  0.00     0.074 A 
ATOM     38  C   UNL A   1      39.756  27.988  27.581  1.00  0.00     0.031 C 
ATOM     39  C   UNL A   1      37.964  32.075  32.833  1.00  0.00     0.029 A 
ATOM     40  C   UNL A   1      39.187  31.299  33.021  1.00  0.00     0.049 A 
ATOM     41  H   UNL A   1      40.114  30.054  31.629  1.00  0.00     0.167 HD
ATOM     42  C   UNL A   1      41.764  27.150  28.782  1.00  0.00     0.034 A 
ATOM     43  C   UNL A   1      39.928  31.273  34.147  1.00  0.00     0.034 A 
ATOM     44  C   UNL A   1      42.646  27.097  29.924  1.00  0.00     0.049 A 
ATOM     45  C   UNL A   1      41.144  30.381  34.206  1.00  0.00     0.074 A 
ATOM     46  C   UNL A   1      43.812  26.365  30.082  1.00  0.00     0.029 A 
ATOM     47  N   UNL A   1      42.464  27.803  31.106  1.00  0.00    -0.354 N 
ATOM     48  N   UNL A   1      41.617  29.563  33.296  1.00  0.00    -0.248 NA
ATOM     49  C   UNL A   1      41.926  30.414  35.450  1.00  0.00     0.031 C 
ATOM     50  C   UNL A   1      44.301  26.585  31.376  1.00  0.00     0.029 A 
ATOM     51  C   UNL A   1      43.481  27.511  32.001  1.00  0.00     0.049 A 
ATOM     52  H   UNL A   1      41.718  28.422  31.282  1.00  0.00     0.167 HD
ATOM     53  C   UNL A   1      42.770  29.007  33.847  1.00  0.00     0.074 A 
ATOM     54  C   UNL A   1      42.926  29.595  35.162  1.00  0.00     0.031 C 
ATOM     55  C   UNL A   1      43.623  28.096  33.315  1.00  0.00     0.034 A 
BRANCH  42  56
ATOM     56  C   UNL A   1      42.062  26.271  27.590  1.00  0.00     0.023 A 
ATOM     57  C   UNL A   1      41.576  24.955  27.497  1.00  0.00     0.031 A 
ATOM     58  C   UNL A   1      42.879  26.744  26.546  1.00  0.00     0.131 A 
ATOM     59  C   UNL A   1      41.977  24.133  26.433  1.00  0.00     0.055 A 
ATOM     60  C   UNL A   1      43.206  25.948  25.446  1.00  0.00     0.041 A 
ATOM     61  F   UNL A   1      43.392  27.985  26.587  1.00  0.00    -0.206 F 
ATOM     62  C   UNL A   1      42.768  24.629  25.392  1.00  0.00     0.022 A 
BRANCH  59  63
ATOM     63  S   UNL A   1      41.579  22.365  26.507  1.00  0.00     0.124 S 
ATOM     64  O   UNL A   1      40.134  22.380  26.283  1.00  0.00    -0.237 OA
ATOM     65  O   UNL A   1      42.389  21.813  25.428  1.00  0.00    -0.237 OA
ATOM     66  O   UNL A   1      41.987  21.978  27.856  1.00  0.00    -0.744 OA
ENDBRANCH  59  63
ENDBRANCH  42  56
BRANCH  43  67
ATOM     67  C   UNL A   1      39.526  32.077  35.336  1.00  0.00     0.023 A 
ATOM     68  C   UNL A   1      38.772  31.507  36.374  1.00  0.00     0.031 A 
ATOM     69  C   UNL A   1      39.843  33.445  35.424  1.00  0.00     0.131 A 
ATOM     70  C   UNL A   1      38.320  32.309  37.433  1.00  0.00     0.055 A 
ATOM     71  C   UNL A   1      39.436  34.226  36.506  1.00  0.00     0.041 A 
ATOM     72  F   UNL A   1      40.561  34.039  34.459  1.00  0.00    -0.206 F 
ATOM     73  C   UNL A   1      38.659  33.662  37.513  1.00  0.00     0.022 A 
BRANCH  70  74
ATOM     74  S   UNL A   1      37.211  31.575  38.666  1.00  0.00     0.124 S 
ATOM     75  O   UNL A   1      37.029  30.229  38.138  1.00  0.00    -0.237 OA
ATOM     76  O   UNL A   1      38.002  31.685  39.888  1.00  0.00    -0.237 OA
ATOM     77  O   UNL A   1      36.029  32.433  38.614  1.00  0.00    -0.744 OA
ENDBRANCH  70  74
ENDBRANCH  43  67
BRANCH  55  78
ATOM     78  C   UNL A   1      44.833  27.730  34.140  1.00  0.00     0.023 A 
ATOM     79  C   UNL A   1      44.782  26.739  35.137  1.00  0.00     0.031 A 
ATOM     80  C   UNL A   1      46.049  28.411  33.949  1.00  0.00     0.131 A 
ATOM     81  C   UNL A   1      45.904  26.503  35.947  1.00  0.00     0.055 A 
ATOM     82  C   UNL A   1      47.179  28.131  34.718  1.00  0.00     0.041 A 
ATOM     83  F   UNL A   1      46.156  29.368  33.012  1.00  0.00    -0.206 F 
ATOM     84  C   UNL A   1      47.106  27.183  35.735  1.00  0.00     0.022 A 
BRANCH  81  85
ATOM     85  S   UNL A   1      45.740  25.370  37.356  1.00  0.00     0.124 S 
ATOM     86  O   UNL A   1      46.500  26.061  38.393  1.00  0.00    -0.237 OA
ATOM     87  O   UNL A   1      44.295  25.323  37.549  1.00  0.00    -0.237 OA
ATOM     88  O   UNL A   1      46.341  24.129  36.869  1.00  0.00    -0.744 OA
ENDBRANCH  81  85
ENDBRANCH  55  78
ENDBRANCH  29  30
ENDBRANCH  22  24
ENDBRANCH  21  22
ENDBRANCH  20  21
ENDBRANCH   1  20
TORSDOF 18
ENDMDL
MODEL 3
REMARK VINA RESULT:     -10.6      5.146      9.696
REMARK SMILES C[C@H]([NH2+][C@H](C)c1ccccn1)[C@@H](C)C(=O)OCCOC(=O)c1ccc(-c2c3nc(c(-c4cc(S(=O)(=O)[O-])ccc4F)c4ccc([nH]4)c(-c4cc(S(=O)(=O)[O-])ccc4F)c4nc(c(-c5cc(S(=O)(=O)[O-])ccc5F)c5ccc2[nH]5)C=C4)C=C3)cc1
REMARK SMILES IDX 17 1 16 2 14 3 15 4 12 5 13 6 2 7 1 8 3 9 4 12 5 13 6 14
REMARK SMILES IDX 7 15 11 16 8 17 10 18 9 19 18 20 19 21 20 22 21 23 22 24
REMARK SMILES IDX 23 25 84 26 24 27 83 28 25 29 26 30 27 31 77 32 28 33 82 34
REMARK SMILES IDX 76 35 78 36 29 37 81 38 75 39 74 40 30 42 62 43 42 44 61 45
REMARK SMILES IDX 43 46 46 47 60 48 79 49 44 50 45 51 59 53 80 54 47 55 31 56
REMARK SMILES IDX 32 57 40 58 33 59 39 60 41 61 38 62 34 63 35 64 36 65 37 66
REMARK SMILES IDX 63 67 64 68 72 69 65 70 71 71 73 72 70 73 66 74 67 75 68 76
REMARK SMILES IDX 69 77 48 78 49 79 57 80 50 81 56 82 58 83 55 84 51 85 52 86
REMARK SMILES IDX 53 87 54 88
REMARK H PARENT 3 10 3 11 78 41 46 52
REMARK Flexibility Score: inf
ROOT
ATOM      1  C   UNL A   1      31.398  29.035  24.007  1.00  0.00     0.274 C 
ENDROOT
BRANCH   1   2
ATOM      2  O   UNL A   1      30.316  28.098  23.811  1.00  0.00    -0.462 OA
BRANCH   2   3
ATOM      3  C   UNL A   1      30.634  27.024  23.044  1.00  0.00     0.314 C 
ATOM      4  O   UNL A   1      31.139  27.101  21.927  1.00  0.00    -0.252 OA
BRANCH   3   5
ATOM      5  C   UNL A   1      30.265  25.687  23.666  1.00  0.00     0.154 C 
ATOM      6  C   UNL A   1      29.672  25.994  25.047  1.00  0.00     0.026 C 
BRANCH   5   7
ATOM      7  C   UNL A   1      31.353  24.568  23.712  1.00  0.00     0.193 C 
ATOM      8  C   UNL A   1      31.155  23.576  24.862  1.00  0.00     0.076 C 
BRANCH   7   9
ATOM      9  N   UNL A   1      32.668  25.254  23.814  1.00  0.00    -0.336 N 
ATOM     10  H   UNL A   1      32.481  26.258  23.803  1.00  0.00     0.347 HD
ATOM     11  H   UNL A   1      33.198  24.877  23.029  1.00  0.00     0.347 HD
BRANCH   9  12
ATOM     12  C   UNL A   1      33.538  24.989  24.987  1.00  0.00     0.229 C 
ATOM     13  C   UNL A   1      33.857  26.281  25.750  1.00  0.00     0.082 C 
BRANCH  12  14
ATOM     14  C   UNL A   1      34.760  24.107  24.722  1.00  0.00     0.097 A 
ATOM     15  C   UNL A   1      35.063  23.707  23.416  1.00  0.00     0.030 A 
ATOM     16  N   UNL A   1      35.533  23.742  25.780  1.00  0.00    -0.255 NA
ATOM     17  C   UNL A   1      36.212  22.955  23.184  1.00  0.00     0.004 A 
ATOM     18  C   UNL A   1      36.627  22.989  25.523  1.00  0.00     0.111 A 
ATOM     19  C   UNL A   1      37.011  22.587  24.256  1.00  0.00     0.020 A 
ENDBRANCH  12  14
ENDBRANCH   9  12
ENDBRANCH   7   9
ENDBRANCH   5   7
ENDBRANCH   3   5
ENDBRANCH   2   3
ENDBRANCH   1   2
BRANCH   1  20
ATOM     20  C   UNL A   1      31.749  29.151  25.495  1.00  0.00     0.275 C 
BRANCH  20  21
ATOM     21  O   UNL A   1      32.958  29.916  25.651  1.00  0.00    -0.458 OA
BRANCH  21  22
ATOM     22  C   UNL A   1      32.929  30.845  26.636  1.00  0.00     0.338 C 
ATOM     23  O   UNL A   1      32.051  31.674  26.808  1.00  0.00    -0.246 OA
BRANCH  22  24
ATOM     24  C   UNL A   1      34.155  30.751  27.471  1.00  0.00     0.060 A 
ATOM     25  C   UNL A   1      34.959  31.863  27.751  1.00  0.00     0.016 A 
ATOM     26  C   UNL A   1      34.531  29.496  27.954  1.00  0.00     0.016 A 
ATOM     27  C   UNL A   1      36.149  31.716  28.476  1.00  0.00     0.010 A 
ATOM     28  C   UNL A   1      35.688  29.359  28.728  1.00  0.00     0.010 A 
ATOM     29  C   UNL A   1      36.522  30.463  28.977  1.00  0.00    -0.014 A 
BRANCH  29  30
ATOM     30  C   UNL A   1      37.800  30.262  29.718  1.00  0.00     0.031 A 
ATOM     31  C   UNL A   1      38.849  29.341  29.150  1.00  0.00     0.074 A 
ATOM     32  C   UNL A   1      38.006  30.849  30.913  1.00  0.00     0.049 A 
ATOM     33  N   UNL A   1      39.930  28.859  29.710  1.00  0.00    -0.248 NA
ATOM     34  C   UNL A   1      38.634  28.889  27.767  1.00  0.00     0.031 C 
ATOM     35  C   UNL A   1      37.094  31.787  31.566  1.00  0.00     0.029 A 
ATOM     36  N   UNL A   1      39.047  30.723  31.803  1.00  0.00    -0.354 N 
ATOM     37  C   UNL A   1      40.505  28.016  28.764  1.00  0.00     0.074 A 
ATOM     38  C   UNL A   1      39.635  28.037  27.604  1.00  0.00     0.031 C 
ATOM     39  C   UNL A   1      37.610  32.147  32.754  1.00  0.00     0.029 A 
ATOM     40  C   UNL A   1      38.856  31.419  32.975  1.00  0.00     0.049 A 
ATOM     41  H   UNL A   1      39.851  30.185  31.621  1.00  0.00     0.167 HD
ATOM     42  C   UNL A   1      41.651  27.294  28.852  1.00  0.00     0.034 A 
ATOM     43  C   UNL A   1      39.579  31.439  34.113  1.00  0.00     0.034 A 
ATOM     44  C   UNL A   1      42.515  27.292  30.009  1.00  0.00     0.049 A 
ATOM     45  C   UNL A   1      40.825  30.593  34.208  1.00  0.00     0.074 A 
ATOM     46  C   UNL A   1      43.704  26.606  30.199  1.00  0.00     0.029 A 
ATOM     47  N   UNL A   1      42.288  28.011  31.175  1.00  0.00    -0.354 N 
ATOM     48  N   UNL A   1      41.343  29.777  33.319  1.00  0.00    -0.248 NA
ATOM     49  C   UNL A   1      41.584  30.674  35.463  1.00  0.00     0.031 C 
ATOM     50  C   UNL A   1      44.162  26.865  31.496  1.00  0.00     0.029 A 
ATOM     51  C   UNL A   1      43.300  27.771  32.092  1.00  0.00     0.049 A 
ATOM     52  H   UNL A   1      41.517  28.606  31.329  1.00  0.00     0.167 HD
ATOM     53  C   UNL A   1      42.505  29.272  33.899  1.00  0.00     0.074 A 
ATOM     54  C   UNL A   1      42.618  29.888  35.206  1.00  0.00     0.031 C 
ATOM     55  C   UNL A   1      43.399  28.383  33.397  1.00  0.00     0.034 A 
BRANCH  42  56
ATOM     56  C   UNL A   1      42.000  26.406  27.681  1.00  0.00     0.023 A 
ATOM     57  C   UNL A   1      41.631  25.050  27.640  1.00  0.00     0.031 A 
ATOM     58  C   UNL A   1      42.749  26.914  26.603  1.00  0.00     0.131 A 
ATOM     59  C   UNL A   1      42.081  24.232  26.593  1.00  0.00     0.055 A 
ATOM     60  C   UNL A   1      43.121  26.115  25.520  1.00  0.00     0.041 A 
ATOM     61  F   UNL A   1      43.149  28.196  26.594  1.00  0.00    -0.206 F 
ATOM     62  C   UNL A   1      42.801  24.761  25.518  1.00  0.00     0.022 A 
BRANCH  59  63
ATOM     63  S   UNL A   1      41.844  22.439  26.731  1.00  0.00     0.124 S 
ATOM     64  O   UNL A   1      40.451  22.360  27.168  1.00  0.00    -0.237 OA
ATOM     65  O   UNL A   1      42.118  21.978  25.376  1.00  0.00    -0.237 OA
ATOM     66  O   UNL A   1      42.825  22.040  27.737  1.00  0.00    -0.744 OA
ENDBRANCH  59  63
ENDBRANCH  42  56
BRANCH  43  67
ATOM     67  C   UNL A   1      39.128  32.247  35.281  1.00  0.00     0.023 A 
ATOM     68  C   UNL A   1      39.593  33.558  35.478  1.00  0.00     0.031 A 
ATOM     69  C   UNL A   1      38.268  31.700  36.250  1.00  0.00     0.131 A 
ATOM     70  C   UNL A   1      39.233  34.261  36.638  1.00  0.00     0.055 A 
ATOM     71  C   UNL A   1      37.871  32.423  37.375  1.00  0.00     0.041 A 
ATOM     72  F   UNL A   1      37.795  30.451  36.111  1.00  0.00    -0.206 F 
ATOM     73  C   UNL A   1      38.365  33.708  37.581  1.00  0.00     0.022 A 
BRANCH  70  74
ATOM     74  S   UNL A   1      39.986  35.884  36.936  1.00  0.00     0.124 S 
ATOM     75  O   UNL A   1      41.383  35.528  37.153  1.00  0.00    -0.237 OA
ATOM     76  O   UNL A   1      39.688  36.589  35.694  1.00  0.00    -0.237 OA
ATOM     77  O   UNL A   1      39.276  36.377  38.115  1.00  0.00    -0.744 OA
ENDBRANCH  70  74
ENDBRANCH  43  67
BRANCH  55  78
ATOM     78  C   UNL A   1      44.607  28.076  34.248  1.00  0.00     0.023 A 
ATOM     79  C   UNL A   1      45.784  28.842  34.174  1.00  0.00     0.031 A 
ATOM     80  C   UNL A   1      44.592  26.973  35.121  1.00  0.00     0.131 A 
ATOM     81  C   UNL A   1      46.917  28.459  34.910  1.00  0.00     0.055 A 
ATOM     82  C   UNL A   1      45.702  26.631  35.894  1.00  0.00     0.041 A 
ATOM     83  F   UNL A   1      43.496  26.204  35.230  1.00  0.00    -0.206 F 
ATOM     84  C   UNL A   1      46.878  27.366  35.780  1.00  0.00     0.022 A 
BRANCH  81  85
ATOM     85  S   UNL A   1      48.477  29.344  34.635  1.00  0.00     0.124 S 
ATOM     86  O   UNL A   1      48.320  30.514  35.492  1.00  0.00    -0.237 OA
ATOM     87  O   UNL A   1      49.469  28.365  35.066  1.00  0.00    -0.237 OA
ATOM     88  O   UNL A   1      48.464  29.621  33.199  1.00  0.00    -0.744 OA
ENDBRANCH  81  85
ENDBRANCH  55  78
ENDBRANCH  29  30
ENDBRANCH  22  24
ENDBRANCH  21  22
ENDBRANCH  20  21
ENDBRANCH   1  20
TORSDOF 18
ENDMDL
