MODEL 1
REMARK VINA RESULT:     -11.8      0.000      0.000
REMARK SMILES C[C@H]1SC[C@H](C(=O)OCCOC(=O)c2ccc(-c3c4nc(c(-c5cc(S(=O)(=O)[O-])ccc5F)c5ccc([nH]5)c(-c5cc(S(=O)(=O)[O-])ccc5F)c5nc(c(-c6cc(S(=O)(=O)[O-])ccc6F)c6ccc3[nH]6)C=C5)C=C4)cc2)N1C(=O)[C@@H]1CSc2ccccc21
REMARK SMILES IDX 10 1 9 2 8 3 6 4 7 5 5 6 1 7 2 8 3 9 77 10 4 11 78 12 79 13
REMARK SMILES IDX 80 14 81 15 88 16 82 17 83 18 87 19 84 20 86 21 85 22 11 23
REMARK SMILES IDX 12 24 13 25 14 26 15 27 76 28 16 29 75 30 17 31 18 32 19 33
REMARK SMILES IDX 69 34 20 35 74 36 68 37 70 38 21 39 73 40 67 41 66 42 22 44
REMARK SMILES IDX 54 45 34 46 53 47 35 48 38 49 52 50 71 51 36 52 37 53 51 55
REMARK SMILES IDX 72 56 39 57 23 58 24 59 32 60 25 61 31 62 33 63 30 64 26 65
REMARK SMILES IDX 27 66 28 67 29 68 55 69 56 70 64 71 57 72 63 73 65 74 62 75
REMARK SMILES IDX 58 76 59 77 60 78 61 79 40 80 41 81 49 82 42 83 48 84 50 85
REMARK SMILES IDX 47 86 43 87 44 88 45 89 46 90
REMARK H PARENT 70 43 38 54
REMARK Flexibility Score: inf
ROOT
ATOM      1  C   UNL A   1      36.790  20.140  24.977  1.00  0.00     0.275 C 
ENDROOT
BRANCH   1   2
ATOM      2  C   UNL A   1      35.343  20.626  24.948  1.00  0.00     0.274 C 
BRANCH   2   3
ATOM      3  O   UNL A   1      35.339  22.045  24.716  1.00  0.00    -0.461 OA
BRANCH   3   4
ATOM      4  C   UNL A   1      34.622  22.802  25.589  1.00  0.00     0.329 C 
ATOM      5  O   UNL A   1      35.123  23.397  26.537  1.00  0.00    -0.250 OA
BRANCH   4   6
ATOM      6  C   UNL A   1      33.137  22.891  25.174  1.00  0.00     0.206 C 
ATOM      7  C   UNL A   1      30.648  24.018  23.458  1.00  0.00     0.043 C 
ATOM      8  C   UNL A   1      31.257  24.370  24.819  1.00  0.00     0.141 C 
ATOM      9  S   UNL A   1      30.633  23.193  26.055  1.00  0.00    -0.135 SA
ATOM     10  N   UNL A   1      32.710  24.255  24.850  1.00  0.00    -0.316 N 
ATOM     11  C   UNL A   1      32.234  22.391  26.301  1.00  0.00     0.109 C 
BRANCH  10  12
ATOM     12  C   UNL A   1      33.443  24.963  23.905  1.00  0.00     0.232 C 
ATOM     13  O   UNL A   1      33.828  24.432  22.863  1.00  0.00    -0.274 OA
BRANCH  12  14
ATOM     14  C   UNL A   1      33.779  26.421  24.232  1.00  0.00     0.120 C 
ATOM     15  C   UNL A   1      34.135  26.639  25.712  1.00  0.00     0.093 C 
ATOM     16  C   UNL A   1      32.667  27.369  23.878  1.00  0.00    -0.021 A 
ATOM     17  S   UNL A   1      32.741  27.498  26.519  1.00  0.00    -0.125 SA
ATOM     18  C   UNL A   1      32.013  27.941  24.970  1.00  0.00     0.011 A 
ATOM     19  C   UNL A   1      32.219  27.607  22.581  1.00  0.00     0.006 A 
ATOM     20  C   UNL A   1      30.866  28.700  24.793  1.00  0.00     0.015 A 
ATOM     21  C   UNL A   1      31.075  28.380  22.394  1.00  0.00     0.000 A 
ATOM     22  C   UNL A   1      30.393  28.913  23.496  1.00  0.00     0.001 A 
ENDBRANCH  12  14
ENDBRANCH  10  12
ENDBRANCH   4   6
ENDBRANCH   3   4
ENDBRANCH   2   3
ENDBRANCH   1   2
BRANCH   1  23
ATOM     23  O   UNL A   1      37.690  21.255  25.130  1.00  0.00    -0.458 OA
BRANCH  23  24
ATOM     24  C   UNL A   1      38.835  20.961  25.793  1.00  0.00     0.338 C 
ATOM     25  O   UNL A   1      39.402  19.886  25.844  1.00  0.00    -0.246 OA
BRANCH  24  26
ATOM     26  C   UNL A   1      39.369  22.163  26.447  1.00  0.00     0.060 A 
ATOM     27  C   UNL A   1      38.845  23.412  26.120  1.00  0.00     0.016 A 
ATOM     28  C   UNL A   1      40.503  22.060  27.249  1.00  0.00     0.016 A 
ATOM     29  C   UNL A   1      39.518  24.570  26.508  1.00  0.00     0.010 A 
ATOM     30  C   UNL A   1      41.116  23.224  27.722  1.00  0.00     0.010 A 
ATOM     31  C   UNL A   1      40.657  24.493  27.324  1.00  0.00    -0.014 A 
BRANCH  31  32
ATOM     32  C   UNL A   1      41.387  25.725  27.739  1.00  0.00     0.031 A 
ATOM     33  C   UNL A   1      40.687  26.777  28.561  1.00  0.00     0.074 A 
ATOM     34  C   UNL A   1      42.670  25.915  27.369  1.00  0.00     0.049 A 
ATOM     35  N   UNL A   1      41.060  28.001  28.836  1.00  0.00    -0.248 NA
ATOM     36  C   UNL A   1      39.384  26.404  29.133  1.00  0.00     0.031 C 
ATOM     37  C   UNL A   1      43.483  24.964  26.609  1.00  0.00     0.029 A 
ATOM     38  N   UNL A   1      43.514  26.977  27.578  1.00  0.00    -0.354 N 
ATOM     39  C   UNL A   1      40.013  28.566  29.560  1.00  0.00     0.074 A 
ATOM     40  C   UNL A   1      38.989  27.547  29.676  1.00  0.00     0.031 C 
ATOM     41  C   UNL A   1      44.712  25.473  26.437  1.00  0.00     0.029 A 
ATOM     42  C   UNL A   1      44.749  26.821  26.994  1.00  0.00     0.049 A 
ATOM     43  H   UNL A   1      43.260  27.774  28.097  1.00  0.00     0.167 HD
ATOM     44  C   UNL A   1      39.915  29.819  30.073  1.00  0.00     0.034 A 
ATOM     45  C   UNL A   1      45.780  27.679  26.870  1.00  0.00     0.034 A 
ATOM     46  C   UNL A   1      40.964  30.807  29.988  1.00  0.00     0.049 A 
ATOM     47  C   UNL A   1      45.645  29.068  27.430  1.00  0.00     0.074 A 
ATOM     48  C   UNL A   1      40.976  32.100  30.486  1.00  0.00     0.029 A 
ATOM     49  N   UNL A   1      42.195  30.609  29.376  1.00  0.00    -0.354 N 
ATOM     50  N   UNL A   1      44.622  29.613  28.045  1.00  0.00    -0.248 NA
ATOM     51  C   UNL A   1      46.798  29.962  27.265  1.00  0.00     0.031 C 
ATOM     52  C   UNL A   1      42.193  32.698  30.133  1.00  0.00     0.029 A 
ATOM     53  C   UNL A   1      42.966  31.759  29.468  1.00  0.00     0.049 A 
ATOM     54  H   UNL A   1      42.480  29.774  28.939  1.00  0.00     0.167 HD
ATOM     55  C   UNL A   1      45.011  30.914  28.345  1.00  0.00     0.074 A 
ATOM     56  C   UNL A   1      46.370  31.063  27.863  1.00  0.00     0.031 C 
ATOM     57  C   UNL A   1      44.309  31.898  28.962  1.00  0.00     0.034 A 
BRANCH  44  58
ATOM     58  C   UNL A   1      38.603  30.207  30.710  1.00  0.00     0.023 A 
ATOM     59  C   UNL A   1      37.588  30.867  29.996  1.00  0.00     0.031 A 
ATOM     60  C   UNL A   1      38.379  29.936  32.073  1.00  0.00     0.131 A 
ATOM     61  C   UNL A   1      36.429  31.294  30.662  1.00  0.00     0.055 A 
ATOM     62  C   UNL A   1      37.193  30.299  32.713  1.00  0.00     0.041 A 
ATOM     63  F   UNL A   1      39.320  29.325  32.811  1.00  0.00    -0.206 F 
ATOM     64  C   UNL A   1      36.215  30.995  32.011  1.00  0.00     0.022 A 
BRANCH  61  65
ATOM     65  S   UNL A   1      35.261  32.364  29.778  1.00  0.00     0.124 S 
ATOM     66  O   UNL A   1      34.809  31.482  28.705  1.00  0.00    -0.237 OA
ATOM     67  O   UNL A   1      34.277  32.674  30.808  1.00  0.00    -0.237 OA
ATOM     68  O   UNL A   1      36.086  33.489  29.344  1.00  0.00    -0.744 OA
ENDBRANCH  61  65
ENDBRANCH  44  58
BRANCH  45  69
ATOM     69  C   UNL A   1      47.001  27.274  26.119  1.00  0.00     0.023 A 
ATOM     70  C   UNL A   1      47.172  27.622  24.770  1.00  0.00     0.031 A 
ATOM     71  C   UNL A   1      48.009  26.516  26.741  1.00  0.00     0.131 A 
ATOM     72  C   UNL A   1      48.313  27.189  24.079  1.00  0.00     0.055 A 
ATOM     73  C   UNL A   1      49.163  26.126  26.062  1.00  0.00     0.041 A 
ATOM     74  F   UNL A   1      47.892  26.161  28.030  1.00  0.00    -0.206 F 
ATOM     75  C   UNL A   1      49.316  26.456  24.718  1.00  0.00     0.022 A 
BRANCH  72  76
ATOM     76  S   UNL A   1      48.444  27.548  22.306  1.00  0.00     0.124 S 
ATOM     77  O   UNL A   1      49.599  28.438  22.265  1.00  0.00    -0.237 OA
ATOM     78  O   UNL A   1      48.639  26.217  21.740  1.00  0.00    -0.237 OA
ATOM     79  O   UNL A   1      47.162  28.174  21.990  1.00  0.00    -0.744 OA
ENDBRANCH  72  76
ENDBRANCH  45  69
BRANCH  57  80
ATOM     80  C   UNL A   1      45.024  33.207  29.169  1.00  0.00     0.023 A 
ATOM     81  C   UNL A   1      44.992  34.223  28.198  1.00  0.00     0.031 A 
ATOM     82  C   UNL A   1      45.771  33.427  30.339  1.00  0.00     0.131 A 
ATOM     83  C   UNL A   1      45.736  35.396  28.393  1.00  0.00     0.055 A 
ATOM     84  C   UNL A   1      46.472  34.615  30.548  1.00  0.00     0.041 A 
ATOM     85  F   UNL A   1      45.834  32.486  31.295  1.00  0.00    -0.206 F 
ATOM     86  C   UNL A   1      46.467  35.602  29.567  1.00  0.00     0.022 A 
BRANCH  83  87
ATOM     87  S   UNL A   1      45.802  36.620  27.056  1.00  0.00     0.124 S 
ATOM     88  O   UNL A   1      44.456  37.185  27.094  1.00  0.00    -0.237 OA
ATOM     89  O   UNL A   1      46.877  37.503  27.493  1.00  0.00    -0.237 OA
ATOM     90  O   UNL A   1      46.103  35.818  25.871  1.00  0.00    -0.744 OA
ENDBRANCH  83  87
ENDBRANCH  57  80
ENDBRANCH  31  32
ENDBRANCH  24  26
ENDBRANCH  23  24
ENDBRANCH   1  23
TORSDOF 16
ENDMDL
MODEL 2
REMARK VINA RESULT:     -11.4      1.634      2.015
REMARK SMILES C[C@H]1SC[C@H](C(=O)OCCOC(=O)c2ccc(-c3c4nc(c(-c5cc(S(=O)(=O)[O-])ccc5F)c5ccc([nH]5)c(-c5cc(S(=O)(=O)[O-])ccc5F)c5nc(c(-c6cc(S(=O)(=O)[O-])ccc6F)c6ccc3[nH]6)C=C5)C=C4)cc2)N1C(=O)[C@@H]1CSc2ccccc21
REMARK SMILES IDX 10 1 9 2 8 3 6 4 7 5 5 6 1 7 2 8 3 9 77 10 4 11 78 12 79 13
REMARK SMILES IDX 80 14 81 15 88 16 82 17 83 18 87 19 84 20 86 21 85 22 11 23
REMARK SMILES IDX 12 24 13 25 14 26 15 27 76 28 16 29 75 30 17 31 18 32 19 33
REMARK SMILES IDX 69 34 20 35 74 36 68 37 70 38 21 39 73 40 67 41 66 42 22 44
REMARK SMILES IDX 54 45 34 46 53 47 35 48 38 49 52 50 71 51 36 52 37 53 51 55
REMARK SMILES IDX 72 56 39 57 23 58 24 59 32 60 25 61 31 62 33 63 30 64 26 65
REMARK SMILES IDX 27 66 28 67 29 68 55 69 56 70 64 71 57 72 63 73 65 74 62 75
REMARK SMILES IDX 58 76 59 77 60 78 61 79 40 80 41 81 49 82 42 83 48 84 50 85
REMARK SMILES IDX 47 86 43 87 44 88 45 89 46 90
REMARK H PARENT 70 43 38 54
REMARK Flexibility Score: inf
ROOT
ATOM      1  C   UNL A   1      37.656  20.065  24.733  1.00  0.00     0.275 C 
ENDROOT
BRANCH   1   2
ATOM      2  C   UNL A   1      36.164  19.900  25.015  1.00  0.00     0.274 C 
BRANCH   2   3
ATOM      3  O   UNL A   1      35.703  21.051  25.741  1.00  0.00    -0.461 OA
BRANCH   3   4
ATOM      4  C   UNL A   1      34.360  21.267  25.749  1.00  0.00     0.329 C 
ATOM      5  O   UNL A   1      33.661  21.138  26.748  1.00  0.00    -0.250 OA
BRANCH   4   6
ATOM      6  C   UNL A   1      33.863  21.785  24.382  1.00  0.00     0.206 C 
ATOM      7  C   UNL A   1      33.282  24.042  22.150  1.00  0.00     0.043 C 
ATOM      8  C   UNL A   1      32.448  23.395  23.261  1.00  0.00     0.141 C 
ATOM      9  S   UNL A   1      31.820  21.800  22.660  1.00  0.00    -0.135 SA
ATOM     10  N   UNL A   1      33.217  23.098  24.464  1.00  0.00    -0.316 N 
ATOM     11  C   UNL A   1      32.842  20.818  23.782  1.00  0.00     0.109 C 
BRANCH  10  12
ATOM     12  C   UNL A   1      33.920  24.136  25.064  1.00  0.00     0.232 C 
ATOM     13  O   UNL A   1      35.088  24.380  24.759  1.00  0.00    -0.274 OA
BRANCH  12  14
ATOM     14  C   UNL A   1      33.190  24.941  26.143  1.00  0.00     0.120 C 
ATOM     15  C   UNL A   1      31.866  24.295  26.583  1.00  0.00     0.093 C 
ATOM     16  C   UNL A   1      32.898  26.354  25.720  1.00  0.00    -0.021 A 
ATOM     17  S   UNL A   1      30.489  25.274  25.891  1.00  0.00    -0.125 SA
ATOM     18  C   UNL A   1      31.548  26.634  25.497  1.00  0.00     0.011 A 
ATOM     19  C   UNL A   1      33.873  27.313  25.453  1.00  0.00     0.006 A 
ATOM     20  C   UNL A   1      31.156  27.843  24.945  1.00  0.00     0.015 A 
ATOM     21  C   UNL A   1      33.484  28.536  24.910  1.00  0.00     0.000 A 
ATOM     22  C   UNL A   1      32.133  28.795  24.644  1.00  0.00     0.001 A 
ENDBRANCH  12  14
ENDBRANCH  10  12
ENDBRANCH   4   6
ENDBRANCH   3   4
ENDBRANCH   2   3
ENDBRANCH   1   2
BRANCH   1  23
ATOM     23  O   UNL A   1      38.159  21.249  25.383  1.00  0.00    -0.458 OA
BRANCH  23  24
ATOM     24  C   UNL A   1      39.312  21.060  26.070  1.00  0.00     0.338 C 
ATOM     25  O   UNL A   1      39.957  20.032  26.161  1.00  0.00    -0.246 OA
BRANCH  24  26
ATOM     26  C   UNL A   1      39.747  22.317  26.694  1.00  0.00     0.060 A 
ATOM     27  C   UNL A   1      39.260  23.529  26.207  1.00  0.00     0.016 A 
ATOM     28  C   UNL A   1      40.768  22.295  27.641  1.00  0.00     0.016 A 
ATOM     29  C   UNL A   1      39.867  24.725  26.588  1.00  0.00     0.010 A 
ATOM     30  C   UNL A   1      41.305  23.503  28.098  1.00  0.00     0.010 A 
ATOM     31  C   UNL A   1      40.891  24.730  27.548  1.00  0.00    -0.014 A 
BRANCH  31  32
ATOM     32  C   UNL A   1      41.551  26.002  27.958  1.00  0.00     0.031 A 
ATOM     33  C   UNL A   1      40.776  27.040  28.728  1.00  0.00     0.074 A 
ATOM     34  C   UNL A   1      42.837  26.240  27.630  1.00  0.00     0.049 A 
ATOM     35  N   UNL A   1      41.085  28.286  28.986  1.00  0.00    -0.248 NA
ATOM     36  C   UNL A   1      39.470  26.623  29.262  1.00  0.00     0.031 C 
ATOM     37  C   UNL A   1      43.718  25.309  26.923  1.00  0.00     0.029 A 
ATOM     38  N   UNL A   1      43.626  27.344  27.843  1.00  0.00    -0.354 N 
ATOM     39  C   UNL A   1      39.988  28.820  29.658  1.00  0.00     0.074 A 
ATOM     40  C   UNL A   1      39.006  27.760  29.762  1.00  0.00     0.031 C 
ATOM     41  C   UNL A   1      44.929  25.869  26.782  1.00  0.00     0.029 A 
ATOM     42  C   UNL A   1      44.887  27.229  27.307  1.00  0.00     0.049 A 
ATOM     43  H   UNL A   1      43.318  28.140  28.332  1.00  0.00     0.167 HD
ATOM     44  C   UNL A   1      39.817  30.079  30.136  1.00  0.00     0.034 A 
ATOM     45  C   UNL A   1      45.883  28.130  27.199  1.00  0.00     0.034 A 
ATOM     46  C   UNL A   1      40.824  31.111  30.064  1.00  0.00     0.049 A 
ATOM     47  C   UNL A   1      45.667  29.524  27.718  1.00  0.00     0.074 A 
ATOM     48  C   UNL A   1      40.761  32.414  30.529  1.00  0.00     0.029 A 
ATOM     49  N   UNL A   1      42.084  30.954  29.501  1.00  0.00    -0.354 N 
ATOM     50  N   UNL A   1      44.599  30.036  28.283  1.00  0.00    -0.248 NA
ATOM     51  C   UNL A   1      46.785  30.464  27.573  1.00  0.00     0.031 C 
ATOM     52  C   UNL A   1      41.963  33.057  30.206  1.00  0.00     0.029 A 
ATOM     53  C   UNL A   1      42.799  32.139  29.592  1.00  0.00     0.049 A 
ATOM     54  H   UNL A   1      42.420  30.123  29.096  1.00  0.00     0.167 HD
ATOM     55  C   UNL A   1      44.920  31.360  28.564  1.00  0.00     0.074 A 
ATOM     56  C   UNL A   1      46.287  31.559  28.128  1.00  0.00     0.031 C 
ATOM     57  C   UNL A   1      44.153  32.326  29.131  1.00  0.00     0.034 A 
BRANCH  44  58
ATOM     58  C   UNL A   1      38.466  30.423  30.716  1.00  0.00     0.023 A 
ATOM     59  C   UNL A   1      37.467  31.065  29.963  1.00  0.00     0.031 A 
ATOM     60  C   UNL A   1      38.187  30.127  32.064  1.00  0.00     0.131 A 
ATOM     61  C   UNL A   1      36.267  31.451  30.580  1.00  0.00     0.055 A 
ATOM     62  C   UNL A   1      36.963  30.450  32.652  1.00  0.00     0.041 A 
ATOM     63  F   UNL A   1      39.110  29.533  32.837  1.00  0.00    -0.206 F 
ATOM     64  C   UNL A   1      35.999  31.129  31.914  1.00  0.00     0.022 A 
BRANCH  61  65
ATOM     65  S   UNL A   1      35.112  32.501  29.655  1.00  0.00     0.124 S 
ATOM     66  O   UNL A   1      34.498  31.535  28.749  1.00  0.00    -0.237 OA
ATOM     67  O   UNL A   1      34.252  33.026  30.710  1.00  0.00    -0.237 OA
ATOM     68  O   UNL A   1      35.981  33.484  29.012  1.00  0.00    -0.744 OA
ENDBRANCH  61  65
ENDBRANCH  44  58
BRANCH  45  69
ATOM     69  C   UNL A   1      47.147  27.762  26.502  1.00  0.00     0.023 A 
ATOM     70  C   UNL A   1      47.272  27.891  25.110  1.00  0.00     0.031 A 
ATOM     71  C   UNL A   1      48.245  27.260  27.223  1.00  0.00     0.131 A 
ATOM     72  C   UNL A   1      48.462  27.496  24.478  1.00  0.00     0.055 A 
ATOM     73  C   UNL A   1      49.442  26.911  26.596  1.00  0.00     0.041 A 
ATOM     74  F   UNL A   1      48.175  27.121  28.556  1.00  0.00    -0.206 F 
ATOM     75  C   UNL A   1      49.552  27.020  25.213  1.00  0.00     0.022 A 
BRANCH  72  76
ATOM     76  S   UNL A   1      48.546  27.557  22.668  1.00  0.00     0.124 S 
ATOM     77  O   UNL A   1      47.315  28.263  22.334  1.00  0.00    -0.237 OA
ATOM     78  O   UNL A   1      49.788  28.292  22.447  1.00  0.00    -0.237 OA
ATOM     79  O   UNL A   1      48.583  26.148  22.281  1.00  0.00    -0.744 OA
ENDBRANCH  72  76
ENDBRANCH  45  69
BRANCH  57  80
ATOM     80  C   UNL A   1      44.802  33.670  29.332  1.00  0.00     0.023 A 
ATOM     81  C   UNL A   1      45.502  33.978  30.511  1.00  0.00     0.031 A 
ATOM     82  C   UNL A   1      44.693  34.662  28.343  1.00  0.00     0.131 A 
ATOM     83  C   UNL A   1      46.024  35.267  30.694  1.00  0.00     0.055 A 
ATOM     84  C   UNL A   1      45.254  35.928  28.511  1.00  0.00     0.041 A 
ATOM     85  F   UNL A   1      44.033  34.416  27.200  1.00  0.00    -0.206 F 
ATOM     86  C   UNL A   1      45.913  36.241  29.696  1.00  0.00     0.022 A 
BRANCH  83  87
ATOM     87  S   UNL A   1      46.782  35.684  32.288  1.00  0.00     0.124 S 
ATOM     88  O   UNL A   1      47.864  34.707  32.375  1.00  0.00    -0.237 OA
ATOM     89  O   UNL A   1      47.189  37.071  32.088  1.00  0.00    -0.237 OA
ATOM     90  O   UNL A   1      45.695  35.491  33.246  1.00  0.00    -0.744 OA
ENDBRANCH  83  87
ENDBRANCH  57  80
ENDBRANCH  31  32
ENDBRANCH  24  26
ENDBRANCH  23  24
ENDBRANCH   1  23
TORSDOF 16
ENDMDL
MODEL 3
REMARK VINA RESULT:     -11.4      5.149     10.065
REMARK SMILES C[C@H]1SC[C@H](C(=O)OCCOC(=O)c2ccc(-c3c4nc(c(-c5cc(S(=O)(=O)[O-])ccc5F)c5ccc([nH]5)c(-c5cc(S(=O)(=O)[O-])ccc5F)c5nc(c(-c6cc(S(=O)(=O)[O-])ccc6F)c6ccc3[nH]6)C=C5)C=C4)cc2)N1C(=O)[C@@H]1CSc2ccccc21
REMARK SMILES IDX 10 1 9 2 8 3 6 4 7 5 5 6 1 7 2 8 3 9 77 10 4 11 78 12 79 13
REMARK SMILES IDX 80 14 81 15 88 16 82 17 83 18 87 19 84 20 86 21 85 22 11 23
REMARK SMILES IDX 12 24 13 25 14 26 15 27 76 28 16 29 75 30 17 31 18 32 19 33
REMARK SMILES IDX 69 34 20 35 74 36 68 37 70 38 21 39 73 40 67 41 66 42 22 44
REMARK SMILES IDX 54 45 34 46 53 47 35 48 38 49 52 50 71 51 36 52 37 53 51 55
REMARK SMILES IDX 72 56 39 57 23 58 24 59 32 60 25 61 31 62 33 63 30 64 26 65
REMARK SMILES IDX 27 66 28 67 29 68 55 69 56 70 64 71 57 72 63 73 65 74 62 75
REMARK SMILES IDX 58 76 59 77 60 78 61 79 40 80 41 81 49 82 42 83 48 84 50 85
REMARK SMILES IDX 47 86 43 87 44 88 45 89 46 90
REMARK H PARENT 70 43 38 54
REMARK Flexibility Score: inf
ROOT
ATOM      1  C   UNL A   1      31.773  30.779  26.089  1.00  0.00     0.275 C 
ENDROOT
BRANCH   1   2
ATOM      2  C   UNL A   1      31.509  29.600  25.157  1.00  0.00     0.274 C 
BRANCH   2   3
ATOM      3  O   UNL A   1      32.699  29.343  24.392  1.00  0.00    -0.461 OA
BRANCH   3   4
ATOM      4  C   UNL A   1      32.735  28.175  23.696  1.00  0.00     0.329 C 
ATOM      5  O   UNL A   1      33.563  27.933  22.825  1.00  0.00    -0.250 OA
BRANCH   4   6
ATOM      6  C   UNL A   1      31.677  27.176  24.214  1.00  0.00     0.206 C 
ATOM      7  C   UNL A   1      30.575  24.817  26.119  1.00  0.00     0.043 C 
ATOM      8  C   UNL A   1      31.215  24.858  24.728  1.00  0.00     0.141 C 
ATOM      9  S   UNL A   1      29.932  25.278  23.512  1.00  0.00    -0.135 SA
ATOM     10  N   UNL A   1      32.246  25.881  24.596  1.00  0.00    -0.316 N 
ATOM     11  C   UNL A   1      30.624  26.906  23.139  1.00  0.00     0.109 C 
BRANCH  10  12
ATOM     12  C   UNL A   1      33.298  25.870  25.504  1.00  0.00     0.232 C 
ATOM     13  O   UNL A   1      33.297  26.603  26.493  1.00  0.00    -0.274 OA
BRANCH  12  14
ATOM     14  C   UNL A   1      34.471  24.933  25.202  1.00  0.00     0.120 C 
ATOM     15  C   UNL A   1      34.772  24.810  23.699  1.00  0.00     0.093 C 
ATOM     16  C   UNL A   1      34.267  23.548  25.749  1.00  0.00    -0.021 A 
ATOM     17  S   UNL A   1      34.208  23.169  23.131  1.00  0.00    -0.125 SA
ATOM     18  C   UNL A   1      34.058  22.560  24.785  1.00  0.00     0.011 A 
ATOM     19  C   UNL A   1      34.178  23.242  27.105  1.00  0.00     0.006 A 
ATOM     20  C   UNL A   1      33.692  21.275  25.152  1.00  0.00     0.015 A 
ATOM     21  C   UNL A   1      33.823  21.949  27.483  1.00  0.00     0.000 A 
ATOM     22  C   UNL A   1      33.567  20.973  26.511  1.00  0.00     0.001 A 
ENDBRANCH  12  14
ENDBRANCH  10  12
ENDBRANCH   4   6
ENDBRANCH   3   4
ENDBRANCH   2   3
ENDBRANCH   1   2
BRANCH   1  23
ATOM     23  O   UNL A   1      32.833  30.461  27.012  1.00  0.00    -0.458 OA
BRANCH  23  24
ATOM     24  C   UNL A   1      33.535  31.535  27.447  1.00  0.00     0.338 C 
ATOM     25  O   UNL A   1      33.146  32.685  27.534  1.00  0.00    -0.246 OA
BRANCH  24  26
ATOM     26  C   UNL A   1      34.883  31.129  27.867  1.00  0.00     0.060 A 
ATOM     27  C   UNL A   1      35.109  29.813  28.267  1.00  0.00     0.016 A 
ATOM     28  C   UNL A   1      35.872  32.096  28.028  1.00  0.00     0.016 A 
ATOM     29  C   UNL A   1      36.290  29.482  28.929  1.00  0.00     0.010 A 
ATOM     30  C   UNL A   1      37.096  31.736  28.600  1.00  0.00     0.010 A 
ATOM     31  C   UNL A   1      37.306  30.436  29.096  1.00  0.00    -0.014 A 
BRANCH  31  32
ATOM     32  C   UNL A   1      38.570  30.094  29.808  1.00  0.00     0.031 A 
ATOM     33  C   UNL A   1      39.549  29.131  29.187  1.00  0.00     0.074 A 
ATOM     34  C   UNL A   1      38.838  30.629  31.016  1.00  0.00     0.049 A 
ATOM     35  N   UNL A   1      40.584  28.536  29.725  1.00  0.00    -0.248 NA
ATOM     36  C   UNL A   1      39.319  28.777  27.778  1.00  0.00     0.031 C 
ATOM     37  C   UNL A   1      38.001  31.605  31.717  1.00  0.00     0.029 A 
ATOM     38  N   UNL A   1      39.891  30.422  31.874  1.00  0.00    -0.354 N 
ATOM     39  C   UNL A   1      41.093  27.692  28.741  1.00  0.00     0.074 A 
ATOM     40  C   UNL A   1      40.247  27.852  27.576  1.00  0.00     0.031 C 
ATOM     41  C   UNL A   1      38.582  31.929  32.882  1.00  0.00     0.029 A 
ATOM     42  C   UNL A   1      39.784  31.120  33.053  1.00  0.00     0.049 A 
ATOM     43  H   UNL A   1      40.649  29.830  31.663  1.00  0.00     0.167 HD
ATOM     44  C   UNL A   1      42.162  26.858  28.809  1.00  0.00     0.034 A 
ATOM     45  C   UNL A   1      40.535  31.080  34.172  1.00  0.00     0.034 A 
ATOM     46  C   UNL A   1      43.022  26.744  29.963  1.00  0.00     0.049 A 
ATOM     47  C   UNL A   1      41.703  30.137  34.233  1.00  0.00     0.074 A 
ATOM     48  C   UNL A   1      44.139  25.943  30.133  1.00  0.00     0.029 A 
ATOM     49  N   UNL A   1      42.869  27.462  31.142  1.00  0.00    -0.354 N 
ATOM     50  N   UNL A   1      42.128  29.290  33.325  1.00  0.00    -0.248 NA
ATOM     51  C   UNL A   1      42.485  30.133  35.476  1.00  0.00     0.031 C 
ATOM     52  C   UNL A   1      44.632  26.142  31.429  1.00  0.00     0.029 A 
ATOM     53  C   UNL A   1      43.860  27.111  32.048  1.00  0.00     0.049 A 
ATOM     54  H   UNL A   1      42.161  28.125  31.311  1.00  0.00     0.167 HD
ATOM     55  C   UNL A   1      43.231  28.656  33.886  1.00  0.00     0.074 A 
ATOM     56  C   UNL A   1      43.418  29.234  35.202  1.00  0.00     0.031 C 
ATOM     57  C   UNL A   1      44.018  27.681  33.363  1.00  0.00     0.034 A 
BRANCH  44  58
ATOM     58  C   UNL A   1      42.414  25.956  27.625  1.00  0.00     0.023 A 
ATOM     59  C   UNL A   1      41.879  24.660  27.541  1.00  0.00     0.031 A 
ATOM     60  C   UNL A   1      43.237  26.399  26.571  1.00  0.00     0.131 A 
ATOM     61  C   UNL A   1      42.228  23.828  26.465  1.00  0.00     0.055 A 
ATOM     62  C   UNL A   1      43.521  25.592  25.469  1.00  0.00     0.041 A 
ATOM     63  F   UNL A   1      43.792  27.621  26.606  1.00  0.00    -0.206 F 
ATOM     64  C   UNL A   1      43.028  24.293  25.417  1.00  0.00     0.022 A 
BRANCH  61  65
ATOM     65  S   UNL A   1      41.732  22.084  26.518  1.00  0.00     0.124 S 
ATOM     66  O   UNL A   1      42.460  21.536  25.376  1.00  0.00    -0.237 OA
ATOM     67  O   UNL A   1      42.199  21.664  27.834  1.00  0.00    -0.237 OA
ATOM     68  O   UNL A   1      40.281  22.134  26.357  1.00  0.00    -0.744 OA
ENDBRANCH  61  65
ENDBRANCH  44  58
BRANCH  45  69
ATOM     69  C   UNL A   1      40.156  31.904  35.353  1.00  0.00     0.023 A 
ATOM     70  C   UNL A   1      39.171  31.472  36.254  1.00  0.00     0.031 A 
ATOM     71  C   UNL A   1      40.768  33.149  35.586  1.00  0.00     0.131 A 
ATOM     72  C   UNL A   1      38.807  32.292  37.334  1.00  0.00     0.055 A 
ATOM     73  C   UNL A   1      40.434  33.940  36.686  1.00  0.00     0.041 A 
ATOM     74  F   UNL A   1      41.717  33.605  34.754  1.00  0.00    -0.206 F 
ATOM     75  C   UNL A   1      39.441  33.516  37.563  1.00  0.00     0.022 A 
BRANCH  72  76
ATOM     76  S   UNL A   1      37.445  31.762  38.407  1.00  0.00     0.124 S 
ATOM     77  O   UNL A   1      37.199  30.405  37.931  1.00  0.00    -0.237 OA
ATOM     78  O   UNL A   1      38.041  31.878  39.734  1.00  0.00    -0.237 OA
ATOM     79  O   UNL A   1      36.387  32.727  38.116  1.00  0.00    -0.744 OA
ENDBRANCH  72  76
ENDBRANCH  45  69
BRANCH  57  80
ATOM     80  C   UNL A   1      45.166  27.213  34.217  1.00  0.00     0.023 A 
ATOM     81  C   UNL A   1      45.010  26.176  35.153  1.00  0.00     0.031 A 
ATOM     82  C   UNL A   1      46.423  27.833  34.112  1.00  0.00     0.131 A 
ATOM     83  C   UNL A   1      46.083  25.822  35.985  1.00  0.00     0.055 A 
ATOM     84  C   UNL A   1      47.500  27.445  34.910  1.00  0.00     0.041 A 
ATOM     85  F   UNL A   1      46.622  28.829  33.234  1.00  0.00    -0.206 F 
ATOM     86  C   UNL A   1      47.329  26.443  35.862  1.00  0.00     0.022 A 
BRANCH  83  87
ATOM     87  S   UNL A   1      45.806  24.592  37.289  1.00  0.00     0.124 S 
ATOM     88  O   UNL A   1      47.168  24.307  37.732  1.00  0.00    -0.237 OA
ATOM     89  O   UNL A   1      44.967  25.321  38.234  1.00  0.00    -0.237 OA
ATOM     90  O   UNL A   1      45.141  23.494  36.590  1.00  0.00    -0.744 OA
ENDBRANCH  83  87
ENDBRANCH  57  80
ENDBRANCH  31  32
ENDBRANCH  24  26
ENDBRANCH  23  24
ENDBRANCH   1  23
TORSDOF 16
ENDMDL
