MODEL 1
REMARK VINA RESULT:     -12.3      0.000      0.000
REMARK SMILES COc1cccc(C(=O)Nc2ccc(NC(=O)[C@@H]3[C@@H](C(=O)OCCOC(=O)c4ccc(-c5c6nc(c(-c7cc(S(=O)(=O)[O-])ccc7F)c7ccc([nH]7)c(-c7cc(S(=O)(=O)[O-])ccc7F)c7nc(c(-c8cc(S(=O)(=O)[O-])ccc8F)c8ccc5[nH]8)C=C7)C=C6)cc4)[C@@H]4C=C[C@H]3C4)cc2)c1
REMARK SMILES IDX 23 1 22 2 20 3 21 4 19 5 18 6 94 7 91 8 93 9 95 10 92 11
REMARK SMILES IDX 16 12 15 13 17 15 14 16 11 17 12 18 97 19 13 20 96 21 10 22
REMARK SMILES IDX 8 23 9 24 7 26 3 27 4 28 98 29 5 30 6 31 2 32 1 33 24 34
REMARK SMILES IDX 25 35 26 36 27 37 28 38 29 39 90 40 30 41 89 42 31 43 32 44
REMARK SMILES IDX 33 45 83 46 34 47 88 48 82 49 84 50 35 51 87 52 81 53 80 54
REMARK SMILES IDX 36 56 68 57 48 58 67 59 49 60 52 61 66 62 85 63 50 64 51 65
REMARK SMILES IDX 65 67 86 68 53 69 37 70 38 71 46 72 39 73 45 74 47 75 44 76
REMARK SMILES IDX 40 77 41 78 42 79 43 80 69 81 70 82 78 83 71 84 77 85 79 86
REMARK SMILES IDX 76 87 72 88 73 89 74 90 75 91 54 92 55 93 63 94 56 95 62 96
REMARK SMILES IDX 64 97 61 98 57 99 58 100 59 101 60 102
REMARK H PARENT 15 14 10 25 84 55 52 66
REMARK Flexibility Score: inf
ROOT
ATOM      1  C   UNL A   1      35.318  20.809  25.154  1.00  0.00     0.274 C 
ENDROOT
BRANCH   1   2
ATOM      2  O   UNL A   1      35.110  21.674  26.297  1.00  0.00    -0.462 OA
BRANCH   2   3
ATOM      3  C   UNL A   1      34.725  22.939  25.990  1.00  0.00     0.310 C 
ATOM      4  O   UNL A   1      35.410  23.935  26.199  1.00  0.00    -0.252 OA
BRANCH   3   5
ATOM      5  C   UNL A   1      33.332  23.050  25.427  1.00  0.00     0.119 C 
ATOM      6  C   UNL A   1      33.100  24.313  24.561  1.00  0.00     0.100 C 
ATOM      7  C   UNL A   1      31.626  24.661  24.896  1.00  0.00     0.025 C 
ATOM      8  C   UNL A   1      32.146  23.106  26.423  1.00  0.00     0.027 C 
ATOM      9  C   UNL A   1      30.676  23.500  24.704  1.00  0.00    -0.027 C 
ATOM     10  C   UNL A   1      31.738  24.586  26.430  1.00  0.00     0.017 C 
ATOM     11  C   UNL A   1      30.959  22.584  25.646  1.00  0.00    -0.027 C 
BRANCH   6  12
ATOM     12  C   UNL A   1      33.457  24.047  23.117  1.00  0.00     0.228 C 
ATOM     13  N   UNL A   1      33.407  25.021  22.152  1.00  0.00    -0.326 N 
ATOM     14  H   UNL A   1      33.840  24.751  21.311  1.00  0.00     0.169 HD
ATOM     15  O   UNL A   1      33.808  22.925  22.740  1.00  0.00    -0.274 OA
BRANCH  13  16
ATOM     16  C   UNL A   1      32.871  26.323  22.102  1.00  0.00     0.041 A 
ATOM     17  C   UNL A   1      31.515  28.682  22.738  1.00  0.00     0.041 A 
ATOM     18  C   UNL A   1      32.899  28.690  22.636  1.00  0.00     0.028 A 
ATOM     19  C   UNL A   1      30.808  27.587  22.251  1.00  0.00     0.028 A 
ATOM     20  C   UNL A   1      33.566  27.505  22.319  1.00  0.00     0.028 A 
ATOM     21  C   UNL A   1      31.487  26.410  21.922  1.00  0.00     0.028 A 
BRANCH  17  22
ATOM     22  N   UNL A   1      30.918  29.754  23.413  1.00  0.00    -0.322 N 
ATOM     23  C   UNL A   1      31.042  30.153  24.729  1.00  0.00     0.255 C 
ATOM     24  O   UNL A   1      30.293  31.032  25.156  1.00  0.00    -0.269 OA
ATOM     25  H   UNL A   1      30.316  30.307  22.866  1.00  0.00     0.170 HD
BRANCH  23  26
ATOM     26  C   UNL A   1      32.099  29.614  25.634  1.00  0.00     0.043 A 
ATOM     27  C   UNL A   1      34.110  29.824  26.982  1.00  0.00     0.119 A 
ATOM     28  C   UNL A   1      34.055  28.453  27.246  1.00  0.00     0.046 A 
ATOM     29  C   UNL A   1      33.093  30.415  26.227  1.00  0.00     0.060 A 
ATOM     30  C   UNL A   1      33.020  27.668  26.742  1.00  0.00     0.005 A 
ATOM     31  C   UNL A   1      32.048  28.245  25.927  1.00  0.00     0.014 A 
BRANCH  27  32
ATOM     32  O   UNL A   1      35.199  30.453  27.515  1.00  0.00    -0.497 OA
ATOM     33  C   UNL A   1      36.399  29.706  27.679  1.00  0.00     0.278 C 
ENDBRANCH  27  32
ENDBRANCH  23  26
ENDBRANCH  17  22
ENDBRANCH  13  16
ENDBRANCH   6  12
ENDBRANCH   3   5
ENDBRANCH   2   3
ENDBRANCH   1   2
BRANCH   1  34
ATOM     34  C   UNL A   1      36.801  20.595  24.886  1.00  0.00     0.275 C 
BRANCH  34  35
ATOM     35  O   UNL A   1      37.532  21.706  25.418  1.00  0.00    -0.458 OA
BRANCH  35  36
ATOM     36  C   UNL A   1      38.747  21.402  25.925  1.00  0.00     0.338 C 
ATOM     37  O   UNL A   1      39.328  20.327  25.845  1.00  0.00    -0.246 OA
BRANCH  36  38
ATOM     38  C   UNL A   1      39.337  22.590  26.565  1.00  0.00     0.060 A 
ATOM     39  C   UNL A   1      38.952  23.872  26.168  1.00  0.00     0.016 A 
ATOM     40  C   UNL A   1      40.391  22.421  27.461  1.00  0.00     0.016 A 
ATOM     41  C   UNL A   1      39.706  24.975  26.563  1.00  0.00     0.010 A 
ATOM     42  C   UNL A   1      41.060  23.542  27.956  1.00  0.00     0.010 A 
ATOM     43  C   UNL A   1      40.757  24.830  27.479  1.00  0.00    -0.014 A 
BRANCH  43  44
ATOM     44  C   UNL A   1      41.571  26.000  27.916  1.00  0.00     0.031 A 
ATOM     45  C   UNL A   1      40.943  27.070  28.772  1.00  0.00     0.074 A 
ATOM     46  C   UNL A   1      42.859  26.125  27.536  1.00  0.00     0.049 A 
ATOM     47  N   UNL A   1      41.348  28.291  29.008  1.00  0.00    -0.248 NA
ATOM     48  C   UNL A   1      39.671  26.723  29.426  1.00  0.00     0.031 C 
ATOM     49  C   UNL A   1      43.619  25.142  26.762  1.00  0.00     0.029 A 
ATOM     50  N   UNL A   1      43.758  27.140  27.749  1.00  0.00    -0.354 N 
ATOM     51  C   UNL A   1      40.346  28.885  29.770  1.00  0.00     0.074 A 
ATOM     52  C   UNL A   1      39.316  27.884  29.958  1.00  0.00     0.031 C 
ATOM     53  C   UNL A   1      44.876  25.580  26.603  1.00  0.00     0.029 A 
ATOM     54  C   UNL A   1      44.980  26.924  27.156  1.00  0.00     0.049 A 
ATOM     55  H   UNL A   1      43.548  27.946  28.276  1.00  0.00     0.167 HD
ATOM     56  C   UNL A   1      40.292  30.153  30.253  1.00  0.00     0.034 A 
ATOM     57  C   UNL A   1      46.045  27.736  27.011  1.00  0.00     0.034 A 
ATOM     58  C   UNL A   1      41.361  31.112  30.102  1.00  0.00     0.049 A 
ATOM     59  C   UNL A   1      45.957  29.143  27.530  1.00  0.00     0.074 A 
ATOM     60  C   UNL A   1      41.422  32.420  30.552  1.00  0.00     0.029 A 
ATOM     61  N   UNL A   1      42.571  30.857  29.468  1.00  0.00    -0.354 N 
ATOM     62  N   UNL A   1      44.957  29.737  28.140  1.00  0.00    -0.248 NA
ATOM     63  C   UNL A   1      47.131  29.998  27.318  1.00  0.00     0.031 C 
ATOM     64  C   UNL A   1      42.648  32.968  30.151  1.00  0.00     0.029 A 
ATOM     65  C   UNL A   1      43.378  31.984  29.504  1.00  0.00     0.049 A 
ATOM     66  H   UNL A   1      42.820  29.999  29.053  1.00  0.00     0.167 HD
ATOM     67  C   UNL A   1      45.384  31.037  28.385  1.00  0.00     0.074 A 
ATOM     68  C   UNL A   1      46.738  31.132  27.879  1.00  0.00     0.031 C 
ATOM     69  C   UNL A   1      44.716  32.063  28.970  1.00  0.00     0.034 A 
BRANCH  56  70
ATOM     70  C   UNL A   1      39.009  30.589  30.921  1.00  0.00     0.023 A 
ATOM     71  C   UNL A   1      38.041  31.364  30.260  1.00  0.00     0.031 A 
ATOM     72  C   UNL A   1      38.770  30.250  32.266  1.00  0.00     0.131 A 
ATOM     73  C   UNL A   1      36.919  31.834  30.963  1.00  0.00     0.055 A 
ATOM     74  C   UNL A   1      37.615  30.654  32.937  1.00  0.00     0.041 A 
ATOM     75  F   UNL A   1      39.668  29.530  32.958  1.00  0.00    -0.206 F 
ATOM     76  C   UNL A   1      36.688  31.464  32.290  1.00  0.00     0.022 A 
BRANCH  73  77
ATOM     77  S   UNL A   1      35.839  33.051  30.163  1.00  0.00     0.124 S 
ATOM     78  O   UNL A   1      35.911  34.172  31.097  1.00  0.00    -0.237 OA
ATOM     79  O   UNL A   1      36.489  33.251  28.873  1.00  0.00    -0.237 OA
ATOM     80  O   UNL A   1      34.542  32.378  30.110  1.00  0.00    -0.744 OA
ENDBRANCH  73  77
ENDBRANCH  56  70
BRANCH  57  81
ATOM     81  C   UNL A   1      47.247  27.266  26.269  1.00  0.00     0.023 A 
ATOM     82  C   UNL A   1      48.271  26.564  26.922  1.00  0.00     0.031 A 
ATOM     83  C   UNL A   1      47.390  27.518  24.891  1.00  0.00     0.131 A 
ATOM     84  C   UNL A   1      49.404  26.156  26.202  1.00  0.00     0.055 A 
ATOM     85  C   UNL A   1      48.495  27.067  24.171  1.00  0.00     0.041 A 
ATOM     86  F   UNL A   1      46.437  28.183  24.220  1.00  0.00    -0.206 F 
ATOM     87  C   UNL A   1      49.515  26.387  24.829  1.00  0.00     0.022 A 
BRANCH  84  88
ATOM     88  S   UNL A   1      50.764  25.361  27.102  1.00  0.00     0.124 S 
ATOM     89  O   UNL A   1      50.054  24.362  27.892  1.00  0.00    -0.237 OA
ATOM     90  O   UNL A   1      51.590  24.850  26.013  1.00  0.00    -0.237 OA
ATOM     91  O   UNL A   1      51.354  26.459  27.865  1.00  0.00    -0.744 OA
ENDBRANCH  84  88
ENDBRANCH  57  81
BRANCH  69  92
ATOM     92  C   UNL A   1      45.471  33.358  29.112  1.00  0.00     0.023 A 
ATOM     93  C   UNL A   1      45.426  34.346  28.114  1.00  0.00     0.031 A 
ATOM     94  C   UNL A   1      46.281  33.583  30.238  1.00  0.00     0.131 A 
ATOM     95  C   UNL A   1      46.222  35.495  28.236  1.00  0.00     0.055 A 
ATOM     96  C   UNL A   1      47.032  34.750  30.376  1.00  0.00     0.041 A 
ATOM     97  F   UNL A   1      46.359  32.668  31.217  1.00  0.00    -0.206 F 
ATOM     98  C   UNL A   1      47.016  35.708  29.365  1.00  0.00     0.022 A 
BRANCH  95  99
ATOM     99  S   UNL A   1      46.273  36.669  26.854  1.00  0.00     0.124 S 
ATOM    100  O   UNL A   1      47.419  37.502  27.205  1.00  0.00    -0.237 OA
ATOM    101  O   UNL A   1      46.452  35.791  25.703  1.00  0.00    -0.237 OA
ATOM    102  O   UNL A   1      44.975  37.339  26.926  1.00  0.00    -0.744 OA
ENDBRANCH  95  99
ENDBRANCH  69  92
ENDBRANCH  43  44
ENDBRANCH  36  38
ENDBRANCH  35  36
ENDBRANCH  34  35
ENDBRANCH   1  34
TORSDOF 19
ENDMDL
MODEL 2
REMARK VINA RESULT:     -12.2      1.967      2.863
REMARK SMILES COc1cccc(C(=O)Nc2ccc(NC(=O)[C@@H]3[C@@H](C(=O)OCCOC(=O)c4ccc(-c5c6nc(c(-c7cc(S(=O)(=O)[O-])ccc7F)c7ccc([nH]7)c(-c7cc(S(=O)(=O)[O-])ccc7F)c7nc(c(-c8cc(S(=O)(=O)[O-])ccc8F)c8ccc5[nH]8)C=C7)C=C6)cc4)[C@@H]4C=C[C@H]3C4)cc2)c1
REMARK SMILES IDX 23 1 22 2 20 3 21 4 19 5 18 6 94 7 91 8 93 9 95 10 92 11
REMARK SMILES IDX 16 12 15 13 17 15 14 16 11 17 12 18 97 19 13 20 96 21 10 22
REMARK SMILES IDX 8 23 9 24 7 26 3 27 4 28 98 29 5 30 6 31 2 32 1 33 24 34
REMARK SMILES IDX 25 35 26 36 27 37 28 38 29 39 90 40 30 41 89 42 31 43 32 44
REMARK SMILES IDX 33 45 83 46 34 47 88 48 82 49 84 50 35 51 87 52 81 53 80 54
REMARK SMILES IDX 36 56 68 57 48 58 67 59 49 60 52 61 66 62 85 63 50 64 51 65
REMARK SMILES IDX 65 67 86 68 53 69 37 70 38 71 46 72 39 73 45 74 47 75 44 76
REMARK SMILES IDX 40 77 41 78 42 79 43 80 69 81 70 82 78 83 71 84 77 85 79 86
REMARK SMILES IDX 76 87 72 88 73 89 74 90 75 91 54 92 55 93 63 94 56 95 62 96
REMARK SMILES IDX 64 97 61 98 57 99 58 100 59 101 60 102
REMARK H PARENT 15 14 10 25 84 55 52 66
REMARK Flexibility Score: inf
ROOT
ATOM      1  C   UNL A   1      35.425  20.906  25.175  1.00  0.00     0.274 C 
ENDROOT
BRANCH   1   2
ATOM      2  O   UNL A   1      35.307  21.596  26.443  1.00  0.00    -0.462 OA
BRANCH   2   3
ATOM      3  C   UNL A   1      34.237  22.426  26.542  1.00  0.00     0.310 C 
ATOM      4  O   UNL A   1      33.883  22.969  27.583  1.00  0.00    -0.252 OA
BRANCH   3   5
ATOM      5  C   UNL A   1      33.448  22.583  25.268  1.00  0.00     0.119 C 
ATOM      6  C   UNL A   1      32.874  24.006  25.052  1.00  0.00     0.100 C 
ATOM      7  C   UNL A   1      31.520  23.700  24.359  1.00  0.00     0.025 C 
ATOM      8  C   UNL A   1      32.200  21.687  25.069  1.00  0.00     0.027 C 
ATOM      9  C   UNL A   1      31.656  22.811  23.143  1.00  0.00    -0.027 C 
ATOM     10  C   UNL A   1      31.020  22.628  25.344  1.00  0.00     0.017 C 
ATOM     11  C   UNL A   1      32.022  21.592  23.570  1.00  0.00    -0.027 C 
BRANCH   6  12
ATOM     12  C   UNL A   1      33.866  24.880  24.321  1.00  0.00     0.228 C 
ATOM     13  N   UNL A   1      33.565  26.152  23.907  1.00  0.00    -0.326 N 
ATOM     14  H   UNL A   1      34.357  26.659  23.616  1.00  0.00     0.169 HD
ATOM     15  O   UNL A   1      35.003  24.477  24.057  1.00  0.00    -0.274 OA
BRANCH  13  16
ATOM     16  C   UNL A   1      32.371  26.892  23.807  1.00  0.00     0.041 A 
ATOM     17  C   UNL A   1      29.686  27.607  23.503  1.00  0.00     0.041 A 
ATOM     18  C   UNL A   1      30.319  27.812  24.721  1.00  0.00     0.028 A 
ATOM     19  C   UNL A   1      30.457  27.319  22.381  1.00  0.00     0.028 A 
ATOM     20  C   UNL A   1      31.660  27.450  24.862  1.00  0.00     0.028 A 
ATOM     21  C   UNL A   1      31.803  26.972  22.531  1.00  0.00     0.028 A 
BRANCH  17  22
ATOM     22  N   UNL A   1      28.286  27.619  23.501  1.00  0.00    -0.322 N 
ATOM     23  C   UNL A   1      27.408  28.658  23.269  1.00  0.00     0.255 C 
ATOM     24  O   UNL A   1      26.208  28.479  23.481  1.00  0.00    -0.269 OA
ATOM     25  H   UNL A   1      27.863  26.751  23.696  1.00  0.00     0.170 HD
BRANCH  23  26
ATOM     26  C   UNL A   1      27.846  29.966  22.700  1.00  0.00     0.043 A 
ATOM     27  C   UNL A   1      28.429  32.318  22.877  1.00  0.00     0.119 A 
ATOM     28  C   UNL A   1      28.586  32.365  21.490  1.00  0.00     0.046 A 
ATOM     29  C   UNL A   1      28.121  31.100  23.488  1.00  0.00     0.060 A 
ATOM     30  C   UNL A   1      28.408  31.224  20.710  1.00  0.00     0.005 A 
ATOM     31  C   UNL A   1      28.028  30.027  21.313  1.00  0.00     0.014 A 
BRANCH  27  32
ATOM     32  O   UNL A   1      28.603  33.521  23.500  1.00  0.00    -0.497 OA
ATOM     33  C   UNL A   1      29.902  34.102  23.501  1.00  0.00     0.278 C 
ENDBRANCH  27  32
ENDBRANCH  23  26
ENDBRANCH  17  22
ENDBRANCH  13  16
ENDBRANCH   6  12
ENDBRANCH   3   5
ENDBRANCH   2   3
ENDBRANCH   1   2
BRANCH   1  34
ATOM     34  C   UNL A   1      36.881  20.619  24.837  1.00  0.00     0.275 C 
BRANCH  34  35
ATOM     35  O   UNL A   1      37.675  21.749  25.217  1.00  0.00    -0.458 OA
BRANCH  35  36
ATOM     36  C   UNL A   1      38.839  21.449  25.834  1.00  0.00     0.338 C 
ATOM     37  O   UNL A   1      39.420  20.372  25.821  1.00  0.00    -0.246 OA
BRANCH  36  38
ATOM     38  C   UNL A   1      39.374  22.645  26.507  1.00  0.00     0.060 A 
ATOM     39  C   UNL A   1      38.959  23.920  26.121  1.00  0.00     0.016 A 
ATOM     40  C   UNL A   1      40.409  22.494  27.428  1.00  0.00     0.016 A 
ATOM     41  C   UNL A   1      39.666  25.040  26.553  1.00  0.00     0.010 A 
ATOM     42  C   UNL A   1      41.029  23.628  27.957  1.00  0.00     0.010 A 
ATOM     43  C   UNL A   1      40.697  24.913  27.493  1.00  0.00    -0.014 A 
BRANCH  43  44
ATOM     44  C   UNL A   1      41.462  26.101  27.970  1.00  0.00     0.031 A 
ATOM     45  C   UNL A   1      40.772  27.147  28.808  1.00  0.00     0.074 A 
ATOM     46  C   UNL A   1      42.760  26.264  27.641  1.00  0.00     0.049 A 
ATOM     47  N   UNL A   1      41.135  28.377  29.067  1.00  0.00    -0.248 NA
ATOM     48  C   UNL A   1      39.486  26.762  29.409  1.00  0.00     0.031 C 
ATOM     49  C   UNL A   1      43.576  25.307  26.892  1.00  0.00     0.029 A 
ATOM     50  N   UNL A   1      43.622  27.301  27.896  1.00  0.00    -0.354 N 
ATOM     51  C   UNL A   1      40.089  28.939  29.794  1.00  0.00     0.074 A 
ATOM     52  C   UNL A   1      39.079  27.909  29.934  1.00  0.00     0.031 C 
ATOM     53  C   UNL A   1      44.826  25.780  26.785  1.00  0.00     0.029 A 
ATOM     54  C   UNL A   1      44.872  27.122  27.351  1.00  0.00     0.049 A 
ATOM     55  H   UNL A   1      43.371  28.096  28.421  1.00  0.00     0.167 HD
ATOM     56  C   UNL A   1      39.981  30.200  30.282  1.00  0.00     0.034 A 
ATOM     57  C   UNL A   1      45.919  27.963  27.253  1.00  0.00     0.034 A 
ATOM     58  C   UNL A   1      41.029  31.188  30.180  1.00  0.00     0.049 A 
ATOM     59  C   UNL A   1      45.773  29.363  27.777  1.00  0.00     0.074 A 
ATOM     60  C   UNL A   1      41.038  32.494  30.640  1.00  0.00     0.029 A 
ATOM     61  N   UNL A   1      42.270  30.971  29.593  1.00  0.00    -0.354 N 
ATOM     62  N   UNL A   1      44.735  29.925  28.352  1.00  0.00    -0.248 NA
ATOM     63  C   UNL A   1      46.932  30.250  27.617  1.00  0.00     0.031 C 
ATOM     64  C   UNL A   1      42.263  33.078  30.292  1.00  0.00     0.029 A 
ATOM     65  C   UNL A   1      43.044  32.119  29.668  1.00  0.00     0.049 A 
ATOM     66  H   UNL A   1      42.558  30.123  29.182  1.00  0.00     0.167 HD
ATOM     67  C   UNL A   1      45.117  31.234  28.622  1.00  0.00     0.074 A 
ATOM     68  C   UNL A   1      46.487  31.369  28.170  1.00  0.00     0.031 C 
ATOM     69  C   UNL A   1      44.400  32.238  29.187  1.00  0.00     0.034 A 
BRANCH  56  70
ATOM     70  C   UNL A   1      38.662  30.597  30.903  1.00  0.00     0.023 A 
ATOM     71  C   UNL A   1      37.700  31.351  30.208  1.00  0.00     0.031 A 
ATOM     72  C   UNL A   1      38.381  30.242  32.235  1.00  0.00     0.131 A 
ATOM     73  C   UNL A   1      36.539  31.785  30.871  1.00  0.00     0.055 A 
ATOM     74  C   UNL A   1      37.190  30.611  32.863  1.00  0.00     0.041 A 
ATOM     75  F   UNL A   1      39.270  29.543  32.957  1.00  0.00    -0.206 F 
ATOM     76  C   UNL A   1      36.267  31.400  32.185  1.00  0.00     0.022 A 
BRANCH  73  77
ATOM     77  S   UNL A   1      35.458  32.978  30.036  1.00  0.00     0.124 S 
ATOM     78  O   UNL A   1      35.031  33.822  31.149  1.00  0.00    -0.237 OA
ATOM     79  O   UNL A   1      36.358  33.599  29.071  1.00  0.00    -0.237 OA
ATOM     80  O   UNL A   1      34.405  32.144  29.459  1.00  0.00    -0.744 OA
ENDBRANCH  73  77
ENDBRANCH  56  70
BRANCH  57  81
ATOM     81  C   UNL A   1      47.162  27.530  26.555  1.00  0.00     0.023 A 
ATOM     82  C   UNL A   1      47.322  27.730  25.176  1.00  0.00     0.031 A 
ATOM     83  C   UNL A   1      48.206  26.903  27.260  1.00  0.00     0.131 A 
ATOM     84  C   UNL A   1      48.493  27.289  24.540  1.00  0.00     0.055 A 
ATOM     85  C   UNL A   1      49.387  26.510  26.632  1.00  0.00     0.041 A 
ATOM     86  F   UNL A   1      48.102  26.690  28.581  1.00  0.00    -0.206 F 
ATOM     87  C   UNL A   1      49.532  26.696  25.261  1.00  0.00     0.022 A 
BRANCH  84  88
ATOM     88  S   UNL A   1      48.615  27.452  22.738  1.00  0.00     0.124 S 
ATOM     89  O   UNL A   1      49.856  28.202  22.590  1.00  0.00    -0.237 OA
ATOM     90  O   UNL A   1      48.653  26.058  22.309  1.00  0.00    -0.237 OA
ATOM     91  O   UNL A   1      47.399  28.178  22.379  1.00  0.00    -0.744 OA
ENDBRANCH  84  88
ENDBRANCH  57  81
BRANCH  69  92
ATOM     92  C   UNL A   1      45.113  33.551  29.367  1.00  0.00     0.023 A 
ATOM     93  C   UNL A   1      45.065  34.553  28.383  1.00  0.00     0.031 A 
ATOM     94  C   UNL A   1      45.888  33.782  30.517  1.00  0.00     0.131 A 
ATOM     95  C   UNL A   1      45.824  35.722  28.542  1.00  0.00     0.055 A 
ATOM     96  C   UNL A   1      46.602  34.967  30.691  1.00  0.00     0.041 A 
ATOM     97  F   UNL A   1      45.968  32.853  31.483  1.00  0.00    -0.206 F 
ATOM     98  C   UNL A   1      46.583  35.940  29.694  1.00  0.00     0.022 A 
BRANCH  95  99
ATOM     99  S   UNL A   1      45.876  36.918  27.179  1.00  0.00     0.124 S 
ATOM    100  O   UNL A   1      44.884  36.372  26.258  1.00  0.00    -0.237 OA
ATOM    101  O   UNL A   1      45.512  38.164  27.843  1.00  0.00    -0.237 OA
ATOM    102  O   UNL A   1      47.260  36.846  26.713  1.00  0.00    -0.744 OA
ENDBRANCH  95  99
ENDBRANCH  69  92
ENDBRANCH  43  44
ENDBRANCH  36  38
ENDBRANCH  35  36
ENDBRANCH  34  35
ENDBRANCH   1  34
TORSDOF 19
ENDMDL
MODEL 3
REMARK VINA RESULT:     -11.9      1.904      7.578
REMARK SMILES COc1cccc(C(=O)Nc2ccc(NC(=O)[C@@H]3[C@@H](C(=O)OCCOC(=O)c4ccc(-c5c6nc(c(-c7cc(S(=O)(=O)[O-])ccc7F)c7ccc([nH]7)c(-c7cc(S(=O)(=O)[O-])ccc7F)c7nc(c(-c8cc(S(=O)(=O)[O-])ccc8F)c8ccc5[nH]8)C=C7)C=C6)cc4)[C@@H]4C=C[C@H]3C4)cc2)c1
REMARK SMILES IDX 23 1 22 2 20 3 21 4 19 5 18 6 94 7 91 8 93 9 95 10 92 11
REMARK SMILES IDX 16 12 15 13 17 15 14 16 11 17 12 18 97 19 13 20 96 21 10 22
REMARK SMILES IDX 8 23 9 24 7 26 3 27 4 28 98 29 5 30 6 31 2 32 1 33 24 34
REMARK SMILES IDX 25 35 26 36 27 37 28 38 29 39 90 40 30 41 89 42 31 43 32 44
REMARK SMILES IDX 33 45 83 46 34 47 88 48 82 49 84 50 35 51 87 52 81 53 80 54
REMARK SMILES IDX 36 56 68 57 48 58 67 59 49 60 52 61 66 62 85 63 50 64 51 65
REMARK SMILES IDX 65 67 86 68 53 69 37 70 38 71 46 72 39 73 45 74 47 75 44 76
REMARK SMILES IDX 40 77 41 78 42 79 43 80 69 81 70 82 78 83 71 84 77 85 79 86
REMARK SMILES IDX 76 87 72 88 73 89 74 90 75 91 54 92 55 93 63 94 56 95 62 96
REMARK SMILES IDX 64 97 61 98 57 99 58 100 59 101 60 102
REMARK H PARENT 15 14 10 25 84 55 52 66
REMARK Flexibility Score: inf
ROOT
ATOM      1  C   UNL A   1      37.216  19.665  24.520  1.00  0.00     0.274 C 
ENDROOT
BRANCH   1   2
ATOM      2  O   UNL A   1      36.050  19.632  25.380  1.00  0.00    -0.462 OA
BRANCH   2   3
ATOM      3  C   UNL A   1      34.993  20.356  24.932  1.00  0.00     0.310 C 
ATOM      4  O   UNL A   1      34.064  19.886  24.282  1.00  0.00    -0.252 OA
BRANCH   3   5
ATOM      5  C   UNL A   1      35.072  21.830  25.231  1.00  0.00     0.119 C 
ATOM      6  C   UNL A   1      33.743  22.594  25.003  1.00  0.00     0.100 C 
ATOM      7  C   UNL A   1      34.249  23.964  24.480  1.00  0.00     0.025 C 
ATOM      8  C   UNL A   1      36.088  22.683  24.430  1.00  0.00     0.027 C 
ATOM      9  C   UNL A   1      35.277  24.608  25.383  1.00  0.00    -0.027 C 
ATOM     10  C   UNL A   1      35.220  23.431  23.409  1.00  0.00     0.017 C 
ATOM     11  C   UNL A   1      36.394  23.865  25.322  1.00  0.00    -0.027 C 
BRANCH   6  12
ATOM     12  C   UNL A   1      32.893  22.579  26.253  1.00  0.00     0.228 C 
ATOM     13  N   UNL A   1      31.619  23.084  26.285  1.00  0.00    -0.326 N 
ATOM     14  H   UNL A   1      31.129  22.839  27.102  1.00  0.00     0.169 HD
ATOM     15  O   UNL A   1      33.320  22.111  27.312  1.00  0.00    -0.274 OA
BRANCH  13  16
ATOM     16  C   UNL A   1      30.857  23.877  25.404  1.00  0.00     0.041 A 
ATOM     17  C   UNL A   1      29.989  25.955  23.748  1.00  0.00     0.041 A 
ATOM     18  C   UNL A   1      30.292  24.717  23.198  1.00  0.00     0.028 A 
ATOM     19  C   UNL A   1      29.848  26.064  25.128  1.00  0.00     0.028 A 
ATOM     20  C   UNL A   1      30.726  23.687  24.034  1.00  0.00     0.028 A 
ATOM     21  C   UNL A   1      30.272  25.021  25.957  1.00  0.00     0.028 A 
BRANCH  17  22
ATOM     22  N   UNL A   1      29.930  27.046  22.873  1.00  0.00    -0.322 N 
ATOM     23  C   UNL A   1      30.570  28.268  22.935  1.00  0.00     0.255 C 
ATOM     24  O   UNL A   1      30.245  29.149  22.139  1.00  0.00    -0.269 OA
ATOM     25  H   UNL A   1      29.341  26.924  22.095  1.00  0.00     0.170 HD
BRANCH  23  26
ATOM     26  C   UNL A   1      31.694  28.537  23.878  1.00  0.00     0.043 A 
ATOM     27  C   UNL A   1      32.716  29.690  25.757  1.00  0.00     0.119 A 
ATOM     28  C   UNL A   1      33.904  28.998  25.513  1.00  0.00     0.046 A 
ATOM     29  C   UNL A   1      31.591  29.411  24.977  1.00  0.00     0.060 A 
ATOM     30  C   UNL A   1      33.989  28.059  24.486  1.00  0.00     0.005 A 
ATOM     31  C   UNL A   1      32.888  27.837  23.662  1.00  0.00     0.014 A 
BRANCH  27  32
ATOM     32  O   UNL A   1      32.797  30.599  26.774  1.00  0.00    -0.497 OA
ATOM     33  C   UNL A   1      34.056  30.798  27.406  1.00  0.00     0.278 C 
ENDBRANCH  27  32
ENDBRANCH  23  26
ENDBRANCH  17  22
ENDBRANCH  13  16
ENDBRANCH   6  12
ENDBRANCH   3   5
ENDBRANCH   2   3
ENDBRANCH   1   2
BRANCH   1  34
ATOM     34  C   UNL A   1      38.493  19.430  25.314  1.00  0.00     0.275 C 
BRANCH  34  35
ATOM     35  O   UNL A   1      38.706  20.544  26.187  1.00  0.00    -0.458 OA
BRANCH  35  36
ATOM     36  C   UNL A   1      39.969  20.677  26.649  1.00  0.00     0.338 C 
ATOM     37  O   UNL A   1      40.815  19.796  26.735  1.00  0.00    -0.246 OA
BRANCH  36  38
ATOM     38  C   UNL A   1      40.232  22.082  27.000  1.00  0.00     0.060 A 
ATOM     39  C   UNL A   1      39.563  23.114  26.339  1.00  0.00     0.016 A 
ATOM     40  C   UNL A   1      41.265  22.375  27.890  1.00  0.00     0.016 A 
ATOM     41  C   UNL A   1      40.013  24.426  26.466  1.00  0.00     0.010 A 
ATOM     42  C   UNL A   1      41.625  23.705  28.111  1.00  0.00     0.010 A 
ATOM     43  C   UNL A   1      41.037  24.745  27.370  1.00  0.00    -0.014 A 
BRANCH  43  44
ATOM     44  C   UNL A   1      41.528  26.144  27.522  1.00  0.00     0.031 A 
ATOM     45  C   UNL A   1      42.836  26.550  26.895  1.00  0.00     0.074 A 
ATOM     46  C   UNL A   1      40.825  27.047  28.236  1.00  0.00     0.049 A 
ATOM     47  N   UNL A   1      43.592  27.588  27.145  1.00  0.00    -0.248 NA
ATOM     48  C   UNL A   1      43.379  25.647  25.868  1.00  0.00     0.031 C 
ATOM     49  C   UNL A   1      39.514  26.818  28.847  1.00  0.00     0.029 A 
ATOM     50  N   UNL A   1      41.120  28.345  28.571  1.00  0.00    -0.354 N 
ATOM     51  C   UNL A   1      44.735  27.424  26.367  1.00  0.00     0.074 A 
ATOM     52  C   UNL A   1      44.567  26.186  25.635  1.00  0.00     0.031 C 
ATOM     53  C   UNL A   1      39.101  27.946  29.443  1.00  0.00     0.029 A 
ATOM     54  C   UNL A   1      40.164  28.939  29.361  1.00  0.00     0.049 A 
ATOM     55  H   UNL A   1      41.938  28.807  28.272  1.00  0.00     0.167 HD
ATOM     56  C   UNL A   1      45.825  28.230  26.287  1.00  0.00     0.034 A 
ATOM     57  C   UNL A   1      40.165  30.122  30.006  1.00  0.00     0.034 A 
ATOM     58  C   UNL A   1      45.939  29.490  26.983  1.00  0.00     0.049 A 
ATOM     59  C   UNL A   1      41.390  30.988  29.926  1.00  0.00     0.074 A 
ATOM     60  C   UNL A   1      46.990  30.392  26.975  1.00  0.00     0.029 A 
ATOM     61  N   UNL A   1      44.956  30.039  27.797  1.00  0.00    -0.354 N 
ATOM     62  N   UNL A   1      42.516  30.768  29.289  1.00  0.00    -0.248 NA
ATOM     63  C   UNL A   1      41.352  32.250  30.674  1.00  0.00     0.031 C 
ATOM     64  C   UNL A   1      46.659  31.462  27.817  1.00  0.00     0.029 A 
ATOM     65  C   UNL A   1      45.379  31.258  28.304  1.00  0.00     0.049 A 
ATOM     66  H   UNL A   1      44.083  29.622  27.986  1.00  0.00     0.167 HD
ATOM     67  C   UNL A   1      43.323  31.867  29.560  1.00  0.00     0.074 A 
ATOM     68  C   UNL A   1      42.544  32.758  30.396  1.00  0.00     0.031 C 
ATOM     69  C   UNL A   1      44.595  32.117  29.159  1.00  0.00     0.034 A 
BRANCH  56  70
ATOM     70  C   UNL A   1      47.000  27.733  25.477  1.00  0.00     0.023 A 
ATOM     71  C   UNL A   1      47.191  28.089  24.131  1.00  0.00     0.031 A 
ATOM     72  C   UNL A   1      47.930  26.853  26.062  1.00  0.00     0.131 A 
ATOM     73  C   UNL A   1      48.240  27.510  23.397  1.00  0.00     0.055 A 
ATOM     74  C   UNL A   1      49.015  26.343  25.348  1.00  0.00     0.041 A 
ATOM     75  F   UNL A   1      47.788  26.459  27.338  1.00  0.00    -0.206 F 
ATOM     76  C   UNL A   1      49.166  26.659  24.002  1.00  0.00     0.022 A 
BRANCH  73  77
ATOM     77  S   UNL A   1      48.293  27.775  21.603  1.00  0.00     0.124 S 
ATOM     78  O   UNL A   1      48.550  26.424  21.111  1.00  0.00    -0.237 OA
ATOM     79  O   UNL A   1      46.967  28.315  21.324  1.00  0.00    -0.237 OA
ATOM     80  O   UNL A   1      49.399  28.714  21.426  1.00  0.00    -0.744 OA
ENDBRANCH  73  77
ENDBRANCH  56  70
BRANCH  57  81
ATOM     81  C   UNL A   1      39.003  30.510  30.854  1.00  0.00     0.023 A 
ATOM     82  C   UNL A   1      38.034  31.408  30.383  1.00  0.00     0.031 A 
ATOM     83  C   UNL A   1      38.851  29.991  32.153  1.00  0.00     0.131 A 
ATOM     84  C   UNL A   1      36.964  31.776  31.213  1.00  0.00     0.055 A 
ATOM     85  C   UNL A   1      37.761  30.322  32.956  1.00  0.00     0.041 A 
ATOM     86  F   UNL A   1      39.751  29.127  32.649  1.00  0.00    -0.206 F 
ATOM     87  C   UNL A   1      36.812  31.227  32.489  1.00  0.00     0.022 A 
BRANCH  84  88
ATOM     88  S   UNL A   1      35.797  33.031  30.620  1.00  0.00     0.124 S 
ATOM     89  O   UNL A   1      36.007  34.109  31.579  1.00  0.00    -0.237 OA
ATOM     90  O   UNL A   1      36.276  33.274  29.264  1.00  0.00    -0.237 OA
ATOM     91  O   UNL A   1      34.502  32.359  30.709  1.00  0.00    -0.744 OA
ENDBRANCH  84  88
ENDBRANCH  57  81
BRANCH  69  92
ATOM     92  C   UNL A   1      45.192  33.425  29.605  1.00  0.00     0.023 A 
ATOM     93  C   UNL A   1      45.047  34.596  28.843  1.00  0.00     0.031 A 
ATOM     94  C   UNL A   1      45.954  33.486  30.785  1.00  0.00     0.131 A 
ATOM     95  C   UNL A   1      45.702  35.771  29.240  1.00  0.00     0.055 A 
ATOM     96  C   UNL A   1      46.563  34.670  31.200  1.00  0.00     0.041 A 
ATOM     97  F   UNL A   1      46.125  32.393  31.546  1.00  0.00    -0.206 F 
ATOM     98  C   UNL A   1      46.450  35.818  30.419  1.00  0.00     0.022 A 
BRANCH  95  99
ATOM     99  S   UNL A   1      45.636  37.217  28.146  1.00  0.00     0.124 S 
ATOM    100  O   UNL A   1      44.259  37.668  28.323  1.00  0.00    -0.237 OA
ATOM    101  O   UNL A   1      46.667  38.082  28.709  1.00  0.00    -0.237 OA
ATOM    102  O   UNL A   1      45.943  36.664  26.828  1.00  0.00    -0.744 OA
ENDBRANCH  95  99
ENDBRANCH  69  92
ENDBRANCH  43  44
ENDBRANCH  36  38
ENDBRANCH  35  36
ENDBRANCH  34  35
ENDBRANCH   1  34
TORSDOF 19
ENDMDL
