MODEL 1
REMARK VINA RESULT:     -11.2      0.000      0.000
REMARK SMILES O=C(OCCOC(=O)c1ccc(-c2ccc(Cl)c3ccccc23)o1)c1ccc(-c2c3nc(c(-c4cc(S(=O)(=O)[O-])ccc4F)c4ccc([nH]4)c(-c4cc(S(=O)(=O)[O-])ccc4F)c4nc(c(-c5cc(S(=O)(=O)[O-])ccc5F)c5ccc2[nH]5)C=C4)C=C3)cc1
REMARK SMILES IDX 4 1 3 2 2 3 1 4 25 5 26 6 87 7 27 8 86 9 28 10 29 11 30 12
REMARK SMILES IDX 80 13 31 14 85 15 79 16 81 17 32 18 84 19 78 20 77 21 33 23
REMARK SMILES IDX 65 24 45 25 64 26 46 27 49 28 63 29 82 30 47 31 48 32 62 34
REMARK SMILES IDX 83 35 50 36 34 37 35 38 43 39 36 40 42 41 44 42 41 43 37 44
REMARK SMILES IDX 38 45 39 46 40 47 66 48 67 49 75 50 68 51 74 52 76 53 73 54
REMARK SMILES IDX 69 55 70 56 71 57 72 58 51 59 52 60 60 61 53 62 59 63 61 64
REMARK SMILES IDX 58 65 54 66 55 67 56 68 57 69 5 70 6 71 7 72 8 73 9 74 10 75
REMARK SMILES IDX 24 76 11 77 12 78 13 79 14 80 23 81 15 82 18 83 22 84 16 85
REMARK SMILES IDX 19 86 21 87 17 88 20 89
REMARK H PARENT 81 22 49 33
REMARK Flexibility Score: inf
ROOT
ATOM      1  C   UNL A   1      33.884  34.391  28.005  1.00  0.00     0.275 C 
ENDROOT
BRANCH   1   2
ATOM      2  O   UNL A   1      34.027  33.130  28.672  1.00  0.00    -0.458 OA
BRANCH   2   3
ATOM      3  C   UNL A   1      34.433  31.937  28.185  1.00  0.00     0.338 C 
ATOM      4  O   UNL A   1      33.762  31.412  27.297  1.00  0.00    -0.246 OA
BRANCH   3   5
ATOM      5  C   UNL A   1      35.568  31.144  28.763  1.00  0.00     0.060 A 
ATOM      6  C   UNL A   1      35.589  30.441  29.968  1.00  0.00     0.016 A 
ATOM      7  C   UNL A   1      36.747  31.156  28.006  1.00  0.00     0.016 A 
ATOM      8  C   UNL A   1      36.732  29.733  30.378  1.00  0.00     0.010 A 
ATOM      9  C   UNL A   1      37.872  30.417  28.383  1.00  0.00     0.010 A 
ATOM     10  C   UNL A   1      37.885  29.715  29.590  1.00  0.00    -0.014 A 
BRANCH  10  11
ATOM     11  C   UNL A   1      39.150  29.102  30.076  1.00  0.00     0.031 A 
ATOM     12  C   UNL A   1      39.814  29.690  31.294  1.00  0.00     0.074 A 
ATOM     13  C   UNL A   1      39.712  28.064  29.428  1.00  0.00     0.049 A 
ATOM     14  N   UNL A   1      40.937  29.354  31.873  1.00  0.00    -0.248 NA
ATOM     15  C   UNL A   1      39.125  30.822  31.932  1.00  0.00     0.031 C 
ATOM     16  C   UNL A   1      39.160  27.412  28.243  1.00  0.00     0.029 A 
ATOM     17  N   UNL A   1      40.880  27.383  29.660  1.00  0.00    -0.354 N 
ATOM     18  C   UNL A   1      41.083  30.230  32.943  1.00  0.00     0.074 A 
ATOM     19  C   UNL A   1      39.989  31.172  32.868  1.00  0.00     0.031 C 
ATOM     20  C   UNL A   1      40.003  26.451  27.828  1.00  0.00     0.029 A 
ATOM     21  C   UNL A   1      41.152  26.411  28.724  1.00  0.00     0.049 A 
ATOM     22  H   UNL A   1      41.469  27.571  30.427  1.00  0.00     0.167 HD
ATOM     23  C   UNL A   1      42.011  30.220  33.932  1.00  0.00     0.034 A 
ATOM     24  C   UNL A   1      42.207  25.580  28.608  1.00  0.00     0.034 A 
ATOM     25  C   UNL A   1      43.092  29.270  33.989  1.00  0.00     0.049 A 
ATOM     26  C   UNL A   1      43.262  25.614  29.684  1.00  0.00     0.074 A 
ATOM     27  C   UNL A   1      44.081  29.134  34.946  1.00  0.00     0.029 A 
ATOM     28  N   UNL A   1      43.326  28.290  33.030  1.00  0.00    -0.354 N 
ATOM     29  N   UNL A   1      43.346  26.402  30.732  1.00  0.00    -0.248 NA
ATOM     30  C   UNL A   1      44.339  24.621  29.587  1.00  0.00     0.031 C 
ATOM     31  C   UNL A   1      44.939  28.103  34.541  1.00  0.00     0.029 A 
ATOM     32  C   UNL A   1      44.452  27.557  33.364  1.00  0.00     0.049 A 
ATOM     33  H   UNL A   1      42.773  28.139  32.231  1.00  0.00     0.167 HD
ATOM     34  C   UNL A   1      44.459  25.969  31.445  1.00  0.00     0.074 A 
ATOM     35  C   UNL A   1      45.011  24.849  30.707  1.00  0.00     0.031 C 
ATOM     36  C   UNL A   1      44.974  26.441  32.610  1.00  0.00     0.034 A 
BRANCH  23  37
ATOM     37  C   UNL A   1      41.877  31.280  35.001  1.00  0.00     0.023 A 
ATOM     38  C   UNL A   1      40.793  31.271  35.900  1.00  0.00     0.031 A 
ATOM     39  C   UNL A   1      42.771  32.360  35.065  1.00  0.00     0.131 A 
ATOM     40  C   UNL A   1      40.564  32.374  36.735  1.00  0.00     0.055 A 
ATOM     41  C   UNL A   1      42.591  33.411  35.968  1.00  0.00     0.041 A 
ATOM     42  F   UNL A   1      43.815  32.435  34.225  1.00  0.00    -0.206 F 
ATOM     43  C   UNL A   1      41.469  33.434  36.793  1.00  0.00     0.022 A 
BRANCH  40  44
ATOM     44  S   UNL A   1      38.973  32.484  37.600  1.00  0.00     0.124 S 
ATOM     45  O   UNL A   1      38.270  31.317  37.070  1.00  0.00    -0.237 OA
ATOM     46  O   UNL A   1      39.367  32.406  39.002  1.00  0.00    -0.237 OA
ATOM     47  O   UNL A   1      38.438  33.774  37.172  1.00  0.00    -0.744 OA
ENDBRANCH  40  44
ENDBRANCH  23  37
BRANCH  24  48
ATOM     48  C   UNL A   1      42.307  24.634  27.459  1.00  0.00     0.023 A 
ATOM     49  C   UNL A   1      41.598  23.422  27.446  1.00  0.00     0.031 A 
ATOM     50  C   UNL A   1      43.146  24.915  26.365  1.00  0.00     0.131 A 
ATOM     51  C   UNL A   1      41.772  22.517  26.387  1.00  0.00     0.055 A 
ATOM     52  C   UNL A   1      43.288  24.028  25.295  1.00  0.00     0.041 A 
ATOM     53  F   UNL A   1      43.836  26.067  26.317  1.00  0.00    -0.206 F 
ATOM     54  C   UNL A   1      42.608  22.815  25.309  1.00  0.00     0.022 A 
BRANCH  51  55
ATOM     55  S   UNL A   1      40.938  20.908  26.472  1.00  0.00     0.124 S 
ATOM     56  O   UNL A   1      40.860  20.687  27.912  1.00  0.00    -0.237 OA
ATOM     57  O   UNL A   1      39.677  21.189  25.795  1.00  0.00    -0.237 OA
ATOM     58  O   UNL A   1      41.845  20.017  25.751  1.00  0.00    -0.744 OA
ENDBRANCH  51  55
ENDBRANCH  24  48
BRANCH  36  59
ATOM     59  C   UNL A   1      46.158  25.702  33.177  1.00  0.00     0.023 A 
ATOM     60  C   UNL A   1      46.000  24.628  34.068  1.00  0.00     0.031 A 
ATOM     61  C   UNL A   1      47.462  26.088  32.822  1.00  0.00     0.131 A 
ATOM     62  C   UNL A   1      47.131  24.009  34.617  1.00  0.00     0.055 A 
ATOM     63  C   UNL A   1      48.584  25.430  33.326  1.00  0.00     0.041 A 
ATOM     64  F   UNL A   1      47.666  27.111  31.977  1.00  0.00    -0.206 F 
ATOM     65  C   UNL A   1      48.421  24.391  34.239  1.00  0.00     0.022 A 
BRANCH  62  66
ATOM     66  S   UNL A   1      46.893  22.750  35.900  1.00  0.00     0.124 S 
ATOM     67  O   UNL A   1      47.507  21.576  35.288  1.00  0.00    -0.237 OA
ATOM     68  O   UNL A   1      47.607  23.322  37.037  1.00  0.00    -0.237 OA
ATOM     69  O   UNL A   1      45.441  22.684  36.050  1.00  0.00    -0.744 OA
ENDBRANCH  62  66
ENDBRANCH  36  59
ENDBRANCH  10  11
ENDBRANCH   3   5
ENDBRANCH   2   3
ENDBRANCH   1   2
BRANCH   1  70
ATOM     70  C   UNL A   1      33.289  35.498  28.875  1.00  0.00     0.275 C 
BRANCH  70  71
ATOM     71  O   UNL A   1      32.631  35.022  30.057  1.00  0.00    -0.456 OA
BRANCH  71  72
ATOM     72  C   UNL A   1      32.872  35.720  31.215  1.00  0.00     0.374 C 
ATOM     73  O   UNL A   1      32.347  36.791  31.495  1.00  0.00    -0.242 OA
BRANCH  72  74
ATOM     74  C   UNL A   1      33.821  34.991  32.023  1.00  0.00     0.212 A 
ATOM     75  C   UNL A   1      33.627  34.144  33.099  1.00  0.00     0.059 A 
ATOM     76  O   UNL A   1      35.172  35.101  31.770  1.00  0.00    -0.449 OA
ATOM     77  C   UNL A   1      34.904  33.752  33.551  1.00  0.00     0.052 A 
ATOM     78  C   UNL A   1      35.822  34.364  32.721  1.00  0.00     0.135 A 
BRANCH  78  79
ATOM     79  C   UNL A   1      37.287  34.295  32.689  1.00  0.00     0.025 A 
ATOM     80  C   UNL A   1      37.943  34.484  33.914  1.00  0.00     0.014 A 
ATOM     81  C   UNL A   1      38.051  34.246  31.487  1.00  0.00    -0.006 A 
ATOM     82  C   UNL A   1      39.321  34.654  33.965  1.00  0.00     0.022 A 
ATOM     83  C   UNL A   1      39.449  34.504  31.524  1.00  0.00     0.001 A 
ATOM     84  C   UNL A   1      37.478  33.972  30.230  1.00  0.00     0.009 A 
ATOM     85  C   UNL A   1      40.064  34.685  32.785  1.00  0.00     0.048 A 
ATOM     86  C   UNL A   1      40.158  34.592  30.297  1.00  0.00     0.010 A 
ATOM     87  C   UNL A   1      38.192  34.060  29.034  1.00  0.00     0.001 A 
ATOM     88  Cl  UNL A   1      41.771  34.945  32.953  1.00  0.00    -0.084 Cl
ATOM     89  C   UNL A   1      39.533  34.397  29.066  1.00  0.00     0.001 A 
ENDBRANCH  78  79
ENDBRANCH  72  74
ENDBRANCH  71  72
ENDBRANCH  70  71
ENDBRANCH   1  70
TORSDOF 15
ENDMDL
MODEL 2
REMARK VINA RESULT:     -11.1      4.525     12.283
REMARK SMILES O=C(OCCOC(=O)c1ccc(-c2ccc(Cl)c3ccccc23)o1)c1ccc(-c2c3nc(c(-c4cc(S(=O)(=O)[O-])ccc4F)c4ccc([nH]4)c(-c4cc(S(=O)(=O)[O-])ccc4F)c4nc(c(-c5cc(S(=O)(=O)[O-])ccc5F)c5ccc2[nH]5)C=C4)C=C3)cc1
REMARK SMILES IDX 4 1 3 2 2 3 1 4 25 5 26 6 87 7 27 8 86 9 28 10 29 11 30 12
REMARK SMILES IDX 80 13 31 14 85 15 79 16 81 17 32 18 84 19 78 20 77 21 33 23
REMARK SMILES IDX 65 24 45 25 64 26 46 27 49 28 63 29 82 30 47 31 48 32 62 34
REMARK SMILES IDX 83 35 50 36 34 37 35 38 43 39 36 40 42 41 44 42 41 43 37 44
REMARK SMILES IDX 38 45 39 46 40 47 66 48 67 49 75 50 68 51 74 52 76 53 73 54
REMARK SMILES IDX 69 55 70 56 71 57 72 58 51 59 52 60 60 61 53 62 59 63 61 64
REMARK SMILES IDX 58 65 54 66 55 67 56 68 57 69 5 70 6 71 7 72 8 73 9 74 10 75
REMARK SMILES IDX 24 76 11 77 12 78 13 79 14 80 23 81 15 82 18 83 22 84 16 85
REMARK SMILES IDX 19 86 21 87 17 88 20 89
REMARK H PARENT 81 22 49 33
REMARK Flexibility Score: inf
ROOT
ATOM      1  C   UNL A   1      40.797  19.833  26.266  1.00  0.00     0.275 C 
ENDROOT
BRANCH   1   2
ATOM      2  O   UNL A   1      40.756  21.247  26.034  1.00  0.00    -0.458 OA
BRANCH   2   3
ATOM      3  C   UNL A   1      39.808  22.150  26.370  1.00  0.00     0.338 C 
ATOM      4  O   UNL A   1      38.629  21.797  26.329  1.00  0.00    -0.246 OA
BRANCH   3   5
ATOM      5  C   UNL A   1      40.095  23.596  26.645  1.00  0.00     0.060 A 
ATOM      6  C   UNL A   1      40.405  24.595  25.720  1.00  0.00     0.016 A 
ATOM      7  C   UNL A   1      40.082  23.957  27.999  1.00  0.00     0.016 A 
ATOM      8  C   UNL A   1      40.645  25.917  26.130  1.00  0.00     0.010 A 
ATOM      9  C   UNL A   1      40.272  25.279  28.411  1.00  0.00     0.010 A 
ATOM     10  C   UNL A   1      40.581  26.273  27.479  1.00  0.00    -0.014 A 
BRANCH  10  11
ATOM     11  C   UNL A   1      40.980  27.627  27.946  1.00  0.00     0.031 A 
ATOM     12  C   UNL A   1      42.439  27.999  27.916  1.00  0.00     0.074 A 
ATOM     13  C   UNL A   1      40.066  28.496  28.418  1.00  0.00     0.049 A 
ATOM     14  N   UNL A   1      43.027  29.099  28.310  1.00  0.00    -0.248 NA
ATOM     15  C   UNL A   1      43.362  26.983  27.385  1.00  0.00     0.031 C 
ATOM     16  C   UNL A   1      38.627  28.247  28.493  1.00  0.00     0.029 A 
ATOM     17  N   UNL A   1      40.206  29.757  28.940  1.00  0.00    -0.354 N 
ATOM     18  C   UNL A   1      44.383  28.906  28.070  1.00  0.00     0.074 A 
ATOM     19  C   UNL A   1      44.537  27.550  27.593  1.00  0.00     0.031 C 
ATOM     20  C   UNL A   1      38.021  29.303  29.062  1.00  0.00     0.029 A 
ATOM     21  C   UNL A   1      39.026  30.309  29.384  1.00  0.00     0.049 A 
ATOM     22  H   UNL A   1      41.071  30.224  28.991  1.00  0.00     0.167 HD
ATOM     23  C   UNL A   1      45.402  29.794  28.181  1.00  0.00     0.034 A 
ATOM     24  C   UNL A   1      38.784  31.495  29.977  1.00  0.00     0.034 A 
ATOM     25  C   UNL A   1      45.225  31.142  28.656  1.00  0.00     0.049 A 
ATOM     26  C   UNL A   1      39.935  32.454  30.147  1.00  0.00     0.074 A 
ATOM     27  C   UNL A   1      46.165  32.147  28.792  1.00  0.00     0.029 A 
ATOM     28  N   UNL A   1      44.011  31.671  29.082  1.00  0.00    -0.354 N 
ATOM     29  N   UNL A   1      41.202  32.282  29.846  1.00  0.00    -0.248 NA
ATOM     30  C   UNL A   1      39.618  33.778  30.695  1.00  0.00     0.031 C 
ATOM     31  C   UNL A   1      45.529  33.266  29.344  1.00  0.00     0.029 A 
ATOM     32  C   UNL A   1      44.181  32.980  29.496  1.00  0.00     0.049 A 
ATOM     33  H   UNL A   1      43.156  31.185  29.089  1.00  0.00     0.167 HD
ATOM     34  C   UNL A   1      41.826  33.494  30.124  1.00  0.00     0.074 A 
ATOM     35  C   UNL A   1      40.793  34.387  30.614  1.00  0.00     0.031 C 
ATOM     36  C   UNL A   1      43.129  33.847  29.976  1.00  0.00     0.034 A 
BRANCH  23  37
ATOM     37  C   UNL A   1      46.776  29.303  27.790  1.00  0.00     0.023 A 
ATOM     38  C   UNL A   1      47.043  28.856  26.481  1.00  0.00     0.031 A 
ATOM     39  C   UNL A   1      47.800  29.182  28.744  1.00  0.00     0.131 A 
ATOM     40  C   UNL A   1      48.250  28.203  26.194  1.00  0.00     0.055 A 
ATOM     41  C   UNL A   1      49.037  28.616  28.426  1.00  0.00     0.041 A 
ATOM     42  F   UNL A   1      47.604  29.575  30.012  1.00  0.00    -0.206 F 
ATOM     43  C   UNL A   1      49.260  28.101  27.152  1.00  0.00     0.022 A 
BRANCH  40  44
ATOM     44  S   UNL A   1      48.399  27.326  24.612  1.00  0.00     0.124 S 
ATOM     45  O   UNL A   1      49.265  28.229  23.857  1.00  0.00    -0.237 OA
ATOM     46  O   UNL A   1      48.996  26.055  25.009  1.00  0.00    -0.237 OA
ATOM     47  O   UNL A   1      47.022  27.246  24.132  1.00  0.00    -0.744 OA
ENDBRANCH  40  44
ENDBRANCH  23  37
BRANCH  24  48
ATOM     48  C   UNL A   1      37.408  31.855  30.426  1.00  0.00     0.023 A 
ATOM     49  C   UNL A   1      36.511  32.517  29.572  1.00  0.00     0.031 A 
ATOM     50  C   UNL A   1      36.979  31.569  31.735  1.00  0.00     0.131 A 
ATOM     51  C   UNL A   1      35.250  32.912  30.048  1.00  0.00     0.055 A 
ATOM     52  C   UNL A   1      35.709  31.931  32.192  1.00  0.00     0.041 A 
ATOM     53  F   UNL A   1      37.789  30.923  32.590  1.00  0.00    -0.206 F 
ATOM     54  C   UNL A   1      34.841  32.618  31.350  1.00  0.00     0.022 A 
BRANCH  51  55
ATOM     55  S   UNL A   1      34.172  33.878  28.954  1.00  0.00     0.124 S 
ATOM     56  O   UNL A   1      33.660  32.851  28.054  1.00  0.00    -0.237 OA
ATOM     57  O   UNL A   1      33.213  34.440  29.900  1.00  0.00    -0.237 OA
ATOM     58  O   UNL A   1      35.083  34.845  28.345  1.00  0.00    -0.744 OA
ENDBRANCH  51  55
ENDBRANCH  24  48
BRANCH  36  59
ATOM     59  C   UNL A   1      43.487  35.275  30.295  1.00  0.00     0.023 A 
ATOM     60  C   UNL A   1      43.651  35.716  31.617  1.00  0.00     0.031 A 
ATOM     61  C   UNL A   1      43.659  36.205  29.255  1.00  0.00     0.131 A 
ATOM     62  C   UNL A   1      43.926  37.068  31.870  1.00  0.00     0.055 A 
ATOM     63  C   UNL A   1      43.990  37.536  29.509  1.00  0.00     0.041 A 
ATOM     64  F   UNL A   1      43.510  35.833  27.973  1.00  0.00    -0.206 F 
ATOM     65  C   UNL A   1      44.114  37.976  30.824  1.00  0.00     0.022 A 
BRANCH  62  66
ATOM     66  S   UNL A   1      43.950  37.641  33.589  1.00  0.00     0.124 S 
ATOM     67  O   UNL A   1      45.360  37.971  33.778  1.00  0.00    -0.237 OA
ATOM     68  O   UNL A   1      43.030  38.771  33.557  1.00  0.00    -0.237 OA
ATOM     69  O   UNL A   1      43.480  36.480  34.344  1.00  0.00    -0.744 OA
ENDBRANCH  62  66
ENDBRANCH  36  59
ENDBRANCH  10  11
ENDBRANCH   3   5
ENDBRANCH   2   3
ENDBRANCH   1   2
BRANCH   1  70
ATOM     70  C   UNL A   1      42.201  19.233  26.238  1.00  0.00     0.275 C 
BRANCH  70  71
ATOM     71  O   UNL A   1      42.815  19.240  24.942  1.00  0.00    -0.456 OA
BRANCH  71  72
ATOM     72  C   UNL A   1      44.187  19.274  24.914  1.00  0.00     0.374 C 
ATOM     73  O   UNL A   1      44.901  18.279  24.906  1.00  0.00    -0.242 OA
BRANCH  72  74
ATOM     74  C   UNL A   1      44.630  20.650  24.892  1.00  0.00     0.212 A 
ATOM     75  C   UNL A   1      44.934  21.482  23.831  1.00  0.00     0.059 A 
ATOM     76  O   UNL A   1      44.826  21.331  26.075  1.00  0.00    -0.449 OA
ATOM     77  C   UNL A   1      45.373  22.705  24.379  1.00  0.00     0.052 A 
ATOM     78  C   UNL A   1      45.302  22.572  25.752  1.00  0.00     0.135 A 
BRANCH  78  79
ATOM     79  C   UNL A   1      45.595  23.524  26.828  1.00  0.00     0.025 A 
ATOM     80  C   UNL A   1      46.785  24.255  26.702  1.00  0.00     0.014 A 
ATOM     81  C   UNL A   1      44.857  23.594  28.045  1.00  0.00    -0.006 A 
ATOM     82  C   UNL A   1      47.266  25.019  27.758  1.00  0.00     0.022 A 
ATOM     83  C   UNL A   1      45.388  24.304  29.157  1.00  0.00     0.001 A 
ATOM     84  C   UNL A   1      43.611  22.961  28.218  1.00  0.00     0.009 A 
ATOM     85  C   UNL A   1      46.590  25.028  28.977  1.00  0.00     0.048 A 
ATOM     86  C   UNL A   1      44.704  24.237  30.399  1.00  0.00     0.010 A 
ATOM     87  C   UNL A   1      42.950  22.908  29.447  1.00  0.00     0.001 A 
ATOM     88  Cl  UNL A   1      47.295  25.980  30.245  1.00  0.00    -0.084 Cl
ATOM     89  C   UNL A   1      43.513  23.527  30.548  1.00  0.00     0.001 A 
ENDBRANCH  78  79
ENDBRANCH  72  74
ENDBRANCH  71  72
ENDBRANCH  70  71
ENDBRANCH   1  70
TORSDOF 15
ENDMDL
MODEL 3
REMARK VINA RESULT:     -10.8      4.685     12.318
REMARK SMILES O=C(OCCOC(=O)c1ccc(-c2ccc(Cl)c3ccccc23)o1)c1ccc(-c2c3nc(c(-c4cc(S(=O)(=O)[O-])ccc4F)c4ccc([nH]4)c(-c4cc(S(=O)(=O)[O-])ccc4F)c4nc(c(-c5cc(S(=O)(=O)[O-])ccc5F)c5ccc2[nH]5)C=C4)C=C3)cc1
REMARK SMILES IDX 4 1 3 2 2 3 1 4 25 5 26 6 87 7 27 8 86 9 28 10 29 11 30 12
REMARK SMILES IDX 80 13 31 14 85 15 79 16 81 17 32 18 84 19 78 20 77 21 33 23
REMARK SMILES IDX 65 24 45 25 64 26 46 27 49 28 63 29 82 30 47 31 48 32 62 34
REMARK SMILES IDX 83 35 50 36 34 37 35 38 43 39 36 40 42 41 44 42 41 43 37 44
REMARK SMILES IDX 38 45 39 46 40 47 66 48 67 49 75 50 68 51 74 52 76 53 73 54
REMARK SMILES IDX 69 55 70 56 71 57 72 58 51 59 52 60 60 61 53 62 59 63 61 64
REMARK SMILES IDX 58 65 54 66 55 67 56 68 57 69 5 70 6 71 7 72 8 73 9 74 10 75
REMARK SMILES IDX 24 76 11 77 12 78 13 79 14 80 23 81 15 82 18 83 22 84 16 85
REMARK SMILES IDX 19 86 21 87 17 88 20 89
REMARK H PARENT 81 22 49 33
REMARK Flexibility Score: inf
ROOT
ATOM      1  C   UNL A   1      41.007  19.874  26.577  1.00  0.00     0.275 C 
ENDROOT
BRANCH   1   2
ATOM      2  O   UNL A   1      40.925  21.251  26.189  1.00  0.00    -0.458 OA
BRANCH   2   3
ATOM      3  C   UNL A   1      39.964  22.166  26.448  1.00  0.00     0.338 C 
ATOM      4  O   UNL A   1      38.788  21.814  26.359  1.00  0.00    -0.246 OA
BRANCH   3   5
ATOM      5  C   UNL A   1      40.241  23.619  26.692  1.00  0.00     0.060 A 
ATOM      6  C   UNL A   1      40.586  24.591  25.750  1.00  0.00     0.016 A 
ATOM      7  C   UNL A   1      40.179  24.019  28.033  1.00  0.00     0.016 A 
ATOM      8  C   UNL A   1      40.811  25.925  26.131  1.00  0.00     0.010 A 
ATOM      9  C   UNL A   1      40.355  25.352  28.414  1.00  0.00     0.010 A 
ATOM     10  C   UNL A   1      40.698  26.319  27.466  1.00  0.00    -0.014 A 
BRANCH  10  11
ATOM     11  C   UNL A   1      41.081  27.686  27.908  1.00  0.00     0.031 A 
ATOM     12  C   UNL A   1      42.527  28.097  27.812  1.00  0.00     0.074 A 
ATOM     13  C   UNL A   1      40.165  28.533  28.415  1.00  0.00     0.049 A 
ATOM     14  N   UNL A   1      43.100  29.215  28.175  1.00  0.00    -0.248 NA
ATOM     15  C   UNL A   1      43.452  27.103  27.247  1.00  0.00     0.031 C 
ATOM     16  C   UNL A   1      38.738  28.247  28.553  1.00  0.00     0.029 A 
ATOM     17  N   UNL A   1      40.293  29.801  28.924  1.00  0.00    -0.354 N 
ATOM     18  C   UNL A   1      44.450  29.057  27.876  1.00  0.00     0.074 A 
ATOM     19  C   UNL A   1      44.620  27.702  27.401  1.00  0.00     0.031 C 
ATOM     20  C   UNL A   1      38.128  29.289  29.143  1.00  0.00     0.029 A 
ATOM     21  C   UNL A   1      39.119  30.324  29.416  1.00  0.00     0.049 A 
ATOM     22  H   UNL A   1      41.147  30.292  28.935  1.00  0.00     0.167 HD
ATOM     23  C   UNL A   1      45.449  29.972  27.939  1.00  0.00     0.034 A 
ATOM     24  C   UNL A   1      38.871  31.507  30.013  1.00  0.00     0.034 A 
ATOM     25  C   UNL A   1      45.256  31.317  28.414  1.00  0.00     0.049 A 
ATOM     26  C   UNL A   1      40.002  32.497  30.128  1.00  0.00     0.074 A 
ATOM     27  C   UNL A   1      46.174  32.348  28.504  1.00  0.00     0.029 A 
ATOM     28  N   UNL A   1      44.048  31.817  28.890  1.00  0.00    -0.354 N 
ATOM     29  N   UNL A   1      41.259  32.358  29.772  1.00  0.00    -0.248 NA
ATOM     30  C   UNL A   1      39.674  33.816  30.682  1.00  0.00     0.031 C 
ATOM     31  C   UNL A   1      45.533  33.453  29.077  1.00  0.00     0.029 A 
ATOM     32  C   UNL A   1      44.201  33.133  29.290  1.00  0.00     0.049 A 
ATOM     33  H   UNL A   1      43.207  31.308  28.936  1.00  0.00     0.167 HD
ATOM     34  C   UNL A   1      41.862  33.587  30.016  1.00  0.00     0.074 A 
ATOM     35  C   UNL A   1      40.828  34.455  30.547  1.00  0.00     0.031 C 
ATOM     36  C   UNL A   1      43.147  33.974  29.810  1.00  0.00     0.034 A 
BRANCH  23  37
ATOM     37  C   UNL A   1      46.817  29.515  27.491  1.00  0.00     0.023 A 
ATOM     38  C   UNL A   1      47.025  29.006  26.194  1.00  0.00     0.031 A 
ATOM     39  C   UNL A   1      47.900  29.490  28.385  1.00  0.00     0.131 A 
ATOM     40  C   UNL A   1      48.240  28.386  25.869  1.00  0.00     0.055 A 
ATOM     41  C   UNL A   1      49.140  28.957  28.022  1.00  0.00     0.041 A 
ATOM     42  F   UNL A   1      47.763  29.945  29.639  1.00  0.00    -0.206 F 
ATOM     43  C   UNL A   1      49.309  28.379  26.766  1.00  0.00     0.022 A 
BRANCH  40  44
ATOM     44  S   UNL A   1      48.333  27.428  24.331  1.00  0.00     0.124 S 
ATOM     45  O   UNL A   1      46.972  27.566  23.816  1.00  0.00    -0.237 OA
ATOM     46  O   UNL A   1      49.371  28.128  23.583  1.00  0.00    -0.237 OA
ATOM     47  O   UNL A   1      48.687  26.085  24.784  1.00  0.00    -0.744 OA
ENDBRANCH  40  44
ENDBRANCH  23  37
BRANCH  24  48
ATOM     48  C   UNL A   1      37.507  31.833  30.520  1.00  0.00     0.023 A 
ATOM     49  C   UNL A   1      36.576  32.517  29.722  1.00  0.00     0.031 A 
ATOM     50  C   UNL A   1      37.123  31.491  31.829  1.00  0.00     0.131 A 
ATOM     51  C   UNL A   1      35.327  32.879  30.253  1.00  0.00     0.055 A 
ATOM     52  C   UNL A   1      35.865  31.819  32.341  1.00  0.00     0.041 A 
ATOM     53  F   UNL A   1      37.967  30.821  32.631  1.00  0.00    -0.206 F 
ATOM     54  C   UNL A   1      34.963  32.529  31.555  1.00  0.00     0.022 A 
BRANCH  51  55
ATOM     55  S   UNL A   1      34.204  33.875  29.234  1.00  0.00     0.124 S 
ATOM     56  O   UNL A   1      33.294  34.419  30.236  1.00  0.00    -0.237 OA
ATOM     57  O   UNL A   1      35.124  34.826  28.618  1.00  0.00    -0.237 OA
ATOM     58  O   UNL A   1      33.616  32.898  28.320  1.00  0.00    -0.744 OA
ENDBRANCH  51  55
ENDBRANCH  24  48
BRANCH  36  59
ATOM     59  C   UNL A   1      43.480  35.413  30.106  1.00  0.00     0.023 A 
ATOM     60  C   UNL A   1      43.270  36.428  29.160  1.00  0.00     0.031 A 
ATOM     61  C   UNL A   1      44.021  35.766  31.355  1.00  0.00     0.131 A 
ATOM     62  C   UNL A   1      43.649  37.745  29.458  1.00  0.00     0.055 A 
ATOM     63  C   UNL A   1      44.342  37.087  31.667  1.00  0.00     0.041 A 
ATOM     64  F   UNL A   1      44.244  34.831  32.292  1.00  0.00    -0.206 F 
ATOM     65  C   UNL A   1      44.167  38.083  30.711  1.00  0.00     0.022 A 
BRANCH  62  66
ATOM     66  S   UNL A   1      43.534  38.996  28.151  1.00  0.00     0.124 S 
ATOM     67  O   UNL A   1      44.422  38.449  27.130  1.00  0.00    -0.237 OA
ATOM     68  O   UNL A   1      42.111  38.986  27.831  1.00  0.00    -0.237 OA
ATOM     69  O   UNL A   1      44.015  40.215  28.800  1.00  0.00    -0.744 OA
ENDBRANCH  62  66
ENDBRANCH  36  59
ENDBRANCH  10  11
ENDBRANCH   3   5
ENDBRANCH   2   3
ENDBRANCH   1   2
BRANCH   1  70
ATOM     70  C   UNL A   1      42.334  19.201  26.230  1.00  0.00     0.275 C 
BRANCH  70  71
ATOM     71  O   UNL A   1      42.812  19.499  24.911  1.00  0.00    -0.456 OA
BRANCH  71  72
ATOM     72  C   UNL A   1      44.089  19.997  24.820  1.00  0.00     0.374 C 
ATOM     73  O   UNL A   1      45.049  19.359  24.405  1.00  0.00    -0.242 OA
BRANCH  72  74
ATOM     74  C   UNL A   1      44.100  21.366  25.280  1.00  0.00     0.212 A 
ATOM     75  C   UNL A   1      43.924  22.551  24.590  1.00  0.00     0.059 A 
ATOM     76  O   UNL A   1      44.331  21.645  26.611  1.00  0.00    -0.449 OA
ATOM     77  C   UNL A   1      44.094  23.598  25.520  1.00  0.00     0.052 A 
ATOM     78  C   UNL A   1      44.350  23.006  26.740  1.00  0.00     0.135 A 
BRANCH  78  79
ATOM     79  C   UNL A   1      44.572  23.592  28.067  1.00  0.00     0.025 A 
ATOM     80  C   UNL A   1      43.471  23.597  28.935  1.00  0.00     0.014 A 
ATOM     81  C   UNL A   1      45.751  24.308  28.428  1.00  0.00    -0.006 A 
ATOM     82  C   UNL A   1      43.505  24.314  30.124  1.00  0.00     0.022 A 
ATOM     83  C   UNL A   1      45.760  25.112  29.601  1.00  0.00     0.001 A 
ATOM     84  C   UNL A   1      46.927  24.280  27.654  1.00  0.00     0.009 A 
ATOM     85  C   UNL A   1      44.625  25.079  30.445  1.00  0.00     0.048 A 
ATOM     86  C   UNL A   1      46.894  25.926  29.860  1.00  0.00     0.010 A 
ATOM     87  C   UNL A   1      48.034  25.085  27.926  1.00  0.00     0.001 A 
ATOM     88  Cl  UNL A   1      44.552  25.971  31.932  1.00  0.00    -0.084 Cl
ATOM     89  C   UNL A   1      48.007  25.932  29.020  1.00  0.00     0.001 A 
ENDBRANCH  78  79
ENDBRANCH  72  74
ENDBRANCH  71  72
ENDBRANCH  70  71
ENDBRANCH   1  70
TORSDOF 15
ENDMDL
