MODEL 1
REMARK VINA RESULT:      -9.4      0.000      0.000
REMARK SMILES CC[NH2+][C@]1(C(=O)OCCOC(=O)c2ccc(-c3c4nc(c(-c5cc(S(=O)(=O)[O-])ccc5F)c5ccc([nH]5)c(-c5cc(S(=O)(=O)[O-])ccc5F)c5nc(c(-c6cc(S(=O)(=O)[O-])ccc6F)c6ccc3[nH]6)C=C5)C=C4)cc2)CCC[C@@H]1CCSc1ccc(C)cc1
REMARK SMILES IDX 8 1 7 2 5 3 6 4 4 5 76 6 79 7 77 8 78 9 3 10 2 13 1 14 80 15
REMARK SMILES IDX 81 16 82 17 83 18 84 19 89 20 85 21 88 22 86 23 87 24 9 25
REMARK SMILES IDX 10 26 11 27 12 28 13 29 14 30 75 31 15 32 74 33 16 34 17 35
REMARK SMILES IDX 18 36 68 37 19 38 73 39 67 40 69 41 20 42 72 43 66 44 65 45
REMARK SMILES IDX 21 47 53 48 33 49 52 50 34 51 37 52 51 53 70 54 35 55 36 56
REMARK SMILES IDX 50 58 71 59 38 60 22 61 23 62 31 63 24 64 30 65 32 66 29 67
REMARK SMILES IDX 25 68 26 69 27 70 28 71 54 72 55 73 63 74 56 75 62 76 64 77
REMARK SMILES IDX 61 78 57 79 58 80 59 81 60 82 39 83 40 84 48 85 41 86 47 87
REMARK SMILES IDX 49 88 46 89 42 90 43 91 44 92 45 93
REMARK H PARENT 3 11 3 12 69 46 37 57
REMARK Flexibility Score: inf
ROOT
ATOM      1  C   UNL A   1      42.533  20.159  26.479  1.00  0.00     0.274 C 
ENDROOT
BRANCH   1   2
ATOM      2  O   UNL A   1      42.669  20.882  25.209  1.00  0.00    -0.457 OA
BRANCH   2   3
ATOM      3  C   UNL A   1      43.361  22.044  25.127  1.00  0.00     0.368 C 
ATOM      4  O   UNL A   1      42.727  23.099  25.006  1.00  0.00    -0.245 OA
BRANCH   3   5
ATOM      5  C   UNL A   1      45.010  22.083  25.349  1.00  0.00     0.197 C 
ATOM      6  C   UNL A   1      45.557  22.594  23.994  1.00  0.00     0.081 C 
ATOM      7  C   UNL A   1      45.201  23.284  26.245  1.00  0.00     0.063 C 
ATOM      8  C   UNL A   1      46.782  23.428  24.368  1.00  0.00     0.008 C 
ATOM      9  C   UNL A   1      46.561  23.872  25.832  1.00  0.00     0.011 C 
BRANCH   5  10
ATOM     10  N   UNL A   1      46.054  20.970  25.676  1.00  0.00    -0.332 N 
ATOM     11  H   UNL A   1      46.956  21.418  25.518  1.00  0.00     0.347 HD
ATOM     12  H   UNL A   1      45.674  20.686  26.579  1.00  0.00     0.347 HD
BRANCH  10  13
ATOM     13  C   UNL A   1      46.208  19.623  25.089  1.00  0.00     0.257 C 
ATOM     14  C   UNL A   1      45.230  19.058  24.066  1.00  0.00     0.071 C 
ENDBRANCH  10  13
ENDBRANCH   5  10
BRANCH   7  15
ATOM     15  C   UNL A   1      44.900  22.900  27.692  1.00  0.00     0.022 C 
BRANCH  15  16
ATOM     16  C   UNL A   1      44.502  24.086  28.683  1.00  0.00     0.075 C 
BRANCH  16  17
ATOM     17  S   UNL A   1      45.476  25.699  29.512  1.00  0.00    -0.126 SA
BRANCH  17  18
ATOM     18  C   UNL A   1      44.640  27.020  30.532  1.00  0.00     0.007 A 
ATOM     19  C   UNL A   1      45.523  27.937  31.120  1.00  0.00     0.015 A 
ATOM     20  C   UNL A   1      43.299  27.245  30.893  1.00  0.00     0.015 A 
ATOM     21  C   UNL A   1      45.077  29.004  31.942  1.00  0.00     0.004 A 
ATOM     22  C   UNL A   1      42.828  28.310  31.673  1.00  0.00     0.004 A 
ATOM     23  C   UNL A   1      43.721  29.213  32.204  1.00  0.00    -0.051 A 
ATOM     24  C   UNL A   1      43.214  30.350  33.034  1.00  0.00     0.044 C 
ENDBRANCH  17  18
ENDBRANCH  16  17
ENDBRANCH  15  16
ENDBRANCH   7  15
ENDBRANCH   3   5
ENDBRANCH   2   3
ENDBRANCH   1   2
BRANCH   1  25
ATOM     25  C   UNL A   1      41.098  19.597  26.696  1.00  0.00     0.275 C 
BRANCH  25  26
ATOM     26  O   UNL A   1      40.213  20.596  27.260  1.00  0.00    -0.458 OA
BRANCH  26  27
ATOM     27  C   UNL A   1      39.391  21.317  26.453  1.00  0.00     0.338 C 
ATOM     28  O   UNL A   1      38.762  20.913  25.509  1.00  0.00    -0.246 OA
BRANCH  27  29
ATOM     29  C   UNL A   1      39.670  22.756  26.725  1.00  0.00     0.060 A 
ATOM     30  C   UNL A   1      40.641  22.980  27.691  1.00  0.00     0.016 A 
ATOM     31  C   UNL A   1      39.012  23.857  26.161  1.00  0.00     0.016 A 
ATOM     32  C   UNL A   1      40.903  24.277  28.136  1.00  0.00     0.010 A 
ATOM     33  C   UNL A   1      39.415  25.181  26.498  1.00  0.00     0.010 A 
ATOM     34  C   UNL A   1      40.417  25.405  27.456  1.00  0.00    -0.014 A 
BRANCH  34  35
ATOM     35  C   UNL A   1      41.212  26.679  27.607  1.00  0.00     0.031 A 
ATOM     36  C   UNL A   1      42.562  26.954  26.988  1.00  0.00     0.074 A 
ATOM     37  C   UNL A   1      40.624  27.678  28.314  1.00  0.00     0.049 A 
ATOM     38  N   UNL A   1      43.365  27.969  27.213  1.00  0.00    -0.248 NA
ATOM     39  C   UNL A   1      43.079  26.001  25.998  1.00  0.00     0.031 C 
ATOM     40  C   UNL A   1      39.301  27.590  28.947  1.00  0.00     0.029 A 
ATOM     41  N   UNL A   1      41.011  28.968  28.589  1.00  0.00    -0.354 N 
ATOM     42  C   UNL A   1      44.501  27.762  26.435  1.00  0.00     0.074 A 
ATOM     43  C   UNL A   1      44.267  26.529  25.705  1.00  0.00     0.031 C 
ATOM     44  C   UNL A   1      38.924  28.790  29.382  1.00  0.00     0.029 A 
ATOM     45  C   UNL A   1      40.080  29.662  29.332  1.00  0.00     0.049 A 
ATOM     46  H   UNL A   1      41.863  29.357  28.286  1.00  0.00     0.167 HD
ATOM     47  C   UNL A   1      45.630  28.521  26.365  1.00  0.00     0.034 A 
ATOM     48  C   UNL A   1      40.151  30.804  30.039  1.00  0.00     0.034 A 
ATOM     49  C   UNL A   1      45.828  29.765  27.093  1.00  0.00     0.049 A 
ATOM     50  C   UNL A   1      41.449  31.535  30.068  1.00  0.00     0.074 A 
ATOM     51  C   UNL A   1      46.932  30.607  27.080  1.00  0.00     0.029 A 
ATOM     52  N   UNL A   1      44.917  30.343  27.970  1.00  0.00    -0.354 N 
ATOM     53  N   UNL A   1      42.556  31.260  29.422  1.00  0.00    -0.248 NA
ATOM     54  C   UNL A   1      41.521  32.702  30.949  1.00  0.00     0.031 C 
ATOM     55  C   UNL A   1      46.719  31.642  28.000  1.00  0.00     0.029 A 
ATOM     56  C   UNL A   1      45.451  31.497  28.534  1.00  0.00     0.049 A 
ATOM     57  H   UNL A   1      44.020  29.986  28.163  1.00  0.00     0.167 HD
ATOM     58  C   UNL A   1      43.470  32.218  29.835  1.00  0.00     0.074 A 
ATOM     59  C   UNL A   1      42.769  33.097  30.750  1.00  0.00     0.031 C 
ATOM     60  C   UNL A   1      44.775  32.344  29.489  1.00  0.00     0.034 A 
BRANCH  47  61
ATOM     61  C   UNL A   1      46.798  28.005  25.548  1.00  0.00     0.023 A 
ATOM     62  C   UNL A   1      46.939  28.250  24.172  1.00  0.00     0.031 A 
ATOM     63  C   UNL A   1      47.831  27.295  26.194  1.00  0.00     0.131 A 
ATOM     64  C   UNL A   1      48.068  27.764  23.485  1.00  0.00     0.055 A 
ATOM     65  C   UNL A   1      48.976  26.866  25.520  1.00  0.00     0.041 A 
ATOM     66  F   UNL A   1      47.751  27.020  27.506  1.00  0.00    -0.206 F 
ATOM     67  C   UNL A   1      49.095  27.094  24.153  1.00  0.00     0.022 A 
BRANCH  64  68
ATOM     68  S   UNL A   1      48.141  27.932  21.678  1.00  0.00     0.124 S 
ATOM     69  O   UNL A   1      46.799  28.418  21.368  1.00  0.00    -0.237 OA
ATOM     70  O   UNL A   1      49.226  28.888  21.493  1.00  0.00    -0.237 OA
ATOM     71  O   UNL A   1      48.423  26.574  21.216  1.00  0.00    -0.744 OA
ENDBRANCH  64  68
ENDBRANCH  47  61
BRANCH  48  72
ATOM     72  C   UNL A   1      39.012  31.190  30.922  1.00  0.00     0.023 A 
ATOM     73  C   UNL A   1      37.967  31.994  30.455  1.00  0.00     0.031 A 
ATOM     74  C   UNL A   1      38.945  30.717  32.250  1.00  0.00     0.131 A 
ATOM     75  C   UNL A   1      36.897  32.301  31.311  1.00  0.00     0.055 A 
ATOM     76  C   UNL A   1      37.845  30.962  33.068  1.00  0.00     0.041 A 
ATOM     77  F   UNL A   1      39.927  29.950  32.751  1.00  0.00    -0.206 F 
ATOM     78  C   UNL A   1      36.815  31.767  32.600  1.00  0.00     0.022 A 
BRANCH  75  79
ATOM     79  S   UNL A   1      35.639  33.470  30.736  1.00  0.00     0.124 S 
ATOM     80  O   UNL A   1      35.702  34.504  31.763  1.00  0.00    -0.237 OA
ATOM     81  O   UNL A   1      36.147  33.840  29.420  1.00  0.00    -0.237 OA
ATOM     82  O   UNL A   1      34.414  32.673  30.728  1.00  0.00    -0.744 OA
ENDBRANCH  75  79
ENDBRANCH  48  72
BRANCH  60  83
ATOM     83  C   UNL A   1      45.505  33.505  30.112  1.00  0.00     0.023 A 
ATOM     84  C   UNL A   1      46.100  33.393  31.382  1.00  0.00     0.031 A 
ATOM     85  C   UNL A   1      45.517  34.760  29.482  1.00  0.00     0.131 A 
ATOM     86  C   UNL A   1      46.615  34.534  32.014  1.00  0.00     0.055 A 
ATOM     87  C   UNL A   1      46.088  35.879  30.089  1.00  0.00     0.041 A 
ATOM     88  F   UNL A   1      44.949  34.925  28.276  1.00  0.00    -0.206 F 
ATOM     89  C   UNL A   1      46.627  35.773  31.369  1.00  0.00     0.022 A 
BRANCH  86  90
ATOM     90  S   UNL A   1      47.161  34.402  33.739  1.00  0.00     0.124 S 
ATOM     91  O   UNL A   1      48.535  34.890  33.658  1.00  0.00    -0.237 OA
ATOM     92  O   UNL A   1      46.216  35.270  34.434  1.00  0.00    -0.237 OA
ATOM     93  O   UNL A   1      47.026  32.977  34.034  1.00  0.00    -0.744 OA
ENDBRANCH  86  90
ENDBRANCH  60  83
ENDBRANCH  34  35
ENDBRANCH  27  29
ENDBRANCH  26  27
ENDBRANCH  25  26
ENDBRANCH   1  25
TORSDOF 20
ENDMDL
MODEL 2
REMARK VINA RESULT:      -9.2      4.055     10.032
REMARK SMILES CC[NH2+][C@]1(C(=O)OCCOC(=O)c2ccc(-c3c4nc(c(-c5cc(S(=O)(=O)[O-])ccc5F)c5ccc([nH]5)c(-c5cc(S(=O)(=O)[O-])ccc5F)c5nc(c(-c6cc(S(=O)(=O)[O-])ccc6F)c6ccc3[nH]6)C=C5)C=C4)cc2)CCC[C@@H]1CCSc1ccc(C)cc1
REMARK SMILES IDX 8 1 7 2 5 3 6 4 4 5 76 6 79 7 77 8 78 9 3 10 2 13 1 14 80 15
REMARK SMILES IDX 81 16 82 17 83 18 84 19 89 20 85 21 88 22 86 23 87 24 9 25
REMARK SMILES IDX 10 26 11 27 12 28 13 29 14 30 75 31 15 32 74 33 16 34 17 35
REMARK SMILES IDX 18 36 68 37 19 38 73 39 67 40 69 41 20 42 72 43 66 44 65 45
REMARK SMILES IDX 21 47 53 48 33 49 52 50 34 51 37 52 51 53 70 54 35 55 36 56
REMARK SMILES IDX 50 58 71 59 38 60 22 61 23 62 31 63 24 64 30 65 32 66 29 67
REMARK SMILES IDX 25 68 26 69 27 70 28 71 54 72 55 73 63 74 56 75 62 76 64 77
REMARK SMILES IDX 61 78 57 79 58 80 59 81 60 82 39 83 40 84 48 85 41 86 47 87
REMARK SMILES IDX 49 88 46 89 42 90 43 91 44 92 45 93
REMARK H PARENT 3 11 3 12 69 46 37 57
REMARK Flexibility Score: inf
ROOT
ATOM      1  C   UNL A   1      36.374  19.626  24.934  1.00  0.00     0.274 C 
ENDROOT
BRANCH   1   2
ATOM      2  O   UNL A   1      35.673  20.894  24.694  1.00  0.00    -0.457 OA
BRANCH   2   3
ATOM      3  C   UNL A   1      34.385  21.073  25.074  1.00  0.00     0.368 C 
ATOM      4  O   UNL A   1      33.704  20.074  25.333  1.00  0.00    -0.245 OA
BRANCH   3   5
ATOM      5  C   UNL A   1      33.772  22.595  25.350  1.00  0.00     0.197 C 
ATOM      6  C   UNL A   1      34.885  23.306  26.158  1.00  0.00     0.081 C 
ATOM      7  C   UNL A   1      33.889  23.255  23.996  1.00  0.00     0.063 C 
ATOM      8  C   UNL A   1      34.816  24.763  25.702  1.00  0.00     0.008 C 
ATOM      9  C   UNL A   1      34.161  24.737  24.301  1.00  0.00     0.011 C 
BRANCH   5  10
ATOM     10  N   UNL A   1      32.504  23.097  26.108  1.00  0.00    -0.332 N 
ATOM     11  H   UNL A   1      32.744  22.993  27.094  1.00  0.00     0.347 HD
ATOM     12  H   UNL A   1      32.383  23.978  25.608  1.00  0.00     0.347 HD
BRANCH  10  13
ATOM     13  C   UNL A   1      31.107  22.623  26.022  1.00  0.00     0.257 C 
ATOM     14  C   UNL A   1      30.043  23.017  27.039  1.00  0.00     0.071 C 
ENDBRANCH  10  13
ENDBRANCH   5  10
BRANCH   7  15
ATOM     15  C   UNL A   1      32.724  22.821  23.109  1.00  0.00     0.022 C 
BRANCH  15  16
ATOM     16  C   UNL A   1      31.731  23.966  22.612  1.00  0.00     0.075 C 
BRANCH  16  17
ATOM     17  S   UNL A   1      30.437  25.286  23.519  1.00  0.00    -0.126 SA
BRANCH  17  18
ATOM     18  C   UNL A   1      30.966  26.627  24.705  1.00  0.00     0.007 A 
ATOM     19  C   UNL A   1      30.985  27.913  24.148  1.00  0.00     0.015 A 
ATOM     20  C   UNL A   1      31.423  26.603  26.036  1.00  0.00     0.015 A 
ATOM     21  C   UNL A   1      31.374  29.060  24.888  1.00  0.00     0.004 A 
ATOM     22  C   UNL A   1      31.778  27.722  26.801  1.00  0.00     0.004 A 
ATOM     23  C   UNL A   1      31.749  28.974  26.231  1.00  0.00    -0.051 A 
ATOM     24  C   UNL A   1      32.127  30.168  27.052  1.00  0.00     0.044 C 
ENDBRANCH  17  18
ENDBRANCH  16  17
ENDBRANCH  15  16
ENDBRANCH   7  15
ENDBRANCH   3   5
ENDBRANCH   2   3
ENDBRANCH   1   2
BRANCH   1  25
ATOM     25  C   UNL A   1      37.921  19.771  24.838  1.00  0.00     0.275 C 
BRANCH  25  26
ATOM     26  O   UNL A   1      38.385  20.979  25.489  1.00  0.00    -0.458 OA
BRANCH  26  27
ATOM     27  C   UNL A   1      39.626  21.027  26.040  1.00  0.00     0.338 C 
ATOM     28  O   UNL A   1      40.356  20.096  26.267  1.00  0.00    -0.246 OA
BRANCH  27  29
ATOM     29  C   UNL A   1      39.787  22.387  26.627  1.00  0.00     0.060 A 
ATOM     30  C   UNL A   1      40.832  22.502  27.532  1.00  0.00     0.016 A 
ATOM     31  C   UNL A   1      38.963  23.498  26.403  1.00  0.00     0.016 A 
ATOM     32  C   UNL A   1      41.010  23.683  28.254  1.00  0.00     0.010 A 
ATOM     33  C   UNL A   1      39.265  24.748  27.014  1.00  0.00     0.010 A 
ATOM     34  C   UNL A   1      40.340  24.869  27.910  1.00  0.00    -0.014 A 
BRANCH  34  35
ATOM     35  C   UNL A   1      41.014  26.162  28.296  1.00  0.00     0.031 A 
ATOM     36  C   UNL A   1      40.395  27.267  29.120  1.00  0.00     0.074 A 
ATOM     37  C   UNL A   1      42.309  26.307  27.915  1.00  0.00     0.049 A 
ATOM     38  N   UNL A   1      40.870  28.471  29.349  1.00  0.00    -0.248 NA
ATOM     39  C   UNL A   1      39.106  27.007  29.773  1.00  0.00     0.031 C 
ATOM     40  C   UNL A   1      43.072  25.314  27.145  1.00  0.00     0.029 A 
ATOM     41  N   UNL A   1      43.237  27.295  28.146  1.00  0.00    -0.354 N 
ATOM     42  C   UNL A   1      39.926  29.132  30.131  1.00  0.00     0.074 A 
ATOM     43  C   UNL A   1      38.857  28.177  30.360  1.00  0.00     0.031 C 
ATOM     44  C   UNL A   1      44.358  25.655  27.110  1.00  0.00     0.029 A 
ATOM     45  C   UNL A   1      44.467  27.019  27.587  1.00  0.00     0.049 A 
ATOM     46  H   UNL A   1      43.044  28.113  28.657  1.00  0.00     0.167 HD
ATOM     47  C   UNL A   1      39.952  30.416  30.583  1.00  0.00     0.034 A 
ATOM     48  C   UNL A   1      45.539  27.788  27.328  1.00  0.00     0.034 A 
ATOM     49  C   UNL A   1      41.047  31.345  30.355  1.00  0.00     0.049 A 
ATOM     50  C   UNL A   1      45.478  29.230  27.699  1.00  0.00     0.074 A 
ATOM     51  C   UNL A   1      41.168  32.661  30.781  1.00  0.00     0.029 A 
ATOM     52  N   UNL A   1      42.204  31.069  29.634  1.00  0.00    -0.354 N 
ATOM     53  N   UNL A   1      44.526  29.871  28.330  1.00  0.00    -0.248 NA
ATOM     54  C   UNL A   1      46.613  30.058  27.286  1.00  0.00     0.031 C 
ATOM     55  C   UNL A   1      42.350  33.198  30.254  1.00  0.00     0.029 A 
ATOM     56  C   UNL A   1      43.013  32.198  29.564  1.00  0.00     0.049 A 
ATOM     57  H   UNL A   1      42.419  30.197  29.231  1.00  0.00     0.167 HD
ATOM     58  C   UNL A   1      44.941  31.194  28.377  1.00  0.00     0.074 A 
ATOM     59  C   UNL A   1      46.247  31.244  27.748  1.00  0.00     0.031 C 
ATOM     60  C   UNL A   1      44.289  32.266  28.890  1.00  0.00     0.034 A 
BRANCH  47  61
ATOM     61  C   UNL A   1      38.727  30.954  31.299  1.00  0.00     0.023 A 
ATOM     62  C   UNL A   1      37.611  31.473  30.622  1.00  0.00     0.031 A 
ATOM     63  C   UNL A   1      38.665  30.883  32.705  1.00  0.00     0.131 A 
ATOM     64  C   UNL A   1      36.496  31.927  31.354  1.00  0.00     0.055 A 
ATOM     65  C   UNL A   1      37.534  31.281  33.422  1.00  0.00     0.041 A 
ATOM     66  F   UNL A   1      39.704  30.407  33.411  1.00  0.00    -0.206 F 
ATOM     67  C   UNL A   1      36.443  31.814  32.746  1.00  0.00     0.022 A 
BRANCH  64  68
ATOM     68  S   UNL A   1      35.144  32.761  30.474  1.00  0.00     0.124 S 
ATOM     69  O   UNL A   1      35.762  34.033  30.113  1.00  0.00    -0.237 OA
ATOM     70  O   UNL A   1      34.873  31.844  29.372  1.00  0.00    -0.237 OA
ATOM     71  O   UNL A   1      34.086  32.856  31.479  1.00  0.00    -0.744 OA
ENDBRANCH  64  68
ENDBRANCH  47  61
BRANCH  48  72
ATOM     72  C   UNL A   1      46.657  27.234  26.510  1.00  0.00     0.023 A 
ATOM     73  C   UNL A   1      47.780  26.653  27.108  1.00  0.00     0.031 A 
ATOM     74  C   UNL A   1      46.587  27.250  25.100  1.00  0.00     0.131 A 
ATOM     75  C   UNL A   1      48.791  26.110  26.297  1.00  0.00     0.055 A 
ATOM     76  C   UNL A   1      47.555  26.643  24.305  1.00  0.00     0.041 A 
ATOM     77  F   UNL A   1      45.535  27.804  24.476  1.00  0.00    -0.206 F 
ATOM     78  C   UNL A   1      48.671  26.075  24.905  1.00  0.00     0.022 A 
BRANCH  75  79
ATOM     79  S   UNL A   1      50.304  25.508  27.089  1.00  0.00     0.124 S 
ATOM     80  O   UNL A   1      49.841  24.276  27.718  1.00  0.00    -0.237 OA
ATOM     81  O   UNL A   1      51.201  25.351  25.950  1.00  0.00    -0.237 OA
ATOM     82  O   UNL A   1      50.655  26.586  28.012  1.00  0.00    -0.744 OA
ENDBRANCH  75  79
ENDBRANCH  48  72
BRANCH  60  83
ATOM     83  C   UNL A   1      45.017  33.581  28.790  1.00  0.00     0.023 A 
ATOM     84  C   UNL A   1      45.889  34.009  29.808  1.00  0.00     0.031 A 
ATOM     85  C   UNL A   1      44.760  34.458  27.724  1.00  0.00     0.131 A 
ATOM     86  C   UNL A   1      46.413  35.309  29.777  1.00  0.00     0.055 A 
ATOM     87  C   UNL A   1      45.335  35.729  27.667  1.00  0.00     0.041 A 
ATOM     88  F   UNL A   1      43.923  34.106  26.735  1.00  0.00    -0.206 F 
ATOM     89  C   UNL A   1      46.154  36.166  28.705  1.00  0.00     0.022 A 
BRANCH  86  90
ATOM     90  S   UNL A   1      47.341  35.908  31.216  1.00  0.00     0.124 S 
ATOM     91  O   UNL A   1      46.353  35.788  32.284  1.00  0.00    -0.237 OA
ATOM     92  O   UNL A   1      48.462  34.975  31.277  1.00  0.00    -0.237 OA
ATOM     93  O   UNL A   1      47.695  37.277  30.850  1.00  0.00    -0.744 OA
ENDBRANCH  86  90
ENDBRANCH  60  83
ENDBRANCH  34  35
ENDBRANCH  27  29
ENDBRANCH  26  27
ENDBRANCH  25  26
ENDBRANCH   1  25
TORSDOF 20
ENDMDL
MODEL 3
REMARK VINA RESULT:      -9.1      5.108      9.885
REMARK SMILES CC[NH2+][C@]1(C(=O)OCCOC(=O)c2ccc(-c3c4nc(c(-c5cc(S(=O)(=O)[O-])ccc5F)c5ccc([nH]5)c(-c5cc(S(=O)(=O)[O-])ccc5F)c5nc(c(-c6cc(S(=O)(=O)[O-])ccc6F)c6ccc3[nH]6)C=C5)C=C4)cc2)CCC[C@@H]1CCSc1ccc(C)cc1
REMARK SMILES IDX 8 1 7 2 5 3 6 4 4 5 76 6 79 7 77 8 78 9 3 10 2 13 1 14 80 15
REMARK SMILES IDX 81 16 82 17 83 18 84 19 89 20 85 21 88 22 86 23 87 24 9 25
REMARK SMILES IDX 10 26 11 27 12 28 13 29 14 30 75 31 15 32 74 33 16 34 17 35
REMARK SMILES IDX 18 36 68 37 19 38 73 39 67 40 69 41 20 42 72 43 66 44 65 45
REMARK SMILES IDX 21 47 53 48 33 49 52 50 34 51 37 52 51 53 70 54 35 55 36 56
REMARK SMILES IDX 50 58 71 59 38 60 22 61 23 62 31 63 24 64 30 65 32 66 29 67
REMARK SMILES IDX 25 68 26 69 27 70 28 71 54 72 55 73 63 74 56 75 62 76 64 77
REMARK SMILES IDX 61 78 57 79 58 80 59 81 60 82 39 83 40 84 48 85 41 86 47 87
REMARK SMILES IDX 49 88 46 89 42 90 43 91 44 92 45 93
REMARK H PARENT 3 11 3 12 69 46 37 57
REMARK Flexibility Score: inf
ROOT
ATOM      1  C   UNL A   1      31.221  31.578  26.009  1.00  0.00     0.274 C 
ENDROOT
BRANCH   1   2
ATOM      2  O   UNL A   1      31.624  30.189  26.265  1.00  0.00    -0.457 OA
BRANCH   2   3
ATOM      3  C   UNL A   1      32.547  29.566  25.494  1.00  0.00     0.368 C 
ATOM      4  O   UNL A   1      33.686  29.408  25.951  1.00  0.00    -0.245 OA
BRANCH   3   5
ATOM      5  C   UNL A   1      32.131  28.879  24.036  1.00  0.00     0.197 C 
ATOM      6  C   UNL A   1      33.454  28.880  23.232  1.00  0.00     0.081 C 
ATOM      7  C   UNL A   1      31.970  27.419  24.386  1.00  0.00     0.063 C 
ATOM      8  C   UNL A   1      33.385  27.609  22.386  1.00  0.00     0.008 C 
ATOM      9  C   UNL A   1      32.416  26.659  23.126  1.00  0.00     0.011 C 
BRANCH   5  10
ATOM     10  N   UNL A   1      31.121  29.302  22.924  1.00  0.00    -0.332 N 
ATOM     11  H   UNL A   1      31.634  29.985  22.366  1.00  0.00     0.347 HD
ATOM     12  H   UNL A   1      30.844  28.367  22.626  1.00  0.00     0.347 HD
BRANCH  10  13
ATOM     13  C   UNL A   1      29.768  29.881  23.054  1.00  0.00     0.257 C 
ATOM     14  C   UNL A   1      28.577  29.369  22.252  1.00  0.00     0.071 C 
ENDBRANCH  10  13
ENDBRANCH   5  10
BRANCH   7  15
ATOM     15  C   UNL A   1      30.599  27.189  25.017  1.00  0.00     0.022 C 
BRANCH  15  16
ATOM     16  C   UNL A   1      30.451  25.924  25.978  1.00  0.00     0.075 C 
BRANCH  16  17
ATOM     17  S   UNL A   1      31.619  24.297  26.458  1.00  0.00    -0.126 SA
BRANCH  17  18
ATOM     18  C   UNL A   1      33.057  23.698  25.430  1.00  0.00     0.007 A 
ATOM     19  C   UNL A   1      34.205  24.497  25.528  1.00  0.00     0.015 A 
ATOM     20  C   UNL A   1      33.205  22.640  24.514  1.00  0.00     0.015 A 
ATOM     21  C   UNL A   1      35.396  24.212  24.810  1.00  0.00     0.004 A 
ATOM     22  C   UNL A   1      34.378  22.315  23.821  1.00  0.00     0.004 A 
ATOM     23  C   UNL A   1      35.498  23.101  23.968  1.00  0.00    -0.051 A 
ATOM     24  C   UNL A   1      36.750  22.749  23.228  1.00  0.00     0.044 C 
ENDBRANCH  17  18
ENDBRANCH  16  17
ENDBRANCH  15  16
ENDBRANCH   7  15
ENDBRANCH   3   5
ENDBRANCH   2   3
ENDBRANCH   1   2
BRANCH   1  25
ATOM     25  C   UNL A   1      31.651  32.545  27.149  1.00  0.00     0.275 C 
BRANCH  25  26
ATOM     26  O   UNL A   1      33.023  32.982  26.989  1.00  0.00    -0.458 OA
BRANCH  26  27
ATOM     27  C   UNL A   1      33.695  33.527  28.037  1.00  0.00     0.338 C 
ATOM     28  O   UNL A   1      33.573  34.641  28.478  1.00  0.00    -0.246 OA
BRANCH  27  29
ATOM     29  C   UNL A   1      34.849  32.628  28.326  1.00  0.00     0.060 A 
ATOM     30  C   UNL A   1      36.073  33.275  28.412  1.00  0.00     0.016 A 
ATOM     31  C   UNL A   1      34.812  31.232  28.446  1.00  0.00     0.016 A 
ATOM     32  C   UNL A   1      37.250  32.536  28.545  1.00  0.00     0.010 A 
ATOM     33  C   UNL A   1      35.999  30.510  28.758  1.00  0.00     0.010 A 
ATOM     34  C   UNL A   1      37.233  31.170  28.871  1.00  0.00    -0.014 A 
BRANCH  34  35
ATOM     35  C   UNL A   1      38.451  30.629  29.579  1.00  0.00     0.031 A 
ATOM     36  C   UNL A   1      39.466  29.680  28.987  1.00  0.00     0.074 A 
ATOM     37  C   UNL A   1      38.674  31.091  30.836  1.00  0.00     0.049 A 
ATOM     38  N   UNL A   1      40.447  29.056  29.600  1.00  0.00    -0.248 NA
ATOM     39  C   UNL A   1      39.394  29.396  27.548  1.00  0.00     0.031 C 
ATOM     40  C   UNL A   1      37.810  32.045  31.544  1.00  0.00     0.029 A 
ATOM     41  N   UNL A   1      39.695  30.879  31.732  1.00  0.00    -0.354 N 
ATOM     42  C   UNL A   1      41.082  28.270  28.643  1.00  0.00     0.074 A 
ATOM     43  C   UNL A   1      40.387  28.521  27.393  1.00  0.00     0.031 C 
ATOM     44  C   UNL A   1      38.403  32.453  32.664  1.00  0.00     0.029 A 
ATOM     45  C   UNL A   1      39.535  31.582  32.907  1.00  0.00     0.049 A 
ATOM     46  H   UNL A   1      40.462  30.288  31.553  1.00  0.00     0.167 HD
ATOM     47  C   UNL A   1      42.125  27.410  28.809  1.00  0.00     0.034 A 
ATOM     48  C   UNL A   1      40.110  31.471  34.117  1.00  0.00     0.034 A 
ATOM     49  C   UNL A   1      42.816  27.194  30.070  1.00  0.00     0.049 A 
ATOM     50  C   UNL A   1      41.144  30.415  34.312  1.00  0.00     0.074 A 
ATOM     51  C   UNL A   1      43.888  26.352  30.335  1.00  0.00     0.029 A 
ATOM     52  N   UNL A   1      42.505  27.809  31.278  1.00  0.00    -0.354 N 
ATOM     53  N   UNL A   1      41.650  29.595  33.425  1.00  0.00    -0.248 NA
ATOM     54  C   UNL A   1      41.653  30.243  35.674  1.00  0.00     0.031 C 
ATOM     55  C   UNL A   1      44.169  26.400  31.707  1.00  0.00     0.029 A 
ATOM     56  C   UNL A   1      43.329  27.330  32.293  1.00  0.00     0.049 A 
ATOM     57  H   UNL A   1      41.802  28.487  31.398  1.00  0.00     0.167 HD
ATOM     58  C   UNL A   1      42.532  28.789  34.129  1.00  0.00     0.074 A 
ATOM     59  C   UNL A   1      42.516  29.254  35.502  1.00  0.00     0.031 C 
ATOM     60  C   UNL A   1      43.278  27.752  33.673  1.00  0.00     0.034 A 
BRANCH  47  61
ATOM     61  C   UNL A   1      42.548  26.551  27.633  1.00  0.00     0.023 A 
ATOM     62  C   UNL A   1      42.125  25.222  27.464  1.00  0.00     0.031 A 
ATOM     63  C   UNL A   1      43.355  27.114  26.624  1.00  0.00     0.131 A 
ATOM     64  C   UNL A   1      42.534  24.495  26.329  1.00  0.00     0.055 A 
ATOM     65  C   UNL A   1      43.710  26.407  25.473  1.00  0.00     0.041 A 
ATOM     66  F   UNL A   1      43.801  28.376  26.733  1.00  0.00    -0.206 F 
ATOM     67  C   UNL A   1      43.306  25.085  25.324  1.00  0.00     0.022 A 
BRANCH  64  68
ATOM     68  S   UNL A   1      42.129  22.728  26.220  1.00  0.00     0.124 S 
ATOM     69  O   UNL A   1      40.674  22.746  26.343  1.00  0.00    -0.237 OA
ATOM     70  O   UNL A   1      42.657  22.363  24.910  1.00  0.00    -0.237 OA
ATOM     71  O   UNL A   1      42.833  22.142  27.360  1.00  0.00    -0.744 OA
ENDBRANCH  64  68
ENDBRANCH  47  61
BRANCH  48  72
ATOM     72  C   UNL A   1      39.563  32.254  35.262  1.00  0.00     0.023 A 
ATOM     73  C   UNL A   1      39.991  33.560  35.524  1.00  0.00     0.031 A 
ATOM     74  C   UNL A   1      38.563  31.703  36.093  1.00  0.00     0.131 A 
ATOM     75  C   UNL A   1      39.420  34.273  36.591  1.00  0.00     0.055 A 
ATOM     76  C   UNL A   1      37.948  32.442  37.100  1.00  0.00     0.041 A 
ATOM     77  F   UNL A   1      38.123  30.451  35.890  1.00  0.00    -0.206 F 
ATOM     78  C   UNL A   1      38.383  33.734  37.359  1.00  0.00     0.022 A 
BRANCH  75  79
ATOM     79  S   UNL A   1      40.102  35.898  37.008  1.00  0.00     0.124 S 
ATOM     80  O   UNL A   1      39.677  36.700  35.867  1.00  0.00    -0.237 OA
ATOM     81  O   UNL A   1      39.444  36.187  38.277  1.00  0.00    -0.237 OA
ATOM     82  O   UNL A   1      41.540  35.650  37.095  1.00  0.00    -0.744 OA
ENDBRANCH  75  79
ENDBRANCH  48  72
BRANCH  60  83
ATOM     83  C   UNL A   1      44.149  27.075  34.699  1.00  0.00     0.023 A 
ATOM     84  C   UNL A   1      45.449  27.539  34.968  1.00  0.00     0.031 A 
ATOM     85  C   UNL A   1      43.718  25.899  35.334  1.00  0.00     0.131 A 
ATOM     86  C   UNL A   1      46.300  26.788  35.792  1.00  0.00     0.055 A 
ATOM     87  C   UNL A   1      44.549  25.190  36.202  1.00  0.00     0.041 A 
ATOM     88  F   UNL A   1      42.492  25.404  35.098  1.00  0.00    -0.206 F 
ATOM     89  C   UNL A   1      45.853  25.625  36.423  1.00  0.00     0.022 A 
BRANCH  86  90
ATOM     90  S   UNL A   1      48.039  27.288  35.932  1.00  0.00     0.124 S 
ATOM     91  O   UNL A   1      47.919  28.700  36.282  1.00  0.00    -0.237 OA
ATOM     92  O   UNL A   1      48.533  26.410  36.988  1.00  0.00    -0.237 OA
ATOM     93  O   UNL A   1      48.581  27.022  34.602  1.00  0.00    -0.744 OA
ENDBRANCH  86  90
ENDBRANCH  60  83
ENDBRANCH  34  35
ENDBRANCH  27  29
ENDBRANCH  26  27
ENDBRANCH  25  26
ENDBRANCH   1  25
TORSDOF 20
ENDMDL
