MODEL 1
REMARK VINA RESULT:     -12.1      0.000      0.000
REMARK SMILES O=C(OCCOC(=O)c1cc(-c2cncnc2)cc(S(=O)(=O)N2CCCC2)c1)c1ccc(-c2c3nc(c(-c4cc(S(=O)(=O)[O-])ccc4F)c4ccc([nH]4)c(-c4cc(S(=O)(=O)[O-])ccc4F)c4nc(c(-c5cc(S(=O)(=O)[O-])ccc5F)c5ccc2[nH]5)C=C4)C=C3)cc1
REMARK SMILES IDX 4 1 3 2 2 3 1 4 29 5 30 6 91 7 31 8 90 9 32 10 33 11 34 12
REMARK SMILES IDX 84 13 35 14 89 15 83 16 85 17 36 18 88 19 82 20 81 21 37 23
REMARK SMILES IDX 69 24 49 25 68 26 50 27 53 28 67 29 86 30 51 31 52 32 66 34
REMARK SMILES IDX 87 35 54 36 38 37 39 38 47 39 40 40 46 41 48 42 45 43 41 44
REMARK SMILES IDX 42 45 43 46 44 47 70 48 71 49 79 50 72 51 78 52 80 53 77 54
REMARK SMILES IDX 73 55 74 56 75 57 76 58 55 59 56 60 64 61 57 62 63 63 65 64
REMARK SMILES IDX 62 65 58 66 59 67 60 68 61 69 5 70 6 71 7 72 8 73 9 74 10 75
REMARK SMILES IDX 28 76 11 77 19 78 18 79 12 80 13 81 17 82 14 83 16 84 15 85
REMARK SMILES IDX 20 86 21 87 22 88 23 89 24 90 27 91 25 92 26 93
REMARK H PARENT 85 22 53 33
REMARK Flexibility Score: inf
ROOT
ATOM      1  C   UNL A   1      37.712  21.474  25.495  1.00  0.00     0.275 C 
ENDROOT
BRANCH   1   2
ATOM      2  O   UNL A   1      39.128  21.682  25.639  1.00  0.00    -0.458 OA
BRANCH   2   3
ATOM      3  C   UNL A   1      39.873  22.176  26.652  1.00  0.00     0.338 C 
ATOM      4  O   UNL A   1      40.367  21.368  27.441  1.00  0.00    -0.246 OA
BRANCH   3   5
ATOM      5  C   UNL A   1      40.093  23.635  26.944  1.00  0.00     0.060 A 
ATOM      6  C   UNL A   1      40.112  24.688  26.027  1.00  0.00     0.016 A 
ATOM      7  C   UNL A   1      40.342  23.957  28.295  1.00  0.00     0.016 A 
ATOM      8  C   UNL A   1      40.361  26.007  26.439  1.00  0.00     0.010 A 
ATOM      9  C   UNL A   1      40.566  25.272  28.717  1.00  0.00     0.010 A 
ATOM     10  C   UNL A   1      40.605  26.307  27.783  1.00  0.00    -0.014 A 
BRANCH  10  11
ATOM     11  C   UNL A   1      41.042  27.668  28.180  1.00  0.00     0.031 A 
ATOM     12  C   UNL A   1      42.488  28.027  28.095  1.00  0.00     0.074 A 
ATOM     13  C   UNL A   1      40.162  28.595  28.591  1.00  0.00     0.049 A 
ATOM     14  N   UNL A   1      43.070  29.164  28.371  1.00  0.00    -0.248 NA
ATOM     15  C   UNL A   1      43.394  26.964  27.647  1.00  0.00     0.031 C 
ATOM     16  C   UNL A   1      38.734  28.359  28.714  1.00  0.00     0.029 A 
ATOM     17  N   UNL A   1      40.325  29.899  28.989  1.00  0.00    -0.354 N 
ATOM     18  C   UNL A   1      44.414  28.966  28.098  1.00  0.00     0.074 A 
ATOM     19  C   UNL A   1      44.564  27.574  27.719  1.00  0.00     0.031 C 
ATOM     20  C   UNL A   1      38.147  29.480  29.156  1.00  0.00     0.029 A 
ATOM     21  C   UNL A   1      39.157  30.491  29.406  1.00  0.00     0.049 A 
ATOM     22  H   UNL A   1      41.192  30.363  28.976  1.00  0.00     0.167 HD
ATOM     23  C   UNL A   1      45.424  29.870  28.127  1.00  0.00     0.034 A 
ATOM     24  C   UNL A   1      38.910  31.691  29.968  1.00  0.00     0.034 A 
ATOM     25  C   UNL A   1      45.270  31.232  28.573  1.00  0.00     0.049 A 
ATOM     26  C   UNL A   1      40.054  32.637  30.142  1.00  0.00     0.074 A 
ATOM     27  C   UNL A   1      46.224  32.229  28.661  1.00  0.00     0.029 A 
ATOM     28  N   UNL A   1      44.081  31.782  29.045  1.00  0.00    -0.354 N 
ATOM     29  N   UNL A   1      41.317  32.452  29.835  1.00  0.00    -0.248 NA
ATOM     30  C   UNL A   1      39.748  33.950  30.713  1.00  0.00     0.031 C 
ATOM     31  C   UNL A   1      45.627  33.360  29.238  1.00  0.00     0.029 A 
ATOM     32  C   UNL A   1      44.284  33.091  29.458  1.00  0.00     0.049 A 
ATOM     33  H   UNL A   1      43.218  31.309  29.082  1.00  0.00     0.167 HD
ATOM     34  C   UNL A   1      41.958  33.640  30.152  1.00  0.00     0.074 A 
ATOM     35  C   UNL A   1      40.939  34.533  30.674  1.00  0.00     0.031 C 
ATOM     36  C   UNL A   1      43.268  33.964  30.003  1.00  0.00     0.034 A 
BRANCH  23  37
ATOM     37  C   UNL A   1      46.771  29.342  27.708  1.00  0.00     0.023 A 
ATOM     38  C   UNL A   1      47.001  28.935  26.379  1.00  0.00     0.031 A 
ATOM     39  C   UNL A   1      47.761  29.076  28.665  1.00  0.00     0.131 A 
ATOM     40  C   UNL A   1      48.131  28.163  26.074  1.00  0.00     0.055 A 
ATOM     41  C   UNL A   1      48.932  28.391  28.331  1.00  0.00     0.041 A 
ATOM     42  F   UNL A   1      47.582  29.419  29.949  1.00  0.00    -0.206 F 
ATOM     43  C   UNL A   1      49.109  27.906  27.037  1.00  0.00     0.022 A 
BRANCH  40  44
ATOM     44  S   UNL A   1      48.184  27.314  24.471  1.00  0.00     0.124 S 
ATOM     45  O   UNL A   1      46.795  27.430  24.030  1.00  0.00    -0.237 OA
ATOM     46  O   UNL A   1      49.157  28.105  23.725  1.00  0.00    -0.237 OA
ATOM     47  O   UNL A   1      48.609  25.959  24.813  1.00  0.00    -0.744 OA
ENDBRANCH  40  44
ENDBRANCH  23  37
BRANCH  24  48
ATOM     48  C   UNL A   1      37.538  32.016  30.454  1.00  0.00     0.023 A 
ATOM     49  C   UNL A   1      36.617  32.725  29.668  1.00  0.00     0.031 A 
ATOM     50  C   UNL A   1      37.121  31.566  31.721  1.00  0.00     0.131 A 
ATOM     51  C   UNL A   1      35.320  32.962  30.158  1.00  0.00     0.055 A 
ATOM     52  C   UNL A   1      35.823  31.776  32.189  1.00  0.00     0.041 A 
ATOM     53  F   UNL A   1      37.970  30.890  32.511  1.00  0.00    -0.206 F 
ATOM     54  C   UNL A   1      34.914  32.481  31.406  1.00  0.00     0.022 A 
BRANCH  51  55
ATOM     55  S   UNL A   1      34.161  33.919  29.141  1.00  0.00     0.124 S 
ATOM     56  O   UNL A   1      33.611  32.894  28.261  1.00  0.00    -0.237 OA
ATOM     57  O   UNL A   1      33.248  34.456  30.147  1.00  0.00    -0.237 OA
ATOM     58  O   UNL A   1      35.012  34.910  28.487  1.00  0.00    -0.744 OA
ENDBRANCH  51  55
ENDBRANCH  24  48
BRANCH  36  59
ATOM     59  C   UNL A   1      43.648  35.369  30.375  1.00  0.00     0.023 A 
ATOM     60  C   UNL A   1      43.583  36.422  29.447  1.00  0.00     0.031 A 
ATOM     61  C   UNL A   1      44.130  35.646  31.666  1.00  0.00     0.131 A 
ATOM     62  C   UNL A   1      44.048  37.695  29.806  1.00  0.00     0.055 A 
ATOM     63  C   UNL A   1      44.539  36.927  32.035  1.00  0.00     0.041 A 
ATOM     64  F   UNL A   1      44.221  34.671  32.584  1.00  0.00    -0.206 F 
ATOM     65  C   UNL A   1      44.509  37.958  31.099  1.00  0.00     0.022 A 
BRANCH  62  66
ATOM     66  S   UNL A   1      44.116  38.989  28.538  1.00  0.00     0.124 S 
ATOM     67  O   UNL A   1      43.015  39.859  28.940  1.00  0.00    -0.237 OA
ATOM     68  O   UNL A   1      45.458  39.535  28.714  1.00  0.00    -0.237 OA
ATOM     69  O   UNL A   1      43.905  38.256  27.291  1.00  0.00    -0.744 OA
ENDBRANCH  62  66
ENDBRANCH  36  59
ENDBRANCH  10  11
ENDBRANCH   3   5
ENDBRANCH   2   3
ENDBRANCH   1   2
BRANCH   1  70
ATOM     70  C   UNL A   1      36.864  22.671  25.917  1.00  0.00     0.275 C 
BRANCH  70  71
ATOM     71  O   UNL A   1      36.479  23.499  24.813  1.00  0.00    -0.458 OA
BRANCH  71  72
ATOM     72  C   UNL A   1      35.715  22.885  23.874  1.00  0.00     0.338 C 
ATOM     73  O   UNL A   1      35.899  22.862  22.671  1.00  0.00    -0.246 OA
BRANCH  72  74
ATOM     74  C   UNL A   1      34.604  22.179  24.539  1.00  0.00     0.062 A 
ATOM     75  C   UNL A   1      34.514  20.787  24.432  1.00  0.00     0.024 A 
ATOM     76  C   UNL A   1      33.605  22.911  25.173  1.00  0.00     0.037 A 
ATOM     77  C   UNL A   1      33.437  20.085  25.005  1.00  0.00    -0.013 A 
ATOM     78  C   UNL A   1      32.493  22.249  25.675  1.00  0.00     0.084 A 
ATOM     79  C   UNL A   1      32.425  20.841  25.634  1.00  0.00     0.030 A 
BRANCH  77  80
ATOM     80  C   UNL A   1      33.353  18.623  24.859  1.00  0.00     0.018 A 
ATOM     81  C   UNL A   1      34.167  17.897  24.003  1.00  0.00     0.123 A 
ATOM     82  C   UNL A   1      32.510  17.821  25.614  1.00  0.00     0.123 A 
ATOM     83  N   UNL A   1      34.176  16.547  23.901  1.00  0.00    -0.244 NA
ATOM     84  N   UNL A   1      32.464  16.470  25.559  1.00  0.00    -0.244 NA
ATOM     85  C   UNL A   1      33.309  15.900  24.693  1.00  0.00     0.221 A 
ENDBRANCH  77  80
BRANCH  78  86
ATOM     86  S   UNL A   1      31.054  23.167  26.209  1.00  0.00     0.243 S 
ATOM     87  O   UNL A   1      29.990  22.173  26.269  1.00  0.00    -0.207 OA
ATOM     88  O   UNL A   1      31.448  23.904  27.371  1.00  0.00    -0.207 OA
BRANCH  86  89
ATOM     89  N   UNL A   1      30.670  24.240  24.979  1.00  0.00    -0.198 NA
ATOM     90  C   UNL A   1      30.630  23.844  23.572  1.00  0.00     0.102 C 
ATOM     91  C   UNL A   1      30.737  25.700  25.109  1.00  0.00     0.102 C 
ATOM     92  C   UNL A   1      31.166  25.055  22.822  1.00  0.00     0.018 C 
ATOM     93  C   UNL A   1      30.759  26.238  23.681  1.00  0.00     0.018 C 
ENDBRANCH  86  89
ENDBRANCH  78  86
ENDBRANCH  72  74
ENDBRANCH  71  72
ENDBRANCH  70  71
ENDBRANCH   1  70
TORSDOF 17
ENDMDL
MODEL 2
REMARK VINA RESULT:     -12.1      2.460      8.072
REMARK SMILES O=C(OCCOC(=O)c1cc(-c2cncnc2)cc(S(=O)(=O)N2CCCC2)c1)c1ccc(-c2c3nc(c(-c4cc(S(=O)(=O)[O-])ccc4F)c4ccc([nH]4)c(-c4cc(S(=O)(=O)[O-])ccc4F)c4nc(c(-c5cc(S(=O)(=O)[O-])ccc5F)c5ccc2[nH]5)C=C4)C=C3)cc1
REMARK SMILES IDX 4 1 3 2 2 3 1 4 29 5 30 6 91 7 31 8 90 9 32 10 33 11 34 12
REMARK SMILES IDX 84 13 35 14 89 15 83 16 85 17 36 18 88 19 82 20 81 21 37 23
REMARK SMILES IDX 69 24 49 25 68 26 50 27 53 28 67 29 86 30 51 31 52 32 66 34
REMARK SMILES IDX 87 35 54 36 38 37 39 38 47 39 40 40 46 41 48 42 45 43 41 44
REMARK SMILES IDX 42 45 43 46 44 47 70 48 71 49 79 50 72 51 78 52 80 53 77 54
REMARK SMILES IDX 73 55 74 56 75 57 76 58 55 59 56 60 64 61 57 62 63 63 65 64
REMARK SMILES IDX 62 65 58 66 59 67 60 68 61 69 5 70 6 71 7 72 8 73 9 74 10 75
REMARK SMILES IDX 28 76 11 77 19 78 18 79 12 80 13 81 17 82 14 83 16 84 15 85
REMARK SMILES IDX 20 86 21 87 22 88 23 89 24 90 27 91 25 92 26 93
REMARK H PARENT 85 22 53 33
REMARK Flexibility Score: inf
ROOT
ATOM      1  C   UNL A   1      38.988  19.648  25.385  1.00  0.00     0.275 C 
ENDROOT
BRANCH   1   2
ATOM      2  O   UNL A   1      40.124  19.036  26.020  1.00  0.00    -0.458 OA
BRANCH   2   3
ATOM      3  C   UNL A   1      41.435  19.359  26.038  1.00  0.00     0.338 C 
ATOM      4  O   UNL A   1      42.243  18.475  25.744  1.00  0.00    -0.246 OA
BRANCH   3   5
ATOM      5  C   UNL A   1      42.003  20.687  26.457  1.00  0.00     0.060 A 
ATOM      6  C   UNL A   1      42.179  21.159  27.759  1.00  0.00     0.016 A 
ATOM      7  C   UNL A   1      42.361  21.557  25.406  1.00  0.00     0.016 A 
ATOM      8  C   UNL A   1      42.697  22.441  28.005  1.00  0.00     0.010 A 
ATOM      9  C   UNL A   1      42.901  22.827  25.643  1.00  0.00     0.010 A 
ATOM     10  C   UNL A   1      43.046  23.289  26.951  1.00  0.00    -0.014 A 
BRANCH  10  11
ATOM     11  C   UNL A   1      43.421  24.700  27.216  1.00  0.00     0.031 A 
ATOM     12  C   UNL A   1      42.411  25.629  27.802  1.00  0.00     0.074 A 
ATOM     13  C   UNL A   1      44.659  25.156  26.963  1.00  0.00     0.049 A 
ATOM     14  N   UNL A   1      42.544  26.887  28.130  1.00  0.00    -0.248 NA
ATOM     15  C   UNL A   1      41.078  25.066  28.045  1.00  0.00     0.031 C 
ATOM     16  C   UNL A   1      45.720  24.346  26.392  1.00  0.00     0.029 A 
ATOM     17  N   UNL A   1      45.231  26.392  27.134  1.00  0.00    -0.354 N 
ATOM     18  C   UNL A   1      41.316  27.263  28.652  1.00  0.00     0.074 A 
ATOM     19  C   UNL A   1      40.434  26.121  28.512  1.00  0.00     0.031 C 
ATOM     20  C   UNL A   1      46.819  25.103  26.260  1.00  0.00     0.029 A 
ATOM     21  C   UNL A   1      46.525  26.461  26.677  1.00  0.00     0.049 A 
ATOM     22  H   UNL A   1      44.761  27.153  27.545  1.00  0.00     0.167 HD
ATOM     23  C   UNL A   1      40.968  28.441  29.226  1.00  0.00     0.034 A 
ATOM     24  C   UNL A   1      47.381  27.495  26.557  1.00  0.00     0.034 A 
ATOM     25  C   UNL A   1      41.837  29.590  29.293  1.00  0.00     0.049 A 
ATOM     26  C   UNL A   1      46.941  28.835  27.052  1.00  0.00     0.074 A 
ATOM     27  C   UNL A   1      41.585  30.837  29.834  1.00  0.00     0.029 A 
ATOM     28  N   UNL A   1      43.124  29.641  28.765  1.00  0.00    -0.354 N 
ATOM     29  N   UNL A   1      45.789  29.168  27.587  1.00  0.00    -0.248 NA
ATOM     30  C   UNL A   1      47.908  29.931  26.950  1.00  0.00     0.031 C 
ATOM     31  C   UNL A   1      42.695  31.657  29.584  1.00  0.00     0.029 A 
ATOM     32  C   UNL A   1      43.666  30.908  28.937  1.00  0.00     0.049 A 
ATOM     33  H   UNL A   1      43.585  28.887  28.332  1.00  0.00     0.167 HD
ATOM     34  C   UNL A   1      45.900  30.510  27.913  1.00  0.00     0.074 A 
ATOM     35  C   UNL A   1      47.233  30.925  27.512  1.00  0.00     0.031 C 
ATOM     36  C   UNL A   1      44.985  31.318  28.509  1.00  0.00     0.034 A 
BRANCH  23  37
ATOM     37  C   UNL A   1      39.560  28.506  29.756  1.00  0.00     0.023 A 
ATOM     38  C   UNL A   1      38.509  28.984  28.948  1.00  0.00     0.031 A 
ATOM     39  C   UNL A   1      39.297  28.265  31.113  1.00  0.00     0.131 A 
ATOM     40  C   UNL A   1      37.287  29.336  29.535  1.00  0.00     0.055 A 
ATOM     41  C   UNL A   1      38.043  28.527  31.670  1.00  0.00     0.041 A 
ATOM     42  F   UNL A   1      40.268  27.834  31.932  1.00  0.00    -0.206 F 
ATOM     43  C   UNL A   1      37.038  29.091  30.888  1.00  0.00     0.022 A 
BRANCH  40  44
ATOM     44  S   UNL A   1      36.118  30.325  28.558  1.00  0.00     0.124 S 
ATOM     45  O   UNL A   1      37.011  30.977  27.602  1.00  0.00    -0.237 OA
ATOM     46  O   UNL A   1      35.228  29.309  28.007  1.00  0.00    -0.237 OA
ATOM     47  O   UNL A   1      35.515  31.218  29.544  1.00  0.00    -0.744 OA
ENDBRANCH  40  44
ENDBRANCH  23  37
BRANCH  24  48
ATOM     48  C   UNL A   1      48.697  27.297  25.886  1.00  0.00     0.023 A 
ATOM     49  C   UNL A   1      48.859  27.451  24.500  1.00  0.00     0.031 A 
ATOM     50  C   UNL A   1      49.835  26.988  26.656  1.00  0.00     0.131 A 
ATOM     51  C   UNL A   1      50.134  27.299  23.926  1.00  0.00     0.055 A 
ATOM     52  C   UNL A   1      51.103  26.870  26.086  1.00  0.00     0.041 A 
ATOM     53  F   UNL A   1      49.727  26.824  27.984  1.00  0.00    -0.206 F 
ATOM     54  C   UNL A   1      51.257  27.022  24.711  1.00  0.00     0.022 A 
BRANCH  51  55
ATOM     55  S   UNL A   1      50.309  27.459  22.128  1.00  0.00     0.124 S 
ATOM     56  O   UNL A   1      50.198  28.901  21.939  1.00  0.00    -0.237 OA
ATOM     57  O   UNL A   1      51.633  26.885  21.900  1.00  0.00    -0.237 OA
ATOM     58  O   UNL A   1      49.196  26.674  21.600  1.00  0.00    -0.744 OA
ENDBRANCH  51  55
ENDBRANCH  24  48
BRANCH  36  59
ATOM     59  C   UNL A   1      45.432  32.724  28.798  1.00  0.00     0.023 A 
ATOM     60  C   UNL A   1      45.266  33.758  27.861  1.00  0.00     0.031 A 
ATOM     61  C   UNL A   1      46.079  33.018  30.010  1.00  0.00     0.131 A 
ATOM     62  C   UNL A   1      45.795  35.029  28.129  1.00  0.00     0.055 A 
ATOM     63  C   UNL A   1      46.552  34.298  30.295  1.00  0.00     0.041 A 
ATOM     64  F   UNL A   1      46.269  32.060  30.932  1.00  0.00    -0.206 F 
ATOM     65  C   UNL A   1      46.421  35.309  29.347  1.00  0.00     0.022 A 
BRANCH  62  66
ATOM     66  S   UNL A   1      45.723  36.294  26.833  1.00  0.00     0.124 S 
ATOM     67  O   UNL A   1      44.318  36.690  26.880  1.00  0.00    -0.237 OA
ATOM     68  O   UNL A   1      46.682  37.287  27.305  1.00  0.00    -0.237 OA
ATOM     69  O   UNL A   1      46.124  35.571  25.627  1.00  0.00    -0.744 OA
ENDBRANCH  62  66
ENDBRANCH  36  59
ENDBRANCH  10  11
ENDBRANCH   3   5
ENDBRANCH   2   3
ENDBRANCH   1   2
BRANCH   1  70
ATOM     70  C   UNL A   1      38.857  21.144  25.660  1.00  0.00     0.275 C 
BRANCH  70  71
ATOM     71  O   UNL A   1      37.922  21.791  24.788  1.00  0.00    -0.458 OA
BRANCH  71  72
ATOM     72  C   UNL A   1      36.980  22.543  25.412  1.00  0.00     0.338 C 
ATOM     73  O   UNL A   1      37.165  23.463  26.188  1.00  0.00    -0.246 OA
BRANCH  72  74
ATOM     74  C   UNL A   1      35.642  22.107  24.974  1.00  0.00     0.062 A 
ATOM     75  C   UNL A   1      35.287  20.759  25.091  1.00  0.00     0.024 A 
ATOM     76  C   UNL A   1      34.790  23.015  24.355  1.00  0.00     0.037 A 
ATOM     77  C   UNL A   1      34.041  20.295  24.632  1.00  0.00    -0.013 A 
ATOM     78  C   UNL A   1      33.590  22.567  23.821  1.00  0.00     0.084 A 
ATOM     79  C   UNL A   1      33.192  21.225  23.995  1.00  0.00     0.030 A 
BRANCH  77  80
ATOM     80  C   UNL A   1      33.700  18.867  24.746  1.00  0.00     0.018 A 
ATOM     81  C   UNL A   1      32.530  18.411  25.333  1.00  0.00     0.123 A 
ATOM     82  C   UNL A   1      34.474  17.846  24.215  1.00  0.00     0.123 A 
ATOM     83  N   UNL A   1      32.144  17.114  25.384  1.00  0.00    -0.244 NA
ATOM     84  N   UNL A   1      34.151  16.533  24.235  1.00  0.00    -0.244 NA
ATOM     85  C   UNL A   1      32.990  16.235  24.828  1.00  0.00     0.221 A 
ENDBRANCH  77  80
BRANCH  78  86
ATOM     86  S   UNL A   1      32.621  23.623  22.751  1.00  0.00     0.243 S 
ATOM     87  O   UNL A   1      33.275  23.523  21.453  1.00  0.00    -0.207 OA
ATOM     88  O   UNL A   1      31.254  23.236  22.925  1.00  0.00    -0.207 OA
BRANCH  86  89
ATOM     89  N   UNL A   1      32.822  25.195  23.296  1.00  0.00    -0.198 NA
ATOM     90  C   UNL A   1      31.906  25.823  24.247  1.00  0.00     0.102 C 
ATOM     91  C   UNL A   1      33.639  26.205  22.613  1.00  0.00     0.102 C 
ATOM     92  C   UNL A   1      31.822  27.273  23.792  1.00  0.00     0.018 C 
ATOM     93  C   UNL A   1      33.179  27.549  23.170  1.00  0.00     0.018 C 
ENDBRANCH  86  89
ENDBRANCH  78  86
ENDBRANCH  72  74
ENDBRANCH  71  72
ENDBRANCH  70  71
ENDBRANCH   1  70
TORSDOF 17
ENDMDL
MODEL 3
REMARK VINA RESULT:     -12.1      5.048     10.226
REMARK SMILES O=C(OCCOC(=O)c1cc(-c2cncnc2)cc(S(=O)(=O)N2CCCC2)c1)c1ccc(-c2c3nc(c(-c4cc(S(=O)(=O)[O-])ccc4F)c4ccc([nH]4)c(-c4cc(S(=O)(=O)[O-])ccc4F)c4nc(c(-c5cc(S(=O)(=O)[O-])ccc5F)c5ccc2[nH]5)C=C4)C=C3)cc1
REMARK SMILES IDX 4 1 3 2 2 3 1 4 29 5 30 6 91 7 31 8 90 9 32 10 33 11 34 12
REMARK SMILES IDX 84 13 35 14 89 15 83 16 85 17 36 18 88 19 82 20 81 21 37 23
REMARK SMILES IDX 69 24 49 25 68 26 50 27 53 28 67 29 86 30 51 31 52 32 66 34
REMARK SMILES IDX 87 35 54 36 38 37 39 38 47 39 40 40 46 41 48 42 45 43 41 44
REMARK SMILES IDX 42 45 43 46 44 47 70 48 71 49 79 50 72 51 78 52 80 53 77 54
REMARK SMILES IDX 73 55 74 56 75 57 76 58 55 59 56 60 64 61 57 62 63 63 65 64
REMARK SMILES IDX 62 65 58 66 59 67 60 68 61 69 5 70 6 71 7 72 8 73 9 74 10 75
REMARK SMILES IDX 28 76 11 77 19 78 18 79 12 80 13 81 17 82 14 83 16 84 15 85
REMARK SMILES IDX 20 86 21 87 22 88 23 89 24 90 27 91 25 92 26 93
REMARK H PARENT 85 22 53 33
REMARK Flexibility Score: inf
ROOT
ATOM      1  C   UNL A   1      31.862  32.538  27.204  1.00  0.00     0.275 C 
ENDROOT
BRANCH   1   2
ATOM      2  O   UNL A   1      32.476  33.824  27.393  1.00  0.00    -0.458 OA
BRANCH   2   3
ATOM      3  C   UNL A   1      33.052  34.404  28.469  1.00  0.00     0.338 C 
ATOM      4  O   UNL A   1      32.543  35.442  28.896  1.00  0.00    -0.246 OA
BRANCH   3   5
ATOM      5  C   UNL A   1      34.307  33.931  29.149  1.00  0.00     0.060 A 
ATOM      6  C   UNL A   1      35.622  34.268  28.825  1.00  0.00     0.016 A 
ATOM      7  C   UNL A   1      34.121  33.019  30.209  1.00  0.00     0.016 A 
ATOM      8  C   UNL A   1      36.708  33.725  29.532  1.00  0.00     0.010 A 
ATOM      9  C   UNL A   1      35.196  32.493  30.935  1.00  0.00     0.010 A 
ATOM     10  C   UNL A   1      36.504  32.823  30.581  1.00  0.00    -0.014 A 
BRANCH  10  11
ATOM     11  C   UNL A   1      37.654  32.120  31.200  1.00  0.00     0.031 A 
ATOM     12  C   UNL A   1      38.198  32.609  32.501  1.00  0.00     0.074 A 
ATOM     13  C   UNL A   1      38.205  31.037  30.628  1.00  0.00     0.049 A 
ATOM     14  N   UNL A   1      39.178  32.124  33.217  1.00  0.00    -0.248 NA
ATOM     15  C   UNL A   1      37.555  33.801  33.064  1.00  0.00     0.031 C 
ATOM     16  C   UNL A   1      37.762  30.474  29.365  1.00  0.00     0.029 A 
ATOM     17  N   UNL A   1      39.246  30.229  31.011  1.00  0.00    -0.354 N 
ATOM     18  C   UNL A   1      39.251  32.935  34.338  1.00  0.00     0.074 A 
ATOM     19  C   UNL A   1      38.272  33.989  34.158  1.00  0.00     0.031 C 
ATOM     20  C   UNL A   1      38.523  29.409  29.074  1.00  0.00     0.029 A 
ATOM     21  C   UNL A   1      39.544  29.250  30.094  1.00  0.00     0.049 A 
ATOM     22  H   UNL A   1      39.730  30.339  31.861  1.00  0.00     0.167 HD
ATOM     23  C   UNL A   1      40.038  32.792  35.432  1.00  0.00     0.034 A 
ATOM     24  C   UNL A   1      40.542  28.347  30.036  1.00  0.00     0.034 A 
ATOM     25  C   UNL A   1      41.055  31.778  35.565  1.00  0.00     0.049 A 
ATOM     26  C   UNL A   1      41.507  28.289  31.176  1.00  0.00     0.074 A 
ATOM     27  C   UNL A   1      41.921  31.551  36.618  1.00  0.00     0.029 A 
ATOM     28  N   UNL A   1      41.368  30.839  34.586  1.00  0.00    -0.354 N 
ATOM     29  N   UNL A   1      41.536  29.035  32.256  1.00  0.00    -0.248 NA
ATOM     30  C   UNL A   1      42.554  27.268  31.107  1.00  0.00     0.031 C 
ATOM     31  C   UNL A   1      42.793  30.514  36.255  1.00  0.00     0.029 A 
ATOM     32  C   UNL A   1      42.436  30.052  34.997  1.00  0.00     0.049 A 
ATOM     33  H   UNL A   1      40.900  30.745  33.726  1.00  0.00     0.167 HD
ATOM     34  C   UNL A   1      42.593  28.555  33.015  1.00  0.00     0.074 A 
ATOM     35  C   UNL A   1      43.175  27.455  32.265  1.00  0.00     0.031 C 
ATOM     36  C   UNL A   1      43.026  28.977  34.231  1.00  0.00     0.034 A 
BRANCH  23  37
ATOM     37  C   UNL A   1      39.825  33.818  36.515  1.00  0.00     0.023 A 
ATOM     38  C   UNL A   1      40.750  34.864  36.706  1.00  0.00     0.031 A 
ATOM     39  C   UNL A   1      38.807  33.650  37.465  1.00  0.00     0.131 A 
ATOM     40  C   UNL A   1      40.718  35.612  37.890  1.00  0.00     0.055 A 
ATOM     41  C   UNL A   1      38.725  34.466  38.597  1.00  0.00     0.041 A 
ATOM     42  F   UNL A   1      37.917  32.654  37.346  1.00  0.00    -0.206 F 
ATOM     43  C   UNL A   1      39.699  35.435  38.828  1.00  0.00     0.022 A 
BRANCH  40  44
ATOM     44  S   UNL A   1      42.152  36.653  38.287  1.00  0.00     0.124 S 
ATOM     45  O   UNL A   1      41.522  37.760  39.005  1.00  0.00    -0.237 OA
ATOM     46  O   UNL A   1      42.978  35.760  39.091  1.00  0.00    -0.237 OA
ATOM     47  O   UNL A   1      42.697  37.001  36.977  1.00  0.00    -0.744 OA
ENDBRANCH  40  44
ENDBRANCH  23  37
BRANCH  24  48
ATOM     48  C   UNL A   1      40.696  27.486  28.828  1.00  0.00     0.023 A 
ATOM     49  C   UNL A   1      41.617  27.785  27.812  1.00  0.00     0.031 A 
ATOM     50  C   UNL A   1      39.935  26.308  28.708  1.00  0.00     0.131 A 
ATOM     51  C   UNL A   1      41.754  26.912  26.718  1.00  0.00     0.055 A 
ATOM     52  C   UNL A   1      40.099  25.429  27.637  1.00  0.00     0.041 A 
ATOM     53  F   UNL A   1      39.037  25.984  29.652  1.00  0.00    -0.206 F 
ATOM     54  C   UNL A   1      41.011  25.731  26.631  1.00  0.00     0.022 A 
BRANCH  51  55
ATOM     55  S   UNL A   1      42.919  27.343  25.395  1.00  0.00     0.124 S 
ATOM     56  O   UNL A   1      44.092  27.770  26.150  1.00  0.00    -0.237 OA
ATOM     57  O   UNL A   1      43.046  26.076  24.679  1.00  0.00    -0.237 OA
ATOM     58  O   UNL A   1      42.232  28.402  24.660  1.00  0.00    -0.744 OA
ENDBRANCH  51  55
ENDBRANCH  24  48
BRANCH  36  59
ATOM     59  C   UNL A   1      44.163  28.201  34.834  1.00  0.00     0.023 A 
ATOM     60  C   UNL A   1      45.502  28.572  34.625  1.00  0.00     0.031 A 
ATOM     61  C   UNL A   1      43.900  27.044  35.587  1.00  0.00     0.131 A 
ATOM     62  C   UNL A   1      46.533  27.758  35.116  1.00  0.00     0.055 A 
ATOM     63  C   UNL A   1      44.929  26.269  36.121  1.00  0.00     0.041 A 
ATOM     64  F   UNL A   1      42.637  26.644  35.804  1.00  0.00    -0.206 F 
ATOM     65  C   UNL A   1      46.254  26.619  35.878  1.00  0.00     0.022 A 
BRANCH  62  66
ATOM     66  S   UNL A   1      48.246  28.163  34.684  1.00  0.00     0.124 S 
ATOM     67  O   UNL A   1      48.065  29.023  33.518  1.00  0.00    -0.237 OA
ATOM     68  O   UNL A   1      48.731  28.820  35.892  1.00  0.00    -0.237 OA
ATOM     69  O   UNL A   1      48.846  26.859  34.406  1.00  0.00    -0.744 OA
ENDBRANCH  62  66
ENDBRANCH  36  59
ENDBRANCH  10  11
ENDBRANCH   3   5
ENDBRANCH   2   3
ENDBRANCH   1   2
BRANCH   1  70
ATOM     70  C   UNL A   1      32.858  31.385  27.104  1.00  0.00     0.275 C 
BRANCH  70  71
ATOM     71  O   UNL A   1      32.273  30.114  27.415  1.00  0.00    -0.458 OA
BRANCH  71  72
ATOM     72  C   UNL A   1      33.047  29.039  27.122  1.00  0.00     0.338 C 
ATOM     73  O   UNL A   1      34.131  28.756  27.599  1.00  0.00    -0.246 OA
BRANCH  72  74
ATOM     74  C   UNL A   1      32.350  28.194  26.135  1.00  0.00     0.062 A 
ATOM     75  C   UNL A   1      31.505  28.792  25.194  1.00  0.00     0.024 A 
ATOM     76  C   UNL A   1      32.458  26.810  26.215  1.00  0.00     0.037 A 
ATOM     77  C   UNL A   1      30.779  28.014  24.273  1.00  0.00    -0.013 A 
ATOM     78  C   UNL A   1      31.691  26.018  25.371  1.00  0.00     0.084 A 
ATOM     79  C   UNL A   1      30.889  26.611  24.374  1.00  0.00     0.030 A 
BRANCH  77  80
ATOM     80  C   UNL A   1      29.879  28.667  23.309  1.00  0.00     0.018 A 
ATOM     81  C   UNL A   1      28.498  28.658  23.433  1.00  0.00     0.123 A 
ATOM     82  C   UNL A   1      30.320  29.416  22.228  1.00  0.00     0.123 A 
ATOM     83  N   UNL A   1      27.643  29.314  22.614  1.00  0.00    -0.244 NA
ATOM     84  N   UNL A   1      29.522  30.091  21.370  1.00  0.00    -0.244 NA
ATOM     85  C   UNL A   1      28.210  30.000  21.612  1.00  0.00     0.221 A 
ENDBRANCH  77  80
BRANCH  78  86
ATOM     86  S   UNL A   1      31.560  24.256  25.649  1.00  0.00     0.243 S 
ATOM     87  O   UNL A   1      31.244  24.134  27.066  1.00  0.00    -0.207 OA
ATOM     88  O   UNL A   1      30.675  23.749  24.644  1.00  0.00    -0.207 OA
BRANCH  86  89
ATOM     89  N   UNL A   1      33.088  23.605  25.417  1.00  0.00    -0.198 NA
ATOM     90  C   UNL A   1      34.124  23.640  26.449  1.00  0.00     0.102 C 
ATOM     91  C   UNL A   1      33.671  23.320  24.101  1.00  0.00     0.102 C 
ATOM     92  C   UNL A   1      35.418  23.857  25.679  1.00  0.00     0.018 C 
ATOM     93  C   UNL A   1      35.173  23.190  24.338  1.00  0.00     0.018 C 
ENDBRANCH  86  89
ENDBRANCH  78  86
ENDBRANCH  72  74
ENDBRANCH  71  72
ENDBRANCH  70  71
ENDBRANCH   1  70
TORSDOF 17
ENDMDL
