MODEL 1
REMARK VINA RESULT:     -10.9      0.000      0.000
REMARK SMILES O=C(CNC(=O)c1cc(-c2ccc(Cl)cc2)n[nH]1)OCCOC(=O)c1ccc(-c2c3nc(c(-c4cc(S(=O)(=O)[O-])ccc4F)c4ccc([nH]4)c(-c4cc(S(=O)(=O)[O-])ccc4F)c4nc(c(-c5cc(S(=O)(=O)[O-])ccc5F)c5ccc2[nH]5)C=C4)C=C3)cc1
REMARK SMILES IDX 20 1 19 2 2 3 1 4 3 5 4 6 5 7 6 9 7 10 8 11 18 12 9 13 17 14
REMARK SMILES IDX 10 16 11 17 16 18 12 19 15 20 13 21 14 22 21 23 22 24 23 25
REMARK SMILES IDX 24 26 25 27 26 28 87 29 27 30 86 31 28 32 29 33 30 34 80 35
REMARK SMILES IDX 31 36 85 37 79 38 81 39 32 40 84 41 78 42 77 43 33 45 65 46
REMARK SMILES IDX 45 47 64 48 46 49 49 50 63 51 82 52 47 53 48 54 62 56 83 57
REMARK SMILES IDX 50 58 34 59 35 60 43 61 36 62 42 63 44 64 41 65 37 66 38 67
REMARK SMILES IDX 39 68 40 69 66 70 67 71 75 72 68 73 74 74 76 75 73 76 69 77
REMARK SMILES IDX 70 78 71 79 72 80 51 81 52 82 60 83 53 84 59 85 61 86 58 87
REMARK SMILES IDX 54 88 55 89 56 90 57 91
REMARK H PARENT 4 8 18 15 81 44 49 55
REMARK Flexibility Score: inf
ROOT
ATOM      1  C   UNL A   1      41.949  19.415  26.437  1.00  0.00     0.274 C 
ENDROOT
BRANCH   1   2
ATOM      2  O   UNL A   1      42.875  19.318  25.336  1.00  0.00    -0.461 OA
BRANCH   2   3
ATOM      3  C   UNL A   1      44.107  18.759  25.382  1.00  0.00     0.325 C 
ATOM      4  O   UNL A   1      44.306  17.790  26.114  1.00  0.00    -0.250 OA
BRANCH   3   5
ATOM      5  C   UNL A   1      45.233  19.318  24.512  1.00  0.00     0.239 C 
BRANCH   5   6
ATOM      6  N   UNL A   1      44.856  20.419  23.640  1.00  0.00    -0.340 N 
ATOM      7  C   UNL A   1      44.715  21.754  23.914  1.00  0.00     0.269 C 
ATOM      8  H   UNL A   1      44.674  20.166  22.707  1.00  0.00     0.164 HD
ATOM      9  O   UNL A   1      44.176  22.462  23.065  1.00  0.00    -0.268 OA
BRANCH   7  10
ATOM     10  C   UNL A   1      45.061  22.274  25.209  1.00  0.00     0.123 A 
ATOM     11  C   UNL A   1      44.422  22.376  26.430  1.00  0.00     0.064 A 
ATOM     12  N   UNL A   1      46.304  22.797  25.440  1.00  0.00    -0.272 N 
ATOM     13  C   UNL A   1      45.284  23.148  27.260  1.00  0.00     0.093 A 
ATOM     14  N   UNL A   1      46.415  23.450  26.605  1.00  0.00    -0.175 NA
ATOM     15  H   UNL A   1      47.052  22.702  24.806  1.00  0.00     0.190 HD
BRANCH  13  16
ATOM     16  C   UNL A   1      45.045  23.634  28.618  1.00  0.00     0.002 A 
ATOM     17  C   UNL A   1      44.136  22.992  29.469  1.00  0.00     0.012 A 
ATOM     18  C   UNL A   1      45.734  24.765  29.088  1.00  0.00     0.012 A 
ATOM     19  C   UNL A   1      43.928  23.466  30.770  1.00  0.00     0.021 A 
ATOM     20  C   UNL A   1      45.521  25.242  30.385  1.00  0.00     0.021 A 
ATOM     21  C   UNL A   1      44.623  24.586  31.222  1.00  0.00     0.041 A 
ATOM     22  Cl  UNL A   1      44.382  25.159  32.826  1.00  0.00    -0.084 Cl
ENDBRANCH  13  16
ENDBRANCH   7  10
ENDBRANCH   5   6
ENDBRANCH   3   5
ENDBRANCH   2   3
ENDBRANCH   1   2
BRANCH   1  23
ATOM     23  C   UNL A   1      40.499  19.528  25.966  1.00  0.00     0.275 C 
BRANCH  23  24
ATOM     24  O   UNL A   1      39.755  20.406  26.827  1.00  0.00    -0.458 OA
BRANCH  24  25
ATOM     25  C   UNL A   1      38.986  21.339  26.210  1.00  0.00     0.338 C 
ATOM     26  O   UNL A   1      37.940  21.146  25.619  1.00  0.00    -0.246 OA
BRANCH  25  27
ATOM     27  C   UNL A   1      39.509  22.677  26.571  1.00  0.00     0.060 A 
ATOM     28  C   UNL A   1      40.653  22.747  27.372  1.00  0.00     0.016 A 
ATOM     29  C   UNL A   1      38.935  23.849  26.067  1.00  0.00     0.016 A 
ATOM     30  C   UNL A   1      41.227  23.988  27.665  1.00  0.00     0.010 A 
ATOM     31  C   UNL A   1      39.520  25.088  26.347  1.00  0.00     0.010 A 
ATOM     32  C   UNL A   1      40.666  25.170  27.156  1.00  0.00    -0.014 A 
BRANCH  32  33
ATOM     33  C   UNL A   1      41.226  26.496  27.532  1.00  0.00     0.031 A 
ATOM     34  C   UNL A   1      42.630  26.848  27.119  1.00  0.00     0.074 A 
ATOM     35  C   UNL A   1      40.496  27.376  28.246  1.00  0.00     0.049 A 
ATOM     36  N   UNL A   1      43.318  27.932  27.371  1.00  0.00    -0.248 NA
ATOM     37  C   UNL A   1      43.355  25.844  26.327  1.00  0.00     0.031 C 
ATOM     38  C   UNL A   1      39.122  27.164  28.703  1.00  0.00     0.029 A 
ATOM     39  N   UNL A   1      40.816  28.625  28.724  1.00  0.00    -0.354 N 
ATOM     40  C   UNL A   1      44.556  27.744  26.768  1.00  0.00     0.074 A 
ATOM     41  C   UNL A   1      44.538  26.422  26.175  1.00  0.00     0.031 C 
ATOM     42  C   UNL A   1      38.723  28.240  29.402  1.00  0.00     0.029 A 
ATOM     43  C   UNL A   1      39.818  29.206  29.473  1.00  0.00     0.049 A 
ATOM     44  H   UNL A   1      41.679  29.063  28.547  1.00  0.00     0.167 HD
ATOM     45  C   UNL A   1      45.608  28.596  26.702  1.00  0.00     0.034 A 
ATOM     46  C   UNL A   1      39.796  30.371  30.155  1.00  0.00     0.034 A 
ATOM     47  C   UNL A   1      45.624  29.914  27.285  1.00  0.00     0.049 A 
ATOM     48  C   UNL A   1      41.015  31.267  30.131  1.00  0.00     0.074 A 
ATOM     49  C   UNL A   1      46.616  30.877  27.205  1.00  0.00     0.029 A 
ATOM     50  N   UNL A   1      44.615  30.448  28.072  1.00  0.00    -0.354 N 
ATOM     51  N   UNL A   1      42.153  31.098  29.499  1.00  0.00    -0.248 NA
ATOM     52  C   UNL A   1      40.942  32.511  30.911  1.00  0.00     0.031 C 
ATOM     53  C   UNL A   1      46.239  31.962  28.003  1.00  0.00     0.029 A 
ATOM     54  C   UNL A   1      44.982  31.705  28.526  1.00  0.00     0.049 A 
ATOM     55  H   UNL A   1      43.762  30.001  28.279  1.00  0.00     0.167 HD
ATOM     56  C   UNL A   1      42.916  32.229  29.785  1.00  0.00     0.074 A 
ATOM     57  C   UNL A   1      42.106  33.079  30.630  1.00  0.00     0.031 C 
ATOM     58  C   UNL A   1      44.175  32.539  29.382  1.00  0.00     0.034 A 
BRANCH  45  59
ATOM     59  C   UNL A   1      46.849  28.116  25.996  1.00  0.00     0.023 A 
ATOM     60  C   UNL A   1      47.007  28.251  24.607  1.00  0.00     0.031 A 
ATOM     61  C   UNL A   1      47.892  27.525  26.730  1.00  0.00     0.131 A 
ATOM     62  C   UNL A   1      48.164  27.756  23.987  1.00  0.00     0.055 A 
ATOM     63  C   UNL A   1      49.067  27.093  26.115  1.00  0.00     0.041 A 
ATOM     64  F   UNL A   1      47.782  27.355  28.057  1.00  0.00    -0.206 F 
ATOM     65  C   UNL A   1      49.206  27.199  24.735  1.00  0.00     0.022 A 
BRANCH  62  66
ATOM     66  S   UNL A   1      48.249  27.764  22.176  1.00  0.00     0.124 S 
ATOM     67  O   UNL A   1      48.484  26.352  21.885  1.00  0.00    -0.237 OA
ATOM     68  O   UNL A   1      46.939  28.285  21.801  1.00  0.00    -0.237 OA
ATOM     69  O   UNL A   1      49.376  28.651  21.889  1.00  0.00    -0.744 OA
ENDBRANCH  62  66
ENDBRANCH  45  59
BRANCH  46  70
ATOM     70  C   UNL A   1      38.611  30.755  30.979  1.00  0.00     0.023 A 
ATOM     71  C   UNL A   1      37.491  31.369  30.398  1.00  0.00     0.031 A 
ATOM     72  C   UNL A   1      38.632  30.607  32.378  1.00  0.00     0.131 A 
ATOM     73  C   UNL A   1      36.467  31.874  31.216  1.00  0.00     0.055 A 
ATOM     74  C   UNL A   1      37.584  31.059  33.182  1.00  0.00     0.041 A 
ATOM     75  F   UNL A   1      39.681  30.029  32.985  1.00  0.00    -0.206 F 
ATOM     76  C   UNL A   1      36.502  31.713  32.603  1.00  0.00     0.022 A 
BRANCH  73  77
ATOM     77  S   UNL A   1      35.146  32.854  30.449  1.00  0.00     0.124 S 
ATOM     78  O   UNL A   1      35.888  34.002  29.939  1.00  0.00    -0.237 OA
ATOM     79  O   UNL A   1      34.627  31.928  29.449  1.00  0.00    -0.237 OA
ATOM     80  O   UNL A   1      34.244  33.138  31.563  1.00  0.00    -0.744 OA
ENDBRANCH  73  77
ENDBRANCH  46  70
BRANCH  58  81
ATOM     81  C   UNL A   1      44.737  33.866  29.829  1.00  0.00     0.023 A 
ATOM     82  C   UNL A   1      44.544  35.040  29.078  1.00  0.00     0.031 A 
ATOM     83  C   UNL A   1      45.476  33.958  31.022  1.00  0.00     0.131 A 
ATOM     84  C   UNL A   1      45.120  36.246  29.505  1.00  0.00     0.055 A 
ATOM     85  C   UNL A   1      46.003  35.172  31.469  1.00  0.00     0.041 A 
ATOM     86  F   UNL A   1      45.693  32.869  31.777  1.00  0.00    -0.206 F 
ATOM     87  C   UNL A   1      45.835  36.322  30.704  1.00  0.00     0.022 A 
BRANCH  84  88
ATOM     88  S   UNL A   1      44.981  37.705  28.437  1.00  0.00     0.124 S 
ATOM     89  O   UNL A   1      46.374  37.954  28.079  1.00  0.00    -0.237 OA
ATOM     90  O   UNL A   1      44.122  37.225  27.360  1.00  0.00    -0.237 OA
ATOM     91  O   UNL A   1      44.376  38.711  29.309  1.00  0.00    -0.744 OA
ENDBRANCH  84  88
ENDBRANCH  58  81
ENDBRANCH  32  33
ENDBRANCH  25  27
ENDBRANCH  24  25
ENDBRANCH  23  24
ENDBRANCH   1  23
TORSDOF 17
ENDMDL
MODEL 2
REMARK VINA RESULT:     -10.5      4.796     12.242
REMARK SMILES O=C(CNC(=O)c1cc(-c2ccc(Cl)cc2)n[nH]1)OCCOC(=O)c1ccc(-c2c3nc(c(-c4cc(S(=O)(=O)[O-])ccc4F)c4ccc([nH]4)c(-c4cc(S(=O)(=O)[O-])ccc4F)c4nc(c(-c5cc(S(=O)(=O)[O-])ccc5F)c5ccc2[nH]5)C=C4)C=C3)cc1
REMARK SMILES IDX 20 1 19 2 2 3 1 4 3 5 4 6 5 7 6 9 7 10 8 11 18 12 9 13 17 14
REMARK SMILES IDX 10 16 11 17 16 18 12 19 15 20 13 21 14 22 21 23 22 24 23 25
REMARK SMILES IDX 24 26 25 27 26 28 87 29 27 30 86 31 28 32 29 33 30 34 80 35
REMARK SMILES IDX 31 36 85 37 79 38 81 39 32 40 84 41 78 42 77 43 33 45 65 46
REMARK SMILES IDX 45 47 64 48 46 49 49 50 63 51 82 52 47 53 48 54 62 56 83 57
REMARK SMILES IDX 50 58 34 59 35 60 43 61 36 62 42 63 44 64 41 65 37 66 38 67
REMARK SMILES IDX 39 68 40 69 66 70 67 71 75 72 68 73 74 74 76 75 73 76 69 77
REMARK SMILES IDX 70 78 71 79 72 80 51 81 52 82 60 83 53 84 59 85 61 86 58 87
REMARK SMILES IDX 54 88 55 89 56 90 57 91
REMARK H PARENT 4 8 18 15 81 44 49 55
REMARK Flexibility Score: inf
ROOT
ATOM      1  C   UNL A   1      33.642  35.224  28.784  1.00  0.00     0.274 C 
ENDROOT
BRANCH   1   2
ATOM      2  O   UNL A   1      32.710  35.685  29.783  1.00  0.00    -0.461 OA
BRANCH   2   3
ATOM      3  C   UNL A   1      32.992  36.534  30.799  1.00  0.00     0.325 C 
ATOM      4  O   UNL A   1      32.929  37.748  30.609  1.00  0.00    -0.250 OA
BRANCH   3   5
ATOM      5  C   UNL A   1      33.364  35.982  32.176  1.00  0.00     0.239 C 
BRANCH   5   6
ATOM      6  N   UNL A   1      33.314  34.534  32.299  1.00  0.00    -0.340 N 
ATOM      7  C   UNL A   1      34.328  33.613  32.313  1.00  0.00     0.269 C 
ATOM      8  H   UNL A   1      32.409  34.155  32.384  1.00  0.00     0.164 HD
ATOM      9  O   UNL A   1      34.028  32.425  32.209  1.00  0.00    -0.268 OA
BRANCH   7  10
ATOM     10  C   UNL A   1      35.701  34.039  32.311  1.00  0.00     0.123 A 
ATOM     11  C   UNL A   1      36.753  33.960  31.418  1.00  0.00     0.064 A 
ATOM     12  N   UNL A   1      36.218  34.728  33.374  1.00  0.00    -0.272 N 
ATOM     13  C   UNL A   1      37.895  34.447  32.115  1.00  0.00     0.093 A 
ATOM     14  N   UNL A   1      37.552  34.858  33.345  1.00  0.00    -0.175 NA
ATOM     15  H   UNL A   1      35.660  35.096  34.097  1.00  0.00     0.190 HD
BRANCH  13  16
ATOM     16  C   UNL A   1      39.287  34.489  31.666  1.00  0.00     0.002 A 
ATOM     17  C   UNL A   1      40.343  34.559  32.584  1.00  0.00     0.012 A 
ATOM     18  C   UNL A   1      39.580  34.461  30.293  1.00  0.00     0.012 A 
ATOM     19  C   UNL A   1      41.669  34.588  32.136  1.00  0.00     0.021 A 
ATOM     20  C   UNL A   1      40.904  34.497  29.845  1.00  0.00     0.021 A 
ATOM     21  C   UNL A   1      41.943  34.554  30.770  1.00  0.00     0.041 A 
ATOM     22  Cl  UNL A   1      43.572  34.571  30.219  1.00  0.00    -0.084 Cl
ENDBRANCH  13  16
ENDBRANCH   7  10
ENDBRANCH   5   6
ENDBRANCH   3   5
ENDBRANCH   2   3
ENDBRANCH   1   2
BRANCH   1  23
ATOM     23  C   UNL A   1      33.284  33.834  28.256  1.00  0.00     0.275 C 
BRANCH  23  24
ATOM     24  O   UNL A   1      34.472  33.113  27.887  1.00  0.00    -0.458 OA
BRANCH  24  25
ATOM     25  C   UNL A   1      34.350  31.764  27.800  1.00  0.00     0.338 C 
ATOM     26  O   UNL A   1      33.471  31.147  27.226  1.00  0.00    -0.246 OA
BRANCH  25  27
ATOM     27  C   UNL A   1      35.594  31.155  28.325  1.00  0.00     0.060 A 
ATOM     28  C   UNL A   1      35.492  29.975  29.068  1.00  0.00     0.016 A 
ATOM     29  C   UNL A   1      36.853  31.689  28.028  1.00  0.00     0.016 A 
ATOM     30  C   UNL A   1      36.648  29.324  29.509  1.00  0.00     0.010 A 
ATOM     31  C   UNL A   1      38.008  31.027  28.456  1.00  0.00     0.010 A 
ATOM     32  C   UNL A   1      37.916  29.843  29.208  1.00  0.00    -0.014 A 
BRANCH  32  33
ATOM     33  C   UNL A   1      39.145  29.198  29.744  1.00  0.00     0.031 A 
ATOM     34  C   UNL A   1      39.801  29.767  30.974  1.00  0.00     0.074 A 
ATOM     35  C   UNL A   1      39.681  28.121  29.136  1.00  0.00     0.049 A 
ATOM     36  N   UNL A   1      40.892  29.379  31.583  1.00  0.00    -0.248 NA
ATOM     37  C   UNL A   1      39.146  30.931  31.590  1.00  0.00     0.031 C 
ATOM     38  C   UNL A   1      39.142  27.466  27.944  1.00  0.00     0.029 A 
ATOM     39  N   UNL A   1      40.810  27.395  29.432  1.00  0.00    -0.354 N 
ATOM     40  C   UNL A   1      41.056  30.248  32.656  1.00  0.00     0.074 A 
ATOM     41  C   UNL A   1      39.974  31.209  32.587  1.00  0.00     0.031 C 
ATOM     42  C   UNL A   1      39.945  26.442  27.607  1.00  0.00     0.029 A 
ATOM     43  C   UNL A   1      41.073  26.385  28.535  1.00  0.00     0.049 A 
ATOM     44  H   UNL A   1      41.377  27.580  30.215  1.00  0.00     0.167 HD
ATOM     45  C   UNL A   1      42.011  30.240  33.618  1.00  0.00     0.034 A 
ATOM     46  C   UNL A   1      42.113  25.527  28.457  1.00  0.00     0.034 A 
ATOM     47  C   UNL A   1      43.082  29.279  33.691  1.00  0.00     0.049 A 
ATOM     48  C   UNL A   1      43.208  25.594  29.499  1.00  0.00     0.074 A 
ATOM     49  C   UNL A   1      44.052  29.146  34.671  1.00  0.00     0.029 A 
ATOM     50  N   UNL A   1      43.341  28.302  32.742  1.00  0.00    -0.354 N 
ATOM     51  N   UNL A   1      43.308  26.382  30.544  1.00  0.00    -0.248 NA
ATOM     52  C   UNL A   1      44.327  24.652  29.350  1.00  0.00     0.031 C 
ATOM     53  C   UNL A   1      44.939  28.138  34.277  1.00  0.00     0.029 A 
ATOM     54  C   UNL A   1      44.484  27.597  33.085  1.00  0.00     0.049 A 
ATOM     55  H   UNL A   1      42.794  28.133  31.940  1.00  0.00     0.167 HD
ATOM     56  C   UNL A   1      44.487  26.007  31.188  1.00  0.00     0.074 A 
ATOM     57  C   UNL A   1      45.052  24.915  30.426  1.00  0.00     0.031 C 
ATOM     58  C   UNL A   1      45.050  26.519  32.312  1.00  0.00     0.034 A 
BRANCH  45  59
ATOM     59  C   UNL A   1      41.958  31.327  34.659  1.00  0.00     0.023 A 
ATOM     60  C   UNL A   1      40.925  31.392  35.607  1.00  0.00     0.031 A 
ATOM     61  C   UNL A   1      42.967  32.305  34.706  1.00  0.00     0.131 A 
ATOM     62  C   UNL A   1      40.897  32.443  36.535  1.00  0.00     0.055 A 
ATOM     63  C   UNL A   1      42.967  33.312  35.672  1.00  0.00     0.041 A 
ATOM     64  F   UNL A   1      43.966  32.299  33.810  1.00  0.00    -0.206 F 
ATOM     65  C   UNL A   1      41.923  33.391  36.589  1.00  0.00     0.022 A 
BRANCH  62  66
ATOM     66  S   UNL A   1      39.447  32.612  37.612  1.00  0.00     0.124 S 
ATOM     67  O   UNL A   1      40.066  32.666  38.934  1.00  0.00    -0.237 OA
ATOM     68  O   UNL A   1      38.844  33.853  37.137  1.00  0.00    -0.237 OA
ATOM     69  O   UNL A   1      38.675  31.401  37.339  1.00  0.00    -0.744 OA
ENDBRANCH  62  66
ENDBRANCH  45  59
BRANCH  46  70
ATOM     70  C   UNL A   1      42.226  24.560  27.325  1.00  0.00     0.023 A 
ATOM     71  C   UNL A   1      41.509  23.354  27.326  1.00  0.00     0.031 A 
ATOM     72  C   UNL A   1      43.137  24.785  26.277  1.00  0.00     0.131 A 
ATOM     73  C   UNL A   1      41.762  22.388  26.338  1.00  0.00     0.055 A 
ATOM     74  C   UNL A   1      43.342  23.846  25.264  1.00  0.00     0.041 A 
ATOM     75  F   UNL A   1      43.851  25.921  26.229  1.00  0.00    -0.206 F 
ATOM     76  C   UNL A   1      42.666  22.632  25.302  1.00  0.00     0.022 A 
BRANCH  73  77
ATOM     77  S   UNL A   1      40.982  20.757  26.498  1.00  0.00     0.124 S 
ATOM     78  O   UNL A   1      39.691  20.982  25.855  1.00  0.00    -0.237 OA
ATOM     79  O   UNL A   1      41.919  19.904  25.776  1.00  0.00    -0.237 OA
ATOM     80  O   UNL A   1      40.932  20.546  27.943  1.00  0.00    -0.744 OA
ENDBRANCH  73  77
ENDBRANCH  46  70
BRANCH  58  81
ATOM     81  C   UNL A   1      46.329  25.881  32.798  1.00  0.00     0.023 A 
ATOM     82  C   UNL A   1      47.586  26.298  32.326  1.00  0.00     0.031 A 
ATOM     83  C   UNL A   1      46.289  24.843  33.744  1.00  0.00     0.131 A 
ATOM     84  C   UNL A   1      48.749  25.651  32.769  1.00  0.00     0.055 A 
ATOM     85  C   UNL A   1      47.452  24.237  34.222  1.00  0.00     0.041 A 
ATOM     86  F   UNL A   1      45.115  24.403  34.227  1.00  0.00    -0.206 F 
ATOM     87  C   UNL A   1      48.691  24.633  33.726  1.00  0.00     0.022 A 
BRANCH  84  88
ATOM     88  S   UNL A   1      50.340  26.110  32.028  1.00  0.00     0.124 S 
ATOM     89  O   UNL A   1      49.980  27.282  31.237  1.00  0.00    -0.237 OA
ATOM     90  O   UNL A   1      51.171  26.362  33.201  1.00  0.00    -0.237 OA
ATOM     91  O   UNL A   1      50.710  24.927  31.251  1.00  0.00    -0.744 OA
ENDBRANCH  84  88
ENDBRANCH  58  81
ENDBRANCH  32  33
ENDBRANCH  25  27
ENDBRANCH  24  25
ENDBRANCH  23  24
ENDBRANCH   1  23
TORSDOF 17
ENDMDL
MODEL 3
REMARK VINA RESULT:     -10.4      2.076      2.594
REMARK SMILES O=C(CNC(=O)c1cc(-c2ccc(Cl)cc2)n[nH]1)OCCOC(=O)c1ccc(-c2c3nc(c(-c4cc(S(=O)(=O)[O-])ccc4F)c4ccc([nH]4)c(-c4cc(S(=O)(=O)[O-])ccc4F)c4nc(c(-c5cc(S(=O)(=O)[O-])ccc5F)c5ccc2[nH]5)C=C4)C=C3)cc1
REMARK SMILES IDX 20 1 19 2 2 3 1 4 3 5 4 6 5 7 6 9 7 10 8 11 18 12 9 13 17 14
REMARK SMILES IDX 10 16 11 17 16 18 12 19 15 20 13 21 14 22 21 23 22 24 23 25
REMARK SMILES IDX 24 26 25 27 26 28 87 29 27 30 86 31 28 32 29 33 30 34 80 35
REMARK SMILES IDX 31 36 85 37 79 38 81 39 32 40 84 41 78 42 77 43 33 45 65 46
REMARK SMILES IDX 45 47 64 48 46 49 49 50 63 51 82 52 47 53 48 54 62 56 83 57
REMARK SMILES IDX 50 58 34 59 35 60 43 61 36 62 42 63 44 64 41 65 37 66 38 67
REMARK SMILES IDX 39 68 40 69 66 70 67 71 75 72 68 73 74 74 76 75 73 76 69 77
REMARK SMILES IDX 70 78 71 79 72 80 51 81 52 82 60 83 53 84 59 85 61 86 58 87
REMARK SMILES IDX 54 88 55 89 56 90 57 91
REMARK H PARENT 4 8 18 15 81 44 49 55
REMARK Flexibility Score: inf
ROOT
ATOM      1  C   UNL A   1      41.340  19.726  26.786  1.00  0.00     0.274 C 
ENDROOT
BRANCH   1   2
ATOM      2  O   UNL A   1      42.547  20.028  26.056  1.00  0.00    -0.461 OA
BRANCH   2   3
ATOM      3  C   UNL A   1      43.422  19.122  25.561  1.00  0.00     0.325 C 
ATOM      4  O   UNL A   1      43.091  17.939  25.483  1.00  0.00    -0.250 OA
BRANCH   3   5
ATOM      5  C   UNL A   1      44.803  19.574  25.084  1.00  0.00     0.239 C 
BRANCH   5   6
ATOM      6  N   UNL A   1      44.800  20.506  23.968  1.00  0.00    -0.340 N 
ATOM      7  C   UNL A   1      44.649  21.867  23.955  1.00  0.00     0.269 C 
ATOM      8  H   UNL A   1      44.925  20.094  23.083  1.00  0.00     0.164 HD
ATOM      9  O   UNL A   1      44.465  22.416  22.870  1.00  0.00    -0.268 OA
BRANCH   7  10
ATOM     10  C   UNL A   1      44.572  22.605  25.187  1.00  0.00     0.123 A 
ATOM     11  C   UNL A   1      45.483  23.244  26.008  1.00  0.00     0.064 A 
ATOM     12  N   UNL A   1      43.365  22.832  25.789  1.00  0.00    -0.272 N 
ATOM     13  C   UNL A   1      44.754  23.643  27.164  1.00  0.00     0.093 A 
ATOM     14  N   UNL A   1      43.458  23.322  27.033  1.00  0.00    -0.175 NA
ATOM     15  H   UNL A   1      42.504  22.652  25.348  1.00  0.00     0.190 HD
BRANCH  13  16
ATOM     16  C   UNL A   1      45.257  24.270  28.386  1.00  0.00     0.002 A 
ATOM     17  C   UNL A   1      46.490  24.935  28.405  1.00  0.00     0.012 A 
ATOM     18  C   UNL A   1      44.499  24.210  29.567  1.00  0.00     0.012 A 
ATOM     19  C   UNL A   1      46.950  25.538  29.581  1.00  0.00     0.021 A 
ATOM     20  C   UNL A   1      44.962  24.806  30.743  1.00  0.00     0.021 A 
ATOM     21  C   UNL A   1      46.184  25.473  30.743  1.00  0.00     0.041 A 
ATOM     22  Cl  UNL A   1      46.740  26.230  32.185  1.00  0.00    -0.084 Cl
ENDBRANCH  13  16
ENDBRANCH   7  10
ENDBRANCH   5   6
ENDBRANCH   3   5
ENDBRANCH   2   3
ENDBRANCH   1   2
BRANCH   1  23
ATOM     23  C   UNL A   1      40.624  20.988  27.267  1.00  0.00     0.275 C 
BRANCH  23  24
ATOM     24  O   UNL A   1      40.394  21.888  26.170  1.00  0.00    -0.458 OA
BRANCH  24  25
ATOM     25  C   UNL A   1      39.278  22.656  26.249  1.00  0.00     0.338 C 
ATOM     26  O   UNL A   1      38.128  22.289  26.086  1.00  0.00    -0.246 OA
BRANCH  25  27
ATOM     27  C   UNL A   1      39.665  23.976  26.795  1.00  0.00     0.060 A 
ATOM     28  C   UNL A   1      40.228  24.915  25.923  1.00  0.00     0.016 A 
ATOM     29  C   UNL A   1      39.410  24.323  28.126  1.00  0.00     0.016 A 
ATOM     30  C   UNL A   1      40.530  26.201  26.381  1.00  0.00     0.010 A 
ATOM     31  C   UNL A   1      39.697  25.615  28.577  1.00  0.00     0.010 A 
ATOM     32  C   UNL A   1      40.268  26.563  27.711  1.00  0.00    -0.014 A 
BRANCH  32  33
ATOM     33  C   UNL A   1      40.663  27.904  28.221  1.00  0.00     0.031 A 
ATOM     34  C   UNL A   1      42.123  28.233  28.379  1.00  0.00     0.074 A 
ATOM     35  C   UNL A   1      39.729  28.818  28.554  1.00  0.00     0.049 A 
ATOM     36  N   UNL A   1      42.679  29.326  28.837  1.00  0.00    -0.248 NA
ATOM     37  C   UNL A   1      43.080  27.192  27.977  1.00  0.00     0.031 C 
ATOM     38  C   UNL A   1      38.282  28.630  28.443  1.00  0.00     0.029 A 
ATOM     39  N   UNL A   1      39.861  30.086  29.068  1.00  0.00    -0.354 N 
ATOM     40  C   UNL A   1      44.051  29.107  28.777  1.00  0.00     0.074 A 
ATOM     41  C   UNL A   1      44.239  27.760  28.278  1.00  0.00     0.031 C 
ATOM     42  C   UNL A   1      37.663  29.739  28.885  1.00  0.00     0.029 A 
ATOM     43  C   UNL A   1      38.662  30.704  29.340  1.00  0.00     0.049 A 
ATOM     44  H   UNL A   1      40.734  30.513  29.226  1.00  0.00     0.167 HD
ATOM     45  C   UNL A   1      45.061  29.952  29.094  1.00  0.00     0.034 A 
ATOM     46  C   UNL A   1      38.398  31.899  29.911  1.00  0.00     0.034 A 
ATOM     47  C   UNL A   1      44.874  31.295  29.582  1.00  0.00     0.049 A 
ATOM     48  C   UNL A   1      39.546  32.789  30.331  1.00  0.00     0.074 A 
ATOM     49  C   UNL A   1      45.837  32.251  29.859  1.00  0.00     0.029 A 
ATOM     50  N   UNL A   1      43.648  31.868  29.887  1.00  0.00    -0.354 N 
ATOM     51  N   UNL A   1      40.838  32.588  30.204  1.00  0.00    -0.248 NA
ATOM     52  C   UNL A   1      39.199  34.068  30.968  1.00  0.00     0.031 C 
ATOM     53  C   UNL A   1      45.199  33.372  30.400  1.00  0.00     0.029 A 
ATOM     54  C   UNL A   1      43.833  33.143  30.397  1.00  0.00     0.049 A 
ATOM     55  H   UNL A   1      42.774  31.432  29.760  1.00  0.00     0.167 HD
ATOM     56  C   UNL A   1      41.451  33.730  30.720  1.00  0.00     0.074 A 
ATOM     57  C   UNL A   1      40.391  34.619  31.144  1.00  0.00     0.031 C 
ATOM     58  C   UNL A   1      42.772  34.018  30.832  1.00  0.00     0.034 A 
BRANCH  45  59
ATOM     59  C   UNL A   1      46.469  29.437  28.953  1.00  0.00     0.023 A 
ATOM     60  C   UNL A   1      47.044  29.197  27.694  1.00  0.00     0.031 A 
ATOM     61  C   UNL A   1      47.248  29.195  30.098  1.00  0.00     0.131 A 
ATOM     62  C   UNL A   1      48.347  28.682  27.612  1.00  0.00     0.055 A 
ATOM     63  C   UNL A   1      48.565  28.743  30.006  1.00  0.00     0.041 A 
ATOM     64  F   UNL A   1      46.738  29.390  31.324  1.00  0.00    -0.206 F 
ATOM     65  C   UNL A   1      49.119  28.475  28.758  1.00  0.00     0.022 A 
BRANCH  62  66
ATOM     66  S   UNL A   1      48.985  28.194  25.986  1.00  0.00     0.124 S 
ATOM     67  O   UNL A   1      49.224  26.766  26.179  1.00  0.00    -0.237 OA
ATOM     68  O   UNL A   1      47.883  28.543  25.096  1.00  0.00    -0.237 OA
ATOM     69  O   UNL A   1      50.190  29.008  25.832  1.00  0.00    -0.744 OA
ENDBRANCH  62  66
ENDBRANCH  45  59
BRANCH  46  70
ATOM     70  C   UNL A   1      36.993  32.323  30.186  1.00  0.00     0.023 A 
ATOM     71  C   UNL A   1      36.220  32.959  29.203  1.00  0.00     0.031 A 
ATOM     72  C   UNL A   1      36.444  32.192  31.475  1.00  0.00     0.131 A 
ATOM     73  C   UNL A   1      34.968  33.500  29.538  1.00  0.00     0.055 A 
ATOM     74  C   UNL A   1      35.174  32.680  31.788  1.00  0.00     0.041 A 
ATOM     75  F   UNL A   1      37.141  31.594  32.454  1.00  0.00    -0.206 F 
ATOM     76  C   UNL A   1      34.436  33.355  30.821  1.00  0.00     0.022 A 
BRANCH  73  77
ATOM     77  S   UNL A   1      34.097  34.505  28.303  1.00  0.00     0.124 S 
ATOM     78  O   UNL A   1      33.855  35.739  29.042  1.00  0.00    -0.237 OA
ATOM     79  O   UNL A   1      35.083  34.582  27.230  1.00  0.00    -0.237 OA
ATOM     80  O   UNL A   1      32.907  33.713  27.999  1.00  0.00    -0.744 OA
ENDBRANCH  73  77
ENDBRANCH  46  70
BRANCH  58  81
ATOM     81  C   UNL A   1      43.141  35.362  31.409  1.00  0.00     0.023 A 
ATOM     82  C   UNL A   1      43.485  36.449  30.586  1.00  0.00     0.031 A 
ATOM     83  C   UNL A   1      43.149  35.559  32.801  1.00  0.00     0.131 A 
ATOM     84  C   UNL A   1      43.865  37.671  31.162  1.00  0.00     0.055 A 
ATOM     85  C   UNL A   1      43.476  36.792  33.368  1.00  0.00     0.041 A 
ATOM     86  F   UNL A   1      42.830  34.555  33.635  1.00  0.00    -0.206 F 
ATOM     87  C   UNL A   1      43.847  37.853  32.548  1.00  0.00     0.022 A 
BRANCH  84  88
ATOM     88  S   UNL A   1      44.449  39.003  30.079  1.00  0.00     0.124 S 
ATOM     89  O   UNL A   1      45.408  39.693  30.935  1.00  0.00    -0.237 OA
ATOM     90  O   UNL A   1      45.013  38.266  28.953  1.00  0.00    -0.237 OA
ATOM     91  O   UNL A   1      43.232  39.757  29.777  1.00  0.00    -0.744 OA
ENDBRANCH  84  88
ENDBRANCH  58  81
ENDBRANCH  32  33
ENDBRANCH  25  27
ENDBRANCH  24  25
ENDBRANCH  23  24
ENDBRANCH   1  23
TORSDOF 17
ENDMDL
