MODEL 1
REMARK VINA RESULT:     -10.3      0.000      0.000
REMARK SMILES CC[NH2+]C[C@@H](C)C(=O)N1CCO[C@@H](CC(=O)OCCOC(=O)c2ccc(-c3c4nc(c(-c5cc(S(=O)(=O)[O-])ccc5F)c5ccc([nH]5)c(-c5cc(S(=O)(=O)[O-])ccc5F)c5nc(c(-c6cc(S(=O)(=O)[O-])ccc6F)c6ccc3[nH]6)C=C5)C=C4)cc2)C1
REMARK SMILES IDX 17 1 15 2 16 3 14 4 13 5 9 6 10 7 86 8 11 9 12 10 7 11 8 12
REMARK SMILES IDX 5 13 6 14 4 15 3 16 2 19 1 20 18 21 19 22 20 23 21 24 22 25
REMARK SMILES IDX 23 26 24 27 85 28 25 29 84 30 26 31 27 32 28 33 78 34 29 35
REMARK SMILES IDX 83 36 77 37 79 38 30 39 82 40 76 41 75 42 31 44 63 45 43 46
REMARK SMILES IDX 62 47 44 48 47 49 61 50 80 51 45 52 46 53 60 55 81 56 48 57
REMARK SMILES IDX 32 58 33 59 41 60 34 61 40 62 42 63 39 64 35 65 36 66 37 67
REMARK SMILES IDX 38 68 64 69 65 70 73 71 66 72 72 73 74 74 71 75 67 76 68 77
REMARK SMILES IDX 69 78 70 79 49 80 50 81 58 82 51 83 57 84 59 85 56 86 52 87
REMARK SMILES IDX 53 88 54 89 55 90
REMARK H PARENT 3 17 3 18 79 43 47 54
REMARK Flexibility Score: inf
ROOT
ATOM      1  O   UNL A   1      34.648  22.922  25.147  1.00  0.00    -0.462 OA
ENDROOT
BRANCH   1   2
ATOM      2  C   UNL A   1      33.418  23.207  25.639  1.00  0.00     0.308 C 
ATOM      3  O   UNL A   1      32.489  22.411  25.695  1.00  0.00    -0.252 OA
BRANCH   2   4
ATOM      4  C   UNL A   1      33.283  24.655  26.030  1.00  0.00     0.156 C 
BRANCH   4   5
ATOM      5  C   UNL A   1      32.807  25.586  24.919  1.00  0.00     0.148 C 
ATOM      6  N   UNL A   1      32.414  27.927  24.216  1.00  0.00    -0.337 N 
ATOM      7  C   UNL A   1      33.374  27.737  23.133  1.00  0.00     0.148 C 
ATOM      8  C   UNL A   1      32.688  27.064  25.370  1.00  0.00     0.152 C 
ATOM      9  C   UNL A   1      33.418  26.272  22.718  1.00  0.00     0.182 C 
ATOM     10  O   UNL A   1      33.779  25.463  23.847  1.00  0.00    -0.374 OA
BRANCH   6  11
ATOM     11  C   UNL A   1      31.421  28.879  24.315  1.00  0.00     0.231 C 
ATOM     12  O   UNL A   1      31.442  29.707  25.236  1.00  0.00    -0.274 OA
BRANCH  11  13
ATOM     13  C   UNL A   1      30.167  28.810  23.428  1.00  0.00     0.130 C 
ATOM     14  C   UNL A   1      29.710  27.355  23.310  1.00  0.00     0.024 C 
BRANCH  13  15
ATOM     15  C   UNL A   1      30.236  29.533  22.079  1.00  0.00     0.273 C 
BRANCH  15  16
ATOM     16  N   UNL A   1      29.697  30.898  22.028  1.00  0.00    -0.346 N 
ATOM     17  H   UNL A   1      30.043  31.407  22.841  1.00  0.00     0.346 HD
ATOM     18  H   UNL A   1      30.008  31.300  21.144  1.00  0.00     0.346 HD
BRANCH  16  19
ATOM     19  C   UNL A   1      28.243  30.969  22.030  1.00  0.00     0.257 C 
ATOM     20  C   UNL A   1      27.803  31.942  23.113  1.00  0.00     0.071 C 
ENDBRANCH  16  19
ENDBRANCH  15  16
ENDBRANCH  13  15
ENDBRANCH  11  13
ENDBRANCH   6  11
ENDBRANCH   4   5
ENDBRANCH   2   4
ENDBRANCH   1   2
BRANCH   1  21
ATOM     21  C   UNL A   1      35.025  21.532  25.104  1.00  0.00     0.274 C 
BRANCH  21  22
ATOM     22  C   UNL A   1      36.526  21.362  24.856  1.00  0.00     0.275 C 
BRANCH  22  23
ATOM     23  O   UNL A   1      37.252  21.231  26.092  1.00  0.00    -0.458 OA
BRANCH  23  24
ATOM     24  C   UNL A   1      38.599  21.163  25.965  1.00  0.00     0.338 C 
ATOM     25  O   UNL A   1      39.242  20.255  25.469  1.00  0.00    -0.246 OA
BRANCH  24  26
ATOM     26  C   UNL A   1      39.199  22.434  26.399  1.00  0.00     0.060 A 
ATOM     27  C   UNL A   1      38.553  23.626  26.058  1.00  0.00     0.016 A 
ATOM     28  C   UNL A   1      40.417  22.458  27.083  1.00  0.00     0.016 A 
ATOM     29  C   UNL A   1      39.123  24.851  26.399  1.00  0.00     0.010 A 
ATOM     30  C   UNL A   1      40.988  23.689  27.424  1.00  0.00     0.010 A 
ATOM     31  C   UNL A   1      40.349  24.892  27.077  1.00  0.00    -0.014 A 
BRANCH  31  32
ATOM     32  C   UNL A   1      40.986  26.198  27.381  1.00  0.00     0.031 A 
ATOM     33  C   UNL A   1      42.375  26.482  26.885  1.00  0.00     0.074 A 
ATOM     34  C   UNL A   1      40.315  27.125  28.090  1.00  0.00     0.049 A 
ATOM     35  N   UNL A   1      43.139  27.521  27.105  1.00  0.00    -0.248 NA
ATOM     36  C   UNL A   1      42.987  25.455  26.031  1.00  0.00     0.031 C 
ATOM     37  C   UNL A   1      38.946  26.976  28.587  1.00  0.00     0.029 A 
ATOM     38  N   UNL A   1      40.694  28.371  28.521  1.00  0.00    -0.354 N 
ATOM     39  C   UNL A   1      44.327  27.272  26.426  1.00  0.00     0.074 A 
ATOM     40  C   UNL A   1      44.189  25.966  25.813  1.00  0.00     0.031 C 
ATOM     41  C   UNL A   1      38.602  28.087  29.260  1.00  0.00     0.029 A 
ATOM     42  C   UNL A   1      39.739  29.004  29.282  1.00  0.00     0.049 A 
ATOM     43  H   UNL A   1      41.566  28.774  28.306  1.00  0.00     0.167 HD
ATOM     44  C   UNL A   1      45.424  28.062  26.321  1.00  0.00     0.034 A 
ATOM     45  C   UNL A   1      39.788  30.175  29.948  1.00  0.00     0.034 A 
ATOM     46  C   UNL A   1      45.544  29.357  26.946  1.00  0.00     0.049 A 
ATOM     47  C   UNL A   1      41.049  31.000  29.882  1.00  0.00     0.074 A 
ATOM     48  C   UNL A   1      46.607  30.245  26.898  1.00  0.00     0.029 A 
ATOM     49  N   UNL A   1      44.573  29.951  27.742  1.00  0.00    -0.354 N 
ATOM     50  N   UNL A   1      42.168  30.750  29.242  1.00  0.00    -0.248 NA
ATOM     51  C   UNL A   1      41.051  32.268  30.626  1.00  0.00     0.031 C 
ATOM     52  C   UNL A   1      46.305  31.340  27.715  1.00  0.00     0.029 A 
ATOM     53  C   UNL A   1      45.023  31.175  28.216  1.00  0.00     0.049 A 
ATOM     54  H   UNL A   1      43.692  29.560  27.943  1.00  0.00     0.167 HD
ATOM     55  C   UNL A   1      42.997  31.842  29.486  1.00  0.00     0.074 A 
ATOM     56  C   UNL A   1      42.243  32.757  30.318  1.00  0.00     0.031 C 
ATOM     57  C   UNL A   1      44.265  32.071  29.058  1.00  0.00     0.034 A 
BRANCH  44  58
ATOM     58  C   UNL A   1      46.598  27.515  25.545  1.00  0.00     0.023 A 
ATOM     59  C   UNL A   1      46.902  27.959  24.246  1.00  0.00     0.031 A 
ATOM     60  C   UNL A   1      47.408  26.509  26.104  1.00  0.00     0.131 A 
ATOM     61  C   UNL A   1      47.942  27.353  23.524  1.00  0.00     0.055 A 
ATOM     62  C   UNL A   1      48.489  25.963  25.409  1.00  0.00     0.041 A 
ATOM     63  F   UNL A   1      47.153  26.029  27.331  1.00  0.00    -0.206 F 
ATOM     64  C   UNL A   1      48.753  26.375  24.105  1.00  0.00     0.022 A 
BRANCH  61  65
ATOM     65  S   UNL A   1      48.132  27.762  21.768  1.00  0.00     0.124 S 
ATOM     66  O   UNL A   1      49.330  28.599  21.786  1.00  0.00    -0.237 OA
ATOM     67  O   UNL A   1      48.280  26.450  21.151  1.00  0.00    -0.237 OA
ATOM     68  O   UNL A   1      46.894  28.469  21.444  1.00  0.00    -0.744 OA
ENDBRANCH  61  65
ENDBRANCH  44  58
BRANCH  45  69
ATOM     69  C   UNL A   1      38.632  30.620  30.778  1.00  0.00     0.023 A 
ATOM     70  C   UNL A   1      37.533  31.277  30.203  1.00  0.00     0.031 A 
ATOM     71  C   UNL A   1      38.635  30.438  32.173  1.00  0.00     0.131 A 
ATOM     72  C   UNL A   1      36.504  31.767  31.023  1.00  0.00     0.055 A 
ATOM     73  C   UNL A   1      37.584  30.879  32.978  1.00  0.00     0.041 A 
ATOM     74  F   UNL A   1      39.663  29.818  32.774  1.00  0.00    -0.206 F 
ATOM     75  C   UNL A   1      36.515  31.560  32.404  1.00  0.00     0.022 A 
BRANCH  72  76
ATOM     76  S   UNL A   1      35.186  32.757  30.265  1.00  0.00     0.124 S 
ATOM     77  O   UNL A   1      34.259  32.921  31.379  1.00  0.00    -0.237 OA
ATOM     78  O   UNL A   1      35.908  33.954  29.848  1.00  0.00    -0.237 OA
ATOM     79  O   UNL A   1      34.707  31.909  29.175  1.00  0.00    -0.744 OA
ENDBRANCH  72  76
ENDBRANCH  45  69
BRANCH  57  80
ATOM     80  C   UNL A   1      44.891  33.387  29.450  1.00  0.00     0.023 A 
ATOM     81  C   UNL A   1      44.776  34.532  28.643  1.00  0.00     0.031 A 
ATOM     82  C   UNL A   1      45.628  33.489  30.643  1.00  0.00     0.131 A 
ATOM     83  C   UNL A   1      45.435  35.716  29.011  1.00  0.00     0.055 A 
ATOM     84  C   UNL A   1      46.234  34.684  31.032  1.00  0.00     0.041 A 
ATOM     85  F   UNL A   1      45.771  32.425  31.450  1.00  0.00    -0.206 F 
ATOM     86  C   UNL A   1      46.150  35.803  30.209  1.00  0.00     0.022 A 
BRANCH  83  87
ATOM     87  S   UNL A   1      45.417  37.119  27.862  1.00  0.00     0.124 S 
ATOM     88  O   UNL A   1      46.241  36.623  26.764  1.00  0.00    -0.237 OA
ATOM     89  O   UNL A   1      43.994  37.268  27.573  1.00  0.00    -0.237 OA
ATOM     90  O   UNL A   1      46.007  38.207  28.640  1.00  0.00    -0.744 OA
ENDBRANCH  83  87
ENDBRANCH  57  80
ENDBRANCH  31  32
ENDBRANCH  24  26
ENDBRANCH  23  24
ENDBRANCH  22  23
ENDBRANCH  21  22
ENDBRANCH   1  21
TORSDOF 20
ENDMDL
MODEL 2
REMARK VINA RESULT:     -10.3      3.171      8.937
REMARK SMILES CC[NH2+]C[C@@H](C)C(=O)N1CCO[C@@H](CC(=O)OCCOC(=O)c2ccc(-c3c4nc(c(-c5cc(S(=O)(=O)[O-])ccc5F)c5ccc([nH]5)c(-c5cc(S(=O)(=O)[O-])ccc5F)c5nc(c(-c6cc(S(=O)(=O)[O-])ccc6F)c6ccc3[nH]6)C=C5)C=C4)cc2)C1
REMARK SMILES IDX 17 1 15 2 16 3 14 4 13 5 9 6 10 7 86 8 11 9 12 10 7 11 8 12
REMARK SMILES IDX 5 13 6 14 4 15 3 16 2 19 1 20 18 21 19 22 20 23 21 24 22 25
REMARK SMILES IDX 23 26 24 27 85 28 25 29 84 30 26 31 27 32 28 33 78 34 29 35
REMARK SMILES IDX 83 36 77 37 79 38 30 39 82 40 76 41 75 42 31 44 63 45 43 46
REMARK SMILES IDX 62 47 44 48 47 49 61 50 80 51 45 52 46 53 60 55 81 56 48 57
REMARK SMILES IDX 32 58 33 59 41 60 34 61 40 62 42 63 39 64 35 65 36 66 37 67
REMARK SMILES IDX 38 68 64 69 65 70 73 71 66 72 72 73 74 74 71 75 67 76 68 77
REMARK SMILES IDX 69 78 70 79 49 80 50 81 58 82 51 83 57 84 59 85 56 86 52 87
REMARK SMILES IDX 53 88 54 89 55 90
REMARK H PARENT 3 17 3 18 79 43 47 54
REMARK Flexibility Score: inf
ROOT
ATOM      1  O   UNL A   1      37.226  21.408  24.209  1.00  0.00    -0.462 OA
ENDROOT
BRANCH   1   2
ATOM      2  C   UNL A   1      36.670  22.600  23.880  1.00  0.00     0.308 C 
ATOM      3  O   UNL A   1      37.080  23.337  22.992  1.00  0.00    -0.252 OA
BRANCH   2   4
ATOM      4  C   UNL A   1      35.535  22.971  24.797  1.00  0.00     0.156 C 
BRANCH   4   5
ATOM      5  C   UNL A   1      34.216  22.254  24.520  1.00  0.00     0.148 C 
ATOM      6  N   UNL A   1      32.751  20.341  25.084  1.00  0.00    -0.337 N 
ATOM      7  C   UNL A   1      31.718  21.285  25.500  1.00  0.00     0.148 C 
ATOM      8  C   UNL A   1      34.105  20.883  25.235  1.00  0.00     0.152 C 
ATOM      9  C   UNL A   1      31.866  22.596  24.739  1.00  0.00     0.182 C 
ATOM     10  O   UNL A   1      33.169  23.149  24.981  1.00  0.00    -0.374 OA
BRANCH   6  11
ATOM     11  C   UNL A   1      32.598  19.019  24.722  1.00  0.00     0.231 C 
ATOM     12  O   UNL A   1      31.898  18.262  25.407  1.00  0.00    -0.274 OA
BRANCH  11  13
ATOM     13  C   UNL A   1      33.447  18.404  23.597  1.00  0.00     0.130 C 
ATOM     14  C   UNL A   1      32.524  17.869  22.501  1.00  0.00     0.024 C 
BRANCH  13  15
ATOM     15  C   UNL A   1      34.530  17.405  24.017  1.00  0.00     0.273 C 
BRANCH  15  16
ATOM     16  N   UNL A   1      34.389  16.792  25.343  1.00  0.00    -0.346 N 
ATOM     17  H   UNL A   1      35.230  16.999  25.882  1.00  0.00     0.346 HD
ATOM     18  H   UNL A   1      33.544  17.186  25.758  1.00  0.00     0.346 HD
BRANCH  16  19
ATOM     19  C   UNL A   1      34.206  15.347  25.321  1.00  0.00     0.257 C 
ATOM     20  C   UNL A   1      32.717  15.042  25.388  1.00  0.00     0.071 C 
ENDBRANCH  16  19
ENDBRANCH  15  16
ENDBRANCH  13  15
ENDBRANCH  11  13
ENDBRANCH   6  11
ENDBRANCH   4   5
ENDBRANCH   2   4
ENDBRANCH   1   2
BRANCH   1  21
ATOM     21  C   UNL A   1      38.165  21.408  25.301  1.00  0.00     0.274 C 
BRANCH  21  22
ATOM     22  C   UNL A   1      38.922  20.080  25.394  1.00  0.00     0.275 C 
BRANCH  22  23
ATOM     23  O   UNL A   1      39.759  20.032  26.563  1.00  0.00    -0.458 OA
BRANCH  23  24
ATOM     24  C   UNL A   1      41.090  19.993  26.318  1.00  0.00     0.338 C 
ATOM     25  O   UNL A   1      41.717  19.072  25.824  1.00  0.00    -0.246 OA
BRANCH  24  26
ATOM     26  C   UNL A   1      41.684  21.307  26.611  1.00  0.00     0.060 A 
ATOM     27  C   UNL A   1      41.973  21.623  27.943  1.00  0.00     0.016 A 
ATOM     28  C   UNL A   1      41.900  22.242  25.597  1.00  0.00     0.016 A 
ATOM     29  C   UNL A   1      42.478  22.881  28.266  1.00  0.00     0.010 A 
ATOM     30  C   UNL A   1      42.408  23.504  25.924  1.00  0.00     0.010 A 
ATOM     31  C   UNL A   1      42.692  23.834  27.261  1.00  0.00    -0.014 A 
BRANCH  31  32
ATOM     32  C   UNL A   1      43.169  25.193  27.616  1.00  0.00     0.031 A 
ATOM     33  C   UNL A   1      42.212  26.187  28.210  1.00  0.00     0.074 A 
ATOM     34  C   UNL A   1      44.458  25.529  27.414  1.00  0.00     0.049 A 
ATOM     35  N   UNL A   1      42.404  27.444  28.516  1.00  0.00    -0.248 NA
ATOM     36  C   UNL A   1      40.855  25.699  28.491  1.00  0.00     0.031 C 
ATOM     37  C   UNL A   1      45.487  24.634  26.883  1.00  0.00     0.029 A 
ATOM     38  N   UNL A   1      45.119  26.712  27.625  1.00  0.00    -0.354 N 
ATOM     39  C   UNL A   1      41.191  27.904  29.018  1.00  0.00     0.074 A 
ATOM     40  C   UNL A   1      40.262  26.794  28.943  1.00  0.00     0.031 C 
ATOM     41  C   UNL A   1      46.649  25.302  26.806  1.00  0.00     0.029 A 
ATOM     42  C   UNL A   1      46.438  26.682  27.235  1.00  0.00     0.049 A 
ATOM     43  H   UNL A   1      44.691  27.507  28.019  1.00  0.00     0.167 HD
ATOM     44  C   UNL A   1      40.885  29.134  29.500  1.00  0.00     0.034 A 
ATOM     45  C   UNL A   1      47.360  27.664  27.198  1.00  0.00     0.034 A 
ATOM     46  C   UNL A   1      41.823  30.230  29.558  1.00  0.00     0.049 A 
ATOM     47  C   UNL A   1      46.974  29.046  27.664  1.00  0.00     0.074 A 
ATOM     48  C   UNL A   1      41.621  31.515  30.034  1.00  0.00     0.029 A 
ATOM     49  N   UNL A   1      43.140  30.176  29.118  1.00  0.00    -0.354 N 
ATOM     50  N   UNL A   1      45.822  29.469  28.130  1.00  0.00    -0.248 NA
ATOM     51  C   UNL A   1      48.016  30.081  27.603  1.00  0.00     0.031 C 
ATOM     52  C   UNL A   1      42.792  32.253  29.822  1.00  0.00     0.029 A 
ATOM     53  C   UNL A   1      43.751  31.411  29.282  1.00  0.00     0.049 A 
ATOM     54  H   UNL A   1      43.576  29.378  28.743  1.00  0.00     0.167 HD
ATOM     55  C   UNL A   1      46.009  30.814  28.441  1.00  0.00     0.074 A 
ATOM     56  C   UNL A   1      47.388  31.124  28.124  1.00  0.00     0.031 C 
ATOM     57  C   UNL A   1      45.124  31.710  28.947  1.00  0.00     0.034 A 
BRANCH  44  58
ATOM     58  C   UNL A   1      39.462  29.368  29.946  1.00  0.00     0.023 A 
ATOM     59  C   UNL A   1      38.545  30.084  29.158  1.00  0.00     0.031 A 
ATOM     60  C   UNL A   1      39.025  28.890  31.195  1.00  0.00     0.131 A 
ATOM     61  C   UNL A   1      37.262  30.363  29.655  1.00  0.00     0.055 A 
ATOM     62  C   UNL A   1      37.723  29.105  31.652  1.00  0.00     0.041 A 
ATOM     63  F   UNL A   1      39.862  28.219  32.001  1.00  0.00    -0.206 F 
ATOM     64  C   UNL A   1      36.837  29.858  30.885  1.00  0.00     0.022 A 
BRANCH  61  65
ATOM     65  S   UNL A   1      36.204  31.511  28.732  1.00  0.00     0.124 S 
ATOM     66  O   UNL A   1      35.919  30.744  27.521  1.00  0.00    -0.237 OA
ATOM     67  O   UNL A   1      35.082  31.708  29.641  1.00  0.00    -0.237 OA
ATOM     68  O   UNL A   1      37.058  32.680  28.531  1.00  0.00    -0.744 OA
ENDBRANCH  61  65
ENDBRANCH  44  58
BRANCH  45  69
ATOM     69  C   UNL A   1      48.724  27.399  26.656  1.00  0.00     0.023 A 
ATOM     70  C   UNL A   1      49.034  27.649  25.310  1.00  0.00     0.031 A 
ATOM     71  C   UNL A   1      49.725  26.839  27.470  1.00  0.00     0.131 A 
ATOM     72  C   UNL A   1      50.298  27.301  24.808  1.00  0.00     0.055 A 
ATOM     73  C   UNL A   1      50.998  26.545  26.980  1.00  0.00     0.041 A 
ATOM     74  F   UNL A   1      49.480  26.578  28.765  1.00  0.00    -0.206 F 
ATOM     75  C   UNL A   1      51.286  26.764  25.636  1.00  0.00     0.022 A 
BRANCH  72  76
ATOM     76  S   UNL A   1      50.606  27.481  23.029  1.00  0.00     0.124 S 
ATOM     77  O   UNL A   1      49.432  26.834  22.456  1.00  0.00    -0.237 OA
ATOM     78  O   UNL A   1      50.677  28.931  22.880  1.00  0.00    -0.237 OA
ATOM     79  O   UNL A   1      51.869  26.774  22.829  1.00  0.00    -0.744 OA
ENDBRANCH  72  76
ENDBRANCH  45  69
BRANCH  57  80
ATOM     80  C   UNL A   1      45.643  33.099  29.229  1.00  0.00     0.023 A 
ATOM     81  C   UNL A   1      45.495  34.146  28.304  1.00  0.00     0.031 A 
ATOM     82  C   UNL A   1      46.311  33.370  30.436  1.00  0.00     0.131 A 
ATOM     83  C   UNL A   1      46.056  35.404  28.576  1.00  0.00     0.055 A 
ATOM     84  C   UNL A   1      46.818  34.638  30.726  1.00  0.00     0.041 A 
ATOM     85  F   UNL A   1      46.483  32.406  31.354  1.00  0.00    -0.206 F 
ATOM     86  C   UNL A   1      46.703  35.660  29.789  1.00  0.00     0.022 A 
BRANCH  83  87
ATOM     87  S   UNL A   1      46.004  36.681  27.289  1.00  0.00     0.124 S 
ATOM     88  O   UNL A   1      46.644  36.005  26.164  1.00  0.00    -0.237 OA
ATOM     89  O   UNL A   1      44.573  36.930  27.153  1.00  0.00    -0.237 OA
ATOM     90  O   UNL A   1      46.771  37.783  27.867  1.00  0.00    -0.744 OA
ENDBRANCH  83  87
ENDBRANCH  57  80
ENDBRANCH  31  32
ENDBRANCH  24  26
ENDBRANCH  23  24
ENDBRANCH  22  23
ENDBRANCH  21  22
ENDBRANCH   1  21
TORSDOF 20
ENDMDL
MODEL 3
REMARK VINA RESULT:     -10.3      1.256      7.793
REMARK SMILES CC[NH2+]C[C@@H](C)C(=O)N1CCO[C@@H](CC(=O)OCCOC(=O)c2ccc(-c3c4nc(c(-c5cc(S(=O)(=O)[O-])ccc5F)c5ccc([nH]5)c(-c5cc(S(=O)(=O)[O-])ccc5F)c5nc(c(-c6cc(S(=O)(=O)[O-])ccc6F)c6ccc3[nH]6)C=C5)C=C4)cc2)C1
REMARK SMILES IDX 17 1 15 2 16 3 14 4 13 5 9 6 10 7 86 8 11 9 12 10 7 11 8 12
REMARK SMILES IDX 5 13 6 14 4 15 3 16 2 19 1 20 18 21 19 22 20 23 21 24 22 25
REMARK SMILES IDX 23 26 24 27 85 28 25 29 84 30 26 31 27 32 28 33 78 34 29 35
REMARK SMILES IDX 83 36 77 37 79 38 30 39 82 40 76 41 75 42 31 44 63 45 43 46
REMARK SMILES IDX 62 47 44 48 47 49 61 50 80 51 45 52 46 53 60 55 81 56 48 57
REMARK SMILES IDX 32 58 33 59 41 60 34 61 40 62 42 63 39 64 35 65 36 66 37 67
REMARK SMILES IDX 38 68 64 69 65 70 73 71 66 72 72 73 74 74 71 75 67 76 68 77
REMARK SMILES IDX 69 78 70 79 49 80 50 81 58 82 51 83 57 84 59 85 56 86 52 87
REMARK SMILES IDX 53 88 54 89 55 90
REMARK H PARENT 3 17 3 18 79 43 47 54
REMARK Flexibility Score: inf
ROOT
ATOM      1  O   UNL A   1      35.106  21.463  25.396  1.00  0.00    -0.462 OA
ENDROOT
BRANCH   1   2
ATOM      2  C   UNL A   1      33.767  21.478  25.177  1.00  0.00     0.308 C 
ATOM      3  O   UNL A   1      33.019  20.530  25.381  1.00  0.00    -0.252 OA
BRANCH   2   4
ATOM      4  C   UNL A   1      33.306  22.772  24.560  1.00  0.00     0.156 C 
BRANCH   4   5
ATOM      5  C   UNL A   1      32.501  23.681  25.485  1.00  0.00     0.148 C 
ATOM      6  N   UNL A   1      31.667  25.972  25.910  1.00  0.00    -0.337 N 
ATOM      7  C   UNL A   1      30.301  25.462  25.838  1.00  0.00     0.148 C 
ATOM      8  C   UNL A   1      32.607  25.181  25.110  1.00  0.00     0.152 C 
ATOM      9  C   UNL A   1      30.263  23.995  26.249  1.00  0.00     0.182 C 
ATOM     10  O   UNL A   1      31.123  23.232  25.388  1.00  0.00    -0.374 OA
BRANCH   6  11
ATOM     11  C   UNL A   1      32.110  27.136  26.503  1.00  0.00     0.231 C 
ATOM     12  O   UNL A   1      31.914  27.333  27.710  1.00  0.00    -0.274 OA
BRANCH  11  13
ATOM     13  C   UNL A   1      32.661  28.295  25.656  1.00  0.00     0.130 C 
ATOM     14  C   UNL A   1      33.970  28.793  26.271  1.00  0.00     0.024 C 
BRANCH  13  15
ATOM     15  C   UNL A   1      31.685  29.425  25.315  1.00  0.00     0.273 C 
BRANCH  15  16
ATOM     16  N   UNL A   1      31.417  29.665  23.892  1.00  0.00    -0.346 N 
ATOM     17  H   UNL A   1      30.561  30.214  23.816  1.00  0.00     0.346 HD
ATOM     18  H   UNL A   1      32.234  30.149  23.520  1.00  0.00     0.346 HD
BRANCH  16  19
ATOM     19  C   UNL A   1      31.254  28.454  23.099  1.00  0.00     0.257 C 
ATOM     20  C   UNL A   1      29.768  28.192  22.907  1.00  0.00     0.071 C 
ENDBRANCH  16  19
ENDBRANCH  15  16
ENDBRANCH  13  15
ENDBRANCH  11  13
ENDBRANCH   6  11
ENDBRANCH   4   5
ENDBRANCH   2   4
ENDBRANCH   1   2
BRANCH   1  21
ATOM     21  C   UNL A   1      35.813  20.267  25.016  1.00  0.00     0.274 C 
BRANCH  21  22
ATOM     22  C   UNL A   1      37.261  20.570  24.623  1.00  0.00     0.275 C 
BRANCH  22  23
ATOM     23  O   UNL A   1      37.825  21.606  25.447  1.00  0.00    -0.458 OA
BRANCH  23  24
ATOM     24  C   UNL A   1      38.994  21.290  26.051  1.00  0.00     0.338 C 
ATOM     25  O   UNL A   1      39.533  20.197  26.077  1.00  0.00    -0.246 OA
BRANCH  24  26
ATOM     26  C   UNL A   1      39.622  22.511  26.581  1.00  0.00     0.060 A 
ATOM     27  C   UNL A   1      39.151  23.749  26.131  1.00  0.00     0.016 A 
ATOM     28  C   UNL A   1      40.702  22.440  27.463  1.00  0.00     0.016 A 
ATOM     29  C   UNL A   1      39.761  24.924  26.563  1.00  0.00     0.010 A 
ATOM     30  C   UNL A   1      41.312  23.622  27.896  1.00  0.00     0.010 A 
ATOM     31  C   UNL A   1      40.851  24.870  27.442  1.00  0.00    -0.014 A 
BRANCH  31  32
ATOM     32  C   UNL A   1      41.540  26.121  27.849  1.00  0.00     0.031 A 
ATOM     33  C   UNL A   1      40.794  27.158  28.641  1.00  0.00     0.074 A 
ATOM     34  C   UNL A   1      42.829  26.319  27.515  1.00  0.00     0.049 A 
ATOM     35  N   UNL A   1      41.182  28.346  29.026  1.00  0.00    -0.248 NA
ATOM     36  C   UNL A   1      39.426  26.809  29.048  1.00  0.00     0.031 C 
ATOM     37  C   UNL A   1      43.665  25.365  26.785  1.00  0.00     0.029 A 
ATOM     38  N   UNL A   1      43.659  27.387  27.741  1.00  0.00    -0.354 N 
ATOM     39  C   UNL A   1      40.105  28.894  29.714  1.00  0.00     0.074 A 
ATOM     40  C   UNL A   1      39.037  27.916  29.662  1.00  0.00     0.031 C 
ATOM     41  C   UNL A   1      44.888  25.894  26.619  1.00  0.00     0.029 A 
ATOM     42  C   UNL A   1      44.909  27.239  27.188  1.00  0.00     0.049 A 
ATOM     43  H   UNL A   1      43.387  28.184  28.252  1.00  0.00     0.167 HD
ATOM     44  C   UNL A   1      40.020  30.098  30.333  1.00  0.00     0.034 A 
ATOM     45  C   UNL A   1      45.942  28.103  27.118  1.00  0.00     0.034 A 
ATOM     46  C   UNL A   1      41.093  31.062  30.366  1.00  0.00     0.049 A 
ATOM     47  C   UNL A   1      45.796  29.468  27.745  1.00  0.00     0.074 A 
ATOM     48  C   UNL A   1      41.117  32.308  30.972  1.00  0.00     0.029 A 
ATOM     49  N   UNL A   1      42.332  30.896  29.761  1.00  0.00    -0.354 N 
ATOM     50  N   UNL A   1      44.769  29.976  28.386  1.00  0.00    -0.248 NA
ATOM     51  C   UNL A   1      46.949  30.372  27.642  1.00  0.00     0.031 C 
ATOM     52  C   UNL A   1      42.342  32.918  30.678  1.00  0.00     0.029 A 
ATOM     53  C   UNL A   1      43.115  32.026  29.951  1.00  0.00     0.049 A 
ATOM     54  H   UNL A   1      42.615  30.093  29.267  1.00  0.00     0.167 HD
ATOM     55  C   UNL A   1      45.164  31.251  28.784  1.00  0.00     0.074 A 
ATOM     56  C   UNL A   1      46.527  31.425  28.324  1.00  0.00     0.031 C 
ATOM     57  C   UNL A   1      44.468  32.191  29.473  1.00  0.00     0.034 A 
BRANCH  44  58
ATOM     58  C   UNL A   1      38.700  30.453  30.974  1.00  0.00     0.023 A 
ATOM     59  C   UNL A   1      37.664  31.067  30.248  1.00  0.00     0.031 A 
ATOM     60  C   UNL A   1      38.485  30.201  32.341  1.00  0.00     0.131 A 
ATOM     61  C   UNL A   1      36.491  31.470  30.905  1.00  0.00     0.055 A 
ATOM     62  C   UNL A   1      37.286  30.535  32.973  1.00  0.00     0.041 A 
ATOM     63  F   UNL A   1      39.446  29.638  33.091  1.00  0.00    -0.206 F 
ATOM     64  C   UNL A   1      36.285  31.187  32.257  1.00  0.00     0.022 A 
BRANCH  61  65
ATOM     65  S   UNL A   1      35.297  32.492  30.001  1.00  0.00     0.124 S 
ATOM     66  O   UNL A   1      34.985  31.641  28.855  1.00  0.00    -0.237 OA
ATOM     67  O   UNL A   1      34.227  32.667  30.976  1.00  0.00    -0.237 OA
ATOM     68  O   UNL A   1      36.053  33.702  29.681  1.00  0.00    -0.744 OA
ENDBRANCH  61  65
ENDBRANCH  44  58
BRANCH  45  69
ATOM     69  C   UNL A   1      47.188  27.733  26.388  1.00  0.00     0.023 A 
ATOM     70  C   UNL A   1      47.304  27.921  25.002  1.00  0.00     0.031 A 
ATOM     71  C   UNL A   1      48.267  27.134  27.064  1.00  0.00     0.131 A 
ATOM     72  C   UNL A   1      48.453  27.476  24.330  1.00  0.00     0.055 A 
ATOM     73  C   UNL A   1      49.429  26.742  26.400  1.00  0.00     0.041 A 
ATOM     74  F   UNL A   1      48.207  26.928  28.390  1.00  0.00    -0.206 F 
ATOM     75  C   UNL A   1      49.522  26.900  25.021  1.00  0.00     0.022 A 
BRANCH  72  76
ATOM     76  S   UNL A   1      48.496  27.581  22.519  1.00  0.00     0.124 S 
ATOM     77  O   UNL A   1      48.498  26.174  22.139  1.00  0.00    -0.237 OA
ATOM     78  O   UNL A   1      47.274  28.324  22.230  1.00  0.00    -0.237 OA
ATOM     79  O   UNL A   1      49.739  28.302  22.250  1.00  0.00    -0.744 OA
ENDBRANCH  72  76
ENDBRANCH  45  69
BRANCH  57  80
ATOM     80  C   UNL A   1      45.193  33.473  29.804  1.00  0.00     0.023 A 
ATOM     81  C   UNL A   1      45.180  34.576  28.935  1.00  0.00     0.031 A 
ATOM     82  C   UNL A   1      45.920  33.582  31.002  1.00  0.00     0.131 A 
ATOM     83  C   UNL A   1      45.927  35.723  29.249  1.00  0.00     0.055 A 
ATOM     84  C   UNL A   1      46.615  34.745  31.336  1.00  0.00     0.041 A 
ATOM     85  F   UNL A   1      45.968  32.557  31.868  1.00  0.00    -0.206 F 
ATOM     86  C   UNL A   1      46.632  35.819  30.452  1.00  0.00     0.022 A 
BRANCH  83  87
ATOM     87  S   UNL A   1      46.035  37.057  28.025  1.00  0.00     0.124 S 
ATOM     88  O   UNL A   1      45.543  36.402  26.817  1.00  0.00    -0.237 OA
ATOM     89  O   UNL A   1      45.163  38.078  28.597  1.00  0.00    -0.237 OA
ATOM     90  O   UNL A   1      47.457  37.396  28.012  1.00  0.00    -0.744 OA
ENDBRANCH  83  87
ENDBRANCH  57  80
ENDBRANCH  31  32
ENDBRANCH  24  26
ENDBRANCH  23  24
ENDBRANCH  22  23
ENDBRANCH  21  22
ENDBRANCH   1  21
TORSDOF 20
ENDMDL
