MODEL 1
REMARK VINA RESULT:     -13.5      0.000      0.000
REMARK SMILES COc1ccccc1[C@@H]1C[N@@H+](Cc2cn3cc(C)ccc3n2)C[C@H]1C(=O)OCCOC(=O)c1ccc(-c2c3nc(c(-c4cc(S(=O)(=O)[O-])ccc4F)c4ccc([nH]4)c(-c4cc(S(=O)(=O)[O-])ccc4F)c4nc(c(-c5cc(S(=O)(=O)[O-])ccc5F)c5ccc2[nH]5)C=C4)C=C3)cc1
REMARK SMILES IDX 29 1 28 2 27 3 25 4 26 5 24 6 9 7 10 8 11 9 23 10 8 12 3 13
REMARK SMILES IDX 4 14 5 15 7 16 6 17 2 18 1 19 12 20 13 21 14 22 22 23 15 24
REMARK SMILES IDX 21 25 16 26 20 27 17 28 19 29 18 30 30 31 31 32 32 33 33 34
REMARK SMILES IDX 34 35 95 36 35 37 94 38 36 39 37 40 38 41 88 42 39 43 93 44
REMARK SMILES IDX 87 45 89 46 40 47 92 48 86 49 85 50 41 52 73 53 53 54 72 55
REMARK SMILES IDX 54 56 57 57 71 58 90 59 55 60 56 61 70 63 91 64 58 65 42 66
REMARK SMILES IDX 43 67 51 68 44 69 50 70 52 71 49 72 45 73 46 74 47 75 48 76
REMARK SMILES IDX 74 77 75 78 83 79 76 80 82 81 84 82 81 83 77 84 78 85 79 86
REMARK SMILES IDX 80 87 59 88 60 89 68 90 61 91 67 92 69 93 66 94 62 95 63 96
REMARK SMILES IDX 64 97 65 98
REMARK H PARENT 11 11 89 51 57 62
REMARK Flexibility Score: inf
ROOT
ATOM      1  C   UNL A   1      33.454  30.865  27.261  1.00  0.00     0.275 C 
ENDROOT
BRANCH   1   2
ATOM      2  C   UNL A   1      32.452  29.716  27.201  1.00  0.00     0.274 C 
BRANCH   2   3
ATOM      3  O   UNL A   1      33.066  28.416  27.315  1.00  0.00    -0.462 OA
BRANCH   3   4
ATOM      4  C   UNL A   1      32.480  27.382  26.657  1.00  0.00     0.315 C 
ATOM      5  O   UNL A   1      31.330  27.003  26.857  1.00  0.00    -0.252 OA
BRANCH   4   6
ATOM      6  C   UNL A   1      33.430  26.635  25.742  1.00  0.00     0.167 C 
ATOM      7  C   UNL A   1      33.059  25.235  25.246  1.00  0.00     0.098 C 
ATOM      8  C   UNL A   1      33.835  25.166  23.918  1.00  0.00     0.272 C 
ATOM      9  N   UNL A   1      33.784  26.513  23.333  1.00  0.00    -0.329 N 
ATOM     10  C   UNL A   1      33.633  27.450  24.457  1.00  0.00     0.278 C 
ATOM     11  H   UNL A   1      34.647  26.706  22.826  1.00  0.00     0.348 HD
BRANCH   7  12
ATOM     12  C   UNL A   1      33.326  23.997  26.089  1.00  0.00     0.004 A 
ATOM     13  C   UNL A   1      32.388  23.385  26.939  1.00  0.00     0.122 A 
ATOM     14  C   UNL A   1      32.738  22.278  27.728  1.00  0.00     0.047 A 
ATOM     15  C   UNL A   1      34.037  21.769  27.690  1.00  0.00     0.004 A 
ATOM     16  C   UNL A   1      34.638  23.478  26.098  1.00  0.00     0.008 A 
ATOM     17  C   UNL A   1      34.992  22.378  26.884  1.00  0.00     0.001 A 
BRANCH  13  18
ATOM     18  O   UNL A   1      31.168  23.971  27.143  1.00  0.00    -0.496 OA
ATOM     19  C   UNL A   1      30.085  23.073  26.930  1.00  0.00     0.278 C 
ENDBRANCH  13  18
ENDBRANCH   7  12
BRANCH   9  20
ATOM     20  C   UNL A   1      32.774  26.676  22.271  1.00  0.00     0.321 C 
BRANCH  20  21
ATOM     21  C   UNL A   1      31.581  27.500  22.653  1.00  0.00     0.114 A 
ATOM     22  C   UNL A   1      31.507  28.875  22.792  1.00  0.00     0.122 A 
ATOM     23  N   UNL A   1      30.344  26.931  22.875  1.00  0.00    -0.228 NA
ATOM     24  N   UNL A   1      30.179  29.162  22.966  1.00  0.00    -0.306 N 
ATOM     25  C   UNL A   1      29.513  27.945  23.022  1.00  0.00     0.137 A 
ATOM     26  C   UNL A   1      29.547  30.398  23.061  1.00  0.00     0.096 A 
ATOM     27  C   UNL A   1      28.101  27.996  23.184  1.00  0.00     0.048 A 
ATOM     28  C   UNL A   1      28.210  30.450  23.219  1.00  0.00    -0.034 A 
ATOM     29  C   UNL A   1      27.475  29.186  23.266  1.00  0.00     0.009 A 
ATOM     30  C   UNL A   1      27.441  31.730  23.317  1.00  0.00     0.046 C 
ENDBRANCH  20  21
ENDBRANCH   9  20
ENDBRANCH   4   6
ENDBRANCH   3   4
ENDBRANCH   2   3
ENDBRANCH   1   2
BRANCH   1  31
ATOM     31  O   UNL A   1      34.796  30.406  27.414  1.00  0.00    -0.458 OA
BRANCH  31  32
ATOM     32  C   UNL A   1      35.617  31.370  27.889  1.00  0.00     0.338 C 
ATOM     33  O   UNL A   1      35.610  32.553  27.596  1.00  0.00    -0.246 OA
BRANCH  32  34
ATOM     34  C   UNL A   1      36.671  30.781  28.701  1.00  0.00     0.060 A 
ATOM     35  C   UNL A   1      37.751  31.588  29.059  1.00  0.00     0.016 A 
ATOM     36  C   UNL A   1      36.710  29.390  28.815  1.00  0.00     0.016 A 
ATOM     37  C   UNL A   1      38.949  30.988  29.385  1.00  0.00     0.010 A 
ATOM     38  C   UNL A   1      37.900  28.793  29.162  1.00  0.00     0.010 A 
ATOM     39  C   UNL A   1      39.029  29.593  29.369  1.00  0.00    -0.014 A 
BRANCH  39  40
ATOM     40  C   UNL A   1      40.311  28.973  29.666  1.00  0.00     0.031 A 
ATOM     41  C   UNL A   1      40.643  28.897  31.108  1.00  0.00     0.074 A 
ATOM     42  C   UNL A   1      41.030  28.341  28.717  1.00  0.00     0.049 A 
ATOM     43  N   UNL A   1      41.727  29.264  31.707  1.00  0.00    -0.248 NA
ATOM     44  C   UNL A   1      39.580  28.440  32.019  1.00  0.00     0.031 C 
ATOM     45  C   UNL A   1      40.625  28.125  27.323  1.00  0.00     0.029 A 
ATOM     46  N   UNL A   1      42.186  27.624  28.827  1.00  0.00    -0.354 N 
ATOM     47  C   UNL A   1      41.564  28.891  33.038  1.00  0.00     0.074 A 
ATOM     48  C   UNL A   1      40.178  28.556  33.203  1.00  0.00     0.031 C 
ATOM     49  C   UNL A   1      41.380  27.141  26.794  1.00  0.00     0.029 A 
ATOM     50  C   UNL A   1      42.394  26.755  27.764  1.00  0.00     0.049 A 
ATOM     51  H   UNL A   1      42.811  27.715  29.583  1.00  0.00     0.167 HD
ATOM     52  C   UNL A   1      42.635  28.658  33.841  1.00  0.00     0.034 A 
ATOM     53  C   UNL A   1      43.281  25.733  27.692  1.00  0.00     0.034 A 
ATOM     54  C   UNL A   1      43.833  29.251  33.303  1.00  0.00     0.049 A 
ATOM     55  C   UNL A   1      44.357  25.983  28.674  1.00  0.00     0.074 A 
ATOM     56  C   UNL A   1      44.318  30.531  33.152  1.00  0.00     0.029 A 
ATOM     57  N   UNL A   1      44.605  28.433  32.518  1.00  0.00    -0.354 N 
ATOM     58  N   UNL A   1      45.176  26.994  28.598  1.00  0.00    -0.248 NA
ATOM     59  C   UNL A   1      44.352  25.293  29.959  1.00  0.00     0.031 C 
ATOM     60  C   UNL A   1      45.214  30.484  32.046  1.00  0.00     0.029 A 
ATOM     61  C   UNL A   1      45.253  29.176  31.562  1.00  0.00     0.049 A 
ATOM     62  H   UNL A   1      44.684  27.457  32.624  1.00  0.00     0.167 HD
ATOM     63  C   UNL A   1      45.442  27.329  29.911  1.00  0.00     0.074 A 
ATOM     64  C   UNL A   1      45.077  26.152  30.683  1.00  0.00     0.031 C 
ATOM     65  C   UNL A   1      45.629  28.631  30.270  1.00  0.00     0.034 A 
BRANCH  52  66
ATOM     66  C   UNL A   1      42.693  27.582  34.908  1.00  0.00     0.023 A 
ATOM     67  C   UNL A   1      43.405  26.406  34.601  1.00  0.00     0.031 A 
ATOM     68  C   UNL A   1      41.874  27.516  36.060  1.00  0.00     0.131 A 
ATOM     69  C   UNL A   1      43.233  25.233  35.357  1.00  0.00     0.055 A 
ATOM     70  C   UNL A   1      41.758  26.367  36.848  1.00  0.00     0.041 A 
ATOM     71  F   UNL A   1      41.067  28.514  36.437  1.00  0.00    -0.206 F 
ATOM     72  C   UNL A   1      42.417  25.208  36.483  1.00  0.00     0.022 A 
BRANCH  69  73
ATOM     73  S   UNL A   1      43.956  23.690  34.739  1.00  0.00     0.124 S 
ATOM     74  O   UNL A   1      44.526  23.116  35.953  1.00  0.00    -0.237 OA
ATOM     75  O   UNL A   1      42.787  23.012  34.189  1.00  0.00    -0.237 OA
ATOM     76  O   UNL A   1      44.933  24.148  33.753  1.00  0.00    -0.744 OA
ENDBRANCH  69  73
ENDBRANCH  52  66
BRANCH  53  77
ATOM     77  C   UNL A   1      43.109  24.459  26.956  1.00  0.00     0.023 A 
ATOM     78  C   UNL A   1      44.070  23.982  26.050  1.00  0.00     0.031 A 
ATOM     79  C   UNL A   1      42.060  23.576  27.305  1.00  0.00     0.131 A 
ATOM     80  C   UNL A   1      43.959  22.676  25.525  1.00  0.00     0.055 A 
ATOM     81  C   UNL A   1      41.945  22.294  26.770  1.00  0.00     0.041 A 
ATOM     82  F   UNL A   1      41.157  23.906  28.242  1.00  0.00    -0.206 F 
ATOM     83  C   UNL A   1      42.902  21.834  25.881  1.00  0.00     0.022 A 
BRANCH  80  84
ATOM     84  S   UNL A   1      45.273  22.016  24.455  1.00  0.00     0.124 S 
ATOM     85  O   UNL A   1      44.558  21.020  23.667  1.00  0.00    -0.237 OA
ATOM     86  O   UNL A   1      45.723  23.207  23.743  1.00  0.00    -0.237 OA
ATOM     87  O   UNL A   1      46.242  21.470  25.406  1.00  0.00    -0.744 OA
ENDBRANCH  80  84
ENDBRANCH  53  77
BRANCH  65  88
ATOM     88  C   UNL A   1      46.059  29.591  29.187  1.00  0.00     0.023 A 
ATOM     89  C   UNL A   1      45.174  30.374  28.414  1.00  0.00     0.031 A 
ATOM     90  C   UNL A   1      47.438  29.751  28.969  1.00  0.00     0.131 A 
ATOM     91  C   UNL A   1      45.682  31.261  27.448  1.00  0.00     0.055 A 
ATOM     92  C   UNL A   1      47.939  30.645  28.025  1.00  0.00     0.041 A 
ATOM     93  F   UNL A   1      48.328  29.052  29.694  1.00  0.00    -0.206 F 
ATOM     94  C   UNL A   1      47.061  31.398  27.252  1.00  0.00     0.022 A 
BRANCH  91  95
ATOM     95  S   UNL A   1      44.549  32.239  26.411  1.00  0.00     0.124 S 
ATOM     96  O   UNL A   1      44.095  33.301  27.302  1.00  0.00    -0.237 OA
ATOM     97  O   UNL A   1      45.411  32.656  25.307  1.00  0.00    -0.237 OA
ATOM     98  O   UNL A   1      43.513  31.275  26.037  1.00  0.00    -0.744 OA
ENDBRANCH  91  95
ENDBRANCH  65  88
ENDBRANCH  39  40
ENDBRANCH  32  34
ENDBRANCH  31  32
ENDBRANCH   1  31
TORSDOF 18
ENDMDL
MODEL 2
REMARK VINA RESULT:     -13.0      3.585      9.281
REMARK SMILES COc1ccccc1[C@@H]1C[N@@H+](Cc2cn3cc(C)ccc3n2)C[C@H]1C(=O)OCCOC(=O)c1ccc(-c2c3nc(c(-c4cc(S(=O)(=O)[O-])ccc4F)c4ccc([nH]4)c(-c4cc(S(=O)(=O)[O-])ccc4F)c4nc(c(-c5cc(S(=O)(=O)[O-])ccc5F)c5ccc2[nH]5)C=C4)C=C3)cc1
REMARK SMILES IDX 29 1 28 2 27 3 25 4 26 5 24 6 9 7 10 8 11 9 23 10 8 12 3 13
REMARK SMILES IDX 4 14 5 15 7 16 6 17 2 18 1 19 12 20 13 21 14 22 22 23 15 24
REMARK SMILES IDX 21 25 16 26 20 27 17 28 19 29 18 30 30 31 31 32 32 33 33 34
REMARK SMILES IDX 34 35 95 36 35 37 94 38 36 39 37 40 38 41 88 42 39 43 93 44
REMARK SMILES IDX 87 45 89 46 40 47 92 48 86 49 85 50 41 52 73 53 53 54 72 55
REMARK SMILES IDX 54 56 57 57 71 58 90 59 55 60 56 61 70 63 91 64 58 65 42 66
REMARK SMILES IDX 43 67 51 68 44 69 50 70 52 71 49 72 45 73 46 74 47 75 48 76
REMARK SMILES IDX 74 77 75 78 83 79 76 80 82 81 84 82 81 83 77 84 78 85 79 86
REMARK SMILES IDX 80 87 59 88 60 89 68 90 61 91 67 92 69 93 66 94 62 95 63 96
REMARK SMILES IDX 64 97 65 98
REMARK H PARENT 11 11 89 51 57 62
REMARK Flexibility Score: inf
ROOT
ATOM      1  C   UNL A   1      38.584  21.894  25.790  1.00  0.00     0.275 C 
ENDROOT
BRANCH   1   2
ATOM      2  C   UNL A   1      37.443  22.008  24.783  1.00  0.00     0.274 C 
BRANCH   2   3
ATOM      3  O   UNL A   1      37.044  23.368  24.524  1.00  0.00    -0.462 OA
BRANCH   3   4
ATOM      4  C   UNL A   1      35.765  23.585  24.119  1.00  0.00     0.315 C 
ATOM      5  O   UNL A   1      35.334  23.282  23.010  1.00  0.00    -0.252 OA
BRANCH   4   6
ATOM      6  C   UNL A   1      34.942  24.373  25.119  1.00  0.00     0.167 C 
ATOM      7  C   UNL A   1      33.619  25.005  24.679  1.00  0.00     0.098 C 
ATOM      8  C   UNL A   1      32.846  25.052  26.009  1.00  0.00     0.272 C 
ATOM      9  N   UNL A   1      33.210  23.836  26.748  1.00  0.00    -0.329 N 
ATOM     10  C   UNL A   1      34.552  23.451  26.283  1.00  0.00     0.278 C 
ATOM     11  H   UNL A   1      33.225  24.028  27.749  1.00  0.00     0.348 HD
BRANCH   7  12
ATOM     12  C   UNL A   1      33.578  26.358  23.984  1.00  0.00     0.004 A 
ATOM     13  C   UNL A   1      33.466  26.547  22.596  1.00  0.00     0.122 A 
ATOM     14  C   UNL A   1      33.495  27.834  22.035  1.00  0.00     0.047 A 
ATOM     15  C   UNL A   1      33.649  28.955  22.850  1.00  0.00     0.004 A 
ATOM     16  C   UNL A   1      33.763  27.510  24.779  1.00  0.00     0.008 A 
ATOM     17  C   UNL A   1      33.796  28.793  24.223  1.00  0.00     0.001 A 
BRANCH  13  18
ATOM     18  O   UNL A   1      33.506  25.468  21.755  1.00  0.00    -0.496 OA
ATOM     19  C   UNL A   1      32.611  25.595  20.656  1.00  0.00     0.278 C 
ENDBRANCH  13  18
ENDBRANCH   7  12
BRANCH   9  20
ATOM     20  C   UNL A   1      32.211  22.754  26.668  1.00  0.00     0.321 C 
BRANCH  20  21
ATOM     21  C   UNL A   1      32.573  21.624  25.752  1.00  0.00     0.114 A 
ATOM     22  C   UNL A   1      33.394  20.543  26.019  1.00  0.00     0.122 A 
ATOM     23  N   UNL A   1      32.050  21.523  24.479  1.00  0.00    -0.228 NA
ATOM     24  N   UNL A   1      33.264  19.701  24.947  1.00  0.00    -0.306 N 
ATOM     25  C   UNL A   1      32.444  20.347  24.031  1.00  0.00     0.137 A 
ATOM     26  C   UNL A   1      33.800  18.432  24.750  1.00  0.00     0.096 A 
ATOM     27  C   UNL A   1      32.150  19.644  22.830  1.00  0.00     0.048 A 
ATOM     28  C   UNL A   1      33.527  17.765  23.612  1.00  0.00    -0.034 A 
ATOM     29  C   UNL A   1      32.654  18.410  22.631  1.00  0.00     0.009 A 
ATOM     30  C   UNL A   1      34.046  16.392  23.315  1.00  0.00     0.046 C 
ENDBRANCH  20  21
ENDBRANCH   9  20
ENDBRANCH   4   6
ENDBRANCH   3   4
ENDBRANCH   2   3
ENDBRANCH   1   2
BRANCH   1  31
ATOM     31  O   UNL A   1      38.800  23.110  26.504  1.00  0.00    -0.458 OA
BRANCH  31  32
ATOM     32  C   UNL A   1      39.963  23.100  27.194  1.00  0.00     0.338 C 
ATOM     33  O   UNL A   1      40.487  22.145  27.740  1.00  0.00    -0.246 OA
BRANCH  32  34
ATOM     34  C   UNL A   1      40.460  24.458  27.364  1.00  0.00     0.060 A 
ATOM     35  C   UNL A   1      41.595  24.645  28.152  1.00  0.00     0.016 A 
ATOM     36  C   UNL A   1      39.621  25.512  27.003  1.00  0.00     0.016 A 
ATOM     37  C   UNL A   1      41.809  25.881  28.726  1.00  0.00     0.010 A 
ATOM     38  C   UNL A   1      39.848  26.751  27.558  1.00  0.00     0.010 A 
ATOM     39  C   UNL A   1      40.894  26.906  28.475  1.00  0.00    -0.014 A 
BRANCH  39  40
ATOM     40  C   UNL A   1      41.102  28.191  29.124  1.00  0.00     0.031 A 
ATOM     41  C   UNL A   1      42.224  28.988  28.575  1.00  0.00     0.074 A 
ATOM     42  C   UNL A   1      40.217  28.690  30.009  1.00  0.00     0.049 A 
ATOM     43  N   UNL A   1      43.198  29.553  29.207  1.00  0.00    -0.248 NA
ATOM     44  C   UNL A   1      42.325  29.084  27.108  1.00  0.00     0.031 C 
ATOM     45  C   UNL A   1      38.934  28.085  30.387  1.00  0.00     0.029 A 
ATOM     46  N   UNL A   1      40.192  29.903  30.634  1.00  0.00    -0.354 N 
ATOM     47  C   UNL A   1      43.917  30.250  28.241  1.00  0.00     0.074 A 
ATOM     48  C   UNL A   1      43.445  29.788  26.966  1.00  0.00     0.031 C 
ATOM     49  C   UNL A   1      38.158  29.026  30.964  1.00  0.00     0.029 A 
ATOM     50  C   UNL A   1      38.933  30.248  31.109  1.00  0.00     0.049 A 
ATOM     51  H   UNL A   1      40.986  30.476  30.737  1.00  0.00     0.167 HD
ATOM     52  C   UNL A   1      44.677  31.328  28.568  1.00  0.00     0.034 A 
ATOM     53  C   UNL A   1      38.512  31.466  31.529  1.00  0.00     0.034 A 
ATOM     54  C   UNL A   1      44.974  31.351  29.978  1.00  0.00     0.049 A 
ATOM     55  C   UNL A   1      39.699  32.261  31.910  1.00  0.00     0.074 A 
ATOM     56  C   UNL A   1      45.773  30.622  30.830  1.00  0.00     0.029 A 
ATOM     57  N   UNL A   1      44.113  32.081  30.759  1.00  0.00    -0.354 N 
ATOM     58  N   UNL A   1      40.485  31.944  32.900  1.00  0.00    -0.248 NA
ATOM     59  C   UNL A   1      40.237  33.261  30.995  1.00  0.00     0.031 C 
ATOM     60  C   UNL A   1      45.174  30.729  32.119  1.00  0.00     0.029 A 
ATOM     61  C   UNL A   1      44.034  31.526  32.013  1.00  0.00     0.049 A 
ATOM     62  H   UNL A   1      43.624  32.883  30.465  1.00  0.00     0.167 HD
ATOM     63  C   UNL A   1      41.741  32.352  32.495  1.00  0.00     0.074 A 
ATOM     64  C   UNL A   1      41.500  33.313  31.430  1.00  0.00     0.031 C 
ATOM     65  C   UNL A   1      42.849  31.638  32.843  1.00  0.00     0.034 A 
BRANCH  52  66
ATOM     66  C   UNL A   1      44.837  32.563  27.703  1.00  0.00     0.023 A 
ATOM     67  C   UNL A   1      44.157  33.728  28.110  1.00  0.00     0.031 A 
ATOM     68  C   UNL A   1      45.361  32.589  26.389  1.00  0.00     0.131 A 
ATOM     69  C   UNL A   1      43.954  34.799  27.221  1.00  0.00     0.055 A 
ATOM     70  C   UNL A   1      45.215  33.685  25.532  1.00  0.00     0.041 A 
ATOM     71  F   UNL A   1      45.954  31.533  25.821  1.00  0.00    -0.206 F 
ATOM     72  C   UNL A   1      44.484  34.786  25.935  1.00  0.00     0.022 A 
BRANCH  69  73
ATOM     73  S   UNL A   1      42.833  36.135  27.716  1.00  0.00     0.124 S 
ATOM     74  O   UNL A   1      42.776  36.945  26.504  1.00  0.00    -0.237 OA
ATOM     75  O   UNL A   1      41.622  35.397  28.058  1.00  0.00    -0.237 OA
ATOM     76  O   UNL A   1      43.527  36.754  28.844  1.00  0.00    -0.744 OA
ENDBRANCH  69  73
ENDBRANCH  52  66
BRANCH  53  77
ATOM     77  C   UNL A   1      37.146  32.024  31.406  1.00  0.00     0.023 A 
ATOM     78  C   UNL A   1      36.565  32.314  30.160  1.00  0.00     0.031 A 
ATOM     79  C   UNL A   1      36.302  32.086  32.539  1.00  0.00     0.131 A 
ATOM     80  C   UNL A   1      35.197  32.655  30.082  1.00  0.00     0.055 A 
ATOM     81  C   UNL A   1      34.956  32.442  32.459  1.00  0.00     0.041 A 
ATOM     82  F   UNL A   1      36.743  31.723  33.754  1.00  0.00    -0.206 F 
ATOM     83  C   UNL A   1      34.394  32.720  31.225  1.00  0.00     0.022 A 
BRANCH  80  84
ATOM     84  S   UNL A   1      34.418  32.902  28.458  1.00  0.00     0.124 S 
ATOM     85  O   UNL A   1      33.905  31.571  28.155  1.00  0.00    -0.237 OA
ATOM     86  O   UNL A   1      33.425  33.932  28.741  1.00  0.00    -0.237 OA
ATOM     87  O   UNL A   1      35.529  33.341  27.612  1.00  0.00    -0.744 OA
ENDBRANCH  80  84
ENDBRANCH  53  77
BRANCH  65  88
ATOM     88  C   UNL A   1      42.745  30.753  34.063  1.00  0.00     0.023 A 
ATOM     89  C   UNL A   1      42.551  29.355  34.023  1.00  0.00     0.031 A 
ATOM     90  C   UNL A   1      42.901  31.359  35.321  1.00  0.00     0.131 A 
ATOM     91  C   UNL A   1      42.497  28.619  35.221  1.00  0.00     0.055 A 
ATOM     92  C   UNL A   1      42.867  30.624  36.505  1.00  0.00     0.041 A 
ATOM     93  F   UNL A   1      43.114  32.682  35.419  1.00  0.00    -0.206 F 
ATOM     94  C   UNL A   1      42.655  29.250  36.459  1.00  0.00     0.022 A 
BRANCH  91  95
ATOM     95  S   UNL A   1      42.198  26.823  35.184  1.00  0.00     0.124 S 
ATOM     96  O   UNL A   1      42.465  26.400  36.553  1.00  0.00    -0.237 OA
ATOM     97  O   UNL A   1      40.805  26.743  34.749  1.00  0.00    -0.237 OA
ATOM     98  O   UNL A   1      43.167  26.338  34.198  1.00  0.00    -0.744 OA
ENDBRANCH  91  95
ENDBRANCH  65  88
ENDBRANCH  39  40
ENDBRANCH  32  34
ENDBRANCH  31  32
ENDBRANCH   1  31
TORSDOF 18
ENDMDL
MODEL 3
REMARK VINA RESULT:     -13.0      2.072      6.742
REMARK SMILES COc1ccccc1[C@@H]1C[N@@H+](Cc2cn3cc(C)ccc3n2)C[C@H]1C(=O)OCCOC(=O)c1ccc(-c2c3nc(c(-c4cc(S(=O)(=O)[O-])ccc4F)c4ccc([nH]4)c(-c4cc(S(=O)(=O)[O-])ccc4F)c4nc(c(-c5cc(S(=O)(=O)[O-])ccc5F)c5ccc2[nH]5)C=C4)C=C3)cc1
REMARK SMILES IDX 29 1 28 2 27 3 25 4 26 5 24 6 9 7 10 8 11 9 23 10 8 12 3 13
REMARK SMILES IDX 4 14 5 15 7 16 6 17 2 18 1 19 12 20 13 21 14 22 22 23 15 24
REMARK SMILES IDX 21 25 16 26 20 27 17 28 19 29 18 30 30 31 31 32 32 33 33 34
REMARK SMILES IDX 34 35 95 36 35 37 94 38 36 39 37 40 38 41 88 42 39 43 93 44
REMARK SMILES IDX 87 45 89 46 40 47 92 48 86 49 85 50 41 52 73 53 53 54 72 55
REMARK SMILES IDX 54 56 57 57 71 58 90 59 55 60 56 61 70 63 91 64 58 65 42 66
REMARK SMILES IDX 43 67 51 68 44 69 50 70 52 71 49 72 45 73 46 74 47 75 48 76
REMARK SMILES IDX 74 77 75 78 83 79 76 80 82 81 84 82 81 83 77 84 78 85 79 86
REMARK SMILES IDX 80 87 59 88 60 89 68 90 61 91 67 92 69 93 66 94 62 95 63 96
REMARK SMILES IDX 64 97 65 98
REMARK H PARENT 11 11 89 51 57 62
REMARK Flexibility Score: inf
ROOT
ATOM      1  C   UNL A   1      34.112  30.702  27.569  1.00  0.00     0.275 C 
ENDROOT
BRANCH   1   2
ATOM      2  C   UNL A   1      32.850  30.026  27.039  1.00  0.00     0.274 C 
BRANCH   2   3
ATOM      3  O   UNL A   1      33.109  29.082  25.981  1.00  0.00    -0.462 OA
BRANCH   3   4
ATOM      4  C   UNL A   1      32.907  27.765  26.247  1.00  0.00     0.315 C 
ATOM      5  O   UNL A   1      32.253  27.348  27.199  1.00  0.00    -0.252 OA
BRANCH   4   6
ATOM      6  C   UNL A   1      33.688  26.840  25.335  1.00  0.00     0.167 C 
ATOM      7  C   UNL A   1      33.127  25.456  25.000  1.00  0.00     0.098 C 
ATOM      8  C   UNL A   1      33.774  25.188  23.629  1.00  0.00     0.272 C 
ATOM      9  N   UNL A   1      33.819  26.479  22.928  1.00  0.00    -0.329 N 
ATOM     10  C   UNL A   1      33.867  27.517  23.969  1.00  0.00     0.278 C 
ATOM     11  H   UNL A   1      34.651  26.528  22.341  1.00  0.00     0.348 HD
BRANCH   7  12
ATOM     12  C   UNL A   1      33.329  24.270  25.931  1.00  0.00     0.004 A 
ATOM     13  C   UNL A   1      32.327  23.697  26.733  1.00  0.00     0.122 A 
ATOM     14  C   UNL A   1      32.616  22.639  27.609  1.00  0.00     0.047 A 
ATOM     15  C   UNL A   1      33.916  22.142  27.708  1.00  0.00     0.004 A 
ATOM     16  C   UNL A   1      34.639  23.766  26.077  1.00  0.00     0.008 A 
ATOM     17  C   UNL A   1      34.932  22.714  26.951  1.00  0.00     0.001 A 
BRANCH  13  18
ATOM     18  O   UNL A   1      31.091  24.281  26.802  1.00  0.00    -0.496 OA
ATOM     19  C   UNL A   1      30.035  23.328  26.845  1.00  0.00     0.278 C 
ENDBRANCH  13  18
ENDBRANCH   7  12
BRANCH   9  20
ATOM     20  C   UNL A   1      32.745  26.669  21.935  1.00  0.00     0.321 C 
BRANCH  20  21
ATOM     21  C   UNL A   1      31.581  27.486  22.410  1.00  0.00     0.114 A 
ATOM     22  C   UNL A   1      31.493  28.863  22.509  1.00  0.00     0.122 A 
ATOM     23  N   UNL A   1      30.386  26.904  22.779  1.00  0.00    -0.228 NA
ATOM     24  N   UNL A   1      30.185  29.134  22.810  1.00  0.00    -0.306 N 
ATOM     25  C   UNL A   1      29.553  27.908  22.976  1.00  0.00     0.137 A 
ATOM     26  C   UNL A   1      29.541  30.362  22.928  1.00  0.00     0.096 A 
ATOM     27  C   UNL A   1      28.164  27.942  23.281  1.00  0.00     0.048 A 
ATOM     28  C   UNL A   1      28.227  30.397  23.222  1.00  0.00    -0.034 A 
ATOM     29  C   UNL A   1      27.526  29.124  23.388  1.00  0.00     0.009 A 
ATOM     30  C   UNL A   1      27.445  31.667  23.355  1.00  0.00     0.046 C 
ENDBRANCH  20  21
ENDBRANCH   9  20
ENDBRANCH   4   6
ENDBRANCH   3   4
ENDBRANCH   2   3
ENDBRANCH   1   2
BRANCH   1  31
ATOM     31  O   UNL A   1      35.252  29.848  27.502  1.00  0.00    -0.458 OA
BRANCH  31  32
ATOM     32  C   UNL A   1      36.264  30.281  28.287  1.00  0.00     0.338 C 
ATOM     33  O   UNL A   1      36.318  31.328  28.908  1.00  0.00    -0.246 OA
BRANCH  32  34
ATOM     34  C   UNL A   1      37.410  29.391  28.170  1.00  0.00     0.060 A 
ATOM     35  C   UNL A   1      37.701  28.553  29.247  1.00  0.00     0.016 A 
ATOM     36  C   UNL A   1      38.327  29.635  27.147  1.00  0.00     0.016 A 
ATOM     37  C   UNL A   1      38.987  28.077  29.389  1.00  0.00     0.010 A 
ATOM     38  C   UNL A   1      39.604  29.140  27.279  1.00  0.00     0.010 A 
ATOM     39  C   UNL A   1      39.945  28.430  28.436  1.00  0.00    -0.014 A 
BRANCH  39  40
ATOM     40  C   UNL A   1      41.310  27.963  28.622  1.00  0.00     0.031 A 
ATOM     41  C   UNL A   1      41.635  26.702  27.916  1.00  0.00     0.074 A 
ATOM     42  C   UNL A   1      42.245  28.727  29.220  1.00  0.00     0.049 A 
ATOM     43  N   UNL A   1      42.185  25.633  28.385  1.00  0.00    -0.248 NA
ATOM     44  C   UNL A   1      41.194  26.584  26.515  1.00  0.00     0.031 C 
ATOM     45  C   UNL A   1      42.068  30.106  29.689  1.00  0.00     0.029 A 
ATOM     46  N   UNL A   1      43.581  28.503  29.391  1.00  0.00    -0.354 N 
ATOM     47  C   UNL A   1      42.352  24.786  27.293  1.00  0.00     0.074 A 
ATOM     48  C   UNL A   1      41.575  25.343  26.221  1.00  0.00     0.031 C 
ATOM     49  C   UNL A   1      43.281  30.673  29.855  1.00  0.00     0.029 A 
ATOM     50  C   UNL A   1      44.304  29.664  29.630  1.00  0.00     0.049 A 
ATOM     51  H   UNL A   1      43.990  27.608  29.349  1.00  0.00     0.167 HD
ATOM     52  C   UNL A   1      43.308  23.821  27.287  1.00  0.00     0.034 A 
ATOM     53  C   UNL A   1      45.648  29.826  29.580  1.00  0.00     0.034 A 
ATOM     54  C   UNL A   1      43.763  23.526  28.622  1.00  0.00     0.049 A 
ATOM     55  C   UNL A   1      46.283  28.502  29.751  1.00  0.00     0.074 A 
ATOM     56  C   UNL A   1      43.236  22.893  29.727  1.00  0.00     0.029 A 
ATOM     57  N   UNL A   1      44.869  24.219  29.046  1.00  0.00    -0.354 N 
ATOM     58  N   UNL A   1      46.184  27.797  30.844  1.00  0.00    -0.248 NA
ATOM     59  C   UNL A   1      46.780  27.771  28.591  1.00  0.00     0.031 C 
ATOM     60  C   UNL A   1      43.897  23.457  30.856  1.00  0.00     0.029 A 
ATOM     61  C   UNL A   1      44.810  24.409  30.405  1.00  0.00     0.049 A 
ATOM     62  H   UNL A   1      45.597  24.533  28.462  1.00  0.00     0.167 HD
ATOM     63  C   UNL A   1      46.177  26.484  30.413  1.00  0.00     0.074 A 
ATOM     64  C   UNL A   1      46.735  26.524  29.071  1.00  0.00     0.031 C 
ATOM     65  C   UNL A   1      45.429  25.546  31.061  1.00  0.00     0.034 A 
BRANCH  52  66
ATOM     66  C   UNL A   1      44.111  23.412  26.068  1.00  0.00     0.023 A 
ATOM     67  C   UNL A   1      44.014  22.069  25.652  1.00  0.00     0.031 A 
ATOM     68  C   UNL A   1      45.159  24.159  25.480  1.00  0.00     0.131 A 
ATOM     69  C   UNL A   1      44.959  21.510  24.773  1.00  0.00     0.055 A 
ATOM     70  C   UNL A   1      46.056  23.616  24.555  1.00  0.00     0.041 A 
ATOM     71  F   UNL A   1      45.442  25.418  25.833  1.00  0.00    -0.206 F 
ATOM     72  C   UNL A   1      45.978  22.277  24.218  1.00  0.00     0.022 A 
BRANCH  69  73
ATOM     73  S   UNL A   1      44.941  19.718  24.507  1.00  0.00     0.124 S 
ATOM     74  O   UNL A   1      46.316  19.351  24.824  1.00  0.00    -0.237 OA
ATOM     75  O   UNL A   1      43.921  19.286  25.457  1.00  0.00    -0.237 OA
ATOM     76  O   UNL A   1      44.574  19.591  23.098  1.00  0.00    -0.744 OA
ENDBRANCH  69  73
ENDBRANCH  52  66
BRANCH  53  77
ATOM     77  C   UNL A   1      46.380  31.050  29.178  1.00  0.00     0.023 A 
ATOM     78  C   UNL A   1      46.106  31.726  27.978  1.00  0.00     0.031 A 
ATOM     79  C   UNL A   1      47.240  31.695  30.098  1.00  0.00     0.131 A 
ATOM     80  C   UNL A   1      46.686  32.990  27.732  1.00  0.00     0.055 A 
ATOM     81  C   UNL A   1      47.824  32.934  29.842  1.00  0.00     0.041 A 
ATOM     82  F   UNL A   1      47.474  31.174  31.313  1.00  0.00    -0.206 F 
ATOM     83  C   UNL A   1      47.542  33.593  28.657  1.00  0.00     0.022 A 
BRANCH  80  84
ATOM     84  S   UNL A   1      46.227  33.919  26.238  1.00  0.00     0.124 S 
ATOM     85  O   UNL A   1      45.544  35.080  26.795  1.00  0.00    -0.237 OA
ATOM     86  O   UNL A   1      47.522  34.165  25.613  1.00  0.00    -0.237 OA
ATOM     87  O   UNL A   1      45.366  32.987  25.510  1.00  0.00    -0.744 OA
ENDBRANCH  80  84
ENDBRANCH  53  77
BRANCH  65  88
ATOM     88  C   UNL A   1      45.061  25.829  32.499  1.00  0.00     0.023 A 
ATOM     89  C   UNL A   1      43.857  26.441  32.910  1.00  0.00     0.031 A 
ATOM     90  C   UNL A   1      45.958  25.409  33.494  1.00  0.00     0.131 A 
ATOM     91  C   UNL A   1      43.599  26.632  34.280  1.00  0.00     0.055 A 
ATOM     92  C   UNL A   1      45.691  25.582  34.852  1.00  0.00     0.041 A 
ATOM     93  F   UNL A   1      47.108  24.797  33.163  1.00  0.00    -0.206 F 
ATOM     94  C   UNL A   1      44.512  26.204  35.250  1.00  0.00     0.022 A 
BRANCH  91  95
ATOM     95  S   UNL A   1      42.072  27.464  34.821  1.00  0.00     0.124 S 
ATOM     96  O   UNL A   1      41.439  27.869  33.572  1.00  0.00    -0.237 OA
ATOM     97  O   UNL A   1      41.389  26.413  35.573  1.00  0.00    -0.237 OA
ATOM     98  O   UNL A   1      42.562  28.573  35.642  1.00  0.00    -0.744 OA
ENDBRANCH  91  95
ENDBRANCH  65  88
ENDBRANCH  39  40
ENDBRANCH  32  34
ENDBRANCH  31  32
ENDBRANCH   1  31
TORSDOF 18
ENDMDL
