MODEL 1
REMARK VINA RESULT:     -11.2      0.000      0.000
REMARK SMILES CCN(CC)c1ccc([C@@H]2c3[nH]c4ccccc4c3C[C@@H](C(=O)OCCOC(=O)c3ccc(-c4c5nc(c(-c6cc(S(=O)(=O)[O-])ccc6F)c6ccc([nH]6)c(-c6cc(S(=O)(=O)[O-])ccc6F)c6nc(c(-c7cc(S(=O)(=O)[O-])ccc7F)c7ccc4[nH]7)C=C6)C=C5)cc3)N2C(C)=O)cc1
REMARK SMILES IDX 25 1 24 2 22 3 23 4 21 5 10 6 11 7 93 8 12 9 19 10 13 11
REMARK SMILES IDX 18 13 20 14 14 15 17 16 15 17 16 18 9 19 6 20 7 21 98 22
REMARK SMILES IDX 8 23 97 24 3 25 2 26 1 27 4 28 5 29 94 30 95 31 96 32 26 33
REMARK SMILES IDX 27 34 28 35 29 36 30 37 31 38 92 39 32 40 91 41 33 42 34 43
REMARK SMILES IDX 35 44 85 45 36 46 90 47 84 48 86 49 37 50 89 51 83 52 82 53
REMARK SMILES IDX 38 55 70 56 50 57 69 58 51 59 54 60 68 61 87 62 52 63 53 64
REMARK SMILES IDX 67 66 88 67 55 68 39 69 40 70 48 71 41 72 47 73 49 74 46 75
REMARK SMILES IDX 42 76 43 77 44 78 45 79 71 80 72 81 80 82 73 83 79 84 81 85
REMARK SMILES IDX 78 86 74 87 75 88 76 89 77 90 56 91 57 92 65 93 58 94 64 95
REMARK SMILES IDX 66 96 63 97 59 98 60 99 61 100 62 101
REMARK H PARENT 12 12 86 54 54 65
REMARK Flexibility Score: inf
ROOT
ATOM      1  C   UNL A   1      34.868  24.197  24.881  1.00  0.00     0.274 C 
ENDROOT
BRANCH   1   2
ATOM      2  O   UNL A   1      34.487  24.552  23.539  1.00  0.00    -0.461 OA
BRANCH   2   3
ATOM      3  C   UNL A   1      33.588  25.535  23.307  1.00  0.00     0.329 C 
ATOM      4  O   UNL A   1      33.699  26.351  22.400  1.00  0.00    -0.250 OA
BRANCH   3   5
ATOM      5  C   UNL A   1      32.585  25.698  24.495  1.00  0.00     0.200 C 
ATOM      6  C   UNL A   1      33.109  28.080  25.121  1.00  0.00     0.163 C 
ATOM      7  C   UNL A   1      31.981  28.429  24.175  1.00  0.00     0.047 A 
ATOM      8  N   UNL A   1      32.731  26.734  25.590  1.00  0.00    -0.316 N 
ATOM      9  N   UNL A   1      31.548  29.675  23.822  1.00  0.00    -0.356 N 
ATOM     10  C   UNL A   1      31.101  27.510  23.601  1.00  0.00    -0.014 A 
ATOM     11  C   UNL A   1      30.203  29.578  23.526  1.00  0.00     0.046 A 
ATOM     12  H   UNL A   1      32.094  30.493  23.787  1.00  0.00     0.166 HD
ATOM     13  C   UNL A   1      29.934  28.233  23.266  1.00  0.00     0.003 A 
ATOM     14  C   UNL A   1      31.256  26.017  23.742  1.00  0.00     0.075 C 
ATOM     15  C   UNL A   1      29.203  30.551  23.547  1.00  0.00     0.026 A 
ATOM     16  C   UNL A   1      28.627  27.838  22.936  1.00  0.00     0.010 A 
ATOM     17  C   UNL A   1      27.891  30.116  23.327  1.00  0.00     0.002 A 
ATOM     18  C   UNL A   1      27.608  28.789  23.005  1.00  0.00     0.001 A 
BRANCH   6  19
ATOM     19  C   UNL A   1      33.589  29.040  26.199  1.00  0.00    -0.019 A 
ATOM     20  C   UNL A   1      34.884  30.949  27.876  1.00  0.00     0.037 A 
ATOM     21  C   UNL A   1      33.624  31.189  27.323  1.00  0.00     0.026 A 
ATOM     22  C   UNL A   1      35.406  29.668  27.700  1.00  0.00     0.026 A 
ATOM     23  C   UNL A   1      32.975  30.248  26.518  1.00  0.00     0.008 A 
ATOM     24  C   UNL A   1      34.774  28.729  26.881  1.00  0.00     0.008 A 
BRANCH  20  25
ATOM     25  N   UNL A   1      35.605  31.937  28.522  1.00  0.00    -0.372 N 
BRANCH  25  26
ATOM     26  C   UNL A   1      36.557  31.548  29.568  1.00  0.00     0.113 C 
ATOM     27  C   UNL A   1      38.009  31.722  29.152  1.00  0.00     0.027 C 
ENDBRANCH  25  26
BRANCH  25  28
ATOM     28  C   UNL A   1      35.540  33.338  28.114  1.00  0.00     0.113 C 
ATOM     29  C   UNL A   1      35.181  34.272  29.264  1.00  0.00     0.027 C 
ENDBRANCH  25  28
ENDBRANCH  20  25
ENDBRANCH   6  19
BRANCH   8  30
ATOM     30  C   UNL A   1      31.793  26.730  26.650  1.00  0.00     0.221 C 
ATOM     31  C   UNL A   1      31.393  28.052  27.240  1.00  0.00     0.114 C 
ATOM     32  O   UNL A   1      31.330  25.707  27.159  1.00  0.00    -0.275 OA
ENDBRANCH   8  30
ENDBRANCH   3   5
ENDBRANCH   2   3
ENDBRANCH   1   2
BRANCH   1  33
ATOM     33  C   UNL A   1      36.128  23.335  24.768  1.00  0.00     0.275 C 
BRANCH  33  34
ATOM     34  O   UNL A   1      36.802  23.442  26.033  1.00  0.00    -0.458 OA
BRANCH  34  35
ATOM     35  C   UNL A   1      37.986  22.799  26.144  1.00  0.00     0.338 C 
ATOM     36  O   UNL A   1      38.279  21.693  25.740  1.00  0.00    -0.246 OA
BRANCH  35  37
ATOM     37  C   UNL A   1      38.915  23.779  26.729  1.00  0.00     0.060 A 
ATOM     38  C   UNL A   1      38.707  25.133  26.442  1.00  0.00     0.016 A 
ATOM     39  C   UNL A   1      39.951  23.377  27.565  1.00  0.00     0.016 A 
ATOM     40  C   UNL A   1      39.533  26.100  26.996  1.00  0.00     0.010 A 
ATOM     41  C   UNL A   1      40.755  24.355  28.157  1.00  0.00     0.010 A 
ATOM     42  C   UNL A   1      40.550  25.719  27.877  1.00  0.00    -0.014 A 
BRANCH  42  43
ATOM     43  C   UNL A   1      41.422  26.759  28.471  1.00  0.00     0.031 A 
ATOM     44  C   UNL A   1      42.855  26.851  28.037  1.00  0.00     0.074 A 
ATOM     45  C   UNL A   1      40.917  27.622  29.372  1.00  0.00     0.049 A 
ATOM     46  N   UNL A   1      43.817  27.599  28.506  1.00  0.00    -0.248 NA
ATOM     47  C   UNL A   1      43.257  25.971  26.928  1.00  0.00     0.031 C 
ATOM     48  C   UNL A   1      39.522  27.656  29.820  1.00  0.00     0.029 A 
ATOM     49  N   UNL A   1      41.515  28.636  30.075  1.00  0.00    -0.354 N 
ATOM     50  C   UNL A   1      44.949  27.263  27.773  1.00  0.00     0.074 A 
ATOM     51  C   UNL A   1      44.554  26.224  26.844  1.00  0.00     0.031 C 
ATOM     52  C   UNL A   1      39.372  28.645  30.716  1.00  0.00     0.029 A 
ATOM     53  C   UNL A   1      40.668  29.272  30.952  1.00  0.00     0.049 A 
ATOM     54  H   UNL A   1      42.460  28.886  29.962  1.00  0.00     0.167 HD
ATOM     55  C   UNL A   1      46.201  27.775  27.874  1.00  0.00     0.034 A 
ATOM     56  C   UNL A   1      40.918  30.229  31.868  1.00  0.00     0.034 A 
ATOM     57  C   UNL A   1      46.563  28.812  28.811  1.00  0.00     0.049 A 
ATOM     58  C   UNL A   1      42.328  30.747  31.995  1.00  0.00     0.074 A 
ATOM     59  C   UNL A   1      47.799  29.398  29.018  1.00  0.00     0.029 A 
ATOM     60  N   UNL A   1      45.685  29.421  29.701  1.00  0.00    -0.354 N 
ATOM     61  N   UNL A   1      43.403  30.391  31.327  1.00  0.00    -0.248 NA
ATOM     62  C   UNL A   1      42.556  31.798  32.993  1.00  0.00     0.031 C 
ATOM     63  C   UNL A   1      47.681  30.316  30.068  1.00  0.00     0.029 A 
ATOM     64  C   UNL A   1      46.355  30.360  30.470  1.00  0.00     0.049 A 
ATOM     65  H   UNL A   1      44.725  29.214  29.775  1.00  0.00     0.167 HD
ATOM     66  C   UNL A   1      44.432  31.192  31.811  1.00  0.00     0.074 A 
ATOM     67  C   UNL A   1      43.841  32.065  32.806  1.00  0.00     0.031 C 
ATOM     68  C   UNL A   1      45.747  31.209  31.469  1.00  0.00     0.034 A 
BRANCH  55  69
ATOM     69  C   UNL A   1      47.267  27.163  26.997  1.00  0.00     0.023 A 
ATOM     70  C   UNL A   1      47.505  27.613  25.687  1.00  0.00     0.031 A 
ATOM     71  C   UNL A   1      48.022  26.072  27.464  1.00  0.00     0.131 A 
ATOM     72  C   UNL A   1      48.414  26.928  24.865  1.00  0.00     0.055 A 
ATOM     73  C   UNL A   1      48.983  25.445  26.668  1.00  0.00     0.041 A 
ATOM     74  F   UNL A   1      47.822  25.579  28.696  1.00  0.00    -0.206 F 
ATOM     75  C   UNL A   1      49.173  25.863  25.354  1.00  0.00     0.022 A 
BRANCH  72  76
ATOM     76  S   UNL A   1      48.481  27.352  23.102  1.00  0.00     0.124 S 
ATOM     77  O   UNL A   1      47.261  28.136  22.943  1.00  0.00    -0.237 OA
ATOM     78  O   UNL A   1      49.736  28.089  23.003  1.00  0.00    -0.237 OA
ATOM     79  O   UNL A   1      48.468  26.050  22.437  1.00  0.00    -0.744 OA
ENDBRANCH  72  76
ENDBRANCH  55  69
BRANCH  56  80
ATOM     80  C   UNL A   1      39.835  30.725  32.765  1.00  0.00     0.023 A 
ATOM     81  C   UNL A   1      39.036  31.820  32.405  1.00  0.00     0.031 A 
ATOM     82  C   UNL A   1      39.612  30.132  34.021  1.00  0.00     0.131 A 
ATOM     83  C   UNL A   1      38.079  32.316  33.306  1.00  0.00     0.055 A 
ATOM     84  C   UNL A   1      38.624  30.595  34.892  1.00  0.00     0.041 A 
ATOM     85  F   UNL A   1      40.346  29.080  34.417  1.00  0.00    -0.206 F 
ATOM     86  C   UNL A   1      37.859  31.703  34.542  1.00  0.00     0.022 A 
BRANCH  83  87
ATOM     87  S   UNL A   1      37.178  33.829  32.872  1.00  0.00     0.124 S 
ATOM     88  O   UNL A   1      35.824  33.325  32.678  1.00  0.00    -0.237 OA
ATOM     89  O   UNL A   1      37.392  34.657  34.054  1.00  0.00    -0.237 OA
ATOM     90  O   UNL A   1      37.852  34.291  31.660  1.00  0.00    -0.744 OA
ENDBRANCH  83  87
ENDBRANCH  56  80
BRANCH  68  91
ATOM     91  C   UNL A   1      46.608  32.240  32.157  1.00  0.00     0.023 A 
ATOM     92  C   UNL A   1      46.787  33.528  31.622  1.00  0.00     0.031 A 
ATOM     93  C   UNL A   1      47.295  31.911  33.338  1.00  0.00     0.131 A 
ATOM     94  C   UNL A   1      47.692  34.414  32.225  1.00  0.00     0.055 A 
ATOM     95  C   UNL A   1      48.144  32.821  33.971  1.00  0.00     0.041 A 
ATOM     96  F   UNL A   1      47.163  30.695  33.891  1.00  0.00    -0.206 F 
ATOM     97  C   UNL A   1      48.360  34.074  33.405  1.00  0.00     0.022 A 
BRANCH  94  98
ATOM     98  S   UNL A   1      48.081  35.971  31.377  1.00  0.00     0.124 S 
ATOM     99  O   UNL A   1      46.845  36.726  31.550  1.00  0.00    -0.237 OA
ATOM    100  O   UNL A   1      49.233  36.454  32.130  1.00  0.00    -0.237 OA
ATOM    101  O   UNL A   1      48.366  35.552  30.007  1.00  0.00    -0.744 OA
ENDBRANCH  94  98
ENDBRANCH  68  91
ENDBRANCH  42  43
ENDBRANCH  35  37
ENDBRANCH  34  35
ENDBRANCH  33  34
ENDBRANCH   1  33
TORSDOF 19
ENDMDL
MODEL 2
REMARK VINA RESULT:     -11.1      4.331      7.600
REMARK SMILES CCN(CC)c1ccc([C@@H]2c3[nH]c4ccccc4c3C[C@@H](C(=O)OCCOC(=O)c3ccc(-c4c5nc(c(-c6cc(S(=O)(=O)[O-])ccc6F)c6ccc([nH]6)c(-c6cc(S(=O)(=O)[O-])ccc6F)c6nc(c(-c7cc(S(=O)(=O)[O-])ccc7F)c7ccc4[nH]7)C=C6)C=C5)cc3)N2C(C)=O)cc1
REMARK SMILES IDX 25 1 24 2 22 3 23 4 21 5 10 6 11 7 93 8 12 9 19 10 13 11
REMARK SMILES IDX 18 13 20 14 14 15 17 16 15 17 16 18 9 19 6 20 7 21 98 22
REMARK SMILES IDX 8 23 97 24 3 25 2 26 1 27 4 28 5 29 94 30 95 31 96 32 26 33
REMARK SMILES IDX 27 34 28 35 29 36 30 37 31 38 92 39 32 40 91 41 33 42 34 43
REMARK SMILES IDX 35 44 85 45 36 46 90 47 84 48 86 49 37 50 89 51 83 52 82 53
REMARK SMILES IDX 38 55 70 56 50 57 69 58 51 59 54 60 68 61 87 62 52 63 53 64
REMARK SMILES IDX 67 66 88 67 55 68 39 69 40 70 48 71 41 72 47 73 49 74 46 75
REMARK SMILES IDX 42 76 43 77 44 78 45 79 71 80 72 81 80 82 73 83 79 84 81 85
REMARK SMILES IDX 78 86 74 87 75 88 76 89 77 90 56 91 57 92 65 93 58 94 64 95
REMARK SMILES IDX 66 96 63 97 59 98 60 99 61 100 62 101
REMARK H PARENT 12 12 86 54 54 65
REMARK Flexibility Score: inf
ROOT
ATOM      1  C   UNL A   1      33.601  31.802  27.760  1.00  0.00     0.274 C 
ENDROOT
BRANCH   1   2
ATOM      2  O   UNL A   1      32.956  30.767  26.994  1.00  0.00    -0.461 OA
BRANCH   2   3
ATOM      3  C   UNL A   1      33.593  29.608  26.712  1.00  0.00     0.329 C 
ATOM      4  O   UNL A   1      34.277  29.000  27.526  1.00  0.00    -0.250 OA
BRANCH   3   5
ATOM      5  C   UNL A   1      33.613  29.314  25.176  1.00  0.00     0.200 C 
ATOM      6  C   UNL A   1      32.772  26.942  25.224  1.00  0.00     0.163 C 
ATOM      7  C   UNL A   1      31.408  27.571  25.046  1.00  0.00     0.047 A 
ATOM      8  N   UNL A   1      33.665  27.923  24.582  1.00  0.00    -0.316 N 
ATOM      9  N   UNL A   1      30.199  26.936  25.009  1.00  0.00    -0.356 N 
ATOM     10  C   UNL A   1      31.175  28.915  24.752  1.00  0.00    -0.014 A 
ATOM     11  C   UNL A   1      29.358  27.690  24.215  1.00  0.00     0.046 A 
ATOM     12  H   UNL A   1      29.969  26.094  25.464  1.00  0.00     0.166 HD
ATOM     13  C   UNL A   1      29.901  28.975  24.144  1.00  0.00     0.003 A 
ATOM     14  C   UNL A   1      32.267  29.955  24.718  1.00  0.00     0.075 C 
ATOM     15  C   UNL A   1      28.221  27.319  23.498  1.00  0.00     0.026 A 
ATOM     16  C   UNL A   1      29.247  29.964  23.391  1.00  0.00     0.010 A 
ATOM     17  C   UNL A   1      27.651  28.288  22.665  1.00  0.00     0.002 A 
ATOM     18  C   UNL A   1      28.140  29.594  22.627  1.00  0.00     0.001 A 
BRANCH   6  19
ATOM     19  C   UNL A   1      33.044  25.484  24.884  1.00  0.00    -0.019 A 
ATOM     20  C   UNL A   1      33.407  22.659  24.752  1.00  0.00     0.037 A 
ATOM     21  C   UNL A   1      32.408  23.308  24.024  1.00  0.00     0.026 A 
ATOM     22  C   UNL A   1      34.319  23.475  25.420  1.00  0.00     0.026 A 
ATOM     23  C   UNL A   1      32.239  24.695  24.068  1.00  0.00     0.008 A 
ATOM     24  C   UNL A   1      34.146  24.859  25.486  1.00  0.00     0.008 A 
BRANCH  20  25
ATOM     25  N   UNL A   1      33.467  21.280  24.853  1.00  0.00    -0.372 N 
BRANCH  25  26
ATOM     26  C   UNL A   1      34.627  20.669  25.511  1.00  0.00     0.113 C 
ATOM     27  C   UNL A   1      35.931  20.899  24.763  1.00  0.00     0.027 C 
ENDBRANCH  25  26
BRANCH  25  28
ATOM     28  C   UNL A   1      32.361  20.422  24.437  1.00  0.00     0.113 C 
ATOM     29  C   UNL A   1      32.756  18.953  24.342  1.00  0.00     0.027 C 
ENDBRANCH  25  28
ENDBRANCH  20  25
ENDBRANCH   6  19
BRANCH   8  30
ATOM     30  C   UNL A   1      33.753  27.795  23.174  1.00  0.00     0.221 C 
ATOM     31  C   UNL A   1      34.897  28.475  22.478  1.00  0.00     0.114 C 
ATOM     32  O   UNL A   1      32.917  27.213  22.480  1.00  0.00    -0.275 OA
ENDBRANCH   8  30
ENDBRANCH   3   5
ENDBRANCH   2   3
ENDBRANCH   1   2
BRANCH   1  33
ATOM     33  C   UNL A   1      32.871  33.108  27.437  1.00  0.00     0.275 C 
BRANCH  33  34
ATOM     34  O   UNL A   1      32.691  33.787  28.691  1.00  0.00    -0.458 OA
BRANCH  34  35
ATOM     35  C   UNL A   1      33.573  34.771  28.978  1.00  0.00     0.338 C 
ATOM     36  O   UNL A   1      33.437  35.967  28.825  1.00  0.00    -0.246 OA
BRANCH  35  37
ATOM     37  C   UNL A   1      34.694  34.109  29.665  1.00  0.00     0.060 A 
ATOM     38  C   UNL A   1      35.988  34.353  29.192  1.00  0.00     0.016 A 
ATOM     39  C   UNL A   1      34.479  33.290  30.767  1.00  0.00     0.016 A 
ATOM     40  C   UNL A   1      37.083  33.782  29.824  1.00  0.00     0.010 A 
ATOM     41  C   UNL A   1      35.585  32.750  31.430  1.00  0.00     0.010 A 
ATOM     42  C   UNL A   1      36.891  32.994  30.963  1.00  0.00    -0.014 A 
BRANCH  42  43
ATOM     43  C   UNL A   1      38.066  32.394  31.637  1.00  0.00     0.031 A 
ATOM     44  C   UNL A   1      38.819  31.290  30.956  1.00  0.00     0.074 A 
ATOM     45  C   UNL A   1      38.459  32.860  32.838  1.00  0.00     0.049 A 
ATOM     46  N   UNL A   1      39.794  30.549  31.410  1.00  0.00    -0.248 NA
ATOM     47  C   UNL A   1      38.407  30.974  29.580  1.00  0.00     0.031 C 
ATOM     48  C   UNL A   1      37.831  33.970  33.559  1.00  0.00     0.029 A 
ATOM     49  N   UNL A   1      39.478  32.461  33.664  1.00  0.00    -0.354 N 
ATOM     50  C   UNL A   1      40.097  29.656  30.389  1.00  0.00     0.074 A 
ATOM     51  C   UNL A   1      39.182  29.937  29.301  1.00  0.00     0.031 C 
ATOM     52  C   UNL A   1      38.483  34.166  34.717  1.00  0.00     0.029 A 
ATOM     53  C   UNL A   1      39.532  33.160  34.847  1.00  0.00     0.049 A 
ATOM     54  H   UNL A   1      40.111  31.744  33.432  1.00  0.00     0.167 HD
ATOM     55  C   UNL A   1      41.050  28.691  30.368  1.00  0.00     0.034 A 
ATOM     56  C   UNL A   1      40.317  32.984  35.929  1.00  0.00     0.034 A 
ATOM     57  C   UNL A   1      41.948  28.437  31.469  1.00  0.00     0.049 A 
ATOM     58  C   UNL A   1      41.335  31.872  35.901  1.00  0.00     0.074 A 
ATOM     59  C   UNL A   1      42.941  27.480  31.573  1.00  0.00     0.029 A 
ATOM     60  N   UNL A   1      41.963  29.150  32.664  1.00  0.00    -0.354 N 
ATOM     61  N   UNL A   1      41.585  31.004  34.947  1.00  0.00    -0.248 NA
ATOM     62  C   UNL A   1      42.179  31.723  37.092  1.00  0.00     0.031 C 
ATOM     63  C   UNL A   1      43.515  27.575  32.847  1.00  0.00     0.029 A 
ATOM     64  C   UNL A   1      42.933  28.641  33.515  1.00  0.00     0.049 A 
ATOM     65  H   UNL A   1      41.370  29.907  32.876  1.00  0.00     0.167 HD
ATOM     66  C   UNL A   1      42.632  30.217  35.416  1.00  0.00     0.074 A 
ATOM     67  C   UNL A   1      42.981  30.734  36.725  1.00  0.00     0.031 C 
ATOM     68  C   UNL A   1      43.252  29.164  34.824  1.00  0.00     0.034 A 
BRANCH  55  69
ATOM     69  C   UNL A   1      41.107  27.807  29.146  1.00  0.00     0.023 A 
ATOM     70  C   UNL A   1      42.066  27.993  28.135  1.00  0.00     0.031 A 
ATOM     71  C   UNL A   1      40.149  26.794  28.964  1.00  0.00     0.131 A 
ATOM     72  C   UNL A   1      41.998  27.232  26.957  1.00  0.00     0.055 A 
ATOM     73  C   UNL A   1      40.136  25.986  27.825  1.00  0.00     0.041 A 
ATOM     74  F   UNL A   1      39.191  26.586  29.881  1.00  0.00    -0.206 F 
ATOM     75  C   UNL A   1      41.055  26.213  26.806  1.00  0.00     0.022 A 
BRANCH  72  76
ATOM     76  S   UNL A   1      43.062  27.693  25.562  1.00  0.00     0.124 S 
ATOM     77  O   UNL A   1      42.132  28.438  24.718  1.00  0.00    -0.237 OA
ATOM     78  O   UNL A   1      44.110  28.475  26.209  1.00  0.00    -0.237 OA
ATOM     79  O   UNL A   1      43.491  26.405  25.018  1.00  0.00    -0.744 OA
ENDBRANCH  72  76
ENDBRANCH  55  69
BRANCH  56  80
ATOM     80  C   UNL A   1      40.145  33.837  37.140  1.00  0.00     0.023 A 
ATOM     81  C   UNL A   1      39.393  33.396  38.240  1.00  0.00     0.031 A 
ATOM     82  C   UNL A   1      40.697  35.130  37.196  1.00  0.00     0.131 A 
ATOM     83  C   UNL A   1      39.178  34.254  39.331  1.00  0.00     0.055 A 
ATOM     84  C   UNL A   1      40.525  35.959  38.306  1.00  0.00     0.041 A 
ATOM     85  F   UNL A   1      41.427  35.603  36.173  1.00  0.00    -0.206 F 
ATOM     86  C   UNL A   1      39.750  35.527  39.377  1.00  0.00     0.022 A 
BRANCH  83  87
ATOM     87  S   UNL A   1      38.069  33.710  40.659  1.00  0.00     0.124 S 
ATOM     88  O   UNL A   1      37.736  34.974  41.306  1.00  0.00    -0.237 OA
ATOM     89  O   UNL A   1      36.994  33.068  39.911  1.00  0.00    -0.237 OA
ATOM     90  O   UNL A   1      38.903  32.805  41.449  1.00  0.00    -0.744 OA
ENDBRANCH  83  87
ENDBRANCH  56  80
BRANCH  68  91
ATOM     91  C   UNL A   1      44.397  28.542  35.585  1.00  0.00     0.023 A 
ATOM     92  C   UNL A   1      44.191  27.503  36.511  1.00  0.00     0.031 A 
ATOM     93  C   UNL A   1      45.705  29.027  35.414  1.00  0.00     0.131 A 
ATOM     94  C   UNL A   1      45.264  27.038  37.286  1.00  0.00     0.055 A 
ATOM     95  C   UNL A   1      46.780  28.513  36.141  1.00  0.00     0.041 A 
ATOM     96  F   UNL A   1      45.958  30.019  34.545  1.00  0.00    -0.206 F 
ATOM     97  C   UNL A   1      46.559  27.525  37.097  1.00  0.00     0.022 A 
BRANCH  94  98
ATOM     98  S   UNL A   1      44.919  25.873  38.635  1.00  0.00     0.124 S 
ATOM     99  O   UNL A   1      46.225  25.757  39.276  1.00  0.00    -0.237 OA
ATOM    100  O   UNL A   1      43.895  26.578  39.399  1.00  0.00    -0.237 OA
ATOM    101  O   UNL A   1      44.460  24.672  37.941  1.00  0.00    -0.744 OA
ENDBRANCH  94  98
ENDBRANCH  68  91
ENDBRANCH  42  43
ENDBRANCH  35  37
ENDBRANCH  34  35
ENDBRANCH  33  34
ENDBRANCH   1  33
TORSDOF 19
ENDMDL
MODEL 3
REMARK VINA RESULT:     -10.9      1.337      7.328
REMARK SMILES CCN(CC)c1ccc([C@@H]2c3[nH]c4ccccc4c3C[C@@H](C(=O)OCCOC(=O)c3ccc(-c4c5nc(c(-c6cc(S(=O)(=O)[O-])ccc6F)c6ccc([nH]6)c(-c6cc(S(=O)(=O)[O-])ccc6F)c6nc(c(-c7cc(S(=O)(=O)[O-])ccc7F)c7ccc4[nH]7)C=C6)C=C5)cc3)N2C(C)=O)cc1
REMARK SMILES IDX 25 1 24 2 22 3 23 4 21 5 10 6 11 7 93 8 12 9 19 10 13 11
REMARK SMILES IDX 18 13 20 14 14 15 17 16 15 17 16 18 9 19 6 20 7 21 98 22
REMARK SMILES IDX 8 23 97 24 3 25 2 26 1 27 4 28 5 29 94 30 95 31 96 32 26 33
REMARK SMILES IDX 27 34 28 35 29 36 30 37 31 38 92 39 32 40 91 41 33 42 34 43
REMARK SMILES IDX 35 44 85 45 36 46 90 47 84 48 86 49 37 50 89 51 83 52 82 53
REMARK SMILES IDX 38 55 70 56 50 57 69 58 51 59 54 60 68 61 87 62 52 63 53 64
REMARK SMILES IDX 67 66 88 67 55 68 39 69 40 70 48 71 41 72 47 73 49 74 46 75
REMARK SMILES IDX 42 76 43 77 44 78 45 79 71 80 72 81 80 82 73 83 79 84 81 85
REMARK SMILES IDX 78 86 74 87 75 88 76 89 77 90 56 91 57 92 65 93 58 94 64 95
REMARK SMILES IDX 66 96 63 97 59 98 60 99 61 100 62 101
REMARK H PARENT 12 12 86 54 54 65
REMARK Flexibility Score: inf
ROOT
ATOM      1  C   UNL A   1      34.986  24.679  24.801  1.00  0.00     0.274 C 
ENDROOT
BRANCH   1   2
ATOM      2  O   UNL A   1      33.977  24.430  23.805  1.00  0.00    -0.461 OA
BRANCH   2   3
ATOM      3  C   UNL A   1      33.081  25.386  23.466  1.00  0.00     0.329 C 
ATOM      4  O   UNL A   1      33.197  26.098  22.476  1.00  0.00    -0.250 OA
BRANCH   3   5
ATOM      5  C   UNL A   1      32.078  25.680  24.629  1.00  0.00     0.200 C 
ATOM      6  C   UNL A   1      32.784  28.037  25.163  1.00  0.00     0.163 C 
ATOM      7  C   UNL A   1      31.702  28.433  24.183  1.00  0.00     0.047 A 
ATOM      8  N   UNL A   1      32.292  26.748  25.681  1.00  0.00    -0.316 N 
ATOM      9  N   UNL A   1      31.375  29.694  23.771  1.00  0.00    -0.356 N 
ATOM     10  C   UNL A   1      30.759  27.564  23.633  1.00  0.00    -0.014 A 
ATOM     11  C   UNL A   1      30.031  29.692  23.455  1.00  0.00     0.046 A 
ATOM     12  H   UNL A   1      31.986  30.464  23.710  1.00  0.00     0.166 HD
ATOM     13  C   UNL A   1      29.658  28.363  23.247  1.00  0.00     0.003 A 
ATOM     14  C   UNL A   1      30.790  26.070  23.839  1.00  0.00     0.075 C 
ATOM     15  C   UNL A   1      29.113  30.742  23.417  1.00  0.00     0.026 A 
ATOM     16  C   UNL A   1      28.329  28.060  22.911  1.00  0.00     0.010 A 
ATOM     17  C   UNL A   1      27.774  30.404  23.193  1.00  0.00     0.002 A 
ATOM     18  C   UNL A   1      27.388  29.091  22.922  1.00  0.00     0.001 A 
BRANCH   6  19
ATOM     19  C   UNL A   1      33.324  29.002  26.207  1.00  0.00    -0.019 A 
ATOM     20  C   UNL A   1      34.729  30.896  27.811  1.00  0.00     0.037 A 
ATOM     21  C   UNL A   1      33.466  31.172  27.282  1.00  0.00     0.026 A 
ATOM     22  C   UNL A   1      35.198  29.593  27.653  1.00  0.00     0.026 A 
ATOM     23  C   UNL A   1      32.764  30.238  26.513  1.00  0.00     0.008 A 
ATOM     24  C   UNL A   1      34.513  28.661  26.870  1.00  0.00     0.008 A 
BRANCH  20  25
ATOM     25  N   UNL A   1      35.501  31.870  28.418  1.00  0.00    -0.372 N 
BRANCH  25  26
ATOM     26  C   UNL A   1      35.264  33.276  28.077  1.00  0.00     0.113 C 
ATOM     27  C   UNL A   1      34.768  34.103  29.253  1.00  0.00     0.027 C 
ENDBRANCH  25  26
BRANCH  25  28
ATOM     28  C   UNL A   1      36.458  31.553  29.476  1.00  0.00     0.113 C 
ATOM     29  C   UNL A   1      37.902  31.564  28.988  1.00  0.00     0.027 C 
ENDBRANCH  25  28
ENDBRANCH  20  25
ENDBRANCH   6  19
BRANCH   8  30
ATOM     30  C   UNL A   1      31.342  26.864  26.724  1.00  0.00     0.221 C 
ATOM     31  C   UNL A   1      31.645  27.815  27.847  1.00  0.00     0.114 C 
ATOM     32  O   UNL A   1      30.312  26.191  26.799  1.00  0.00    -0.275 OA
ENDBRANCH   8  30
ENDBRANCH   3   5
ENDBRANCH   2   3
ENDBRANCH   1   2
BRANCH   1  33
ATOM     33  C   UNL A   1      35.922  23.467  24.791  1.00  0.00     0.275 C 
BRANCH  33  34
ATOM     34  O   UNL A   1      37.219  23.960  25.167  1.00  0.00    -0.458 OA
BRANCH  34  35
ATOM     35  C   UNL A   1      37.950  23.173  25.988  1.00  0.00     0.338 C 
ATOM     36  O   UNL A   1      37.894  21.967  26.116  1.00  0.00    -0.246 OA
BRANCH  35  37
ATOM     37  C   UNL A   1      38.950  24.061  26.602  1.00  0.00     0.060 A 
ATOM     38  C   UNL A   1      38.933  25.414  26.243  1.00  0.00     0.016 A 
ATOM     39  C   UNL A   1      39.866  23.579  27.530  1.00  0.00     0.016 A 
ATOM     40  C   UNL A   1      39.832  26.301  26.818  1.00  0.00     0.010 A 
ATOM     41  C   UNL A   1      40.742  24.481  28.140  1.00  0.00     0.010 A 
ATOM     42  C   UNL A   1      40.729  25.845  27.789  1.00  0.00    -0.014 A 
BRANCH  42  43
ATOM     43  C   UNL A   1      41.680  26.800  28.403  1.00  0.00     0.031 A 
ATOM     44  C   UNL A   1      41.193  27.741  29.464  1.00  0.00     0.074 A 
ATOM     45  C   UNL A   1      42.971  26.798  28.022  1.00  0.00     0.049 A 
ATOM     46  N   UNL A   1      41.818  28.729  30.046  1.00  0.00    -0.248 NA
ATOM     47  C   UNL A   1      39.808  27.546  29.922  1.00  0.00     0.031 C 
ATOM     48  C   UNL A   1      43.561  25.883  27.041  1.00  0.00     0.029 A 
ATOM     49  N   UNL A   1      44.022  27.587  28.412  1.00  0.00    -0.354 N 
ATOM     50  C   UNL A   1      40.897  29.296  30.920  1.00  0.00     0.074 A 
ATOM     51  C   UNL A   1      39.663  28.552  30.770  1.00  0.00     0.031 C 
ATOM     52  C   UNL A   1      44.868  26.161  26.912  1.00  0.00     0.029 A 
ATOM     53  C   UNL A   1      45.196  27.308  27.751  1.00  0.00     0.049 A 
ATOM     54  H   UNL A   1      43.945  28.286  29.101  1.00  0.00     0.167 HD
ATOM     55  C   UNL A   1      41.071  30.343  31.765  1.00  0.00     0.034 A 
ATOM     56  C   UNL A   1      46.390  27.932  27.793  1.00  0.00     0.034 A 
ATOM     57  C   UNL A   1      42.315  31.064  31.892  1.00  0.00     0.049 A 
ATOM     58  C   UNL A   1      46.543  29.124  28.702  1.00  0.00     0.074 A 
ATOM     59  C   UNL A   1      42.608  32.149  32.699  1.00  0.00     0.029 A 
ATOM     60  N   UNL A   1      43.480  30.769  31.192  1.00  0.00    -0.354 N 
ATOM     61  N   UNL A   1      45.653  29.681  29.492  1.00  0.00    -0.248 NA
ATOM     62  C   UNL A   1      47.862  29.766  28.729  1.00  0.00     0.031 C 
ATOM     63  C   UNL A   1      43.927  32.544  32.444  1.00  0.00     0.029 A 
ATOM     64  C   UNL A   1      44.485  31.662  31.533  1.00  0.00     0.049 A 
ATOM     65  H   UNL A   1      43.578  30.032  30.546  1.00  0.00     0.167 HD
ATOM     66  C   UNL A   1      46.313  30.728  30.128  1.00  0.00     0.074 A 
ATOM     67  C   UNL A   1      47.681  30.704  29.647  1.00  0.00     0.031 C 
ATOM     68  C   UNL A   1      45.838  31.628  31.027  1.00  0.00     0.034 A 
BRANCH  55  69
ATOM     69  C   UNL A   1      39.865  30.801  32.549  1.00  0.00     0.023 A 
ATOM     70  C   UNL A   1      39.116  31.931  32.175  1.00  0.00     0.031 A 
ATOM     71  C   UNL A   1      39.492  30.126  33.725  1.00  0.00     0.131 A 
ATOM     72  C   UNL A   1      38.086  32.395  33.008  1.00  0.00     0.055 A 
ATOM     73  C   UNL A   1      38.413  30.546  34.506  1.00  0.00     0.041 A 
ATOM     74  F   UNL A   1      40.184  29.057  34.149  1.00  0.00    -0.206 F 
ATOM     75  C   UNL A   1      37.712  31.696  34.158  1.00  0.00     0.022 A 
BRANCH  72  76
ATOM     76  S   UNL A   1      37.338  34.008  32.648  1.00  0.00     0.124 S 
ATOM     77  O   UNL A   1      37.955  34.851  33.668  1.00  0.00    -0.237 OA
ATOM     78  O   UNL A   1      37.759  34.252  31.273  1.00  0.00    -0.237 OA
ATOM     79  O   UNL A   1      35.907  33.771  32.830  1.00  0.00    -0.744 OA
ENDBRANCH  72  76
ENDBRANCH  55  69
BRANCH  56  80
ATOM     80  C   UNL A   1      47.513  27.481  26.921  1.00  0.00     0.023 A 
ATOM     81  C   UNL A   1      48.489  26.590  27.394  1.00  0.00     0.031 A 
ATOM     82  C   UNL A   1      47.650  27.972  25.610  1.00  0.00     0.131 A 
ATOM     83  C   UNL A   1      49.580  26.249  26.579  1.00  0.00     0.055 A 
ATOM     84  C   UNL A   1      48.709  27.589  24.784  1.00  0.00     0.041 A 
ATOM     85  F   UNL A   1      46.745  28.825  25.105  1.00  0.00    -0.206 F 
ATOM     86  C   UNL A   1      49.690  26.732  25.273  1.00  0.00     0.022 A 
BRANCH  83  87
ATOM     87  S   UNL A   1      50.903  25.225  27.280  1.00  0.00     0.124 S 
ATOM     88  O   UNL A   1      51.598  24.773  26.081  1.00  0.00    -0.237 OA
ATOM     89  O   UNL A   1      51.619  26.185  28.113  1.00  0.00    -0.237 OA
ATOM     90  O   UNL A   1      50.178  24.187  28.011  1.00  0.00    -0.744 OA
ENDBRANCH  83  87
ENDBRANCH  56  80
BRANCH  68  91
ATOM     91  C   UNL A   1      46.832  32.627  31.569  1.00  0.00     0.023 A 
ATOM     92  C   UNL A   1      47.052  33.866  30.941  1.00  0.00     0.031 A 
ATOM     93  C   UNL A   1      47.601  32.313  32.703  1.00  0.00     0.131 A 
ATOM     94  C   UNL A   1      48.070  34.712  31.405  1.00  0.00     0.055 A 
ATOM     95  C   UNL A   1      48.567  33.189  33.200  1.00  0.00     0.041 A 
ATOM     96  F   UNL A   1      47.434  31.144  33.341  1.00  0.00    -0.206 F 
ATOM     97  C   UNL A   1      48.819  34.388  32.539  1.00  0.00     0.022 A 
BRANCH  94  98
ATOM     98  S   UNL A   1      48.488  36.184  30.430  1.00  0.00     0.124 S 
ATOM     99  O   UNL A   1      47.243  36.436  29.712  1.00  0.00    -0.237 OA
ATOM    100  O   UNL A   1      48.834  37.153  31.464  1.00  0.00    -0.237 OA
ATOM    101  O   UNL A   1      49.604  35.739  29.598  1.00  0.00    -0.744 OA
ENDBRANCH  94  98
ENDBRANCH  68  91
ENDBRANCH  42  43
ENDBRANCH  35  37
ENDBRANCH  34  35
ENDBRANCH  33  34
ENDBRANCH   1  33
TORSDOF 19
ENDMDL
