MODEL 1
REMARK VINA RESULT:     -12.1      0.000      0.000
REMARK SMILES COc1cc(C)cc2c1O[C@H](C(F)(F)F)C(C(=O)OCCOC(=O)c1ccc(-c3c4nc(c(-c5cc(S(=O)(=O)[O-])ccc5F)c5ccc([nH]5)c(-c5cc(S(=O)(=O)[O-])ccc5F)c5nc(c(-c6cc(S(=O)(=O)[O-])ccc6F)c6ccc3[nH]6)C=C5)C=C4)cc1)=C2
REMARK SMILES IDX 21 1 20 2 19 3 17 4 18 5 16 6 3 7 4 8 9 9 5 10 8 11 10 12
REMARK SMILES IDX 6 13 7 14 88 15 11 16 2 17 1 18 12 19 13 20 14 21 15 22
REMARK SMILES IDX 22 23 23 24 24 25 25 26 26 27 87 28 27 29 86 30 28 31 29 32
REMARK SMILES IDX 30 33 80 34 31 35 85 36 79 37 81 38 32 39 84 40 78 41 77 42
REMARK SMILES IDX 33 44 65 45 45 46 64 47 46 48 49 49 63 50 82 51 47 52 48 53
REMARK SMILES IDX 62 55 83 56 50 57 34 58 35 59 43 60 36 61 42 62 44 63 41 64
REMARK SMILES IDX 37 65 38 66 39 67 40 68 66 69 67 70 75 71 68 72 74 73 76 74
REMARK SMILES IDX 73 75 69 76 70 77 71 78 72 79 51 80 52 81 60 82 53 83 59 84
REMARK SMILES IDX 61 85 58 86 54 87 55 88 56 89 57 90
REMARK H PARENT 81 43 49 54
REMARK Flexibility Score: inf
ROOT
ATOM      1  C   UNL A   1      31.421  30.440  25.653  1.00  0.00     0.275 C 
ENDROOT
BRANCH   1   2
ATOM      2  C   UNL A   1      31.416  29.067  24.976  1.00  0.00     0.275 C 
BRANCH   2   3
ATOM      3  O   UNL A   1      32.315  28.144  25.629  1.00  0.00    -0.459 OA
BRANCH   3   4
ATOM      4  C   UNL A   1      31.724  27.167  26.358  1.00  0.00     0.338 C 
ATOM      5  O   UNL A   1      30.887  27.324  27.234  1.00  0.00    -0.246 OA
BRANCH   4   6
ATOM      6  C   UNL A   1      32.195  25.836  25.928  1.00  0.00     0.087 C 
ATOM      7  C   UNL A   1      33.651  22.192  24.467  1.00  0.00     0.161 A 
ATOM      8  C   UNL A   1      35.037  21.970  24.443  1.00  0.00     0.054 A 
ATOM      9  C   UNL A   1      33.133  23.390  24.971  1.00  0.00     0.169 A 
ATOM     10  C   UNL A   1      35.918  22.916  24.976  1.00  0.00    -0.047 A 
ATOM     11  C   UNL A   1      34.015  24.341  25.475  1.00  0.00     0.021 A 
ATOM     12  O   UNL A   1      31.773  23.560  24.978  1.00  0.00    -0.471 OA
ATOM     13  C   UNL A   1      37.403  22.698  24.989  1.00  0.00     0.044 C 
ATOM     14  C   UNL A   1      35.395  24.099  25.502  1.00  0.00     0.015 A 
ATOM     15  C   UNL A   1      33.512  25.609  25.955  1.00  0.00     0.027 C 
ATOM     16  C   UNL A   1      31.217  24.851  25.356  1.00  0.00     0.316 C 
BRANCH   7  17
ATOM     17  O   UNL A   1      32.773  21.284  23.928  1.00  0.00    -0.493 OA
ATOM     18  C   UNL A   1      32.846  20.020  24.581  1.00  0.00     0.278 C 
ENDBRANCH   7  17
BRANCH  16  19
ATOM     19  C   UNL A   1      30.491  25.449  24.140  1.00  0.00     0.430 C 
ATOM     20  F   UNL A   1      31.327  26.187  23.371  1.00  0.00    -0.167 F 
ATOM     21  F   UNL A   1      29.995  24.478  23.332  1.00  0.00    -0.167 F 
ATOM     22  F   UNL A   1      29.456  26.243  24.494  1.00  0.00    -0.167 F 
ENDBRANCH  16  19
ENDBRANCH   4   6
ENDBRANCH   3   4
ENDBRANCH   2   3
ENDBRANCH   1   2
BRANCH   1  23
ATOM     23  O   UNL A   1      32.267  30.429  26.816  1.00  0.00    -0.458 OA
BRANCH  23  24
ATOM     24  C   UNL A   1      32.857  31.609  27.112  1.00  0.00     0.338 C 
ATOM     25  O   UNL A   1      32.353  32.718  27.079  1.00  0.00    -0.246 OA
BRANCH  24  26
ATOM     26  C   UNL A   1      34.214  31.357  27.618  1.00  0.00     0.060 A 
ATOM     27  C   UNL A   1      35.091  32.385  27.931  1.00  0.00     0.016 A 
ATOM     28  C   UNL A   1      34.552  30.043  27.915  1.00  0.00     0.016 A 
ATOM     29  C   UNL A   1      36.320  32.068  28.528  1.00  0.00     0.010 A 
ATOM     30  C   UNL A   1      35.695  29.747  28.648  1.00  0.00     0.010 A 
ATOM     31  C   UNL A   1      36.627  30.749  28.929  1.00  0.00    -0.014 A 
BRANCH  31  32
ATOM     32  C   UNL A   1      37.902  30.417  29.633  1.00  0.00     0.031 A 
ATOM     33  C   UNL A   1      38.162  30.877  31.052  1.00  0.00     0.074 A 
ATOM     34  C   UNL A   1      38.859  29.723  28.979  1.00  0.00     0.049 A 
ATOM     35  N   UNL A   1      39.189  30.621  31.824  1.00  0.00    -0.248 NA
ATOM     36  C   UNL A   1      37.173  31.775  31.674  1.00  0.00     0.031 C 
ATOM     37  C   UNL A   1      38.793  29.330  27.571  1.00  0.00     0.029 A 
ATOM     38  N   UNL A   1      40.058  29.206  29.408  1.00  0.00    -0.354 N 
ATOM     39  C   UNL A   1      38.977  31.340  32.998  1.00  0.00     0.074 A 
ATOM     40  C   UNL A   1      37.773  32.110  32.806  1.00  0.00     0.031 C 
ATOM     41  C   UNL A   1      39.847  28.554  27.279  1.00  0.00     0.029 A 
ATOM     42  C   UNL A   1      40.695  28.433  28.461  1.00  0.00     0.049 A 
ATOM     43  H   UNL A   1      40.426  29.372  30.305  1.00  0.00     0.167 HD
ATOM     44  C   UNL A   1      39.689  31.320  34.151  1.00  0.00     0.034 A 
ATOM     45  C   UNL A   1      41.815  27.683  28.540  1.00  0.00     0.034 A 
ATOM     46  C   UNL A   1      40.846  30.487  34.354  1.00  0.00     0.049 A 
ATOM     47  C   UNL A   1      42.546  27.606  29.858  1.00  0.00     0.074 A 
ATOM     48  C   UNL A   1      41.574  30.310  35.516  1.00  0.00     0.029 A 
ATOM     49  N   UNL A   1      41.430  29.683  33.387  1.00  0.00    -0.354 N 
ATOM     50  N   UNL A   1      42.253  28.187  30.997  1.00  0.00    -0.248 NA
ATOM     51  C   UNL A   1      43.746  26.760  29.912  1.00  0.00     0.031 C 
ATOM     52  C   UNL A   1      42.635  29.449  35.237  1.00  0.00     0.029 A 
ATOM     53  C   UNL A   1      42.523  29.024  33.922  1.00  0.00     0.049 A 
ATOM     54  H   UNL A   1      41.115  29.595  32.459  1.00  0.00     0.167 HD
ATOM     55  C   UNL A   1      43.213  27.755  31.908  1.00  0.00     0.074 A 
ATOM     56  C   UNL A   1      44.081  26.843  31.193  1.00  0.00     0.031 C 
ATOM     57  C   UNL A   1      43.365  28.090  33.213  1.00  0.00     0.034 A 
BRANCH  44  58
ATOM     58  C   UNL A   1      39.225  32.162  35.319  1.00  0.00     0.023 A 
ATOM     59  C   UNL A   1      39.704  33.478  35.475  1.00  0.00     0.031 A 
ATOM     60  C   UNL A   1      38.437  31.619  36.349  1.00  0.00     0.131 A 
ATOM     61  C   UNL A   1      39.422  34.188  36.651  1.00  0.00     0.055 A 
ATOM     62  C   UNL A   1      38.114  32.349  37.494  1.00  0.00     0.041 A 
ATOM     63  F   UNL A   1      37.963  30.365  36.258  1.00  0.00    -0.206 F 
ATOM     64  C   UNL A   1      38.621  33.635  37.655  1.00  0.00     0.022 A 
BRANCH  61  65
ATOM     65  S   UNL A   1      40.149  35.821  36.959  1.00  0.00     0.124 S 
ATOM     66  O   UNL A   1      39.661  36.587  35.815  1.00  0.00    -0.237 OA
ATOM     67  O   UNL A   1      39.557  36.178  38.245  1.00  0.00    -0.237 OA
ATOM     68  O   UNL A   1      41.585  35.570  36.972  1.00  0.00    -0.744 OA
ENDBRANCH  61  65
ENDBRANCH  44  58
BRANCH  45  69
ATOM     69  C   UNL A   1      42.227  26.859  27.363  1.00  0.00     0.023 A 
ATOM     70  C   UNL A   1      41.880  25.500  27.264  1.00  0.00     0.031 A 
ATOM     71  C   UNL A   1      43.074  27.396  26.377  1.00  0.00     0.131 A 
ATOM     72  C   UNL A   1      42.433  24.711  26.246  1.00  0.00     0.055 A 
ATOM     73  C   UNL A   1      43.562  26.625  25.321  1.00  0.00     0.041 A 
ATOM     74  F   UNL A   1      43.449  28.683  26.436  1.00  0.00    -0.206 F 
ATOM     75  C   UNL A   1      43.257  25.269  25.263  1.00  0.00     0.022 A 
BRANCH  72  76
ATOM     76  S   UNL A   1      42.221  22.909  26.245  1.00  0.00     0.124 S 
ATOM     77  O   UNL A   1      40.779  22.772  26.417  1.00  0.00    -0.237 OA
ATOM     78  O   UNL A   1      42.736  22.548  24.926  1.00  0.00    -0.237 OA
ATOM     79  O   UNL A   1      43.038  22.466  27.371  1.00  0.00    -0.744 OA
ENDBRANCH  72  76
ENDBRANCH  45  69
BRANCH  57  80
ATOM     80  C   UNL A   1      44.495  27.472  34.001  1.00  0.00     0.023 A 
ATOM     81  C   UNL A   1      44.291  26.254  34.677  1.00  0.00     0.031 A 
ATOM     82  C   UNL A   1      45.694  28.168  34.232  1.00  0.00     0.131 A 
ATOM     83  C   UNL A   1      45.247  25.793  35.590  1.00  0.00     0.055 A 
ATOM     84  C   UNL A   1      46.668  27.677  35.102  1.00  0.00     0.041 A 
ATOM     85  F   UNL A   1      45.929  29.343  33.624  1.00  0.00    -0.206 F 
ATOM     86  C   UNL A   1      46.439  26.494  35.800  1.00  0.00     0.022 A 
BRANCH  83  87
ATOM     87  S   UNL A   1      44.932  24.331  36.618  1.00  0.00     0.124 S 
ATOM     88  O   UNL A   1      43.961  23.598  35.810  1.00  0.00    -0.237 OA
ATOM     89  O   UNL A   1      46.257  23.724  36.703  1.00  0.00    -0.237 OA
ATOM     90  O   UNL A   1      44.412  24.883  37.866  1.00  0.00    -0.744 OA
ENDBRANCH  83  87
ENDBRANCH  57  80
ENDBRANCH  31  32
ENDBRANCH  24  26
ENDBRANCH  23  24
ENDBRANCH   1  23
TORSDOF 16
ENDMDL
MODEL 2
REMARK VINA RESULT:     -12.1      1.325      1.693
REMARK SMILES COc1cc(C)cc2c1O[C@H](C(F)(F)F)C(C(=O)OCCOC(=O)c1ccc(-c3c4nc(c(-c5cc(S(=O)(=O)[O-])ccc5F)c5ccc([nH]5)c(-c5cc(S(=O)(=O)[O-])ccc5F)c5nc(c(-c6cc(S(=O)(=O)[O-])ccc6F)c6ccc3[nH]6)C=C5)C=C4)cc1)=C2
REMARK SMILES IDX 21 1 20 2 19 3 17 4 18 5 16 6 3 7 4 8 9 9 5 10 8 11 10 12
REMARK SMILES IDX 6 13 7 14 88 15 11 16 2 17 1 18 12 19 13 20 14 21 15 22
REMARK SMILES IDX 22 23 23 24 24 25 25 26 26 27 87 28 27 29 86 30 28 31 29 32
REMARK SMILES IDX 30 33 80 34 31 35 85 36 79 37 81 38 32 39 84 40 78 41 77 42
REMARK SMILES IDX 33 44 65 45 45 46 64 47 46 48 49 49 63 50 82 51 47 52 48 53
REMARK SMILES IDX 62 55 83 56 50 57 34 58 35 59 43 60 36 61 42 62 44 63 41 64
REMARK SMILES IDX 37 65 38 66 39 67 40 68 66 69 67 70 75 71 68 72 74 73 76 74
REMARK SMILES IDX 73 75 69 76 70 77 71 78 72 79 51 80 52 81 60 82 53 83 59 84
REMARK SMILES IDX 61 85 58 86 54 87 55 88 56 89 57 90
REMARK H PARENT 81 43 49 54
REMARK Flexibility Score: inf
ROOT
ATOM      1  C   UNL A   1      31.684  30.480  25.738  1.00  0.00     0.275 C 
ENDROOT
BRANCH   1   2
ATOM      2  C   UNL A   1      31.572  29.117  25.052  1.00  0.00     0.275 C 
BRANCH   2   3
ATOM      3  O   UNL A   1      32.450  28.140  25.652  1.00  0.00    -0.459 OA
BRANCH   3   4
ATOM      4  C   UNL A   1      31.840  27.170  26.374  1.00  0.00     0.338 C 
ATOM      5  O   UNL A   1      31.029  27.338  27.272  1.00  0.00    -0.246 OA
BRANCH   4   6
ATOM      6  C   UNL A   1      32.255  25.832  25.909  1.00  0.00     0.087 C 
ATOM      7  C   UNL A   1      33.544  22.168  24.343  1.00  0.00     0.161 A 
ATOM      8  C   UNL A   1      34.920  21.911  24.249  1.00  0.00     0.054 A 
ATOM      9  C   UNL A   1      33.082  23.374  24.884  1.00  0.00     0.169 A 
ATOM     10  C   UNL A   1      35.851  22.829  24.747  1.00  0.00    -0.047 A 
ATOM     11  C   UNL A   1      34.011  24.297  25.353  1.00  0.00     0.021 A 
ATOM     12  O   UNL A   1      31.728  23.578  24.960  1.00  0.00    -0.471 OA
ATOM     13  C   UNL A   1      37.328  22.573  24.684  1.00  0.00     0.044 C 
ATOM     14  C   UNL A   1      35.384  24.019  25.309  1.00  0.00     0.015 A 
ATOM     15  C   UNL A   1      33.565  25.571  25.869  1.00  0.00     0.027 C 
ATOM     16  C   UNL A   1      31.225  24.878  25.377  1.00  0.00     0.316 C 
BRANCH   7  17
ATOM     17  O   UNL A   1      32.617  21.289  23.839  1.00  0.00    -0.493 OA
ATOM     18  C   UNL A   1      32.649  20.035  24.516  1.00  0.00     0.278 C 
ENDBRANCH   7  17
BRANCH  16  19
ATOM     19  C   UNL A   1      30.456  25.507  24.203  1.00  0.00     0.430 C 
ATOM     20  F   UNL A   1      29.454  26.310  24.635  1.00  0.00    -0.167 F 
ATOM     21  F   UNL A   1      31.265  26.288  23.443  1.00  0.00    -0.167 F 
ATOM     22  F   UNL A   1      29.911  24.579  23.385  1.00  0.00    -0.167 F 
ENDBRANCH  16  19
ENDBRANCH   4   6
ENDBRANCH   3   4
ENDBRANCH   2   3
ENDBRANCH   1   2
BRANCH   1  23
ATOM     23  O   UNL A   1      32.558  30.403  26.877  1.00  0.00    -0.458 OA
BRANCH  23  24
ATOM     24  C   UNL A   1      33.155  31.566  27.227  1.00  0.00     0.338 C 
ATOM     25  O   UNL A   1      32.655  32.677  27.251  1.00  0.00    -0.246 OA
BRANCH  24  26
ATOM     26  C   UNL A   1      34.513  31.285  27.713  1.00  0.00     0.060 A 
ATOM     27  C   UNL A   1      35.421  32.294  28.000  1.00  0.00     0.016 A 
ATOM     28  C   UNL A   1      34.824  29.966  28.017  1.00  0.00     0.016 A 
ATOM     29  C   UNL A   1      36.652  31.952  28.579  1.00  0.00     0.010 A 
ATOM     30  C   UNL A   1      35.972  29.649  28.733  1.00  0.00     0.010 A 
ATOM     31  C   UNL A   1      36.932  30.629  28.988  1.00  0.00    -0.014 A 
BRANCH  31  32
ATOM     32  C   UNL A   1      38.211  30.273  29.674  1.00  0.00     0.031 A 
ATOM     33  C   UNL A   1      38.513  30.752  31.078  1.00  0.00     0.074 A 
ATOM     34  C   UNL A   1      39.133  29.538  29.015  1.00  0.00     0.049 A 
ATOM     35  N   UNL A   1      39.546  30.480  31.835  1.00  0.00    -0.248 NA
ATOM     36  C   UNL A   1      37.564  31.691  31.702  1.00  0.00     0.031 C 
ATOM     37  C   UNL A   1      39.027  29.120  27.617  1.00  0.00     0.029 A 
ATOM     38  N   UNL A   1      40.325  28.993  29.431  1.00  0.00    -0.354 N 
ATOM     39  C   UNL A   1      39.380  31.227  32.999  1.00  0.00     0.074 A 
ATOM     40  C   UNL A   1      38.196  32.030  32.815  1.00  0.00     0.031 C 
ATOM     41  C   UNL A   1      40.052  28.307  27.320  1.00  0.00     0.029 A 
ATOM     42  C   UNL A   1      40.919  28.182  28.488  1.00  0.00     0.049 A 
ATOM     43  H   UNL A   1      40.716  29.165  30.318  1.00  0.00     0.167 HD
ATOM     44  C   UNL A   1      40.114  31.209  34.137  1.00  0.00     0.034 A 
ATOM     45  C   UNL A   1      42.018  27.401  28.560  1.00  0.00     0.034 A 
ATOM     46  C   UNL A   1      41.249  30.345  34.335  1.00  0.00     0.049 A 
ATOM     47  C   UNL A   1      42.772  27.327  29.865  1.00  0.00     0.074 A 
ATOM     48  C   UNL A   1      41.995  30.168  35.486  1.00  0.00     0.029 A 
ATOM     49  N   UNL A   1      41.789  29.505  33.373  1.00  0.00    -0.354 N 
ATOM     50  N   UNL A   1      42.519  27.939  30.997  1.00  0.00    -0.248 NA
ATOM     51  C   UNL A   1      43.947  26.446  29.912  1.00  0.00     0.031 C 
ATOM     52  C   UNL A   1      43.023  29.270  35.203  1.00  0.00     0.029 A 
ATOM     53  C   UNL A   1      42.873  28.823  33.900  1.00  0.00     0.049 A 
ATOM     54  H   UNL A   1      41.453  29.408  32.453  1.00  0.00     0.167 HD
ATOM     55  C   UNL A   1      43.484  27.495  31.898  1.00  0.00     0.074 A 
ATOM     56  C   UNL A   1      44.310  26.543  31.185  1.00  0.00     0.031 C 
ATOM     57  C   UNL A   1      43.672  27.851  33.193  1.00  0.00     0.034 A 
BRANCH  44  58
ATOM     58  C   UNL A   1      39.699  32.087  35.297  1.00  0.00     0.023 A 
ATOM     59  C   UNL A   1      38.938  31.548  36.353  1.00  0.00     0.031 A 
ATOM     60  C   UNL A   1      39.921  33.476  35.284  1.00  0.00     0.131 A 
ATOM     61  C   UNL A   1      38.396  32.398  37.327  1.00  0.00     0.055 A 
ATOM     62  C   UNL A   1      39.425  34.311  36.286  1.00  0.00     0.041 A 
ATOM     63  F   UNL A   1      40.630  34.045  34.295  1.00  0.00    -0.206 F 
ATOM     64  C   UNL A   1      38.645  33.774  37.305  1.00  0.00     0.022 A 
BRANCH  61  65
ATOM     65  S   UNL A   1      37.282  31.766  38.612  1.00  0.00     0.124 S 
ATOM     66  O   UNL A   1      38.093  31.925  39.816  1.00  0.00    -0.237 OA
ATOM     67  O   UNL A   1      36.145  32.676  38.503  1.00  0.00    -0.237 OA
ATOM     68  O   UNL A   1      37.029  30.387  38.211  1.00  0.00    -0.744 OA
ENDBRANCH  61  65
ENDBRANCH  44  58
BRANCH  45  69
ATOM     69  C   UNL A   1      42.381  26.542  27.392  1.00  0.00     0.023 A 
ATOM     70  C   UNL A   1      41.942  25.209  27.298  1.00  0.00     0.031 A 
ATOM     71  C   UNL A   1      43.270  27.013  26.410  1.00  0.00     0.131 A 
ATOM     72  C   UNL A   1      42.447  24.377  26.290  1.00  0.00     0.055 A 
ATOM     73  C   UNL A   1      43.713  26.202  25.363  1.00  0.00     0.041 A 
ATOM     74  F   UNL A   1      43.733  28.271  26.463  1.00  0.00    -0.206 F 
ATOM     75  C   UNL A   1      43.315  24.870  25.311  1.00  0.00     0.022 A 
BRANCH  72  76
ATOM     76  S   UNL A   1      42.111  22.594  26.299  1.00  0.00     0.124 S 
ATOM     77  O   UNL A   1      42.831  22.154  27.489  1.00  0.00    -0.237 OA
ATOM     78  O   UNL A   1      40.653  22.565  26.397  1.00  0.00    -0.237 OA
ATOM     79  O   UNL A   1      42.655  22.135  25.025  1.00  0.00    -0.744 OA
ENDBRANCH  72  76
ENDBRANCH  45  69
BRANCH  57  80
ATOM     80  C   UNL A   1      44.799  27.214  33.971  1.00  0.00     0.023 A 
ATOM     81  C   UNL A   1      44.616  25.944  34.552  1.00  0.00     0.031 A 
ATOM     82  C   UNL A   1      45.966  27.929  34.289  1.00  0.00     0.131 A 
ATOM     83  C   UNL A   1      45.560  25.449  35.460  1.00  0.00     0.055 A 
ATOM     84  C   UNL A   1      46.930  27.409  35.153  1.00  0.00     0.041 A 
ATOM     85  F   UNL A   1      46.178  29.152  33.775  1.00  0.00    -0.206 F 
ATOM     86  C   UNL A   1      46.720  26.171  35.757  1.00  0.00     0.022 A 
BRANCH  83  87
ATOM     87  S   UNL A   1      45.265  23.908  36.371  1.00  0.00     0.124 S 
ATOM     88  O   UNL A   1      45.298  24.366  37.757  1.00  0.00    -0.237 OA
ATOM     89  O   UNL A   1      43.950  23.507  35.878  1.00  0.00    -0.237 OA
ATOM     90  O   UNL A   1      46.374  23.046  35.974  1.00  0.00    -0.744 OA
ENDBRANCH  83  87
ENDBRANCH  57  80
ENDBRANCH  31  32
ENDBRANCH  24  26
ENDBRANCH  23  24
ENDBRANCH   1  23
TORSDOF 16
ENDMDL
MODEL 3
REMARK VINA RESULT:     -12.1      4.840      9.976
REMARK SMILES COc1cc(C)cc2c1O[C@H](C(F)(F)F)C(C(=O)OCCOC(=O)c1ccc(-c3c4nc(c(-c5cc(S(=O)(=O)[O-])ccc5F)c5ccc([nH]5)c(-c5cc(S(=O)(=O)[O-])ccc5F)c5nc(c(-c6cc(S(=O)(=O)[O-])ccc6F)c6ccc3[nH]6)C=C5)C=C4)cc1)=C2
REMARK SMILES IDX 21 1 20 2 19 3 17 4 18 5 16 6 3 7 4 8 9 9 5 10 8 11 10 12
REMARK SMILES IDX 6 13 7 14 88 15 11 16 2 17 1 18 12 19 13 20 14 21 15 22
REMARK SMILES IDX 22 23 23 24 24 25 25 26 26 27 87 28 27 29 86 30 28 31 29 32
REMARK SMILES IDX 30 33 80 34 31 35 85 36 79 37 81 38 32 39 84 40 78 41 77 42
REMARK SMILES IDX 33 44 65 45 45 46 64 47 46 48 49 49 63 50 82 51 47 52 48 53
REMARK SMILES IDX 62 55 83 56 50 57 34 58 35 59 43 60 36 61 42 62 44 63 41 64
REMARK SMILES IDX 37 65 38 66 39 67 40 68 66 69 67 70 75 71 68 72 74 73 76 74
REMARK SMILES IDX 73 75 69 76 70 77 71 78 72 79 51 80 52 81 60 82 53 83 59 84
REMARK SMILES IDX 61 85 58 86 54 87 55 88 56 89 57 90
REMARK H PARENT 81 43 49 54
REMARK Flexibility Score: inf
ROOT
ATOM      1  C   UNL A   1      37.043  20.758  25.065  1.00  0.00     0.275 C 
ENDROOT
BRANCH   1   2
ATOM      2  C   UNL A   1      35.632  21.352  25.072  1.00  0.00     0.275 C 
BRANCH   2   3
ATOM      3  O   UNL A   1      35.657  22.793  24.970  1.00  0.00    -0.459 OA
BRANCH   3   4
ATOM      4  C   UNL A   1      35.342  23.299  23.754  1.00  0.00     0.338 C 
ATOM      5  O   UNL A   1      35.816  22.954  22.682  1.00  0.00    -0.246 OA
BRANCH   4   6
ATOM      6  C   UNL A   1      34.292  24.329  23.871  1.00  0.00     0.087 C 
ATOM      7  C   UNL A   1      31.242  27.135  24.473  1.00  0.00     0.161 A 
ATOM      8  C   UNL A   1      31.399  28.112  25.469  1.00  0.00     0.054 A 
ATOM      9  C   UNL A   1      32.254  26.199  24.233  1.00  0.00     0.169 A 
ATOM     10  C   UNL A   1      32.591  28.202  26.195  1.00  0.00    -0.047 A 
ATOM     11  C   UNL A   1      33.427  26.274  24.977  1.00  0.00     0.021 A 
ATOM     12  O   UNL A   1      32.058  25.266  23.247  1.00  0.00    -0.471 OA
ATOM     13  C   UNL A   1      32.799  29.250  27.249  1.00  0.00     0.044 C 
ATOM     14  C   UNL A   1      33.607  27.281  25.934  1.00  0.00     0.015 A 
ATOM     15  C   UNL A   1      34.467  25.289  24.785  1.00  0.00     0.027 C 
ATOM     16  C   UNL A   1      33.025  24.193  23.077  1.00  0.00     0.316 C 
BRANCH   7  17
ATOM     17  O   UNL A   1      30.071  27.018  23.766  1.00  0.00    -0.493 OA
ATOM     18  C   UNL A   1      29.925  28.057  22.802  1.00  0.00     0.278 C 
ENDBRANCH   7  17
BRANCH  16  19
ATOM     19  C   UNL A   1      32.333  22.854  23.384  1.00  0.00     0.430 C 
ATOM     20  F   UNL A   1      32.906  21.828  22.711  1.00  0.00    -0.167 F 
ATOM     21  F   UNL A   1      32.424  22.540  24.701  1.00  0.00    -0.167 F 
ATOM     22  F   UNL A   1      31.019  22.867  23.067  1.00  0.00    -0.167 F 
ENDBRANCH  16  19
ENDBRANCH   4   6
ENDBRANCH   3   4
ENDBRANCH   2   3
ENDBRANCH   1   2
BRANCH   1  23
ATOM     23  O   UNL A   1      38.028  21.789  25.249  1.00  0.00    -0.458 OA
BRANCH  23  24
ATOM     24  C   UNL A   1      39.061  21.463  26.059  1.00  0.00     0.338 C 
ATOM     25  O   UNL A   1      39.585  20.370  26.187  1.00  0.00    -0.246 OA
BRANCH  24  26
ATOM     26  C   UNL A   1      39.572  22.680  26.705  1.00  0.00     0.060 A 
ATOM     27  C   UNL A   1      40.602  22.650  27.633  1.00  0.00     0.016 A 
ATOM     28  C   UNL A   1      39.084  23.898  26.250  1.00  0.00     0.016 A 
ATOM     29  C   UNL A   1      41.120  23.863  28.110  1.00  0.00     0.010 A 
ATOM     30  C   UNL A   1      39.702  25.092  26.602  1.00  0.00     0.010 A 
ATOM     31  C   UNL A   1      40.703  25.103  27.576  1.00  0.00    -0.014 A 
BRANCH  31  32
ATOM     32  C   UNL A   1      41.304  26.395  28.026  1.00  0.00     0.031 A 
ATOM     33  C   UNL A   1      42.722  26.777  27.654  1.00  0.00     0.074 A 
ATOM     34  C   UNL A   1      40.582  27.223  28.810  1.00  0.00     0.049 A 
ATOM     35  N   UNL A   1      43.368  27.886  27.913  1.00  0.00    -0.248 NA
ATOM     36  C   UNL A   1      43.538  25.777  26.944  1.00  0.00     0.031 C 
ATOM     37  C   UNL A   1      39.254  26.922  29.348  1.00  0.00     0.029 A 
ATOM     38  N   UNL A   1      40.843  28.491  29.275  1.00  0.00    -0.354 N 
ATOM     39  C   UNL A   1      44.658  27.704  27.421  1.00  0.00     0.074 A 
ATOM     40  C   UNL A   1      44.732  26.351  26.929  1.00  0.00     0.031 C 
ATOM     41  C   UNL A   1      38.778  28.003  29.982  1.00  0.00     0.029 A 
ATOM     42  C   UNL A   1      39.782  29.063  29.943  1.00  0.00     0.049 A 
ATOM     43  H   UNL A   1      41.706  28.946  29.143  1.00  0.00     0.167 HD
ATOM     44  C   UNL A   1      45.674  28.597  27.337  1.00  0.00     0.034 A 
ATOM     45  C   UNL A   1      39.618  30.307  30.440  1.00  0.00     0.034 A 
ATOM     46  C   UNL A   1      45.561  29.968  27.762  1.00  0.00     0.049 A 
ATOM     47  C   UNL A   1      40.728  31.314  30.259  1.00  0.00     0.074 A 
ATOM     48  C   UNL A   1      46.490  30.983  27.622  1.00  0.00     0.029 A 
ATOM     49  N   UNL A   1      44.454  30.521  28.389  1.00  0.00    -0.354 N 
ATOM     50  N   UNL A   1      41.890  31.161  29.671  1.00  0.00    -0.248 NA
ATOM     51  C   UNL A   1      40.502  32.665  30.792  1.00  0.00     0.031 C 
ATOM     52  C   UNL A   1      45.973  32.131  28.220  1.00  0.00     0.029 A 
ATOM     53  C   UNL A   1      44.687  31.857  28.661  1.00  0.00     0.049 A 
ATOM     54  H   UNL A   1      43.627  30.034  28.609  1.00  0.00     0.167 HD
ATOM     55  C   UNL A   1      42.521  32.400  29.736  1.00  0.00     0.074 A 
ATOM     56  C   UNL A   1      41.599  33.299  30.398  1.00  0.00     0.031 C 
ATOM     57  C   UNL A   1      43.752  32.757  29.293  1.00  0.00     0.034 A 
BRANCH  44  58
ATOM     58  C   UNL A   1      46.982  28.170  26.709  1.00  0.00     0.023 A 
ATOM     59  C   UNL A   1      47.130  28.183  25.308  1.00  0.00     0.031 A 
ATOM     60  C   UNL A   1      48.018  27.610  27.477  1.00  0.00     0.131 A 
ATOM     61  C   UNL A   1      48.268  27.613  24.721  1.00  0.00     0.055 A 
ATOM     62  C   UNL A   1      49.174  27.091  26.890  1.00  0.00     0.041 A 
ATOM     63  F   UNL A   1      47.925  27.560  28.817  1.00  0.00    -0.206 F 
ATOM     64  C   UNL A   1      49.295  27.078  25.505  1.00  0.00     0.022 A 
BRANCH  61  65
ATOM     65  S   UNL A   1      48.424  27.469  22.919  1.00  0.00     0.124 S 
ATOM     66  O   UNL A   1      47.249  28.205  22.457  1.00  0.00    -0.237 OA
ATOM     67  O   UNL A   1      49.705  28.123  22.672  1.00  0.00    -0.237 OA
ATOM     68  O   UNL A   1      48.390  26.032  22.676  1.00  0.00    -0.744 OA
ENDBRANCH  61  65
ENDBRANCH  44  58
BRANCH  45  69
ATOM     69  C   UNL A   1      38.303  30.686  31.041  1.00  0.00     0.023 A 
ATOM     70  C   UNL A   1      37.290  31.282  30.269  1.00  0.00     0.031 A 
ATOM     71  C   UNL A   1      38.088  30.560  32.425  1.00  0.00     0.131 A 
ATOM     72  C   UNL A   1      36.144  31.792  30.895  1.00  0.00     0.055 A 
ATOM     73  C   UNL A   1      36.912  31.002  33.034  1.00  0.00     0.041 A 
ATOM     74  F   UNL A   1      39.031  30.015  33.209  1.00  0.00    -0.206 F 
ATOM     75  C   UNL A   1      35.940  31.639  32.270  1.00  0.00     0.022 A 
BRANCH  72  76
ATOM     76  S   UNL A   1      34.948  32.799  29.972  1.00  0.00     0.124 S 
ATOM     77  O   UNL A   1      34.035  33.227  31.024  1.00  0.00    -0.237 OA
ATOM     78  O   UNL A   1      35.805  33.844  29.415  1.00  0.00    -0.237 OA
ATOM     79  O   UNL A   1      34.396  31.866  28.995  1.00  0.00    -0.744 OA
ENDBRANCH  72  76
ENDBRANCH  45  69
BRANCH  57  80
ATOM     80  C   UNL A   1      44.210  34.184  29.476  1.00  0.00     0.023 A 
ATOM     81  C   UNL A   1      43.853  35.160  28.525  1.00  0.00     0.031 A 
ATOM     82  C   UNL A   1      45.138  34.535  30.472  1.00  0.00     0.131 A 
ATOM     83  C   UNL A   1      44.458  36.422  28.559  1.00  0.00     0.055 A 
ATOM     84  C   UNL A   1      45.697  35.811  30.534  1.00  0.00     0.041 A 
ATOM     85  F   UNL A   1      45.524  33.634  31.391  1.00  0.00    -0.206 F 
ATOM     86  C   UNL A   1      45.371  36.756  29.563  1.00  0.00     0.022 A 
BRANCH  83  87
ATOM     87  S   UNL A   1      44.166  37.635  27.242  1.00  0.00     0.124 S 
ATOM     88  O   UNL A   1      45.434  37.603  26.516  1.00  0.00    -0.237 OA
ATOM     89  O   UNL A   1      43.028  37.054  26.535  1.00  0.00    -0.237 OA
ATOM     90  O   UNL A   1      43.893  38.877  27.959  1.00  0.00    -0.744 OA
ENDBRANCH  83  87
ENDBRANCH  57  80
ENDBRANCH  31  32
ENDBRANCH  24  26
ENDBRANCH  23  24
ENDBRANCH   1  23
TORSDOF 16
ENDMDL
