MODEL 1
REMARK VINA RESULT:     -12.3      0.000      0.000
REMARK SMILES Cc1nn([C@H]2CCS(=O)(=O)C2)c(C)c1/C=C(\CC(=O)OCCOC(=O)c1ccc(-c2c3nc(c(-c4cc(S(=O)(=O)[O-])ccc4F)c4ccc([nH]4)c(-c4cc(S(=O)(=O)[O-])ccc4F)c4nc(c(-c5cc(S(=O)(=O)[O-])ccc5F)c5ccc2[nH]5)C=C4)C=C3)cc1)c1nc2ccccc2s1
REMARK SMILES IDX 21 1 20 2 18 3 19 4 17 5 16 6 15 7 14 8 1 9 2 10 3 11 4 12
REMARK SMILES IDX 12 13 13 14 5 15 6 16 11 17 7 18 8 19 9 20 10 21 89 22 90 23
REMARK SMILES IDX 97 24 91 25 96 26 92 27 95 28 93 29 94 30 22 31 23 32 24 33
REMARK SMILES IDX 25 34 26 35 27 36 88 37 28 38 87 39 29 40 30 41 31 42 81 43
REMARK SMILES IDX 32 44 86 45 80 46 82 47 33 48 85 49 79 50 78 51 34 53 66 54
REMARK SMILES IDX 46 55 65 56 47 57 50 58 64 59 83 60 48 61 49 62 63 64 84 65
REMARK SMILES IDX 51 66 35 67 36 68 44 69 37 70 43 71 45 72 42 73 38 74 39 75
REMARK SMILES IDX 40 76 41 77 67 78 68 79 76 80 69 81 75 82 77 83 74 84 70 85
REMARK SMILES IDX 71 86 72 87 73 88 52 89 53 90 61 91 54 92 60 93 62 94 59 95
REMARK SMILES IDX 55 96 56 97 57 98 58 99
REMARK H PARENT 82 52 50 63
REMARK Flexibility Score: inf
ROOT
ATOM      1  C   UNL A   1      38.104  22.779  25.814  1.00  0.00     0.274 C 
ENDROOT
BRANCH   1   2
ATOM      2  O   UNL A   1      36.733  23.084  26.145  1.00  0.00    -0.462 OA
BRANCH   2   3
ATOM      3  C   UNL A   1      36.116  23.807  25.191  1.00  0.00     0.310 C 
ATOM      4  O   UNL A   1      36.348  23.682  23.981  1.00  0.00    -0.252 OA
BRANCH   3   5
ATOM      5  C   UNL A   1      35.071  24.821  25.629  1.00  0.00     0.161 C 
BRANCH   5   6
ATOM      6  C   UNL A   1      33.563  25.049  25.442  1.00  0.00    -0.000 C 
ATOM      7  C   UNL A   1      32.732  23.969  25.484  1.00  0.00     0.019 C 
BRANCH   7   8
ATOM      8  C   UNL A   1      33.194  22.618  25.620  1.00  0.00     0.019 A 
ATOM      9  C   UNL A   1      33.619  22.445  28.165  1.00  0.00     0.069 C 
ATOM     10  C   UNL A   1      33.422  21.885  26.804  1.00  0.00     0.067 A 
ATOM     11  N   UNL A   1      33.403  20.560  26.560  1.00  0.00    -0.177 NA
ATOM     12  N   UNL A   1      33.244  20.487  25.219  1.00  0.00    -0.265 N 
ATOM     13  C   UNL A   1      33.419  21.708  24.600  1.00  0.00     0.043 A 
ATOM     14  C   UNL A   1      33.540  21.871  23.119  1.00  0.00     0.067 C 
BRANCH  12  15
ATOM     15  C   UNL A   1      32.972  19.254  24.520  1.00  0.00     0.123 C 
ATOM     16  C   UNL A   1      32.408  19.289  23.091  1.00  0.00     0.044 C 
ATOM     17  C   UNL A   1      34.181  18.316  24.376  1.00  0.00     0.164 C 
ATOM     18  C   UNL A   1      32.170  17.812  22.739  1.00  0.00     0.139 C 
ATOM     19  S   UNL A   1      33.416  16.890  23.639  1.00  0.00     0.152 S 
ATOM     20  O   UNL A   1      32.750  16.149  24.694  1.00  0.00    -0.229 OA
ATOM     21  O   UNL A   1      34.321  16.259  22.705  1.00  0.00    -0.229 OA
ENDBRANCH  12  15
ENDBRANCH   7   8
BRANCH   6  22
ATOM     22  C   UNL A   1      33.000  26.385  25.431  1.00  0.00     0.121 A 
ATOM     23  N   UNL A   1      33.171  27.226  26.421  1.00  0.00    -0.236 NA
ATOM     24  S   UNL A   1      31.890  26.997  24.222  1.00  0.00    -0.114 S 
ATOM     25  C   UNL A   1      32.425  28.367  26.261  1.00  0.00     0.082 A 
ATOM     26  C   UNL A   1      31.743  28.498  25.060  1.00  0.00     0.055 A 
ATOM     27  C   UNL A   1      32.273  29.380  27.210  1.00  0.00     0.030 A 
ATOM     28  C   UNL A   1      31.053  29.690  24.768  1.00  0.00     0.021 A 
ATOM     29  C   UNL A   1      31.955  30.658  26.794  1.00  0.00     0.002 A 
ATOM     30  C   UNL A   1      31.272  30.798  25.604  1.00  0.00     0.002 A 
ENDBRANCH   6  22
ENDBRANCH   5   6
ENDBRANCH   3   5
ENDBRANCH   2   3
ENDBRANCH   1   2
BRANCH   1  31
ATOM     31  C   UNL A   1      38.413  21.296  26.044  1.00  0.00     0.275 C 
BRANCH  31  32
ATOM     32  O   UNL A   1      39.348  20.689  25.128  1.00  0.00    -0.458 OA
BRANCH  32  33
ATOM     33  C   UNL A   1      40.402  20.088  25.727  1.00  0.00     0.338 C 
ATOM     34  O   UNL A   1      40.536  18.912  25.939  1.00  0.00    -0.246 OA
BRANCH  33  35
ATOM     35  C   UNL A   1      41.302  20.974  26.446  1.00  0.00     0.060 A 
ATOM     36  C   UNL A   1      41.048  21.100  27.828  1.00  0.00     0.016 A 
ATOM     37  C   UNL A   1      41.973  21.946  25.717  1.00  0.00     0.016 A 
ATOM     38  C   UNL A   1      41.300  22.306  28.439  1.00  0.00     0.010 A 
ATOM     39  C   UNL A   1      42.208  23.153  26.327  1.00  0.00     0.010 A 
ATOM     40  C   UNL A   1      41.804  23.348  27.656  1.00  0.00    -0.014 A 
BRANCH  40  41
ATOM     41  C   UNL A   1      42.221  24.580  28.317  1.00  0.00     0.031 A 
ATOM     42  C   UNL A   1      41.268  25.655  27.949  1.00  0.00     0.074 A 
ATOM     43  C   UNL A   1      43.182  24.604  29.264  1.00  0.00     0.049 A 
ATOM     44  N   UNL A   1      41.487  26.699  27.219  1.00  0.00    -0.248 NA
ATOM     45  C   UNL A   1      39.825  25.351  28.119  1.00  0.00     0.031 C 
ATOM     46  C   UNL A   1      43.977  23.467  29.714  1.00  0.00     0.029 A 
ATOM     47  N   UNL A   1      43.595  25.592  30.109  1.00  0.00    -0.354 N 
ATOM     48  C   UNL A   1      40.247  27.328  27.168  1.00  0.00     0.074 A 
ATOM     49  C   UNL A   1      39.283  26.290  27.347  1.00  0.00     0.031 C 
ATOM     50  C   UNL A   1      44.626  23.769  30.857  1.00  0.00     0.029 A 
ATOM     51  C   UNL A   1      44.315  25.135  31.225  1.00  0.00     0.049 A 
ATOM     52  H   UNL A   1      43.405  26.545  29.950  1.00  0.00     0.167 HD
ATOM     53  C   UNL A   1      40.148  28.638  27.524  1.00  0.00     0.034 A 
ATOM     54  C   UNL A   1      44.532  25.792  32.407  1.00  0.00     0.034 A 
ATOM     55  C   UNL A   1      41.430  29.296  27.330  1.00  0.00     0.049 A 
ATOM     56  C   UNL A   1      44.275  27.230  32.128  1.00  0.00     0.074 A 
ATOM     57  C   UNL A   1      42.297  29.395  26.257  1.00  0.00     0.029 A 
ATOM     58  N   UNL A   1      42.181  29.606  28.445  1.00  0.00    -0.354 N 
ATOM     59  N   UNL A   1      45.026  27.943  31.332  1.00  0.00    -0.248 NA
ATOM     60  C   UNL A   1      42.900  27.695  32.265  1.00  0.00     0.031 C 
ATOM     61  C   UNL A   1      43.603  29.304  26.815  1.00  0.00     0.029 A 
ATOM     62  C   UNL A   1      43.494  29.286  28.207  1.00  0.00     0.049 A 
ATOM     63  H   UNL A   1      41.831  29.996  29.279  1.00  0.00     0.167 HD
ATOM     64  C   UNL A   1      44.133  28.640  30.531  1.00  0.00     0.074 A 
ATOM     65  C   UNL A   1      42.835  28.494  31.194  1.00  0.00     0.031 C 
ATOM     66  C   UNL A   1      44.464  28.993  29.252  1.00  0.00     0.034 A 
BRANCH  53  67
ATOM     67  C   UNL A   1      39.084  29.152  28.493  1.00  0.00     0.023 A 
ATOM     68  C   UNL A   1      39.344  28.935  29.853  1.00  0.00     0.031 A 
ATOM     69  C   UNL A   1      37.758  29.571  28.198  1.00  0.00     0.131 A 
ATOM     70  C   UNL A   1      38.309  28.965  30.803  1.00  0.00     0.055 A 
ATOM     71  C   UNL A   1      36.741  29.637  29.152  1.00  0.00     0.041 A 
ATOM     72  F   UNL A   1      37.329  29.909  26.979  1.00  0.00    -0.206 F 
ATOM     73  C   UNL A   1      37.004  29.295  30.462  1.00  0.00     0.022 A 
BRANCH  70  74
ATOM     74  S   UNL A   1      38.688  28.395  32.471  1.00  0.00     0.124 S 
ATOM     75  O   UNL A   1      39.250  27.077  32.196  1.00  0.00    -0.237 OA
ATOM     76  O   UNL A   1      39.627  29.416  32.924  1.00  0.00    -0.237 OA
ATOM     77  O   UNL A   1      37.386  28.402  33.132  1.00  0.00    -0.744 OA
ENDBRANCH  70  74
ENDBRANCH  53  67
BRANCH  54  78
ATOM     78  C   UNL A   1      44.594  25.213  33.796  1.00  0.00     0.023 A 
ATOM     79  C   UNL A   1      45.017  23.889  34.082  1.00  0.00     0.031 A 
ATOM     80  C   UNL A   1      44.440  26.062  34.919  1.00  0.00     0.131 A 
ATOM     81  C   UNL A   1      45.255  23.478  35.425  1.00  0.00     0.055 A 
ATOM     82  C   UNL A   1      44.673  25.651  36.234  1.00  0.00     0.041 A 
ATOM     83  F   UNL A   1      44.137  27.361  34.780  1.00  0.00    -0.206 F 
ATOM     84  C   UNL A   1      45.092  24.361  36.493  1.00  0.00     0.022 A 
BRANCH  81  85
ATOM     85  S   UNL A   1      45.866  21.799  35.819  1.00  0.00     0.124 S 
ATOM     86  O   UNL A   1      47.230  21.834  35.305  1.00  0.00    -0.237 OA
ATOM     87  O   UNL A   1      45.716  21.738  37.268  1.00  0.00    -0.237 OA
ATOM     88  O   UNL A   1      44.958  20.920  35.078  1.00  0.00    -0.744 OA
ENDBRANCH  81  85
ENDBRANCH  54  78
BRANCH  66  89
ATOM     89  C   UNL A   1      45.924  28.942  28.836  1.00  0.00     0.023 A 
ATOM     90  C   UNL A   1      46.605  27.820  28.305  1.00  0.00     0.031 A 
ATOM     91  C   UNL A   1      46.623  30.161  28.884  1.00  0.00     0.131 A 
ATOM     92  C   UNL A   1      47.937  27.953  27.854  1.00  0.00     0.055 A 
ATOM     93  C   UNL A   1      47.928  30.295  28.418  1.00  0.00     0.041 A 
ATOM     94  F   UNL A   1      46.027  31.268  29.357  1.00  0.00    -0.206 F 
ATOM     95  C   UNL A   1      48.594  29.188  27.907  1.00  0.00     0.022 A 
BRANCH  92  96
ATOM     96  S   UNL A   1      48.869  26.518  27.219  1.00  0.00     0.124 S 
ATOM     97  O   UNL A   1      47.951  25.908  26.265  1.00  0.00    -0.237 OA
ATOM     98  O   UNL A   1      50.061  27.138  26.645  1.00  0.00    -0.237 OA
ATOM     99  O   UNL A   1      49.121  25.718  28.419  1.00  0.00    -0.744 OA
ENDBRANCH  92  96
ENDBRANCH  66  89
ENDBRANCH  40  41
ENDBRANCH  33  35
ENDBRANCH  32  33
ENDBRANCH  31  32
ENDBRANCH   1  31
TORSDOF 18
ENDMDL
MODEL 2
REMARK VINA RESULT:     -12.3      1.751      2.104
REMARK SMILES Cc1nn([C@H]2CCS(=O)(=O)C2)c(C)c1/C=C(\CC(=O)OCCOC(=O)c1ccc(-c2c3nc(c(-c4cc(S(=O)(=O)[O-])ccc4F)c4ccc([nH]4)c(-c4cc(S(=O)(=O)[O-])ccc4F)c4nc(c(-c5cc(S(=O)(=O)[O-])ccc5F)c5ccc2[nH]5)C=C4)C=C3)cc1)c1nc2ccccc2s1
REMARK SMILES IDX 21 1 20 2 18 3 19 4 17 5 16 6 15 7 14 8 1 9 2 10 3 11 4 12
REMARK SMILES IDX 12 13 13 14 5 15 6 16 11 17 7 18 8 19 9 20 10 21 89 22 90 23
REMARK SMILES IDX 97 24 91 25 96 26 92 27 95 28 93 29 94 30 22 31 23 32 24 33
REMARK SMILES IDX 25 34 26 35 27 36 88 37 28 38 87 39 29 40 30 41 31 42 81 43
REMARK SMILES IDX 32 44 86 45 80 46 82 47 33 48 85 49 79 50 78 51 34 53 66 54
REMARK SMILES IDX 46 55 65 56 47 57 50 58 64 59 83 60 48 61 49 62 63 64 84 65
REMARK SMILES IDX 51 66 35 67 36 68 44 69 37 70 43 71 45 72 42 73 38 74 39 75
REMARK SMILES IDX 40 76 41 77 67 78 68 79 76 80 69 81 75 82 77 83 74 84 70 85
REMARK SMILES IDX 71 86 72 87 73 88 52 89 53 90 61 91 54 92 60 93 62 94 59 95
REMARK SMILES IDX 55 96 56 97 57 98 58 99
REMARK H PARENT 82 52 50 63
REMARK Flexibility Score: inf
ROOT
ATOM      1  C   UNL A   1      38.034  22.599  25.728  1.00  0.00     0.274 C 
ENDROOT
BRANCH   1   2
ATOM      2  O   UNL A   1      36.727  23.064  26.126  1.00  0.00    -0.462 OA
BRANCH   2   3
ATOM      3  C   UNL A   1      36.125  23.801  25.173  1.00  0.00     0.310 C 
ATOM      4  O   UNL A   1      36.371  23.689  23.964  1.00  0.00    -0.252 OA
BRANCH   3   5
ATOM      5  C   UNL A   1      35.080  24.816  25.610  1.00  0.00     0.161 C 
BRANCH   5   6
ATOM      6  C   UNL A   1      33.571  25.039  25.429  1.00  0.00    -0.000 C 
ATOM      7  C   UNL A   1      32.742  23.958  25.480  1.00  0.00     0.019 C 
BRANCH   7   8
ATOM      8  C   UNL A   1      33.207  22.609  25.623  1.00  0.00     0.019 A 
ATOM      9  C   UNL A   1      33.656  22.456  28.165  1.00  0.00     0.069 C 
ATOM     10  C   UNL A   1      33.447  21.886  26.810  1.00  0.00     0.067 A 
ATOM     11  N   UNL A   1      33.428  20.558  26.576  1.00  0.00    -0.177 NA
ATOM     12  N   UNL A   1      33.256  20.476  25.238  1.00  0.00    -0.265 N 
ATOM     13  C   UNL A   1      33.424  21.692  24.608  1.00  0.00     0.043 A 
ATOM     14  C   UNL A   1      33.531  21.844  23.124  1.00  0.00     0.067 C 
BRANCH  12  15
ATOM     15  C   UNL A   1      32.979  19.237  24.550  1.00  0.00     0.123 C 
ATOM     16  C   UNL A   1      32.361  19.260  23.144  1.00  0.00     0.044 C 
ATOM     17  C   UNL A   1      34.198  18.319  24.362  1.00  0.00     0.164 C 
ATOM     18  C   UNL A   1      32.136  17.778  22.802  1.00  0.00     0.139 C 
ATOM     19  S   UNL A   1      33.431  16.879  23.655  1.00  0.00     0.152 S 
ATOM     20  O   UNL A   1      32.819  16.128  24.736  1.00  0.00    -0.229 OA
ATOM     21  O   UNL A   1      34.311  16.263  22.688  1.00  0.00    -0.229 OA
ENDBRANCH  12  15
ENDBRANCH   7   8
BRANCH   6  22
ATOM     22  C   UNL A   1      33.005  26.374  25.412  1.00  0.00     0.121 A 
ATOM     23  N   UNL A   1      32.068  26.729  24.569  1.00  0.00    -0.236 NA
ATOM     24  S   UNL A   1      33.593  27.726  26.359  1.00  0.00    -0.114 S 
ATOM     25  C   UNL A   1      31.796  28.072  24.635  1.00  0.00     0.082 A 
ATOM     26  C   UNL A   1      32.437  28.785  25.639  1.00  0.00     0.055 A 
ATOM     27  C   UNL A   1      30.962  28.778  23.765  1.00  0.00     0.030 A 
ATOM     28  C   UNL A   1      32.123  30.140  25.850  1.00  0.00     0.021 A 
ATOM     29  C   UNL A   1      30.367  29.948  24.195  1.00  0.00     0.002 A 
ATOM     30  C   UNL A   1      30.999  30.666  25.189  1.00  0.00     0.002 A 
ENDBRANCH   6  22
ENDBRANCH   5   6
ENDBRANCH   3   5
ENDBRANCH   2   3
ENDBRANCH   1   2
BRANCH   1  31
ATOM     31  C   UNL A   1      38.179  21.091  25.958  1.00  0.00     0.275 C 
BRANCH  31  32
ATOM     32  O   UNL A   1      39.068  20.392  25.062  1.00  0.00    -0.458 OA
BRANCH  32  33
ATOM     33  C   UNL A   1      40.146  19.841  25.667  1.00  0.00     0.338 C 
ATOM     34  O   UNL A   1      40.305  18.680  25.938  1.00  0.00    -0.246 OA
BRANCH  33  35
ATOM     35  C   UNL A   1      41.046  20.779  26.317  1.00  0.00     0.060 A 
ATOM     36  C   UNL A   1      40.825  20.971  27.696  1.00  0.00     0.016 A 
ATOM     37  C   UNL A   1      41.681  21.724  25.522  1.00  0.00     0.016 A 
ATOM     38  C   UNL A   1      41.069  22.210  28.239  1.00  0.00     0.010 A 
ATOM     39  C   UNL A   1      41.907  22.965  26.064  1.00  0.00     0.010 A 
ATOM     40  C   UNL A   1      41.533  23.221  27.392  1.00  0.00    -0.014 A 
BRANCH  40  41
ATOM     41  C   UNL A   1      41.943  24.491  27.978  1.00  0.00     0.031 A 
ATOM     42  C   UNL A   1      40.780  25.412  27.960  1.00  0.00     0.074 A 
ATOM     43  C   UNL A   1      43.123  24.650  28.612  1.00  0.00     0.049 A 
ATOM     44  N   UNL A   1      40.626  26.489  27.261  1.00  0.00    -0.248 NA
ATOM     45  C   UNL A   1      39.508  24.886  28.516  1.00  0.00     0.031 C 
ATOM     46  C   UNL A   1      44.169  23.641  28.750  1.00  0.00     0.029 A 
ATOM     47  N   UNL A   1      43.617  25.676  29.361  1.00  0.00    -0.354 N 
ATOM     48  C   UNL A   1      39.348  26.919  27.602  1.00  0.00     0.074 A 
ATOM     49  C   UNL A   1      38.636  25.742  27.987  1.00  0.00     0.031 C 
ATOM     50  C   UNL A   1      45.071  24.023  29.676  1.00  0.00     0.029 A 
ATOM     51  C   UNL A   1      44.688  25.319  30.198  1.00  0.00     0.049 A 
ATOM     52  H   UNL A   1      43.255  26.591  29.320  1.00  0.00     0.167 HD
ATOM     53  C   UNL A   1      39.170  28.192  28.049  1.00  0.00     0.034 A 
ATOM     54  C   UNL A   1      45.142  25.983  31.306  1.00  0.00     0.034 A 
ATOM     55  C   UNL A   1      40.232  29.043  27.538  1.00  0.00     0.049 A 
ATOM     56  C   UNL A   1      44.612  27.368  31.198  1.00  0.00     0.074 A 
ATOM     57  C   UNL A   1      40.726  29.292  26.270  1.00  0.00     0.029 A 
ATOM     58  N   UNL A   1      41.221  29.449  28.409  1.00  0.00    -0.354 N 
ATOM     59  N   UNL A   1      44.989  28.201  30.264  1.00  0.00    -0.248 NA
ATOM     60  C   UNL A   1      43.284  27.613  31.746  1.00  0.00     0.031 C 
ATOM     61  C   UNL A   1      42.137  29.394  26.428  1.00  0.00     0.029 A 
ATOM     62  C   UNL A   1      42.441  29.338  27.789  1.00  0.00     0.049 A 
ATOM     63  H   UNL A   1      41.076  29.767  29.330  1.00  0.00     0.167 HD
ATOM     64  C   UNL A   1      43.812  28.764  29.793  1.00  0.00     0.074 A 
ATOM     65  C   UNL A   1      42.798  28.409  30.787  1.00  0.00     0.031 C 
ATOM     66  C   UNL A   1      43.703  29.183  28.496  1.00  0.00     0.034 A 
BRANCH  53  67
ATOM     67  C   UNL A   1      38.370  28.521  29.309  1.00  0.00     0.023 A 
ATOM     68  C   UNL A   1      37.470  29.590  29.196  1.00  0.00     0.031 A 
ATOM     69  C   UNL A   1      38.604  28.076  30.638  1.00  0.00     0.131 A 
ATOM     70  C   UNL A   1      36.993  30.261  30.335  1.00  0.00     0.055 A 
ATOM     71  C   UNL A   1      38.097  28.723  31.768  1.00  0.00     0.041 A 
ATOM     72  F   UNL A   1      39.360  27.023  30.957  1.00  0.00    -0.206 F 
ATOM     73  C   UNL A   1      37.315  29.849  31.622  1.00  0.00     0.022 A 
BRANCH  70  74
ATOM     74  S   UNL A   1      36.075  31.792  30.081  1.00  0.00     0.124 S 
ATOM     75  O   UNL A   1      35.005  31.336  29.202  1.00  0.00    -0.237 OA
ATOM     76  O   UNL A   1      35.690  32.133  31.446  1.00  0.00    -0.237 OA
ATOM     77  O   UNL A   1      37.063  32.677  29.469  1.00  0.00    -0.744 OA
ENDBRANCH  70  74
ENDBRANCH  53  67
BRANCH  54  78
ATOM     78  C   UNL A   1      45.686  25.400  32.583  1.00  0.00     0.023 A 
ATOM     79  C   UNL A   1      44.966  24.499  33.411  1.00  0.00     0.031 A 
ATOM     80  C   UNL A   1      47.057  25.558  32.901  1.00  0.00     0.131 A 
ATOM     81  C   UNL A   1      45.615  23.823  34.483  1.00  0.00     0.055 A 
ATOM     82  C   UNL A   1      47.687  24.894  33.957  1.00  0.00     0.041 A 
ATOM     83  F   UNL A   1      47.871  26.306  32.141  1.00  0.00    -0.206 F 
ATOM     84  C   UNL A   1      46.972  24.015  34.747  1.00  0.00     0.022 A 
BRANCH  81  85
ATOM     85  S   UNL A   1      44.729  22.606  35.524  1.00  0.00     0.124 S 
ATOM     86  O   UNL A   1      43.363  23.114  35.504  1.00  0.00    -0.237 OA
ATOM     87  O   UNL A   1      44.970  21.351  34.820  1.00  0.00    -0.237 OA
ATOM     88  O   UNL A   1      45.400  22.712  36.822  1.00  0.00    -0.744 OA
ENDBRANCH  81  85
ENDBRANCH  54  78
BRANCH  66  89
ATOM     89  C   UNL A   1      44.971  29.365  27.679  1.00  0.00     0.023 A 
ATOM     90  C   UNL A   1      45.399  28.548  26.604  1.00  0.00     0.031 A 
ATOM     91  C   UNL A   1      45.725  30.519  27.956  1.00  0.00     0.131 A 
ATOM     92  C   UNL A   1      46.546  28.907  25.861  1.00  0.00     0.055 A 
ATOM     93  C   UNL A   1      46.842  30.882  27.207  1.00  0.00     0.041 A 
ATOM     94  F   UNL A   1      45.360  31.346  28.949  1.00  0.00    -0.206 F 
ATOM     95  C   UNL A   1      47.261  30.072  26.160  1.00  0.00     0.022 A 
BRANCH  92  96
ATOM     96  S   UNL A   1      47.164  27.851  24.506  1.00  0.00     0.124 S 
ATOM     97  O   UNL A   1      46.440  26.600  24.689  1.00  0.00    -0.237 OA
ATOM     98  O   UNL A   1      46.811  28.619  23.315  1.00  0.00    -0.237 OA
ATOM     99  O   UNL A   1      48.602  27.768  24.769  1.00  0.00    -0.744 OA
ENDBRANCH  92  96
ENDBRANCH  66  89
ENDBRANCH  40  41
ENDBRANCH  33  35
ENDBRANCH  32  33
ENDBRANCH  31  32
ENDBRANCH   1  31
TORSDOF 18
ENDMDL
MODEL 3
REMARK VINA RESULT:     -12.1      1.983      2.265
REMARK SMILES Cc1nn([C@H]2CCS(=O)(=O)C2)c(C)c1/C=C(\CC(=O)OCCOC(=O)c1ccc(-c2c3nc(c(-c4cc(S(=O)(=O)[O-])ccc4F)c4ccc([nH]4)c(-c4cc(S(=O)(=O)[O-])ccc4F)c4nc(c(-c5cc(S(=O)(=O)[O-])ccc5F)c5ccc2[nH]5)C=C4)C=C3)cc1)c1nc2ccccc2s1
REMARK SMILES IDX 21 1 20 2 18 3 19 4 17 5 16 6 15 7 14 8 1 9 2 10 3 11 4 12
REMARK SMILES IDX 12 13 13 14 5 15 6 16 11 17 7 18 8 19 9 20 10 21 89 22 90 23
REMARK SMILES IDX 97 24 91 25 96 26 92 27 95 28 93 29 94 30 22 31 23 32 24 33
REMARK SMILES IDX 25 34 26 35 27 36 88 37 28 38 87 39 29 40 30 41 31 42 81 43
REMARK SMILES IDX 32 44 86 45 80 46 82 47 33 48 85 49 79 50 78 51 34 53 66 54
REMARK SMILES IDX 46 55 65 56 47 57 50 58 64 59 83 60 48 61 49 62 63 64 84 65
REMARK SMILES IDX 51 66 35 67 36 68 44 69 37 70 43 71 45 72 42 73 38 74 39 75
REMARK SMILES IDX 40 76 41 77 67 78 68 79 76 80 69 81 75 82 77 83 74 84 70 85
REMARK SMILES IDX 71 86 72 87 73 88 52 89 53 90 61 91 54 92 60 93 62 94 59 95
REMARK SMILES IDX 55 96 56 97 57 98 58 99
REMARK H PARENT 82 52 50 63
REMARK Flexibility Score: inf
ROOT
ATOM      1  C   UNL A   1      38.092  22.750  25.835  1.00  0.00     0.274 C 
ENDROOT
BRANCH   1   2
ATOM      2  O   UNL A   1      36.791  23.200  26.268  1.00  0.00    -0.462 OA
BRANCH   2   3
ATOM      3  C   UNL A   1      36.116  23.847  25.298  1.00  0.00     0.310 C 
ATOM      4  O   UNL A   1      36.314  23.668  24.090  1.00  0.00    -0.252 OA
BRANCH   3   5
ATOM      5  C   UNL A   1      35.044  24.842  25.717  1.00  0.00     0.161 C 
BRANCH   5   6
ATOM      6  C   UNL A   1      33.545  25.066  25.469  1.00  0.00    -0.000 C 
ATOM      7  C   UNL A   1      32.716  23.983  25.468  1.00  0.00     0.019 C 
BRANCH   7   8
ATOM      8  C   UNL A   1      33.177  22.633  25.615  1.00  0.00     0.019 A 
ATOM      9  C   UNL A   1      33.579  22.472  28.164  1.00  0.00     0.069 C 
ATOM     10  C   UNL A   1      33.394  21.906  26.805  1.00  0.00     0.067 A 
ATOM     11  N   UNL A   1      33.378  20.579  26.567  1.00  0.00    -0.177 NA
ATOM     12  N   UNL A   1      33.230  20.501  25.225  1.00  0.00    -0.265 N 
ATOM     13  C   UNL A   1      33.411  21.719  24.602  1.00  0.00     0.043 A 
ATOM     14  C   UNL A   1      33.545  21.875  23.121  1.00  0.00     0.067 C 
BRANCH  12  15
ATOM     15  C   UNL A   1      32.964  19.265  24.529  1.00  0.00     0.123 C 
ATOM     16  C   UNL A   1      32.386  19.293  23.105  1.00  0.00     0.044 C 
ATOM     17  C   UNL A   1      34.181  18.338  24.374  1.00  0.00     0.164 C 
ATOM     18  C   UNL A   1      32.159  17.813  22.756  1.00  0.00     0.139 C 
ATOM     19  S   UNL A   1      33.424  16.904  23.645  1.00  0.00     0.152 S 
ATOM     20  O   UNL A   1      32.776  16.157  24.707  1.00  0.00    -0.229 OA
ATOM     21  O   UNL A   1      34.327  16.282  22.703  1.00  0.00    -0.229 OA
ENDBRANCH  12  15
ENDBRANCH   7   8
BRANCH   6  22
ATOM     22  C   UNL A   1      32.978  26.401  25.443  1.00  0.00     0.121 A 
ATOM     23  N   UNL A   1      33.140  27.251  26.427  1.00  0.00    -0.236 NA
ATOM     24  S   UNL A   1      31.874  26.999  24.222  1.00  0.00    -0.114 S 
ATOM     25  C   UNL A   1      32.393  28.388  26.253  1.00  0.00     0.082 A 
ATOM     26  C   UNL A   1      31.717  28.507  25.046  1.00  0.00     0.055 A 
ATOM     27  C   UNL A   1      32.232  29.409  27.192  1.00  0.00     0.030 A 
ATOM     28  C   UNL A   1      31.026  29.694  24.740  1.00  0.00     0.021 A 
ATOM     29  C   UNL A   1      31.913  30.682  26.763  1.00  0.00     0.002 A 
ATOM     30  C   UNL A   1      31.237  30.811  25.568  1.00  0.00     0.002 A 
ENDBRANCH   6  22
ENDBRANCH   5   6
ENDBRANCH   3   5
ENDBRANCH   2   3
ENDBRANCH   1   2
BRANCH   1  31
ATOM     31  C   UNL A   1      38.152  21.221  25.762  1.00  0.00     0.275 C 
BRANCH  31  32
ATOM     32  O   UNL A   1      39.201  20.662  24.944  1.00  0.00    -0.458 OA
BRANCH  32  33
ATOM     33  C   UNL A   1      40.158  20.005  25.640  1.00  0.00     0.338 C 
ATOM     34  O   UNL A   1      40.163  18.838  25.931  1.00  0.00    -0.246 OA
BRANCH  33  35
ATOM     35  C   UNL A   1      41.101  20.847  26.355  1.00  0.00     0.060 A 
ATOM     36  C   UNL A   1      40.900  20.931  27.748  1.00  0.00     0.016 A 
ATOM     37  C   UNL A   1      41.767  21.830  25.635  1.00  0.00     0.016 A 
ATOM     38  C   UNL A   1      41.200  22.109  28.391  1.00  0.00     0.010 A 
ATOM     39  C   UNL A   1      42.049  23.010  26.276  1.00  0.00     0.010 A 
ATOM     40  C   UNL A   1      41.697  23.168  27.625  1.00  0.00    -0.014 A 
BRANCH  40  41
ATOM     41  C   UNL A   1      42.164  24.367  28.311  1.00  0.00     0.031 A 
ATOM     42  C   UNL A   1      41.187  25.456  28.070  1.00  0.00     0.074 A 
ATOM     43  C   UNL A   1      43.195  24.349  29.182  1.00  0.00     0.049 A 
ATOM     44  N   UNL A   1      41.350  26.535  27.377  1.00  0.00    -0.248 NA
ATOM     45  C   UNL A   1      39.761  25.139  28.334  1.00  0.00     0.031 C 
ATOM     46  C   UNL A   1      44.021  23.193  29.515  1.00  0.00     0.029 A 
ATOM     47  N   UNL A   1      43.671  25.296  30.040  1.00  0.00    -0.354 N 
ATOM     48  C   UNL A   1      40.110  27.161  27.451  1.00  0.00     0.074 A 
ATOM     49  C   UNL A   1      39.162  26.113  27.652  1.00  0.00     0.031 C 
ATOM     50  C   UNL A   1      44.756  23.442  30.618  1.00  0.00     0.029 A 
ATOM     51  C   UNL A   1      44.474  24.788  31.074  1.00  0.00     0.049 A 
ATOM     52  H   UNL A   1      43.471  26.255  29.942  1.00  0.00     0.167 HD
ATOM     53  C   UNL A   1      40.039  28.452  27.877  1.00  0.00     0.034 A 
ATOM     54  C   UNL A   1      44.781  25.387  32.267  1.00  0.00     0.034 A 
ATOM     55  C   UNL A   1      41.303  29.123  27.618  1.00  0.00     0.049 A 
ATOM     56  C   UNL A   1      44.504  26.836  32.079  1.00  0.00     0.074 A 
ATOM     57  C   UNL A   1      42.085  29.277  26.488  1.00  0.00     0.029 A 
ATOM     58  N   UNL A   1      42.137  29.381  28.686  1.00  0.00    -0.354 N 
ATOM     59  N   UNL A   1      45.193  27.589  31.264  1.00  0.00    -0.248 NA
ATOM     60  C   UNL A   1      43.144  27.289  32.342  1.00  0.00     0.031 C 
ATOM     61  C   UNL A   1      43.430  29.163  26.940  1.00  0.00     0.029 A 
ATOM     62  C   UNL A   1      43.428  29.077  28.333  1.00  0.00     0.049 A 
ATOM     63  H   UNL A   1      41.852  29.729  29.562  1.00  0.00     0.167 HD
ATOM     64  C   UNL A   1      44.241  28.322  30.568  1.00  0.00     0.074 A 
ATOM     65  C   UNL A   1      42.998  28.139  31.319  1.00  0.00     0.031 C 
ATOM     66  C   UNL A   1      44.474  28.737  29.286  1.00  0.00     0.034 A 
BRANCH  53  67
ATOM     67  C   UNL A   1      39.052  28.915  28.947  1.00  0.00     0.023 A 
ATOM     68  C   UNL A   1      38.256  30.017  28.605  1.00  0.00     0.031 A 
ATOM     69  C   UNL A   1      39.019  28.560  30.323  1.00  0.00     0.131 A 
ATOM     70  C   UNL A   1      37.629  30.795  29.593  1.00  0.00     0.055 A 
ATOM     71  C   UNL A   1      38.362  29.314  31.298  1.00  0.00     0.041 A 
ATOM     72  F   UNL A   1      39.638  27.496  30.841  1.00  0.00    -0.206 F 
ATOM     73  C   UNL A   1      37.692  30.465  30.941  1.00  0.00     0.022 A 
BRANCH  70  74
ATOM     74  S   UNL A   1      36.871  32.348  29.079  1.00  0.00     0.124 S 
ATOM     75  O   UNL A   1      36.117  31.918  27.907  1.00  0.00    -0.237 OA
ATOM     76  O   UNL A   1      36.089  32.697  30.260  1.00  0.00    -0.237 OA
ATOM     77  O   UNL A   1      38.020  33.209  28.811  1.00  0.00    -0.744 OA
ENDBRANCH  70  74
ENDBRANCH  53  67
BRANCH  54  78
ATOM     78  C   UNL A   1      44.948  24.742  33.618  1.00  0.00     0.023 A 
ATOM     79  C   UNL A   1      45.850  25.208  34.609  1.00  0.00     0.031 A 
ATOM     80  C   UNL A   1      44.028  23.754  34.045  1.00  0.00     0.131 A 
ATOM     81  C   UNL A   1      45.805  24.687  35.934  1.00  0.00     0.055 A 
ATOM     82  C   UNL A   1      43.991  23.244  35.346  1.00  0.00     0.041 A 
ATOM     83  F   UNL A   1      43.063  23.298  33.233  1.00  0.00    -0.206 F 
ATOM     84  C   UNL A   1      44.871  23.716  36.299  1.00  0.00     0.022 A 
BRANCH  81  85
ATOM     85  S   UNL A   1      46.909  25.317  37.250  1.00  0.00     0.124 S 
ATOM     86  O   UNL A   1      46.627  24.408  38.355  1.00  0.00    -0.237 OA
ATOM     87  O   UNL A   1      48.228  25.209  36.637  1.00  0.00    -0.237 OA
ATOM     88  O   UNL A   1      46.447  26.691  37.458  1.00  0.00    -0.744 OA
ENDBRANCH  81  85
ENDBRANCH  54  78
BRANCH  66  89
ATOM     89  C   UNL A   1      45.898  28.711  28.757  1.00  0.00     0.023 A 
ATOM     90  C   UNL A   1      46.876  29.720  28.937  1.00  0.00     0.031 A 
ATOM     91  C   UNL A   1      46.303  27.520  28.129  1.00  0.00     0.131 A 
ATOM     92  C   UNL A   1      48.197  29.506  28.485  1.00  0.00     0.055 A 
ATOM     93  C   UNL A   1      47.611  27.304  27.705  1.00  0.00     0.041 A 
ATOM     94  F   UNL A   1      45.428  26.517  27.948  1.00  0.00    -0.206 F 
ATOM     95  C   UNL A   1      48.564  28.301  27.875  1.00  0.00     0.022 A 
BRANCH  92  96
ATOM     96  S   UNL A   1      49.472  30.803  28.643  1.00  0.00     0.124 S 
ATOM     97  O   UNL A   1      49.840  31.093  27.264  1.00  0.00    -0.237 OA
ATOM     98  O   UNL A   1      48.761  31.867  29.347  1.00  0.00    -0.237 OA
ATOM     99  O   UNL A   1      50.522  30.153  29.431  1.00  0.00    -0.744 OA
ENDBRANCH  92  96
ENDBRANCH  66  89
ENDBRANCH  40  41
ENDBRANCH  33  35
ENDBRANCH  32  33
ENDBRANCH  31  32
ENDBRANCH   1  31
TORSDOF 18
ENDMDL
